MODEL 1
REMARK VINA RESULT:     -11.3      0.000      0.000
REMARK SMILES COC(=O)Cc1nc(NC(=O)[C@H]2CC[C@@H]2C(=O)OCCOC(=O)c2ccc(-c3c4nc(c(-c5cc(S(=O)(=O)[O-])ccc5F)c5ccc([nH]5)c(-c5cc(S(=O)(=O)[O-])ccc5F)c5nc(c(-c6cc(S(=O)(=O)[O-])ccc6F)c6ccc3[nH]6)C=C5)C=C4)cc2)sc1C
REMARK SMILES IDX 19 1 18 2 16 3 17 4 15 5 12 6 13 7 14 8 10 9 9 10 11 12 8 13
REMARK SMILES IDX 6 14 7 15 88 16 87 17 89 18 5 19 3 20 4 21 2 22 1 23 20 24
REMARK SMILES IDX 21 25 22 26 23 27 24 28 25 29 86 30 26 31 85 32 27 33 28 34
REMARK SMILES IDX 29 35 79 36 30 37 84 38 78 39 80 40 31 41 83 42 77 43 76 44
REMARK SMILES IDX 32 46 64 47 44 48 63 49 45 50 48 51 62 52 81 53 46 54 47 55
REMARK SMILES IDX 61 57 82 58 49 59 33 60 34 61 42 62 35 63 41 64 43 65 40 66
REMARK SMILES IDX 36 67 37 68 38 69 39 70 65 71 66 72 74 73 67 74 73 75 75 76
REMARK SMILES IDX 72 77 68 78 69 79 70 80 71 81 50 82 51 83 59 84 52 85 58 86
REMARK SMILES IDX 60 87 57 88 53 89 54 90 55 91 56 92
REMARK H PARENT 9 11 80 45 48 56
REMARK Flexibility Score: inf
ROOT
ATOM      1  C   UNL A   1      33.665  28.481  24.566  1.00  0.00     0.274 C 
ENDROOT
BRANCH   1   2
ATOM      2  O   UNL A   1      33.659  27.458  25.587  1.00  0.00    -0.462 OA
BRANCH   2   3
ATOM      3  C   UNL A   1      33.196  26.225  25.223  1.00  0.00     0.309 C 
ATOM      4  O   UNL A   1      33.704  25.567  24.317  1.00  0.00    -0.252 OA
BRANCH   3   5
ATOM      5  C   UNL A   1      31.954  25.789  26.045  1.00  0.00     0.111 C 
ATOM      6  C   UNL A   1      30.973  24.699  25.493  1.00  0.00     0.093 C 
ATOM      7  C   UNL A   1      29.933  25.822  25.237  1.00  0.00     0.015 C 
ATOM      8  C   UNL A   1      30.768  26.785  26.076  1.00  0.00     0.017 C 
BRANCH   6   9
ATOM      9  C   UNL A   1      30.518  23.607  26.508  1.00  0.00     0.230 C 
ATOM     10  N   UNL A   1      31.102  22.373  26.627  1.00  0.00    -0.302 N 
ATOM     11  H   UNL A   1      30.711  21.833  27.352  1.00  0.00     0.172 HD
ATOM     12  O   UNL A   1      29.624  23.834  27.343  1.00  0.00    -0.274 OA
BRANCH  10  13
ATOM     13  C   UNL A   1      32.101  21.727  25.967  1.00  0.00     0.189 A 
ATOM     14  C   UNL A   1      33.006  20.151  24.692  1.00  0.00     0.068 A 
ATOM     15  N   UNL A   1      31.832  20.742  25.143  1.00  0.00    -0.224 NA
ATOM     16  C   UNL A   1      34.161  20.775  25.138  1.00  0.00     0.027 A 
ATOM     17  S   UNL A   1      33.733  22.143  26.073  1.00  0.00    -0.102 S 
ATOM     18  C   UNL A   1      35.594  20.445  24.929  1.00  0.00     0.058 C 
BRANCH  14  19
ATOM     19  C   UNL A   1      32.908  18.970  23.783  1.00  0.00     0.180 C 
BRANCH  19  20
ATOM     20  C   UNL A   1      32.799  17.654  24.512  1.00  0.00     0.311 C 
ATOM     21  O   UNL A   1      31.998  17.443  25.417  1.00  0.00    -0.252 OA
BRANCH  20  22
ATOM     22  O   UNL A   1      33.607  16.703  23.961  1.00  0.00    -0.469 OA
ATOM     23  C   UNL A   1      34.602  16.204  24.854  1.00  0.00     0.282 C 
ENDBRANCH  20  22
ENDBRANCH  19  20
ENDBRANCH  14  19
ENDBRANCH  10  13
ENDBRANCH   6   9
ENDBRANCH   3   5
ENDBRANCH   2   3
ENDBRANCH   1   2
BRANCH   1  24
ATOM     24  C   UNL A   1      32.750  29.636  24.962  1.00  0.00     0.275 C 
BRANCH  24  25
ATOM     25  O   UNL A   1      32.725  29.731  26.392  1.00  0.00    -0.458 OA
BRANCH  25  26
ATOM     26  C   UNL A   1      33.066  30.929  26.922  1.00  0.00     0.338 C 
ATOM     27  O   UNL A   1      32.458  31.979  26.807  1.00  0.00    -0.246 OA
BRANCH  26  28
ATOM     28  C   UNL A   1      34.328  30.773  27.674  1.00  0.00     0.060 A 
ATOM     29  C   UNL A   1      35.171  31.868  27.878  1.00  0.00     0.016 A 
ATOM     30  C   UNL A   1      34.704  29.513  28.135  1.00  0.00     0.016 A 
ATOM     31  C   UNL A   1      36.411  31.699  28.491  1.00  0.00     0.010 A 
ATOM     32  C   UNL A   1      35.909  29.363  28.832  1.00  0.00     0.010 A 
ATOM     33  C   UNL A   1      36.787  30.450  28.999  1.00  0.00    -0.014 A 
BRANCH  33  34
ATOM     34  C   UNL A   1      38.096  30.270  29.688  1.00  0.00     0.031 A 
ATOM     35  C   UNL A   1      39.162  29.414  29.057  1.00  0.00     0.074 A 
ATOM     36  C   UNL A   1      38.322  30.850  30.885  1.00  0.00     0.049 A 
ATOM     37  N   UNL A   1      40.260  28.934  29.582  1.00  0.00    -0.248 NA
ATOM     38  C   UNL A   1      38.948  29.029  27.654  1.00  0.00     0.031 C 
ATOM     39  C   UNL A   1      37.393  31.740  31.586  1.00  0.00     0.029 A 
ATOM     40  N   UNL A   1      39.402  30.772  31.731  1.00  0.00    -0.354 N 
ATOM     41  C   UNL A   1      40.836  28.137  28.597  1.00  0.00     0.074 A 
ATOM     42  C   UNL A   1      39.962  28.201  27.443  1.00  0.00     0.031 C 
ATOM     43  C   UNL A   1      37.947  32.137  32.741  1.00  0.00     0.029 A 
ATOM     44  C   UNL A   1      39.226  31.460  32.911  1.00  0.00     0.049 A 
ATOM     45  H   UNL A   1      40.222  30.273  31.514  1.00  0.00     0.167 HD
ATOM     46  C   UNL A   1      41.980  27.412  28.660  1.00  0.00     0.034 A 
ATOM     47  C   UNL A   1      39.977  31.495  34.030  1.00  0.00     0.034 A 
ATOM     48  C   UNL A   1      42.861  27.405  29.804  1.00  0.00     0.049 A 
ATOM     49  C   UNL A   1      41.237  30.674  34.082  1.00  0.00     0.074 A 
ATOM     50  C   UNL A   1      44.061  26.734  29.966  1.00  0.00     0.029 A 
ATOM     51  N   UNL A   1      42.643  28.112  30.980  1.00  0.00    -0.354 N 
ATOM     52  N   UNL A   1      41.738  29.875  33.167  1.00  0.00    -0.248 NA
ATOM     53  C   UNL A   1      42.025  30.749  35.317  1.00  0.00     0.031 C 
ATOM     54  C   UNL A   1      44.539  26.991  31.256  1.00  0.00     0.029 A 
ATOM     55  C   UNL A   1      43.673  27.875  31.878  1.00  0.00     0.049 A 
ATOM     56  H   UNL A   1      41.869  28.696  31.152  1.00  0.00     0.167 HD
ATOM     57  C   UNL A   1      42.906  29.358  33.719  1.00  0.00     0.074 A 
ATOM     58  C   UNL A   1      43.046  29.954  35.031  1.00  0.00     0.031 C 
ATOM     59  C   UNL A   1      43.783  28.465  33.191  1.00  0.00     0.034 A 
BRANCH  46  60
ATOM     60  C   UNL A   1      42.305  26.515  27.490  1.00  0.00     0.023 A 
ATOM     61  C   UNL A   1      41.904  25.169  27.435  1.00  0.00     0.031 A 
ATOM     62  C   UNL A   1      43.057  27.021  26.411  1.00  0.00     0.131 A 
ATOM     63  C   UNL A   1      42.308  24.362  26.359  1.00  0.00     0.055 A 
ATOM     64  C   UNL A   1      43.393  26.233  25.310  1.00  0.00     0.041 A 
ATOM     65  F   UNL A   1      43.488  28.292  26.418  1.00  0.00    -0.206 F 
ATOM     66  C   UNL A   1      43.029  24.891  25.285  1.00  0.00     0.022 A 
BRANCH  63  67
ATOM     67  S   UNL A   1      41.986  22.579  26.439  1.00  0.00     0.124 S 
ATOM     68  O   UNL A   1      40.531  22.536  26.312  1.00  0.00    -0.237 OA
ATOM     69  O   UNL A   1      42.742  22.070  25.300  1.00  0.00    -0.237 OA
ATOM     70  O   UNL A   1      42.502  22.195  27.752  1.00  0.00    -0.744 OA
ENDBRANCH  63  67
ENDBRANCH  46  60
BRANCH  47  71
ATOM     71  C   UNL A   1      39.515  32.268  35.219  1.00  0.00     0.023 A 
ATOM     72  C   UNL A   1      39.949  33.582  35.449  1.00  0.00     0.031 A 
ATOM     73  C   UNL A   1      38.645  31.686  36.161  1.00  0.00     0.131 A 
ATOM     74  C   UNL A   1      39.536  34.261  36.606  1.00  0.00     0.055 A 
ATOM     75  C   UNL A   1      38.196  32.384  37.282  1.00  0.00     0.041 A 
ATOM     76  F   UNL A   1      38.201  30.431  35.990  1.00  0.00    -0.206 F 
ATOM     77  C   UNL A   1      38.651  33.677  37.515  1.00  0.00     0.022 A 
BRANCH  74  78
ATOM     78  S   UNL A   1      40.234  35.900  36.950  1.00  0.00     0.124 S 
ATOM     79  O   UNL A   1      41.666  35.631  36.904  1.00  0.00    -0.237 OA
ATOM     80  O   UNL A   1      39.694  36.695  35.851  1.00  0.00    -0.237 OA
ATOM     81  O   UNL A   1      39.702  36.227  38.271  1.00  0.00    -0.744 OA
ENDBRANCH  74  78
ENDBRANCH  47  71
BRANCH  59  82
ATOM     82  C   UNL A   1      44.983  28.120  34.034  1.00  0.00     0.023 A 
ATOM     83  C   UNL A   1      44.961  27.042  34.935  1.00  0.00     0.031 A 
ATOM     84  C   UNL A   1      46.150  28.899  33.954  1.00  0.00     0.131 A 
ATOM     85  C   UNL A   1      46.068  26.804  35.763  1.00  0.00     0.055 A 
ATOM     86  C   UNL A   1      47.269  28.625  34.742  1.00  0.00     0.041 A 
ATOM     87  F   UNL A   1      46.220  29.940  33.110  1.00  0.00    -0.206 F 
ATOM     88  C   UNL A   1      47.226  27.582  35.663  1.00  0.00     0.022 A 
BRANCH  85  89
ATOM     89  S   UNL A   1      45.944  25.521  37.038  1.00  0.00     0.124 S 
ATOM     90  O   UNL A   1      44.510  25.498  37.307  1.00  0.00    -0.237 OA
ATOM     91  O   UNL A   1      46.484  24.349  36.357  1.00  0.00    -0.237 OA
ATOM     92  O   UNL A   1      46.770  26.039  38.128  1.00  0.00    -0.744 OA
ENDBRANCH  85  89
ENDBRANCH  59  82
ENDBRANCH  33  34
ENDBRANCH  26  28
ENDBRANCH  25  26
ENDBRANCH  24  25
ENDBRANCH   1  24
TORSDOF 19
ENDMDL
MODEL 2
REMARK VINA RESULT:     -10.7      2.092      2.677
REMARK SMILES COC(=O)Cc1nc(NC(=O)[C@H]2CC[C@@H]2C(=O)OCCOC(=O)c2ccc(-c3c4nc(c(-c5cc(S(=O)(=O)[O-])ccc5F)c5ccc([nH]5)c(-c5cc(S(=O)(=O)[O-])ccc5F)c5nc(c(-c6cc(S(=O)(=O)[O-])ccc6F)c6ccc3[nH]6)C=C5)C=C4)cc2)sc1C
REMARK SMILES IDX 19 1 18 2 16 3 17 4 15 5 12 6 13 7 14 8 10 9 9 10 11 12 8 13
REMARK SMILES IDX 6 14 7 15 88 16 87 17 89 18 5 19 3 20 4 21 2 22 1 23 20 24
REMARK SMILES IDX 21 25 22 26 23 27 24 28 25 29 86 30 26 31 85 32 27 33 28 34
REMARK SMILES IDX 29 35 79 36 30 37 84 38 78 39 80 40 31 41 83 42 77 43 76 44
REMARK SMILES IDX 32 46 64 47 44 48 63 49 45 50 48 51 62 52 81 53 46 54 47 55
REMARK SMILES IDX 61 57 82 58 49 59 33 60 34 61 42 62 35 63 41 64 43 65 40 66
REMARK SMILES IDX 36 67 37 68 38 69 39 70 65 71 66 72 74 73 67 74 73 75 75 76
REMARK SMILES IDX 72 77 68 78 69 79 70 80 71 81 50 82 51 83 59 84 52 85 58 86
REMARK SMILES IDX 60 87 57 88 53 89 54 90 55 91 56 92
REMARK H PARENT 9 11 80 45 48 56
REMARK Flexibility Score: inf
ROOT
ATOM      1  C   UNL A   1      31.043  29.987  24.449  1.00  0.00     0.274 C 
ENDROOT
BRANCH   1   2
ATOM      2  O   UNL A   1      30.480  28.769  23.912  1.00  0.00    -0.462 OA
BRANCH   2   3
ATOM      3  C   UNL A   1      31.046  27.595  24.322  1.00  0.00     0.309 C 
ATOM      4  O   UNL A   1      30.670  26.994  25.327  1.00  0.00    -0.252 OA
BRANCH   3   5
ATOM      5  C   UNL A   1      32.218  27.148  23.410  1.00  0.00     0.111 C 
ATOM      6  C   UNL A   1      32.735  25.669  23.441  1.00  0.00     0.093 C 
ATOM      7  C   UNL A   1      34.006  26.171  24.177  1.00  0.00     0.015 C 
ATOM      8  C   UNL A   1      33.634  27.611  23.836  1.00  0.00     0.017 C 
BRANCH   6   9
ATOM      9  C   UNL A   1      33.004  25.006  22.055  1.00  0.00     0.230 C 
ATOM     10  N   UNL A   1      33.154  23.658  21.861  1.00  0.00    -0.302 N 
ATOM     11  H   UNL A   1      33.273  23.420  20.913  1.00  0.00     0.172 HD
ATOM     12  O   UNL A   1      33.021  25.681  21.010  1.00  0.00    -0.274 OA
BRANCH  10  13
ATOM     13  C   UNL A   1      33.174  22.576  22.686  1.00  0.00     0.189 A 
ATOM     14  C   UNL A   1      34.020  21.195  24.203  1.00  0.00     0.068 A 
ATOM     15  N   UNL A   1      34.130  22.427  23.572  1.00  0.00    -0.224 NA
ATOM     16  C   UNL A   1      32.908  20.460  23.820  1.00  0.00     0.027 A 
ATOM     17  S   UNL A   1      31.984  21.380  22.711  1.00  0.00    -0.102 S 
ATOM     18  C   UNL A   1      32.450  19.102  24.213  1.00  0.00     0.058 C 
BRANCH  14  19
ATOM     19  C   UNL A   1      35.053  20.814  25.212  1.00  0.00     0.180 C 
BRANCH  19  20
ATOM     20  C   UNL A   1      35.519  21.967  26.066  1.00  0.00     0.311 C 
ATOM     21  O   UNL A   1      34.788  22.581  26.836  1.00  0.00    -0.252 OA
BRANCH  20  22
ATOM     22  O   UNL A   1      36.866  22.156  25.966  1.00  0.00    -0.469 OA
ATOM     23  C   UNL A   1      37.438  21.613  24.776  1.00  0.00     0.282 C 
ENDBRANCH  20  22
ENDBRANCH  19  20
ENDBRANCH  14  19
ENDBRANCH  10  13
ENDBRANCH   6   9
ENDBRANCH   3   5
ENDBRANCH   2   3
ENDBRANCH   1   2
BRANCH   1  24
ATOM     24  C   UNL A   1      31.570  29.754  25.862  1.00  0.00     0.275 C 
BRANCH  24  25
ATOM     25  O   UNL A   1      32.867  30.355  25.972  1.00  0.00    -0.458 OA
BRANCH  25  26
ATOM     26  C   UNL A   1      32.992  31.358  26.872  1.00  0.00     0.338 C 
ATOM     27  O   UNL A   1      32.224  32.289  27.041  1.00  0.00    -0.246 OA
BRANCH  26  28
ATOM     28  C   UNL A   1      34.240  31.157  27.636  1.00  0.00     0.060 A 
ATOM     29  C   UNL A   1      35.053  32.244  27.963  1.00  0.00     0.016 A 
ATOM     30  C   UNL A   1      34.635  29.866  27.984  1.00  0.00     0.016 A 
ATOM     31  C   UNL A   1      36.283  32.043  28.587  1.00  0.00     0.010 A 
ATOM     32  C   UNL A   1      35.827  29.675  28.692  1.00  0.00     0.010 A 
ATOM     33  C   UNL A   1      36.676  30.759  28.984  1.00  0.00    -0.014 A 
BRANCH  33  34
ATOM     34  C   UNL A   1      37.973  30.542  29.684  1.00  0.00     0.031 A 
ATOM     35  C   UNL A   1      39.025  29.668  29.055  1.00  0.00     0.074 A 
ATOM     36  C   UNL A   1      38.200  31.104  30.889  1.00  0.00     0.049 A 
ATOM     37  N   UNL A   1      40.106  29.157  29.585  1.00  0.00    -0.248 NA
ATOM     38  C   UNL A   1      38.818  29.304  27.645  1.00  0.00     0.031 C 
ATOM     39  C   UNL A   1      37.284  32.007  31.591  1.00  0.00     0.029 A 
ATOM     40  N   UNL A   1      39.269  30.991  31.745  1.00  0.00    -0.354 N 
ATOM     41  C   UNL A   1      40.674  28.357  28.597  1.00  0.00     0.074 A 
ATOM     42  C   UNL A   1      39.813  28.454  27.435  1.00  0.00     0.031 C 
ATOM     43  C   UNL A   1      37.836  32.378  32.755  1.00  0.00     0.029 A 
ATOM     44  C   UNL A   1      39.097  31.670  32.931  1.00  0.00     0.049 A 
ATOM     45  H   UNL A   1      40.079  30.476  31.531  1.00  0.00     0.167 HD
ATOM     46  C   UNL A   1      41.800  27.605  28.664  1.00  0.00     0.034 A 
ATOM     47  C   UNL A   1      39.837  31.676  34.058  1.00  0.00     0.034 A 
ATOM     48  C   UNL A   1      42.669  27.566  29.817  1.00  0.00     0.049 A 
ATOM     49  C   UNL A   1      41.077  30.825  34.113  1.00  0.00     0.074 A 
ATOM     50  C   UNL A   1      43.852  26.865  29.983  1.00  0.00     0.029 A 
ATOM     51  N   UNL A   1      42.455  28.264  30.998  1.00  0.00    -0.354 N 
ATOM     52  N   UNL A   1      41.569  30.025  33.195  1.00  0.00    -0.248 NA
ATOM     53  C   UNL A   1      41.853  30.868  35.358  1.00  0.00     0.031 C 
ATOM     54  C   UNL A   1      44.322  27.096  31.281  1.00  0.00     0.029 A 
ATOM     55  C   UNL A   1      43.470  27.994  31.904  1.00  0.00     0.049 A 
ATOM     56  H   UNL A   1      41.693  28.864  31.168  1.00  0.00     0.167 HD
ATOM     57  C   UNL A   1      42.718  29.474  33.753  1.00  0.00     0.074 A 
ATOM     58  C   UNL A   1      42.859  30.053  35.073  1.00  0.00     0.031 C 
ATOM     59  C   UNL A   1      43.580  28.567  33.224  1.00  0.00     0.034 A 
BRANCH  46  60
ATOM     60  C   UNL A   1      42.117  26.714  27.487  1.00  0.00     0.023 A 
ATOM     61  C   UNL A   1      41.748  25.358  27.446  1.00  0.00     0.031 A 
ATOM     62  C   UNL A   1      42.826  27.236  26.388  1.00  0.00     0.131 A 
ATOM     63  C   UNL A   1      42.144  24.558  26.361  1.00  0.00     0.055 A 
ATOM     64  C   UNL A   1      43.152  26.453  25.279  1.00  0.00     0.041 A 
ATOM     65  F   UNL A   1      43.224  28.518  26.380  1.00  0.00    -0.206 F 
ATOM     66  C   UNL A   1      42.822  25.102  25.267  1.00  0.00     0.022 A 
BRANCH  63  67
ATOM     67  S   UNL A   1      41.871  22.768  26.454  1.00  0.00     0.124 S 
ATOM     68  O   UNL A   1      40.419  22.699  26.611  1.00  0.00    -0.237 OA
ATOM     69  O   UNL A   1      42.398  22.301  25.177  1.00  0.00    -0.237 OA
ATOM     70  O   UNL A   1      42.638  22.363  27.631  1.00  0.00    -0.744 OA
ENDBRANCH  63  67
ENDBRANCH  46  60
BRANCH  47  71
ATOM     71  C   UNL A   1      39.380  32.446  35.251  1.00  0.00     0.023 A 
ATOM     72  C   UNL A   1      38.712  31.819  36.313  1.00  0.00     0.031 A 
ATOM     73  C   UNL A   1      39.589  33.837  35.331  1.00  0.00     0.131 A 
ATOM     74  C   UNL A   1      38.250  32.583  37.395  1.00  0.00     0.055 A 
ATOM     75  C   UNL A   1      39.174  34.583  36.435  1.00  0.00     0.041 A 
ATOM     76  F   UNL A   1      40.221  34.487  34.342  1.00  0.00    -0.206 F 
ATOM     77  C   UNL A   1      38.490  33.957  37.471  1.00  0.00     0.022 A 
BRANCH  74  78
ATOM     78  S   UNL A   1      37.258  31.767  38.678  1.00  0.00     0.124 S 
ATOM     79  O   UNL A   1      37.123  30.420  38.137  1.00  0.00    -0.237 OA
ATOM     80  O   UNL A   1      38.113  31.905  39.853  1.00  0.00    -0.237 OA
ATOM     81  O   UNL A   1      36.028  32.554  38.709  1.00  0.00    -0.744 OA
ENDBRANCH  74  78
ENDBRANCH  47  71
BRANCH  59  82
ATOM     82  C   UNL A   1      44.763  28.185  34.075  1.00  0.00     0.023 A 
ATOM     83  C   UNL A   1      44.709  27.095  34.960  1.00  0.00     0.031 A 
ATOM     84  C   UNL A   1      45.946  28.941  34.020  1.00  0.00     0.131 A 
ATOM     85  C   UNL A   1      45.801  26.822  35.797  1.00  0.00     0.055 A 
ATOM     86  C   UNL A   1      47.050  28.632  34.817  1.00  0.00     0.041 A 
ATOM     87  F   UNL A   1      46.047  29.992  33.192  1.00  0.00    -0.206 F 
ATOM     88  C   UNL A   1      46.975  27.577  35.721  1.00  0.00     0.022 A 
BRANCH  85  89
ATOM     89  S   UNL A   1      45.635  25.524  37.052  1.00  0.00     0.124 S 
ATOM     90  O   UNL A   1      46.455  24.454  36.492  1.00  0.00    -0.237 OA
ATOM     91  O   UNL A   1      46.163  26.174  38.247  1.00  0.00    -0.237 OA
ATOM     92  O   UNL A   1      44.198  25.254  37.078  1.00  0.00    -0.744 OA
ENDBRANCH  85  89
ENDBRANCH  59  82
ENDBRANCH  33  34
ENDBRANCH  26  28
ENDBRANCH  25  26
ENDBRANCH  24  25
ENDBRANCH   1  24
TORSDOF 19
ENDMDL
MODEL 3
REMARK VINA RESULT:     -10.5      3.709      5.569
REMARK SMILES COC(=O)Cc1nc(NC(=O)[C@H]2CC[C@@H]2C(=O)OCCOC(=O)c2ccc(-c3c4nc(c(-c5cc(S(=O)(=O)[O-])ccc5F)c5ccc([nH]5)c(-c5cc(S(=O)(=O)[O-])ccc5F)c5nc(c(-c6cc(S(=O)(=O)[O-])ccc6F)c6ccc3[nH]6)C=C5)C=C4)cc2)sc1C
REMARK SMILES IDX 19 1 18 2 16 3 17 4 15 5 12 6 13 7 14 8 10 9 9 10 11 12 8 13
REMARK SMILES IDX 6 14 7 15 88 16 87 17 89 18 5 19 3 20 4 21 2 22 1 23 20 24
REMARK SMILES IDX 21 25 22 26 23 27 24 28 25 29 86 30 26 31 85 32 27 33 28 34
REMARK SMILES IDX 29 35 79 36 30 37 84 38 78 39 80 40 31 41 83 42 77 43 76 44
REMARK SMILES IDX 32 46 64 47 44 48 63 49 45 50 48 51 62 52 81 53 46 54 47 55
REMARK SMILES IDX 61 57 82 58 49 59 33 60 34 61 42 62 35 63 41 64 43 65 40 66
REMARK SMILES IDX 36 67 37 68 38 69 39 70 65 71 66 72 74 73 67 74 73 75 75 76
REMARK SMILES IDX 72 77 68 78 69 79 70 80 71 81 50 82 51 83 59 84 52 85 58 86
REMARK SMILES IDX 60 87 57 88 53 89 54 90 55 91 56 92
REMARK H PARENT 9 11 80 45 48 56
REMARK Flexibility Score: inf
ROOT
ATOM      1  C   UNL A   1      33.648  30.954  27.037  1.00  0.00     0.274 C 
ENDROOT
BRANCH   1   2
ATOM      2  O   UNL A   1      33.494  29.746  27.817  1.00  0.00    -0.462 OA
BRANCH   2   3
ATOM      3  C   UNL A   1      32.803  28.721  27.236  1.00  0.00     0.309 C 
ATOM      4  O   UNL A   1      31.845  28.176  27.781  1.00  0.00    -0.252 OA
BRANCH   3   5
ATOM      5  C   UNL A   1      33.388  28.314  25.858  1.00  0.00     0.111 C 
ATOM      6  C   UNL A   1      32.442  28.015  24.645  1.00  0.00     0.093 C 
ATOM      7  C   UNL A   1      32.780  26.509  24.804  1.00  0.00     0.015 C 
ATOM      8  C   UNL A   1      33.929  26.867  25.744  1.00  0.00     0.017 C 
BRANCH   6   9
ATOM      9  C   UNL A   1      32.860  28.637  23.278  1.00  0.00     0.230 C 
ATOM     10  N   UNL A   1      31.979  29.146  22.360  1.00  0.00    -0.302 N 
ATOM     11  H   UNL A   1      32.429  29.537  21.576  1.00  0.00     0.172 HD
ATOM     12  O   UNL A   1      34.058  28.777  22.973  1.00  0.00    -0.274 OA
BRANCH  10  13
ATOM     13  C   UNL A   1      30.623  29.233  22.291  1.00  0.00     0.189 A 
ATOM     14  C   UNL A   1      28.672  30.106  21.693  1.00  0.00     0.068 A 
ATOM     15  N   UNL A   1      30.048  30.107  21.500  1.00  0.00    -0.224 NA
ATOM     16  C   UNL A   1      28.228  29.148  22.593  1.00  0.00     0.027 A 
ATOM     17  S   UNL A   1      29.564  28.222  23.129  1.00  0.00    -0.102 S 
ATOM     18  C   UNL A   1      26.867  28.844  23.105  1.00  0.00     0.058 C 
BRANCH  14  19
ATOM     19  C   UNL A   1      27.841  31.076  20.921  1.00  0.00     0.180 C 
BRANCH  19  20
ATOM     20  C   UNL A   1      27.911  32.487  21.448  1.00  0.00     0.311 C 
ATOM     21  O   UNL A   1      27.625  33.476  20.782  1.00  0.00    -0.252 OA
BRANCH  20  22
ATOM     22  O   UNL A   1      28.210  32.514  22.779  1.00  0.00    -0.469 OA
ATOM     23  C   UNL A   1      28.987  33.644  23.173  1.00  0.00     0.282 C 
ENDBRANCH  20  22
ENDBRANCH  19  20
ENDBRANCH  14  19
ENDBRANCH  10  13
ENDBRANCH   6   9
ENDBRANCH   3   5
ENDBRANCH   2   3
ENDBRANCH   1   2
BRANCH   1  24
ATOM     24  C   UNL A   1      32.627  32.003  27.469  1.00  0.00     0.275 C 
BRANCH  24  25
ATOM     25  O   UNL A   1      33.257  33.290  27.449  1.00  0.00    -0.458 OA
BRANCH  25  26
ATOM     26  C   UNL A   1      33.439  33.889  28.649  1.00  0.00     0.338 C 
ATOM     27  O   UNL A   1      32.733  34.744  29.154  1.00  0.00    -0.246 OA
BRANCH  26  28
ATOM     28  C   UNL A   1      34.663  33.343  29.271  1.00  0.00     0.060 A 
ATOM     29  C   UNL A   1      34.577  32.376  30.275  1.00  0.00     0.016 A 
ATOM     30  C   UNL A   1      35.910  33.836  28.888  1.00  0.00     0.016 A 
ATOM     31  C   UNL A   1      35.724  31.942  30.936  1.00  0.00     0.010 A 
ATOM     32  C   UNL A   1      37.068  33.331  29.490  1.00  0.00     0.010 A 
ATOM     33  C   UNL A   1      36.988  32.393  30.536  1.00  0.00    -0.014 A 
BRANCH  33  34
ATOM     34  C   UNL A   1      38.221  31.905  31.215  1.00  0.00     0.031 A 
ATOM     35  C   UNL A   1      39.084  30.870  30.544  1.00  0.00     0.074 A 
ATOM     36  C   UNL A   1      38.556  32.368  32.437  1.00  0.00     0.049 A 
ATOM     37  N   UNL A   1      40.049  30.142  31.045  1.00  0.00    -0.248 NA
ATOM     38  C   UNL A   1      38.806  30.604  29.125  1.00  0.00     0.031 C 
ATOM     39  C   UNL A   1      37.832  33.404  33.180  1.00  0.00     0.029 A 
ATOM     40  N   UNL A   1      39.585  32.021  33.278  1.00  0.00    -0.354 N 
ATOM     41  C   UNL A   1      40.449  29.285  30.024  1.00  0.00     0.074 A 
ATOM     42  C   UNL A   1      39.620  29.588  28.875  1.00  0.00     0.031 C 
ATOM     43  C   UNL A   1      38.448  33.619  34.351  1.00  0.00     0.029 A 
ATOM     44  C   UNL A   1      39.551  32.676  34.488  1.00  0.00     0.049 A 
ATOM     45  H   UNL A   1      40.281  31.368  33.037  1.00  0.00     0.167 HD
ATOM     46  C   UNL A   1      41.411  28.329  30.052  1.00  0.00     0.034 A 
ATOM     47  C   UNL A   1      40.281  32.499  35.608  1.00  0.00     0.034 A 
ATOM     48  C   UNL A   1      42.259  28.081  31.194  1.00  0.00     0.049 A 
ATOM     49  C   UNL A   1      41.335  31.424  35.620  1.00  0.00     0.074 A 
ATOM     50  C   UNL A   1      43.286  27.161  31.323  1.00  0.00     0.029 A 
ATOM     51  N   UNL A   1      42.187  28.763  32.402  1.00  0.00    -0.354 N 
ATOM     52  N   UNL A   1      41.662  30.578  34.669  1.00  0.00    -0.248 NA
ATOM     53  C   UNL A   1      42.109  31.271  36.857  1.00  0.00     0.031 C 
ATOM     54  C   UNL A   1      43.795  27.250  32.624  1.00  0.00     0.029 A 
ATOM     55  C   UNL A   1      43.134  28.270  33.287  1.00  0.00     0.049 A 
ATOM     56  H   UNL A   1      41.555  29.492  32.601  1.00  0.00     0.167 HD
ATOM     57  C   UNL A   1      42.686  29.798  35.195  1.00  0.00     0.074 A 
ATOM     58  C   UNL A   1      42.939  30.290  36.534  1.00  0.00     0.031 C 
ATOM     59  C   UNL A   1      43.356  28.763  34.625  1.00  0.00     0.034 A 
BRANCH  46  60
ATOM     60  C   UNL A   1      41.547  27.438  28.841  1.00  0.00     0.023 A 
ATOM     61  C   UNL A   1      42.550  27.624  27.875  1.00  0.00     0.031 A 
ATOM     62  C   UNL A   1      40.631  26.386  28.643  1.00  0.00     0.131 A 
ATOM     63  C   UNL A   1      42.575  26.815  26.727  1.00  0.00     0.055 A 
ATOM     64  C   UNL A   1      40.706  25.539  27.536  1.00  0.00     0.041 A 
ATOM     65  F   UNL A   1      39.637  26.174  29.519  1.00  0.00    -0.206 F 
ATOM     66  C   UNL A   1      41.675  25.759  26.563  1.00  0.00     0.022 A 
BRANCH  63  67
ATOM     67  S   UNL A   1      43.723  27.238  25.388  1.00  0.00     0.124 S 
ATOM     68  O   UNL A   1      44.186  25.917  24.968  1.00  0.00    -0.237 OA
ATOM     69  O   UNL A   1      42.862  27.942  24.445  1.00  0.00    -0.237 OA
ATOM     70  O   UNL A   1      44.732  28.063  26.048  1.00  0.00    -0.744 OA
ENDBRANCH  63  67
ENDBRANCH  46  60
BRANCH  47  71
ATOM     71  C   UNL A   1      39.985  33.297  36.832  1.00  0.00     0.023 A 
ATOM     72  C   UNL A   1      40.794  34.378  37.211  1.00  0.00     0.031 A 
ATOM     73  C   UNL A   1      38.892  32.969  37.657  1.00  0.00     0.131 A 
ATOM     74  C   UNL A   1      40.517  35.075  38.398  1.00  0.00     0.055 A 
ATOM     75  C   UNL A   1      38.590  33.699  38.807  1.00  0.00     0.041 A 
ATOM     76  F   UNL A   1      38.087  31.943  37.340  1.00  0.00    -0.206 F 
ATOM     77  C   UNL A   1      39.412  34.753  39.189  1.00  0.00     0.022 A 
BRANCH  74  78
ATOM     78  S   UNL A   1      41.669  36.368  38.938  1.00  0.00     0.124 S 
ATOM     79  O   UNL A   1      42.918  35.932  38.324  1.00  0.00    -0.237 OA
ATOM     80  O   UNL A   1      41.062  37.569  38.374  1.00  0.00    -0.237 OA
ATOM     81  O   UNL A   1      41.625  36.277  40.396  1.00  0.00    -0.744 OA
ENDBRANCH  74  78
ENDBRANCH  47  71
BRANCH  59  82
ATOM     82  C   UNL A   1      44.446  28.130  35.451  1.00  0.00     0.023 A 
ATOM     83  C   UNL A   1      44.151  27.247  36.504  1.00  0.00     0.031 A 
ATOM     84  C   UNL A   1      45.793  28.438  35.197  1.00  0.00     0.131 A 
ATOM     85  C   UNL A   1      45.188  26.745  37.303  1.00  0.00     0.055 A 
ATOM     86  C   UNL A   1      46.825  27.892  35.962  1.00  0.00     0.041 A 
ATOM     87  F   UNL A   1      46.126  29.277  34.203  1.00  0.00    -0.206 F 
ATOM     88  C   UNL A   1      46.524  27.052  37.029  1.00  0.00     0.022 A 
BRANCH  85  89
ATOM     89  S   UNL A   1      44.764  25.754  38.761  1.00  0.00     0.124 S 
ATOM     90  O   UNL A   1      45.664  26.299  39.771  1.00  0.00    -0.237 OA
ATOM     91  O   UNL A   1      43.347  26.053  38.941  1.00  0.00    -0.237 OA
ATOM     92  O   UNL A   1      45.058  24.384  38.342  1.00  0.00    -0.744 OA
ENDBRANCH  85  89
ENDBRANCH  59  82
ENDBRANCH  33  34
ENDBRANCH  26  28
ENDBRANCH  25  26
ENDBRANCH  24  25
ENDBRANCH   1  24
TORSDOF 19
ENDMDL
