MODEL 1
REMARK VINA RESULT:     -12.6      0.000      0.000
REMARK SMILES Cc1ccc(C(=O)OCCOC(=O)c2ccc(-c3c4nc(c(-c5cc(S(=O)(=O)[O-])ccc5F)c5ccc([nH]5)c(-c5cc(S(=O)(=O)[O-])ccc5F)c5nc(c(-c6cc(S(=O)(=O)[O-])ccc6F)c6ccc3[nH]6)C=C5)C=C4)cc2)cc1N1C(=O)/C(=C/c2ccc([N+](=O)[O-])cc2)SC1=S
REMARK SMILES IDX 9 1 8 2 6 3 7 4 5 5 1 6 2 7 3 8 78 9 4 10 77 11 79 12 80 13
REMARK SMILES IDX 94 14 81 15 82 16 93 17 95 18 83 19 84 20 85 21 92 22 86 23
REMARK SMILES IDX 91 24 87 25 88 26 89 27 90 28 10 29 11 30 12 31 13 32 14 33
REMARK SMILES IDX 15 34 76 35 16 36 75 37 17 38 18 39 19 40 69 41 20 42 74 43
REMARK SMILES IDX 68 44 70 45 21 46 73 47 67 48 66 49 22 51 54 52 34 53 53 54
REMARK SMILES IDX 35 55 38 56 52 57 71 58 36 59 37 60 51 62 72 63 39 64 23 65
REMARK SMILES IDX 24 66 32 67 25 68 31 69 33 70 30 71 26 72 27 73 28 74 29 75
REMARK SMILES IDX 55 76 56 77 64 78 57 79 63 80 65 81 62 82 58 83 59 84 60 85
REMARK SMILES IDX 61 86 40 87 41 88 49 89 42 90 48 91 50 92 47 93 43 94 44 95
REMARK SMILES IDX 45 96 46 97
REMARK H PARENT 70 50 38 61
REMARK Flexibility Score: inf
ROOT
ATOM      1  C   UNL A   1      39.525  21.518  26.133  1.00  0.00     0.275 C 
ENDROOT
BRANCH   1   2
ATOM      2  O   UNL A   1      38.295  21.462  25.394  1.00  0.00    -0.458 OA
BRANCH   2   3
ATOM      3  C   UNL A   1      37.879  20.198  25.144  1.00  0.00     0.338 C 
ATOM      4  O   UNL A   1      38.600  19.221  24.997  1.00  0.00    -0.246 OA
BRANCH   3   5
ATOM      5  C   UNL A   1      36.428  20.143  24.872  1.00  0.00     0.062 A 
ATOM      6  C   UNL A   1      32.186  20.339  24.042  1.00  0.00     0.046 C 
ATOM      7  C   UNL A   1      33.648  20.303  24.384  1.00  0.00    -0.027 A 
ATOM      8  C   UNL A   1      34.291  19.061  24.509  1.00  0.00     0.006 A 
ATOM      9  C   UNL A   1      34.420  21.459  24.561  1.00  0.00     0.054 A 
ATOM     10  C   UNL A   1      35.656  18.983  24.823  1.00  0.00     0.016 A 
ATOM     11  C   UNL A   1      35.809  21.375  24.707  1.00  0.00     0.042 A 
BRANCH   9  12
ATOM     12  N   UNL A   1      33.850  22.717  24.855  1.00  0.00    -0.261 N 
ATOM     13  C   UNL A   1      33.860  23.730  23.904  1.00  0.00     0.270 C 
ATOM     14  C   UNL A   1      33.453  23.049  26.145  1.00  0.00     0.152 C 
ATOM     15  O   UNL A   1      34.090  23.648  22.719  1.00  0.00    -0.268 OA
ATOM     16  C   UNL A   1      33.567  25.018  24.597  1.00  0.00     0.081 C 
ATOM     17  S   UNL A   1      32.986  24.738  26.193  1.00  0.00    -0.054 SA
ATOM     18  S   UNL A   1      33.372  22.099  27.523  1.00  0.00    -0.051 S 
ATOM     19  C   UNL A   1      33.846  26.208  24.054  1.00  0.00     0.029 C 
BRANCH  19  20
ATOM     20  C   UNL A   1      33.636  27.467  24.771  1.00  0.00    -0.024 A 
ATOM     21  C   UNL A   1      34.456  27.818  25.852  1.00  0.00     0.015 A 
ATOM     22  C   UNL A   1      32.542  28.269  24.432  1.00  0.00     0.015 A 
ATOM     23  C   UNL A   1      34.189  28.977  26.588  1.00  0.00     0.086 A 
ATOM     24  C   UNL A   1      32.268  29.427  25.160  1.00  0.00     0.086 A 
ATOM     25  C   UNL A   1      33.097  29.780  26.234  1.00  0.00     0.269 A 
BRANCH  25  26
ATOM     26  N   UNL A   1      32.811  31.001  26.995  1.00  0.00     0.062 N 
ATOM     27  O   UNL A   1      33.682  31.418  27.772  1.00  0.00    -0.258 OA
ATOM     28  O   UNL A   1      31.712  31.549  26.815  1.00  0.00    -0.258 OA
ENDBRANCH  25  26
ENDBRANCH  19  20
ENDBRANCH   9  12
ENDBRANCH   3   5
ENDBRANCH   2   3
ENDBRANCH   1   2
BRANCH   1  29
ATOM     29  C   UNL A   1      39.646  22.811  26.959  1.00  0.00     0.275 C 
BRANCH  29  30
ATOM     30  O   UNL A   1      40.387  23.911  26.388  1.00  0.00    -0.458 OA
BRANCH  30  31
ATOM     31  C   UNL A   1      41.581  24.221  26.963  1.00  0.00     0.338 C 
ATOM     32  O   UNL A   1      42.598  23.558  26.842  1.00  0.00    -0.246 OA
BRANCH  31  33
ATOM     33  C   UNL A   1      41.526  25.633  27.433  1.00  0.00     0.060 A 
ATOM     34  C   UNL A   1      41.015  26.621  26.580  1.00  0.00     0.016 A 
ATOM     35  C   UNL A   1      41.678  25.888  28.798  1.00  0.00     0.016 A 
ATOM     36  C   UNL A   1      40.529  27.815  27.111  1.00  0.00     0.010 A 
ATOM     37  C   UNL A   1      41.120  27.020  29.338  1.00  0.00     0.010 A 
ATOM     38  C   UNL A   1      40.564  27.992  28.497  1.00  0.00    -0.014 A 
BRANCH  38  39
ATOM     39  C   UNL A   1      40.461  29.296  29.130  1.00  0.00     0.031 A 
ATOM     40  C   UNL A   1      39.315  30.202  28.982  1.00  0.00     0.074 A 
ATOM     41  C   UNL A   1      41.490  29.530  29.973  1.00  0.00     0.049 A 
ATOM     42  N   UNL A   1      39.388  31.481  29.136  1.00  0.00    -0.248 NA
ATOM     43  C   UNL A   1      37.973  29.747  28.629  1.00  0.00     0.031 C 
ATOM     44  C   UNL A   1      41.668  30.565  30.970  1.00  0.00     0.029 A 
ATOM     45  N   UNL A   1      42.738  28.898  29.924  1.00  0.00    -0.354 N 
ATOM     46  C   UNL A   1      38.096  31.950  29.259  1.00  0.00     0.074 A 
ATOM     47  C   UNL A   1      37.257  30.865  28.806  1.00  0.00     0.031 C 
ATOM     48  C   UNL A   1      42.992  30.719  31.169  1.00  0.00     0.029 A 
ATOM     49  C   UNL A   1      43.672  29.891  30.172  1.00  0.00     0.049 A 
ATOM     50  H   UNL A   1      42.916  27.945  29.750  1.00  0.00     0.167 HD
ATOM     51  C   UNL A   1      37.866  33.114  29.935  1.00  0.00     0.034 A 
ATOM     52  C   UNL A   1      44.513  30.339  29.193  1.00  0.00     0.034 A 
ATOM     53  C   UNL A   1      39.120  33.692  30.410  1.00  0.00     0.049 A 
ATOM     54  C   UNL A   1      44.337  31.827  29.012  1.00  0.00     0.074 A 
ATOM     55  C   UNL A   1      39.752  33.611  31.640  1.00  0.00     0.029 A 
ATOM     56  N   UNL A   1      40.068  34.159  29.506  1.00  0.00    -0.354 N 
ATOM     57  N   UNL A   1      43.196  32.449  29.140  1.00  0.00    -0.248 NA
ATOM     58  C   UNL A   1      45.453  32.720  28.742  1.00  0.00     0.031 C 
ATOM     59  C   UNL A   1      41.115  33.935  31.451  1.00  0.00     0.029 A 
ATOM     60  C   UNL A   1      41.303  34.249  30.115  1.00  0.00     0.049 A 
ATOM     61  H   UNL A   1      39.884  34.392  28.567  1.00  0.00     0.167 HD
ATOM     62  C   UNL A   1      43.428  33.801  29.110  1.00  0.00     0.074 A 
ATOM     63  C   UNL A   1      44.849  33.917  28.813  1.00  0.00     0.031 C 
ATOM     64  C   UNL A   1      42.467  34.730  29.394  1.00  0.00     0.034 A 
BRANCH  51  65
ATOM     65  C   UNL A   1      36.518  33.494  30.512  1.00  0.00     0.023 A 
ATOM     66  C   UNL A   1      35.588  34.171  29.693  1.00  0.00     0.031 A 
ATOM     67  C   UNL A   1      36.109  33.276  31.839  1.00  0.00     0.131 A 
ATOM     68  C   UNL A   1      34.392  34.701  30.207  1.00  0.00     0.055 A 
ATOM     69  C   UNL A   1      34.928  33.827  32.364  1.00  0.00     0.041 A 
ATOM     70  F   UNL A   1      36.822  32.501  32.669  1.00  0.00    -0.206 F 
ATOM     71  C   UNL A   1      34.071  34.562  31.553  1.00  0.00     0.022 A 
BRANCH  68  72
ATOM     72  S   UNL A   1      33.277  35.591  29.085  1.00  0.00     0.124 S 
ATOM     73  O   UNL A   1      34.210  36.323  28.237  1.00  0.00    -0.237 OA
ATOM     74  O   UNL A   1      32.544  34.502  28.447  1.00  0.00    -0.237 OA
ATOM     75  O   UNL A   1      32.481  36.423  29.987  1.00  0.00    -0.744 OA
ENDBRANCH  68  72
ENDBRANCH  51  65
BRANCH  52  76
ATOM     76  C   UNL A   1      44.853  29.389  28.080  1.00  0.00     0.023 A 
ATOM     77  C   UNL A   1      45.927  28.483  28.250  1.00  0.00     0.031 A 
ATOM     78  C   UNL A   1      44.025  29.188  26.965  1.00  0.00     0.131 A 
ATOM     79  C   UNL A   1      46.079  27.373  27.401  1.00  0.00     0.055 A 
ATOM     80  C   UNL A   1      44.211  28.106  26.088  1.00  0.00     0.041 A 
ATOM     81  F   UNL A   1      42.973  29.986  26.738  1.00  0.00    -0.206 F 
ATOM     82  C   UNL A   1      45.226  27.180  26.316  1.00  0.00     0.022 A 
BRANCH  79  83
ATOM     83  S   UNL A   1      47.264  26.073  27.865  1.00  0.00     0.124 S 
ATOM     84  O   UNL A   1      47.866  26.628  29.072  1.00  0.00    -0.237 OA
ATOM     85  O   UNL A   1      46.395  24.915  28.055  1.00  0.00    -0.237 OA
ATOM     86  O   UNL A   1      48.143  25.991  26.703  1.00  0.00    -0.744 OA
ENDBRANCH  79  83
ENDBRANCH  52  76
BRANCH  64  87
ATOM     87  C   UNL A   1      42.602  36.214  29.167  1.00  0.00     0.023 A 
ATOM     88  C   UNL A   1      43.359  37.035  30.009  1.00  0.00     0.031 A 
ATOM     89  C   UNL A   1      42.049  36.841  28.023  1.00  0.00     0.131 A 
ATOM     90  C   UNL A   1      43.458  38.415  29.775  1.00  0.00     0.055 A 
ATOM     91  C   UNL A   1      42.227  38.196  27.741  1.00  0.00     0.041 A 
ATOM     92  F   UNL A   1      41.322  36.163  27.123  1.00  0.00    -0.206 F 
ATOM     93  C   UNL A   1      42.920  38.999  28.632  1.00  0.00     0.022 A 
BRANCH  90  94
ATOM     94  S   UNL A   1      44.240  39.432  31.048  1.00  0.00     0.124 S 
ATOM     95  O   UNL A   1      44.631  38.426  32.033  1.00  0.00    -0.237 OA
ATOM     96  O   UNL A   1      45.335  40.063  30.319  1.00  0.00    -0.237 OA
ATOM     97  O   UNL A   1      43.171  40.333  31.473  1.00  0.00    -0.744 OA
ENDBRANCH  90  94
ENDBRANCH  64  87
ENDBRANCH  38  39
ENDBRANCH  31  33
ENDBRANCH  30  31
ENDBRANCH  29  30
ENDBRANCH   1  29
TORSDOF 17
ENDMDL
MODEL 2
REMARK VINA RESULT:     -12.1      2.508      3.322
REMARK SMILES Cc1ccc(C(=O)OCCOC(=O)c2ccc(-c3c4nc(c(-c5cc(S(=O)(=O)[O-])ccc5F)c5ccc([nH]5)c(-c5cc(S(=O)(=O)[O-])ccc5F)c5nc(c(-c6cc(S(=O)(=O)[O-])ccc6F)c6ccc3[nH]6)C=C5)C=C4)cc2)cc1N1C(=O)/C(=C/c2ccc([N+](=O)[O-])cc2)SC1=S
REMARK SMILES IDX 9 1 8 2 6 3 7 4 5 5 1 6 2 7 3 8 78 9 4 10 77 11 79 12 80 13
REMARK SMILES IDX 94 14 81 15 82 16 93 17 95 18 83 19 84 20 85 21 92 22 86 23
REMARK SMILES IDX 91 24 87 25 88 26 89 27 90 28 10 29 11 30 12 31 13 32 14 33
REMARK SMILES IDX 15 34 76 35 16 36 75 37 17 38 18 39 19 40 69 41 20 42 74 43
REMARK SMILES IDX 68 44 70 45 21 46 73 47 67 48 66 49 22 51 54 52 34 53 53 54
REMARK SMILES IDX 35 55 38 56 52 57 71 58 36 59 37 60 51 62 72 63 39 64 23 65
REMARK SMILES IDX 24 66 32 67 25 68 31 69 33 70 30 71 26 72 27 73 28 74 29 75
REMARK SMILES IDX 55 76 56 77 64 78 57 79 63 80 65 81 62 82 58 83 59 84 60 85
REMARK SMILES IDX 61 86 40 87 41 88 49 89 42 90 48 91 50 92 47 93 43 94 44 95
REMARK SMILES IDX 45 96 46 97
REMARK H PARENT 70 50 38 61
REMARK Flexibility Score: inf
ROOT
ATOM      1  C   UNL A   1      39.448  22.502  26.345  1.00  0.00     0.275 C 
ENDROOT
BRANCH   1   2
ATOM      2  O   UNL A   1      38.263  21.912  25.786  1.00  0.00    -0.458 OA
BRANCH   2   3
ATOM      3  C   UNL A   1      37.235  22.786  25.671  1.00  0.00     0.338 C 
ATOM      4  O   UNL A   1      37.229  23.943  26.069  1.00  0.00    -0.246 OA
BRANCH   3   5
ATOM      5  C   UNL A   1      36.012  22.129  25.166  1.00  0.00     0.062 A 
ATOM      6  C   UNL A   1      32.321  20.529  23.574  1.00  0.00     0.046 C 
ATOM      7  C   UNL A   1      33.568  21.117  24.169  1.00  0.00    -0.027 A 
ATOM      8  C   UNL A   1      34.549  20.257  24.688  1.00  0.00     0.006 A 
ATOM      9  C   UNL A   1      33.819  22.496  24.209  1.00  0.00     0.054 A 
ATOM     10  C   UNL A   1      35.730  20.766  25.249  1.00  0.00     0.016 A 
ATOM     11  C   UNL A   1      35.066  22.983  24.615  1.00  0.00     0.042 A 
BRANCH   9  12
ATOM     12  N   UNL A   1      32.793  23.459  24.100  1.00  0.00    -0.261 N 
ATOM     13  C   UNL A   1      32.709  24.269  22.973  1.00  0.00     0.270 C 
ATOM     14  C   UNL A   1      31.972  23.768  25.177  1.00  0.00     0.152 C 
ATOM     15  O   UNL A   1      33.265  24.134  21.907  1.00  0.00    -0.268 OA
ATOM     16  C   UNL A   1      31.813  25.417  23.295  1.00  0.00     0.081 C 
ATOM     17  S   UNL A   1      30.956  25.135  24.760  1.00  0.00    -0.054 SA
ATOM     18  S   UNL A   1      31.854  23.043  26.683  1.00  0.00    -0.051 S 
ATOM     19  C   UNL A   1      31.800  26.544  22.574  1.00  0.00     0.029 C 
BRANCH  19  20
ATOM     20  C   UNL A   1      30.982  27.701  22.942  1.00  0.00    -0.024 A 
ATOM     21  C   UNL A   1      29.798  27.988  22.248  1.00  0.00     0.015 A 
ATOM     22  C   UNL A   1      31.446  28.577  23.928  1.00  0.00     0.015 A 
ATOM     23  C   UNL A   1      29.073  29.146  22.546  1.00  0.00     0.086 A 
ATOM     24  C   UNL A   1      30.729  29.735  24.232  1.00  0.00     0.086 A 
ATOM     25  C   UNL A   1      29.541  30.013  23.543  1.00  0.00     0.269 A 
BRANCH  25  26
ATOM     26  N   UNL A   1      28.785  31.227  23.869  1.00  0.00     0.062 N 
ATOM     27  O   UNL A   1      29.425  32.246  24.167  1.00  0.00    -0.258 OA
ATOM     28  O   UNL A   1      27.547  31.165  23.825  1.00  0.00    -0.258 OA
ENDBRANCH  25  26
ENDBRANCH  19  20
ENDBRANCH   9  12
ENDBRANCH   3   5
ENDBRANCH   2   3
ENDBRANCH   1   2
BRANCH   1  29
ATOM     29  C   UNL A   1      40.685  21.609  26.149  1.00  0.00     0.275 C 
BRANCH  29  30
ATOM     30  O   UNL A   1      41.805  22.156  25.419  1.00  0.00    -0.458 OA
BRANCH  30  31
ATOM     31  C   UNL A   1      42.884  22.557  26.144  1.00  0.00     0.338 C 
ATOM     32  O   UNL A   1      44.033  22.215  25.919  1.00  0.00    -0.246 OA
BRANCH  31  33
ATOM     33  C   UNL A   1      42.482  23.719  26.985  1.00  0.00     0.060 A 
ATOM     34  C   UNL A   1      42.483  23.589  28.381  1.00  0.00     0.016 A 
ATOM     35  C   UNL A   1      42.428  24.983  26.394  1.00  0.00     0.016 A 
ATOM     36  C   UNL A   1      42.567  24.724  29.186  1.00  0.00     0.010 A 
ATOM     37  C   UNL A   1      42.602  26.100  27.173  1.00  0.00     0.010 A 
ATOM     38  C   UNL A   1      42.652  25.975  28.567  1.00  0.00    -0.014 A 
BRANCH  38  39
ATOM     39  C   UNL A   1      42.356  27.219  29.257  1.00  0.00     0.031 A 
ATOM     40  C   UNL A   1      41.166  28.043  29.011  1.00  0.00     0.074 A 
ATOM     41  C   UNL A   1      43.244  27.471  30.244  1.00  0.00     0.049 A 
ATOM     42  N   UNL A   1      41.109  29.310  29.251  1.00  0.00    -0.248 NA
ATOM     43  C   UNL A   1      39.926  27.513  28.453  1.00  0.00     0.031 C 
ATOM     44  C   UNL A   1      43.202  28.442  31.317  1.00  0.00     0.029 A 
ATOM     45  N   UNL A   1      44.537  26.941  30.326  1.00  0.00    -0.354 N 
ATOM     46  C   UNL A   1      39.777  29.668  29.227  1.00  0.00     0.074 A 
ATOM     47  C   UNL A   1      39.100  28.557  28.599  1.00  0.00     0.031 C 
ATOM     48  C   UNL A   1      44.471  28.682  31.702  1.00  0.00     0.029 A 
ATOM     49  C   UNL A   1      45.342  27.982  30.758  1.00  0.00     0.049 A 
ATOM     50  H   UNL A   1      44.816  26.019  30.120  1.00  0.00     0.167 HD
ATOM     51  C   UNL A   1      39.363  30.760  29.934  1.00  0.00     0.034 A 
ATOM     52  C   UNL A   1      46.262  28.562  29.930  1.00  0.00     0.034 A 
ATOM     53  C   UNL A   1      40.491  31.397  30.609  1.00  0.00     0.049 A 
ATOM     54  C   UNL A   1      45.984  30.041  29.818  1.00  0.00     0.074 A 
ATOM     55  C   UNL A   1      40.962  31.277  31.906  1.00  0.00     0.029 A 
ATOM     56  N   UNL A   1      41.504  31.998  29.871  1.00  0.00    -0.354 N 
ATOM     57  N   UNL A   1      44.787  30.564  29.828  1.00  0.00    -0.248 NA
ATOM     58  C   UNL A   1      47.046  31.034  29.755  1.00  0.00     0.031 C 
ATOM     59  C   UNL A   1      42.306  31.718  31.922  1.00  0.00     0.029 A 
ATOM     60  C   UNL A   1      42.638  32.139  30.646  1.00  0.00     0.049 A 
ATOM     61  H   UNL A   1      41.424  32.283  28.931  1.00  0.00     0.167 HD
ATOM     62  C   UNL A   1      44.906  31.928  29.911  1.00  0.00     0.074 A 
ATOM     63  C   UNL A   1      46.338  32.174  29.817  1.00  0.00     0.031 C 
ATOM     64  C   UNL A   1      43.840  32.758  30.119  1.00  0.00     0.034 A 
BRANCH  51  65
ATOM     65  C   UNL A   1      37.924  30.994  30.346  1.00  0.00     0.023 A 
ATOM     66  C   UNL A   1      37.057  31.668  29.458  1.00  0.00     0.031 A 
ATOM     67  C   UNL A   1      37.363  30.639  31.585  1.00  0.00     0.131 A 
ATOM     68  C   UNL A   1      35.764  32.066  29.839  1.00  0.00     0.055 A 
ATOM     69  C   UNL A   1      36.082  31.059  31.981  1.00  0.00     0.041 A 
ATOM     70  F   UNL A   1      38.022  29.851  32.448  1.00  0.00    -0.206 F 
ATOM     71  C   UNL A   1      35.282  31.795  31.115  1.00  0.00     0.022 A 
BRANCH  68  72
ATOM     72  S   UNL A   1      34.737  32.964  28.642  1.00  0.00     0.124 S 
ATOM     73  O   UNL A   1      34.131  34.001  29.468  1.00  0.00    -0.237 OA
ATOM     74  O   UNL A   1      35.723  33.413  27.664  1.00  0.00    -0.237 OA
ATOM     75  O   UNL A   1      33.811  31.942  28.157  1.00  0.00    -0.744 OA
ENDBRANCH  68  72
ENDBRANCH  51  65
BRANCH  52  76
ATOM     76  C   UNL A   1      46.823  27.722  28.818  1.00  0.00     0.023 A 
ATOM     77  C   UNL A   1      46.271  27.837  27.520  1.00  0.00     0.031 A 
ATOM     78  C   UNL A   1      48.016  26.992  28.937  1.00  0.00     0.131 A 
ATOM     79  C   UNL A   1      46.953  27.337  26.397  1.00  0.00     0.055 A 
ATOM     80  C   UNL A   1      48.669  26.450  27.817  1.00  0.00     0.041 A 
ATOM     81  F   UNL A   1      48.619  26.851  30.125  1.00  0.00    -0.206 F 
ATOM     82  C   UNL A   1      48.150  26.640  26.538  1.00  0.00     0.022 A 
BRANCH  79  83
ATOM     83  S   UNL A   1      46.365  27.803  24.739  1.00  0.00     0.124 S 
ATOM     84  O   UNL A   1      47.095  26.873  23.885  1.00  0.00    -0.237 OA
ATOM     85  O   UNL A   1      44.926  27.583  24.847  1.00  0.00    -0.237 OA
ATOM     86  O   UNL A   1      46.760  29.204  24.625  1.00  0.00    -0.744 OA
ENDBRANCH  79  83
ENDBRANCH  52  76
BRANCH  64  87
ATOM     87  C   UNL A   1      43.877  34.260  30.003  1.00  0.00     0.023 A 
ATOM     88  C   UNL A   1      43.769  34.919  28.773  1.00  0.00     0.031 A 
ATOM     89  C   UNL A   1      43.921  35.091  31.150  1.00  0.00     0.131 A 
ATOM     90  C   UNL A   1      43.816  36.319  28.698  1.00  0.00     0.055 A 
ATOM     91  C   UNL A   1      43.872  36.484  31.079  1.00  0.00     0.041 A 
ATOM     92  F   UNL A   1      44.000  34.586  32.390  1.00  0.00    -0.206 F 
ATOM     93  C   UNL A   1      43.840  37.110  29.844  1.00  0.00     0.022 A 
BRANCH  90  94
ATOM     94  S   UNL A   1      43.926  37.071  27.058  1.00  0.00     0.124 S 
ATOM     95  O   UNL A   1      45.089  36.390  26.496  1.00  0.00    -0.237 OA
ATOM     96  O   UNL A   1      42.640  36.723  26.464  1.00  0.00    -0.237 OA
ATOM     97  O   UNL A   1      44.117  38.492  27.343  1.00  0.00    -0.744 OA
ENDBRANCH  90  94
ENDBRANCH  64  87
ENDBRANCH  38  39
ENDBRANCH  31  33
ENDBRANCH  30  31
ENDBRANCH  29  30
ENDBRANCH   1  29
TORSDOF 17
ENDMDL
MODEL 3
REMARK VINA RESULT:     -12.1      1.901      2.412
REMARK SMILES Cc1ccc(C(=O)OCCOC(=O)c2ccc(-c3c4nc(c(-c5cc(S(=O)(=O)[O-])ccc5F)c5ccc([nH]5)c(-c5cc(S(=O)(=O)[O-])ccc5F)c5nc(c(-c6cc(S(=O)(=O)[O-])ccc6F)c6ccc3[nH]6)C=C5)C=C4)cc2)cc1N1C(=O)/C(=C/c2ccc([N+](=O)[O-])cc2)SC1=S
REMARK SMILES IDX 9 1 8 2 6 3 7 4 5 5 1 6 2 7 3 8 78 9 4 10 77 11 79 12 80 13
REMARK SMILES IDX 94 14 81 15 82 16 93 17 95 18 83 19 84 20 85 21 92 22 86 23
REMARK SMILES IDX 91 24 87 25 88 26 89 27 90 28 10 29 11 30 12 31 13 32 14 33
REMARK SMILES IDX 15 34 76 35 16 36 75 37 17 38 18 39 19 40 69 41 20 42 74 43
REMARK SMILES IDX 68 44 70 45 21 46 73 47 67 48 66 49 22 51 54 52 34 53 53 54
REMARK SMILES IDX 35 55 38 56 52 57 71 58 36 59 37 60 51 62 72 63 39 64 23 65
REMARK SMILES IDX 24 66 32 67 25 68 31 69 33 70 30 71 26 72 27 73 28 74 29 75
REMARK SMILES IDX 55 76 56 77 64 78 57 79 63 80 65 81 62 82 58 83 59 84 60 85
REMARK SMILES IDX 61 86 40 87 41 88 49 89 42 90 48 91 50 92 47 93 43 94 44 95
REMARK SMILES IDX 45 96 46 97
REMARK H PARENT 70 50 38 61
REMARK Flexibility Score: inf
ROOT
ATOM      1  C   UNL A   1      39.104  21.578  26.147  1.00  0.00     0.275 C 
ENDROOT
BRANCH   1   2
ATOM      2  O   UNL A   1      38.362  22.200  25.085  1.00  0.00    -0.458 OA
BRANCH   2   3
ATOM      3  C   UNL A   1      37.264  22.864  25.518  1.00  0.00     0.338 C 
ATOM      4  O   UNL A   1      37.257  23.816  26.285  1.00  0.00    -0.246 OA
BRANCH   3   5
ATOM      5  C   UNL A   1      36.018  22.187  25.105  1.00  0.00     0.062 A 
ATOM      6  C   UNL A   1      32.247  20.525  23.784  1.00  0.00     0.046 C 
ATOM      7  C   UNL A   1      33.524  21.135  24.286  1.00  0.00    -0.027 A 
ATOM      8  C   UNL A   1      34.546  20.294  24.755  1.00  0.00     0.006 A 
ATOM      9  C   UNL A   1      33.763  22.517  24.287  1.00  0.00     0.054 A 
ATOM     10  C   UNL A   1      35.756  20.823  25.229  1.00  0.00     0.016 A 
ATOM     11  C   UNL A   1      35.029  23.022  24.602  1.00  0.00     0.042 A 
BRANCH   9  12
ATOM     12  N   UNL A   1      32.722  23.468  24.229  1.00  0.00    -0.261 N 
ATOM     13  C   UNL A   1      32.487  24.179  23.058  1.00  0.00     0.270 C 
ATOM     14  C   UNL A   1      32.043  23.870  25.373  1.00  0.00     0.152 C 
ATOM     15  O   UNL A   1      32.903  23.953  21.944  1.00  0.00    -0.268 OA
ATOM     16  C   UNL A   1      31.629  25.351  23.392  1.00  0.00     0.081 C 
ATOM     17  S   UNL A   1      30.969  25.197  24.975  1.00  0.00    -0.054 SA
ATOM     18  S   UNL A   1      32.127  23.276  26.937  1.00  0.00    -0.051 S 
ATOM     19  C   UNL A   1      31.512  26.413  22.587  1.00  0.00     0.029 C 
BRANCH  19  20
ATOM     20  C   UNL A   1      30.737  27.598  22.956  1.00  0.00    -0.024 A 
ATOM     21  C   UNL A   1      29.389  27.714  22.586  1.00  0.00     0.015 A 
ATOM     22  C   UNL A   1      31.382  28.661  23.596  1.00  0.00     0.015 A 
ATOM     23  C   UNL A   1      28.685  28.889  22.864  1.00  0.00     0.086 A 
ATOM     24  C   UNL A   1      30.686  29.837  23.878  1.00  0.00     0.086 A 
ATOM     25  C   UNL A   1      29.337  29.945  23.515  1.00  0.00     0.269 A 
BRANCH  25  26
ATOM     26  N   UNL A   1      28.605  31.180  23.817  1.00  0.00     0.062 N 
ATOM     27  O   UNL A   1      29.261  32.223  23.960  1.00  0.00    -0.258 OA
ATOM     28  O   UNL A   1      27.370  31.111  23.912  1.00  0.00    -0.258 OA
ENDBRANCH  25  26
ENDBRANCH  19  20
ENDBRANCH   9  12
ENDBRANCH   3   5
ENDBRANCH   2   3
ENDBRANCH   1   2
BRANCH   1  29
ATOM     29  C   UNL A   1      40.548  22.102  26.228  1.00  0.00     0.275 C 
BRANCH  29  30
ATOM     30  O   UNL A   1      40.816  23.215  27.107  1.00  0.00    -0.458 OA
BRANCH  30  31
ATOM     31  C   UNL A   1      42.103  23.649  27.186  1.00  0.00     0.338 C 
ATOM     32  O   UNL A   1      43.058  23.069  26.696  1.00  0.00    -0.246 OA
BRANCH  31  33
ATOM     33  C   UNL A   1      42.097  25.070  27.631  1.00  0.00     0.060 A 
ATOM     34  C   UNL A   1      41.149  25.953  27.095  1.00  0.00     0.016 A 
ATOM     35  C   UNL A   1      42.806  25.411  28.785  1.00  0.00     0.016 A 
ATOM     36  C   UNL A   1      40.811  27.115  27.785  1.00  0.00     0.010 A 
ATOM     37  C   UNL A   1      42.415  26.505  29.517  1.00  0.00     0.010 A 
ATOM     38  C   UNL A   1      41.435  27.367  29.011  1.00  0.00    -0.014 A 
BRANCH  38  39
ATOM     39  C   UNL A   1      41.469  28.685  29.623  1.00  0.00     0.031 A 
ATOM     40  C   UNL A   1      40.280  29.489  29.932  1.00  0.00     0.074 A 
ATOM     41  C   UNL A   1      42.721  29.037  29.990  1.00  0.00     0.049 A 
ATOM     42  N   UNL A   1      40.290  30.775  30.035  1.00  0.00    -0.248 NA
ATOM     43  C   UNL A   1      38.955  28.912  30.140  1.00  0.00     0.031 C 
ATOM     44  C   UNL A   1      43.180  30.125  30.829  1.00  0.00     0.029 A 
ATOM     45  N   UNL A   1      43.902  28.506  29.458  1.00  0.00    -0.354 N 
ATOM     46  C   UNL A   1      39.114  31.142  30.654  1.00  0.00     0.074 A 
ATOM     47  C   UNL A   1      38.267  29.975  30.576  1.00  0.00     0.031 C 
ATOM     48  C   UNL A   1      44.457  30.394  30.488  1.00  0.00     0.029 A 
ATOM     49  C   UNL A   1      44.763  29.581  29.311  1.00  0.00     0.049 A 
ATOM     50  H   UNL A   1      44.083  27.564  29.236  1.00  0.00     0.167 HD
ATOM     51  C   UNL A   1      39.062  32.312  31.356  1.00  0.00     0.034 A 
ATOM     52  C   UNL A   1      45.109  30.053  28.076  1.00  0.00     0.034 A 
ATOM     53  C   UNL A   1      40.344  33.009  31.294  1.00  0.00     0.049 A 
ATOM     54  C   UNL A   1      44.741  31.513  27.968  1.00  0.00     0.074 A 
ATOM     55  C   UNL A   1      41.412  33.033  32.176  1.00  0.00     0.029 A 
ATOM     56  N   UNL A   1      40.814  33.512  30.086  1.00  0.00    -0.354 N 
ATOM     57  N   UNL A   1      43.690  32.046  28.530  1.00  0.00    -0.248 NA
ATOM     58  C   UNL A   1      45.576  32.480  27.272  1.00  0.00     0.031 C 
ATOM     59  C   UNL A   1      42.556  33.458  31.462  1.00  0.00     0.029 A 
ATOM     60  C   UNL A   1      42.176  33.728  30.158  1.00  0.00     0.049 A 
ATOM     61  H   UNL A   1      40.257  33.689  29.294  1.00  0.00     0.167 HD
ATOM     62  C   UNL A   1      43.768  33.410  28.400  1.00  0.00     0.074 A 
ATOM     63  C   UNL A   1      44.942  33.627  27.567  1.00  0.00     0.031 C 
ATOM     64  C   UNL A   1      42.915  34.270  29.034  1.00  0.00     0.034 A 
BRANCH  51  65
ATOM     65  C   UNL A   1      38.020  32.607  32.415  1.00  0.00     0.023 A 
ATOM     66  C   UNL A   1      36.758  33.102  32.017  1.00  0.00     0.031 A 
ATOM     67  C   UNL A   1      38.208  32.479  33.802  1.00  0.00     0.131 A 
ATOM     68  C   UNL A   1      35.809  33.554  32.949  1.00  0.00     0.055 A 
ATOM     69  C   UNL A   1      37.273  32.955  34.737  1.00  0.00     0.041 A 
ATOM     70  F   UNL A   1      39.290  31.866  34.304  1.00  0.00    -0.206 F 
ATOM     71  C   UNL A   1      36.075  33.516  34.313  1.00  0.00     0.022 A 
BRANCH  68  72
ATOM     72  S   UNL A   1      34.231  34.212  32.340  1.00  0.00     0.124 S 
ATOM     73  O   UNL A   1      34.381  35.644  32.571  1.00  0.00    -0.237 OA
ATOM     74  O   UNL A   1      34.233  33.781  30.946  1.00  0.00    -0.237 OA
ATOM     75  O   UNL A   1      33.238  33.552  33.187  1.00  0.00    -0.744 OA
ENDBRANCH  68  72
ENDBRANCH  51  65
BRANCH  52  76
ATOM     76  C   UNL A   1      45.071  29.086  26.926  1.00  0.00     0.023 A 
ATOM     77  C   UNL A   1      46.231  28.340  26.613  1.00  0.00     0.031 A 
ATOM     78  C   UNL A   1      43.882  28.710  26.282  1.00  0.00     0.131 A 
ATOM     79  C   UNL A   1      46.162  27.207  25.783  1.00  0.00     0.055 A 
ATOM     80  C   UNL A   1      43.827  27.608  25.412  1.00  0.00     0.041 A 
ATOM     81  F   UNL A   1      42.732  29.349  26.534  1.00  0.00    -0.206 F 
ATOM     82  C   UNL A   1      44.963  26.837  25.177  1.00  0.00     0.022 A 
BRANCH  79  83
ATOM     83  S   UNL A   1      47.605  26.103  25.687  1.00  0.00     0.124 S 
ATOM     84  O   UNL A   1      47.356  25.181  26.790  1.00  0.00    -0.237 OA
ATOM     85  O   UNL A   1      47.481  25.548  24.343  1.00  0.00    -0.237 OA
ATOM     86  O   UNL A   1      48.733  27.011  25.870  1.00  0.00    -0.744 OA
ENDBRANCH  79  83
ENDBRANCH  52  76
BRANCH  64  87
ATOM     87  C   UNL A   1      42.815  35.748  28.760  1.00  0.00     0.023 A 
ATOM     88  C   UNL A   1      43.454  36.703  29.557  1.00  0.00     0.031 A 
ATOM     89  C   UNL A   1      42.147  36.245  27.613  1.00  0.00     0.131 A 
ATOM     90  C   UNL A   1      43.334  38.073  29.281  1.00  0.00     0.055 A 
ATOM     91  C   UNL A   1      42.108  37.601  27.287  1.00  0.00     0.041 A 
ATOM     92  F   UNL A   1      41.514  35.434  26.752  1.00  0.00    -0.206 F 
ATOM     93  C   UNL A   1      42.687  38.530  28.135  1.00  0.00     0.022 A 
BRANCH  90  94
ATOM     94  S   UNL A   1      43.976  39.239  30.503  1.00  0.00     0.124 S 
ATOM     95  O   UNL A   1      43.081  40.380  30.325  1.00  0.00    -0.237 OA
ATOM     96  O   UNL A   1      43.822  38.502  31.753  1.00  0.00    -0.237 OA
ATOM     97  O   UNL A   1      45.356  39.461  30.075  1.00  0.00    -0.744 OA
ENDBRANCH  90  94
ENDBRANCH  64  87
ENDBRANCH  38  39
ENDBRANCH  31  33
ENDBRANCH  30  31
ENDBRANCH  29  30
ENDBRANCH   1  29
TORSDOF 17
ENDMDL
