MODEL 1
REMARK VINA RESULT:     -11.5      0.000      0.000
REMARK SMILES COc1ccc2cc([C@@H](C)C(=O)OCCOC(=O)c3ccc(-c4c5nc(c(-c6cc(S(=O)(=O)[O-])ccc6F)c6ccc([nH]6)c(-c6cc(S(=O)(=O)[O-])ccc6F)c6nc(c(-c7cc(S(=O)(=O)[O-])ccc7F)c7ccc4[nH]7)C=C6)C=C5)cc3)ccc2c1
REMARK SMILES IDX 15 1 14 2 13 3 11 4 12 5 9 6 10 7 8 8 3 9 4 10 85 11 5 12
REMARK SMILES IDX 84 13 6 14 83 15 7 16 82 17 2 18 1 19 16 20 17 21 18 22
REMARK SMILES IDX 19 23 20 24 81 25 21 26 80 27 22 28 23 29 24 30 74 31 25 32
REMARK SMILES IDX 79 33 73 34 75 35 26 36 78 37 72 38 71 39 27 41 59 42 39 43
REMARK SMILES IDX 58 44 40 45 43 46 57 47 76 48 41 49 42 50 56 52 77 53 44 54
REMARK SMILES IDX 28 55 29 56 37 57 30 58 36 59 38 60 35 61 31 62 32 63 33 64
REMARK SMILES IDX 34 65 60 66 61 67 69 68 62 69 68 70 70 71 67 72 63 73 64 74
REMARK SMILES IDX 65 75 66 76 45 77 46 78 54 79 47 80 53 81 55 82 52 83 48 84
REMARK SMILES IDX 49 85 50 86 51 87
REMARK H PARENT 75 40 43 51
REMARK Flexibility Score: inf
ROOT
ATOM      1  C   UNL A   1      37.412  20.176  24.944  1.00  0.00     0.275 C 
ENDROOT
BRANCH   1   2
ATOM      2  C   UNL A   1      35.892  20.344  25.007  1.00  0.00     0.274 C 
BRANCH   2   3
ATOM      3  O   UNL A   1      35.508  21.720  24.831  1.00  0.00    -0.462 OA
BRANCH   3   4
ATOM      4  C   UNL A   1      34.261  22.067  25.246  1.00  0.00     0.313 C 
ATOM      5  O   UNL A   1      33.227  21.643  24.739  1.00  0.00    -0.252 OA
BRANCH   4   6
ATOM      6  C   UNL A   1      34.247  23.097  26.370  1.00  0.00     0.126 C 
ATOM      7  C   UNL A   1      33.840  22.424  27.680  1.00  0.00     0.025 C 
BRANCH   6   8
ATOM      8  C   UNL A   1      33.456  24.370  26.105  1.00  0.00    -0.033 A 
ATOM      9  C   UNL A   1      31.785  28.971  24.712  1.00  0.00     0.119 A 
ATOM     10  C   UNL A   1      33.135  28.926  24.371  1.00  0.00     0.047 A 
ATOM     11  C   UNL A   1      31.200  27.875  25.350  1.00  0.00     0.055 A 
ATOM     12  C   UNL A   1      33.886  27.777  24.633  1.00  0.00     0.012 A 
ATOM     13  C   UNL A   1      31.938  26.710  25.611  1.00  0.00    -0.015 A 
ATOM     14  C   UNL A   1      33.298  26.657  25.239  1.00  0.00    -0.018 A 
ATOM     15  C   UNL A   1      31.356  25.596  26.231  1.00  0.00     0.009 A 
ATOM     16  C   UNL A   1      34.037  25.488  25.487  1.00  0.00     0.013 A 
ATOM     17  C   UNL A   1      32.106  24.442  26.474  1.00  0.00     0.005 A 
BRANCH   9  18
ATOM     18  O   UNL A   1      30.956  30.038  24.498  1.00  0.00    -0.497 OA
ATOM     19  C   UNL A   1      29.830  29.781  23.669  1.00  0.00     0.278 C 
ENDBRANCH   9  18
ENDBRANCH   6   8
ENDBRANCH   4   6
ENDBRANCH   3   4
ENDBRANCH   2   3
ENDBRANCH   1   2
BRANCH   1  20
ATOM     20  O   UNL A   1      38.088  21.342  25.445  1.00  0.00    -0.458 OA
BRANCH  20  21
ATOM     21  C   UNL A   1      39.239  21.087  26.113  1.00  0.00     0.338 C 
ATOM     22  O   UNL A   1      39.824  20.023  26.196  1.00  0.00    -0.246 OA
BRANCH  21  23
ATOM     23  C   UNL A   1      39.772  22.341  26.665  1.00  0.00     0.060 A 
ATOM     24  C   UNL A   1      39.298  23.547  26.144  1.00  0.00     0.016 A 
ATOM     25  C   UNL A   1      40.792  22.325  27.615  1.00  0.00     0.016 A 
ATOM     26  C   UNL A   1      39.856  24.752  26.560  1.00  0.00     0.010 A 
ATOM     27  C   UNL A   1      41.345  23.537  28.039  1.00  0.00     0.010 A 
ATOM     28  C   UNL A   1      40.892  24.755  27.502  1.00  0.00    -0.014 A 
BRANCH  28  29
ATOM     29  C   UNL A   1      41.552  26.029  27.874  1.00  0.00     0.031 A 
ATOM     30  C   UNL A   1      40.772  27.074  28.619  1.00  0.00     0.074 A 
ATOM     31  C   UNL A   1      42.841  26.239  27.551  1.00  0.00     0.049 A 
ATOM     32  N   UNL A   1      41.113  28.297  28.933  1.00  0.00    -0.248 NA
ATOM     33  C   UNL A   1      39.426  26.687  29.064  1.00  0.00     0.031 C 
ATOM     34  C   UNL A   1      43.711  25.272  26.879  1.00  0.00     0.029 A 
ATOM     35  N   UNL A   1      43.641  27.337  27.738  1.00  0.00    -0.354 N 
ATOM     36  C   UNL A   1      40.015  28.836  29.595  1.00  0.00     0.074 A 
ATOM     37  C   UNL A   1      38.992  27.811  29.616  1.00  0.00     0.031 C 
ATOM     38  C   UNL A   1      44.923  25.824  26.702  1.00  0.00     0.029 A 
ATOM     39  C   UNL A   1      44.898  27.198  27.198  1.00  0.00     0.049 A 
ATOM     40  H   UNL A   1      43.345  28.147  28.212  1.00  0.00     0.167 HD
ATOM     41  C   UNL A   1      39.878  30.073  30.134  1.00  0.00     0.034 A 
ATOM     42  C   UNL A   1      45.901  28.091  27.080  1.00  0.00     0.034 A 
ATOM     43  C   UNL A   1      40.911  31.081  30.100  1.00  0.00     0.049 A 
ATOM     44  C   UNL A   1      45.700  29.484  27.619  1.00  0.00     0.074 A 
ATOM     45  C   UNL A   1      40.883  32.367  30.611  1.00  0.00     0.029 A 
ATOM     46  N   UNL A   1      42.162  30.916  29.515  1.00  0.00    -0.354 N 
ATOM     47  N   UNL A   1      44.648  29.997  28.213  1.00  0.00    -0.248 NA
ATOM     48  C   UNL A   1      46.822  30.421  27.468  1.00  0.00     0.031 C 
ATOM     49  C   UNL A   1      42.090  32.997  30.284  1.00  0.00     0.029 A 
ATOM     50  C   UNL A   1      42.901  32.084  29.628  1.00  0.00     0.049 A 
ATOM     51  H   UNL A   1      42.476  30.090  29.080  1.00  0.00     0.167 HD
ATOM     52  C   UNL A   1      44.990  31.308  28.530  1.00  0.00     0.074 A 
ATOM     53  C   UNL A   1      46.350  31.503  28.068  1.00  0.00     0.031 C 
ATOM     54  C   UNL A   1      44.251  32.262  29.151  1.00  0.00     0.034 A 
BRANCH  41  55
ATOM     55  C   UNL A   1      38.541  30.414  30.745  1.00  0.00     0.023 A 
ATOM     56  C   UNL A   1      37.527  31.049  30.004  1.00  0.00     0.031 A 
ATOM     57  C   UNL A   1      38.292  30.140  32.101  1.00  0.00     0.131 A 
ATOM     58  C   UNL A   1      36.346  31.455  30.642  1.00  0.00     0.055 A 
ATOM     59  C   UNL A   1      37.083  30.478  32.711  1.00  0.00     0.041 A 
ATOM     60  F   UNL A   1      39.230  29.556  32.863  1.00  0.00    -0.206 F 
ATOM     61  C   UNL A   1      36.106  31.154  31.985  1.00  0.00     0.022 A 
BRANCH  58  62
ATOM     62  S   UNL A   1      35.184  32.508  29.729  1.00  0.00     0.124 S 
ATOM     63  O   UNL A   1      34.300  32.970  30.797  1.00  0.00    -0.237 OA
ATOM     64  O   UNL A   1      36.063  33.516  29.147  1.00  0.00    -0.237 OA
ATOM     65  O   UNL A   1      34.567  31.591  28.773  1.00  0.00    -0.744 OA
ENDBRANCH  58  62
ENDBRANCH  41  55
BRANCH  42  66
ATOM     66  C   UNL A   1      47.161  27.718  26.377  1.00  0.00     0.023 A 
ATOM     67  C   UNL A   1      47.300  27.896  24.992  1.00  0.00     0.031 A 
ATOM     68  C   UNL A   1      48.234  27.143  27.081  1.00  0.00     0.131 A 
ATOM     69  C   UNL A   1      48.473  27.472  24.348  1.00  0.00     0.055 A 
ATOM     70  C   UNL A   1      49.417  26.766  26.444  1.00  0.00     0.041 A 
ATOM     71  F   UNL A   1      48.150  26.951  28.407  1.00  0.00    -0.206 F 
ATOM     72  C   UNL A   1      49.537  26.920  25.066  1.00  0.00     0.022 A 
BRANCH  69  73
ATOM     73  S   UNL A   1      48.564  27.587  22.540  1.00  0.00     0.124 S 
ATOM     74  O   UNL A   1      49.803  28.333  22.351  1.00  0.00    -0.237 OA
ATOM     75  O   UNL A   1      48.595  26.181  22.149  1.00  0.00    -0.237 OA
ATOM     76  O   UNL A   1      47.342  28.304  22.183  1.00  0.00    -0.744 OA
ENDBRANCH  69  73
ENDBRANCH  42  66
BRANCH  54  77
ATOM     77  C   UNL A   1      44.927  33.586  29.406  1.00  0.00     0.023 A 
ATOM     78  C   UNL A   1      44.870  34.638  28.477  1.00  0.00     0.031 A 
ATOM     79  C   UNL A   1      45.648  33.788  30.596  1.00  0.00     0.131 A 
ATOM     80  C   UNL A   1      45.563  35.832  28.732  1.00  0.00     0.055 A 
ATOM     81  C   UNL A   1      46.293  34.996  30.868  1.00  0.00     0.041 A 
ATOM     82  F   UNL A   1      45.734  32.815  31.516  1.00  0.00    -0.206 F 
ATOM     83  C   UNL A   1      46.261  36.022  29.927  1.00  0.00     0.022 A 
BRANCH  80  84
ATOM     84  S   UNL A   1      45.601  37.111  27.447  1.00  0.00     0.124 S 
ATOM     85  O   UNL A   1      46.108  36.371  26.296  1.00  0.00    -0.237 OA
ATOM     86  O   UNL A   1      44.202  37.523  27.374  1.00  0.00    -0.237 OA
ATOM     87  O   UNL A   1      46.513  38.116  27.989  1.00  0.00    -0.744 OA
ENDBRANCH  80  84
ENDBRANCH  54  77
ENDBRANCH  28  29
ENDBRANCH  21  23
ENDBRANCH  20  21
ENDBRANCH   1  20
TORSDOF 16
ENDMDL
MODEL 2
REMARK VINA RESULT:     -11.4      1.047      7.741
REMARK SMILES COc1ccc2cc([C@@H](C)C(=O)OCCOC(=O)c3ccc(-c4c5nc(c(-c6cc(S(=O)(=O)[O-])ccc6F)c6ccc([nH]6)c(-c6cc(S(=O)(=O)[O-])ccc6F)c6nc(c(-c7cc(S(=O)(=O)[O-])ccc7F)c7ccc4[nH]7)C=C6)C=C5)cc3)ccc2c1
REMARK SMILES IDX 15 1 14 2 13 3 11 4 12 5 9 6 10 7 8 8 3 9 4 10 85 11 5 12
REMARK SMILES IDX 84 13 6 14 83 15 7 16 82 17 2 18 1 19 16 20 17 21 18 22
REMARK SMILES IDX 19 23 20 24 81 25 21 26 80 27 22 28 23 29 24 30 74 31 25 32
REMARK SMILES IDX 79 33 73 34 75 35 26 36 78 37 72 38 71 39 27 41 59 42 39 43
REMARK SMILES IDX 58 44 40 45 43 46 57 47 76 48 41 49 42 50 56 52 77 53 44 54
REMARK SMILES IDX 28 55 29 56 37 57 30 58 36 59 38 60 35 61 31 62 32 63 33 64
REMARK SMILES IDX 34 65 60 66 61 67 69 68 62 69 68 70 70 71 67 72 63 73 64 74
REMARK SMILES IDX 65 75 66 76 45 77 46 78 54 79 47 80 53 81 55 82 52 83 48 84
REMARK SMILES IDX 49 85 50 86 51 87
REMARK H PARENT 75 40 43 51
REMARK Flexibility Score: inf
ROOT
ATOM      1  C   UNL A   1      37.418  20.065  24.996  1.00  0.00     0.275 C 
ENDROOT
BRANCH   1   2
ATOM      2  C   UNL A   1      35.894  20.115  24.868  1.00  0.00     0.274 C 
BRANCH   2   3
ATOM      3  O   UNL A   1      35.393  21.449  25.078  1.00  0.00    -0.462 OA
BRANCH   3   4
ATOM      4  C   UNL A   1      34.475  21.906  24.186  1.00  0.00     0.313 C 
ATOM      5  O   UNL A   1      33.364  21.409  24.030  1.00  0.00    -0.252 OA
BRANCH   4   6
ATOM      6  C   UNL A   1      34.968  23.067  23.329  1.00  0.00     0.126 C 
ATOM      7  C   UNL A   1      36.490  23.166  23.425  1.00  0.00     0.025 C 
BRANCH   6   8
ATOM      8  C   UNL A   1      34.286  24.407  23.557  1.00  0.00    -0.033 A 
ATOM      9  C   UNL A   1      32.505  28.824  25.353  1.00  0.00     0.119 A 
ATOM     10  C   UNL A   1      33.186  28.220  26.408  1.00  0.00     0.047 A 
ATOM     11  C   UNL A   1      32.404  28.160  24.128  1.00  0.00     0.055 A 
ATOM     12  C   UNL A   1      33.795  26.975  26.226  1.00  0.00     0.012 A 
ATOM     13  C   UNL A   1      33.018  26.914  23.928  1.00  0.00    -0.015 A 
ATOM     14  C   UNL A   1      33.732  26.317  24.990  1.00  0.00    -0.018 A 
ATOM     15  C   UNL A   1      32.942  26.247  22.698  1.00  0.00     0.009 A 
ATOM     16  C   UNL A   1      34.358  25.075  24.790  1.00  0.00     0.013 A 
ATOM     17  C   UNL A   1      33.568  25.011  22.516  1.00  0.00     0.005 A 
BRANCH   9  18
ATOM     18  O   UNL A   1      31.879  30.039  25.416  1.00  0.00    -0.497 OA
ATOM     19  C   UNL A   1      32.115  30.787  26.602  1.00  0.00     0.278 C 
ENDBRANCH   9  18
ENDBRANCH   6   8
ENDBRANCH   4   6
ENDBRANCH   3   4
ENDBRANCH   2   3
ENDBRANCH   1   2
BRANCH   1  20
ATOM     20  O   UNL A   1      37.911  21.144  25.809  1.00  0.00    -0.458 OA
BRANCH  20  21
ATOM     21  C   UNL A   1      39.220  21.051  26.143  1.00  0.00     0.338 C 
ATOM     22  O   UNL A   1      39.946  20.083  26.019  1.00  0.00    -0.246 OA
BRANCH  21  23
ATOM     23  C   UNL A   1      39.702  22.362  26.602  1.00  0.00     0.060 A 
ATOM     24  C   UNL A   1      39.078  23.507  26.103  1.00  0.00     0.016 A 
ATOM     25  C   UNL A   1      40.814  22.461  27.438  1.00  0.00     0.016 A 
ATOM     26  C   UNL A   1      39.574  24.767  26.425  1.00  0.00     0.010 A 
ATOM     27  C   UNL A   1      41.306  23.727  27.767  1.00  0.00     0.010 A 
ATOM     28  C   UNL A   1      40.699  24.886  27.250  1.00  0.00    -0.014 A 
BRANCH  28  29
ATOM     29  C   UNL A   1      41.287  26.221  27.515  1.00  0.00     0.031 A 
ATOM     30  C   UNL A   1      42.658  26.539  26.992  1.00  0.00     0.074 A 
ATOM     31  C   UNL A   1      40.591  27.138  28.211  1.00  0.00     0.049 A 
ATOM     32  N   UNL A   1      43.406  27.590  27.209  1.00  0.00    -0.248 NA
ATOM     33  C   UNL A   1      43.269  25.534  26.111  1.00  0.00     0.031 C 
ATOM     34  C   UNL A   1      39.230  26.957  28.717  1.00  0.00     0.029 A 
ATOM     35  N   UNL A   1      40.937  28.400  28.620  1.00  0.00    -0.354 N 
ATOM     36  C   UNL A   1      44.587  27.365  26.509  1.00  0.00     0.074 A 
ATOM     37  C   UNL A   1      44.459  26.067  25.879  1.00  0.00     0.031 C 
ATOM     38  C   UNL A   1      38.859  28.067  29.377  1.00  0.00     0.029 A 
ATOM     39  C   UNL A   1      39.973  29.012  29.387  1.00  0.00     0.049 A 
ATOM     40  H   UNL A   1      41.793  28.828  28.388  1.00  0.00     0.167 HD
ATOM     41  C   UNL A   1      45.672  28.170  26.403  1.00  0.00     0.034 A 
ATOM     42  C   UNL A   1      40.002  30.182  30.054  1.00  0.00     0.034 A 
ATOM     43  C   UNL A   1      45.778  29.460  27.042  1.00  0.00     0.049 A 
ATOM     44  C   UNL A   1      41.248  31.027  29.986  1.00  0.00     0.074 A 
ATOM     45  C   UNL A   1      46.829  30.360  27.007  1.00  0.00     0.029 A 
ATOM     46  N   UNL A   1      44.794  30.034  27.840  1.00  0.00    -0.354 N 
ATOM     47  N   UNL A   1      42.372  30.792  29.349  1.00  0.00    -0.248 NA
ATOM     48  C   UNL A   1      41.231  32.294  30.729  1.00  0.00     0.031 C 
ATOM     49  C   UNL A   1      46.505  31.447  27.828  1.00  0.00     0.029 A 
ATOM     50  C   UNL A   1      45.225  31.261  28.322  1.00  0.00     0.049 A 
ATOM     51  H   UNL A   1      43.919  29.627  28.034  1.00  0.00     0.167 HD
ATOM     52  C   UNL A   1      43.186  31.894  29.594  1.00  0.00     0.074 A 
ATOM     53  C   UNL A   1      42.420  32.796  30.430  1.00  0.00     0.031 C 
ATOM     54  C   UNL A   1      44.449  32.141  29.164  1.00  0.00     0.034 A 
BRANCH  41  55
ATOM     55  C   UNL A   1      46.849  27.641  25.621  1.00  0.00     0.023 A 
ATOM     56  C   UNL A   1      47.102  28.045  24.297  1.00  0.00     0.031 A 
ATOM     57  C   UNL A   1      47.705  26.683  26.192  1.00  0.00     0.131 A 
ATOM     58  C   UNL A   1      48.136  27.438  23.567  1.00  0.00     0.055 A 
ATOM     59  C   UNL A   1      48.779  26.139  25.485  1.00  0.00     0.041 A 
ATOM     60  F   UNL A   1      47.499  26.243  27.444  1.00  0.00    -0.206 F 
ATOM     61  C   UNL A   1      48.990  26.505  24.158  1.00  0.00     0.022 A 
BRANCH  58  62
ATOM     62  S   UNL A   1      48.260  27.781  21.790  1.00  0.00     0.124 S 
ATOM     63  O   UNL A   1      46.935  28.324  21.499  1.00  0.00    -0.237 OA
ATOM     64  O   UNL A   1      49.367  28.727  21.728  1.00  0.00    -0.237 OA
ATOM     65  O   UNL A   1      48.528  26.468  21.205  1.00  0.00    -0.744 OA
ENDBRANCH  58  62
ENDBRANCH  41  55
BRANCH  42  66
ATOM     66  C   UNL A   1      38.841  30.599  30.890  1.00  0.00     0.023 A 
ATOM     67  C   UNL A   1      37.731  31.244  30.323  1.00  0.00     0.031 A 
ATOM     68  C   UNL A   1      38.843  30.385  32.280  1.00  0.00     0.131 A 
ATOM     69  C   UNL A   1      36.685  31.684  31.148  1.00  0.00     0.055 A 
ATOM     70  C   UNL A   1      37.779  30.783  33.090  1.00  0.00     0.041 A 
ATOM     71  F   UNL A   1      39.882  29.772  32.871  1.00  0.00    -0.206 F 
ATOM     72  C   UNL A   1      36.695  31.447  32.526  1.00  0.00     0.022 A 
BRANCH  69  73
ATOM     73  S   UNL A   1      35.333  32.639  30.404  1.00  0.00     0.124 S 
ATOM     74  O   UNL A   1      35.042  31.860  29.206  1.00  0.00    -0.237 OA
ATOM     75  O   UNL A   1      34.322  32.602  31.456  1.00  0.00    -0.237 OA
ATOM     76  O   UNL A   1      35.933  33.950  30.166  1.00  0.00    -0.744 OA
ENDBRANCH  69  73
ENDBRANCH  42  66
BRANCH  54  77
ATOM     77  C   UNL A   1      45.054  33.466  29.555  1.00  0.00     0.023 A 
ATOM     78  C   UNL A   1      44.878  34.620  28.773  1.00  0.00     0.031 A 
ATOM     79  C   UNL A   1      45.828  33.567  30.725  1.00  0.00     0.131 A 
ATOM     80  C   UNL A   1      45.509  35.817  29.145  1.00  0.00     0.055 A 
ATOM     81  C   UNL A   1      46.411  34.772  31.118  1.00  0.00     0.041 A 
ATOM     82  F   UNL A   1      46.027  32.493  31.506  1.00  0.00    -0.206 F 
ATOM     83  C   UNL A   1      46.261  35.904  30.320  1.00  0.00     0.022 A 
BRANCH  80  84
ATOM     84  S   UNL A   1      45.393  37.247  28.036  1.00  0.00     0.124 S 
ATOM     85  O   UNL A   1      46.779  37.412  27.608  1.00  0.00    -0.237 OA
ATOM     86  O   UNL A   1      44.463  36.777  27.015  1.00  0.00    -0.237 OA
ATOM     87  O   UNL A   1      44.881  38.310  28.898  1.00  0.00    -0.744 OA
ENDBRANCH  80  84
ENDBRANCH  54  77
ENDBRANCH  28  29
ENDBRANCH  21  23
ENDBRANCH  20  21
ENDBRANCH   1  20
TORSDOF 16
ENDMDL
MODEL 3
REMARK VINA RESULT:     -11.4      5.029      9.681
REMARK SMILES COc1ccc2cc([C@@H](C)C(=O)OCCOC(=O)c3ccc(-c4c5nc(c(-c6cc(S(=O)(=O)[O-])ccc6F)c6ccc([nH]6)c(-c6cc(S(=O)(=O)[O-])ccc6F)c6nc(c(-c7cc(S(=O)(=O)[O-])ccc7F)c7ccc4[nH]7)C=C6)C=C5)cc3)ccc2c1
REMARK SMILES IDX 15 1 14 2 13 3 11 4 12 5 9 6 10 7 8 8 3 9 4 10 85 11 5 12
REMARK SMILES IDX 84 13 6 14 83 15 7 16 82 17 2 18 1 19 16 20 17 21 18 22
REMARK SMILES IDX 19 23 20 24 81 25 21 26 80 27 22 28 23 29 24 30 74 31 25 32
REMARK SMILES IDX 79 33 73 34 75 35 26 36 78 37 72 38 71 39 27 41 59 42 39 43
REMARK SMILES IDX 58 44 40 45 43 46 57 47 76 48 41 49 42 50 56 52 77 53 44 54
REMARK SMILES IDX 28 55 29 56 37 57 30 58 36 59 38 60 35 61 31 62 32 63 33 64
REMARK SMILES IDX 34 65 60 66 61 67 69 68 62 69 68 70 70 71 67 72 63 73 64 74
REMARK SMILES IDX 65 75 66 76 45 77 46 78 54 79 47 80 53 81 55 82 52 83 48 84
REMARK SMILES IDX 49 85 50 86 51 87
REMARK H PARENT 75 40 43 51
REMARK Flexibility Score: inf
ROOT
ATOM      1  C   UNL A   1      33.091  33.842  28.000  1.00  0.00     0.275 C 
ENDROOT
BRANCH   1   2
ATOM      2  C   UNL A   1      33.268  35.117  28.827  1.00  0.00     0.274 C 
BRANCH   2   3
ATOM      3  O   UNL A   1      34.527  35.119  29.526  1.00  0.00    -0.462 OA
BRANCH   3   4
ATOM      4  C   UNL A   1      34.526  34.625  30.792  1.00  0.00     0.313 C 
ATOM      5  O   UNL A   1      33.848  35.084  31.707  1.00  0.00    -0.252 OA
BRANCH   4   6
ATOM      6  C   UNL A   1      35.503  33.475  31.009  1.00  0.00     0.126 C 
ATOM      7  C   UNL A   1      34.813  32.352  31.783  1.00  0.00     0.025 C 
BRANCH   6   8
ATOM      8  C   UNL A   1      36.853  33.844  31.608  1.00  0.00    -0.033 A 
ATOM      9  C   UNL A   1      41.732  34.966  32.524  1.00  0.00     0.119 A 
ATOM     10  C   UNL A   1      41.660  34.603  31.181  1.00  0.00     0.047 A 
ATOM     11  C   UNL A   1      40.579  34.920  33.312  1.00  0.00     0.055 A 
ATOM     12  C   UNL A   1      40.435  34.233  30.620  1.00  0.00     0.012 A 
ATOM     13  C   UNL A   1      39.340  34.560  32.761  1.00  0.00    -0.015 A 
ATOM     14  C   UNL A   1      39.265  34.220  31.393  1.00  0.00    -0.018 A 
ATOM     15  C   UNL A   1      38.173  34.530  33.535  1.00  0.00     0.009 A 
ATOM     16  C   UNL A   1      38.024  33.871  30.834  1.00  0.00     0.013 A 
ATOM     17  C   UNL A   1      36.946  34.178  32.966  1.00  0.00     0.005 A 
BRANCH   9  18
ATOM     18  O   UNL A   1      42.873  35.349  33.174  1.00  0.00    -0.497 OA
ATOM     19  C   UNL A   1      43.711  36.248  32.460  1.00  0.00     0.278 C 
ENDBRANCH   9  18
ENDBRANCH   6   8
ENDBRANCH   4   6
ENDBRANCH   3   4
ENDBRANCH   2   3
ENDBRANCH   1   2
BRANCH   1  20
ATOM     20  O   UNL A   1      34.339  33.144  27.841  1.00  0.00    -0.458 OA
BRANCH  20  21
ATOM     21  C   UNL A   1      34.221  31.811  27.634  1.00  0.00     0.338 C 
ATOM     22  O   UNL A   1      33.302  31.226  27.091  1.00  0.00    -0.246 OA
BRANCH  21  23
ATOM     23  C   UNL A   1      35.449  31.136  28.077  1.00  0.00     0.060 A 
ATOM     24  C   UNL A   1      35.337  29.872  28.660  1.00  0.00     0.016 A 
ATOM     25  C   UNL A   1      36.684  31.782  28.005  1.00  0.00     0.016 A 
ATOM     26  C   UNL A   1      36.461  29.248  29.193  1.00  0.00     0.010 A 
ATOM     27  C   UNL A   1      37.813  31.151  28.533  1.00  0.00     0.010 A 
ATOM     28  C   UNL A   1      37.705  29.888  29.144  1.00  0.00    -0.014 A 
BRANCH  28  29
ATOM     29  C   UNL A   1      38.884  29.269  29.796  1.00  0.00     0.031 A 
ATOM     30  C   UNL A   1      39.318  29.756  31.149  1.00  0.00     0.074 A 
ATOM     31  C   UNL A   1      39.550  28.275  29.182  1.00  0.00     0.049 A 
ATOM     32  N   UNL A   1      40.383  29.444  31.841  1.00  0.00    -0.248 NA
ATOM     33  C   UNL A   1      38.435  30.730  31.805  1.00  0.00     0.031 C 
ATOM     34  C   UNL A   1      39.183  27.684  27.893  1.00  0.00     0.029 A 
ATOM     35  N   UNL A   1      40.680  27.593  29.554  1.00  0.00    -0.354 N 
ATOM     36  C   UNL A   1      40.311  30.199  33.007  1.00  0.00     0.074 A 
ATOM     37  C   UNL A   1      39.107  30.999  32.914  1.00  0.00     0.031 C 
ATOM     38  C   UNL A   1      40.077  26.732  27.579  1.00  0.00     0.029 A 
ATOM     39  C   UNL A   1      41.107  26.685  28.614  1.00  0.00     0.049 A 
ATOM     40  H   UNL A   1      41.141  27.738  30.412  1.00  0.00     0.167 HD
ATOM     41  C   UNL A   1      41.171  30.218  34.055  1.00  0.00     0.034 A 
ATOM     42  C   UNL A   1      42.223  25.930  28.574  1.00  0.00     0.034 A 
ATOM     43  C   UNL A   1      42.367  29.413  34.124  1.00  0.00     0.049 A 
ATOM     44  C   UNL A   1      43.205  26.024  29.714  1.00  0.00     0.074 A 
ATOM     45  C   UNL A   1      43.312  29.352  35.134  1.00  0.00     0.029 A 
ATOM     46  N   UNL A   1      42.787  28.527  33.138  1.00  0.00    -0.354 N 
ATOM     47  N   UNL A   1      43.146  26.764  30.797  1.00  0.00    -0.248 NA
ATOM     48  C   UNL A   1      44.405  25.182  29.625  1.00  0.00     0.031 C 
ATOM     49  C   UNL A   1      44.329  28.478  34.732  1.00  0.00     0.029 A 
ATOM     50  C   UNL A   1      43.988  27.939  33.503  1.00  0.00     0.049 A 
ATOM     51  H   UNL A   1      42.302  28.347  32.300  1.00  0.00     0.167 HD
ATOM     52  C   UNL A   1      44.288  26.458  31.529  1.00  0.00     0.074 A 
ATOM     53  C   UNL A   1      45.013  25.460  30.769  1.00  0.00     0.031 C 
ATOM     54  C   UNL A   1      44.700  26.953  32.725  1.00  0.00     0.034 A 
BRANCH  41  55
ATOM     55  C   UNL A   1      40.875  31.189  35.171  1.00  0.00     0.023 A 
ATOM     56  C   UNL A   1      39.757  31.035  36.012  1.00  0.00     0.031 A 
ATOM     57  C   UNL A   1      41.697  32.312  35.369  1.00  0.00     0.131 A 
ATOM     58  C   UNL A   1      39.454  32.025  36.959  1.00  0.00     0.055 A 
ATOM     59  C   UNL A   1      41.431  33.254  36.364  1.00  0.00     0.041 A 
ATOM     60  F   UNL A   1      42.765  32.523  34.582  1.00  0.00    -0.206 F 
ATOM     61  C   UNL A   1      40.295  33.122  37.156  1.00  0.00     0.022 A 
BRANCH  58  62
ATOM     62  S   UNL A   1      37.866  31.932  37.832  1.00  0.00     0.124 S 
ATOM     63  O   UNL A   1      38.246  32.338  39.183  1.00  0.00    -0.237 OA
ATOM     64  O   UNL A   1      37.042  32.879  37.089  1.00  0.00    -0.237 OA
ATOM     65  O   UNL A   1      37.480  30.530  37.696  1.00  0.00    -0.744 OA
ENDBRANCH  58  62
ENDBRANCH  41  55
BRANCH  42  66
ATOM     66  C   UNL A   1      42.504  25.066  27.393  1.00  0.00     0.023 A 
ATOM     67  C   UNL A   1      42.097  23.723  27.362  1.00  0.00     0.031 A 
ATOM     68  C   UNL A   1      43.216  25.567  26.289  1.00  0.00     0.131 A 
ATOM     69  C   UNL A   1      42.436  22.917  26.264  1.00  0.00     0.055 A 
ATOM     70  C   UNL A   1      43.510  24.775  25.178  1.00  0.00     0.041 A 
ATOM     71  F   UNL A   1      43.627  26.845  26.270  1.00  0.00    -0.206 F 
ATOM     72  C   UNL A   1      43.129  23.437  25.167  1.00  0.00     0.022 A 
BRANCH  69  73
ATOM     73  S   UNL A   1      42.020  21.152  26.319  1.00  0.00     0.124 S 
ATOM     74  O   UNL A   1      42.866  20.614  25.259  1.00  0.00    -0.237 OA
ATOM     75  O   UNL A   1      42.395  20.795  27.684  1.00  0.00    -0.237 OA
ATOM     76  O   UNL A   1      40.585  21.132  26.045  1.00  0.00    -0.744 OA
ENDBRANCH  69  73
ENDBRANCH  42  66
BRANCH  54  77
ATOM     77  C   UNL A   1      45.970  26.376  33.299  1.00  0.00     0.023 A 
ATOM     78  C   UNL A   1      45.959  25.245  34.132  1.00  0.00     0.031 A 
ATOM     79  C   UNL A   1      47.207  26.980  33.013  1.00  0.00     0.131 A 
ATOM     80  C   UNL A   1      47.159  24.779  34.691  1.00  0.00     0.055 A 
ATOM     81  C   UNL A   1      48.404  26.482  33.530  1.00  0.00     0.041 A 
ATOM     82  F   UNL A   1      47.272  28.063  32.223  1.00  0.00    -0.206 F 
ATOM     83  C   UNL A   1      48.382  25.381  34.383  1.00  0.00     0.022 A 
BRANCH  80  84
ATOM     84  S   UNL A   1      47.096  23.416  35.885  1.00  0.00     0.124 S 
ATOM     85  O   UNL A   1      46.272  23.982  36.949  1.00  0.00    -0.237 OA
ATOM     86  O   UNL A   1      46.483  22.345  35.106  1.00  0.00    -0.237 OA
ATOM     87  O   UNL A   1      48.498  23.200  36.235  1.00  0.00    -0.744 OA
ENDBRANCH  80  84
ENDBRANCH  54  77
ENDBRANCH  28  29
ENDBRANCH  21  23
ENDBRANCH  20  21
ENDBRANCH   1  20
TORSDOF 16
ENDMDL
