MODEL 1
REMARK VINA RESULT:     -11.1      0.000      0.000
REMARK SMILES C[C@@H](C(=O)OCCOC(=O)c1ccc(-c2c3nc(c(-c4cc(S(=O)(=O)[O-])ccc4F)c4ccc([nH]4)c(-c4cc(S(=O)(=O)[O-])ccc4F)c4nc(c(-c5cc(S(=O)(=O)[O-])ccc5F)c5ccc2[nH]5)C=C4)C=C3)cc1)c1cccn(C(F)F)c1=O
REMARK SMILES IDX 7 1 6 2 5 3 3 4 4 5 2 6 1 7 74 8 75 9 82 10 76 11 78 12
REMARK SMILES IDX 83 13 77 14 79 15 80 16 81 17 8 18 9 19 10 20 11 21 12 22
REMARK SMILES IDX 73 23 13 24 72 25 14 26 15 27 16 28 66 29 17 30 71 31 65 32
REMARK SMILES IDX 67 33 18 34 70 35 64 36 63 37 19 39 51 40 31 41 50 42 32 43
REMARK SMILES IDX 35 44 49 45 68 46 33 47 34 48 48 50 69 51 36 52 20 53 21 54
REMARK SMILES IDX 29 55 22 56 28 57 30 58 27 59 23 60 24 61 25 62 26 63 52 64
REMARK SMILES IDX 53 65 61 66 54 67 60 68 62 69 59 70 55 71 56 72 57 73 58 74
REMARK SMILES IDX 37 75 38 76 46 77 39 78 45 79 47 80 44 81 40 82 41 83 42 84
REMARK SMILES IDX 43 85
REMARK H PARENT 67 38 35 49
REMARK Flexibility Score: inf
ROOT
ATOM      1  C   UNL A   1      36.534  20.047  24.917  1.00  0.00     0.275 C 
ENDROOT
BRANCH   1   2
ATOM      2  C   UNL A   1      35.036  20.336  24.971  1.00  0.00     0.274 C 
BRANCH   2   3
ATOM      3  O   UNL A   1      34.803  21.758  25.029  1.00  0.00    -0.462 OA
BRANCH   3   4
ATOM      4  C   UNL A   1      34.024  22.285  24.044  1.00  0.00     0.313 C 
ATOM      5  O   UNL A   1      32.937  21.823  23.709  1.00  0.00    -0.252 OA
BRANCH   4   6
ATOM      6  C   UNL A   1      34.725  23.419  23.293  1.00  0.00     0.132 C 
ATOM      7  C   UNL A   1      36.243  23.255  23.182  1.00  0.00     0.025 C 
BRANCH   6   8
ATOM      8  C   UNL A   1      34.277  24.757  23.852  1.00  0.00     0.032 A 
ATOM      9  C   UNL A   1      34.317  25.039  25.168  1.00  0.00     0.012 A 
ATOM     10  C   UNL A   1      33.774  25.822  22.914  1.00  0.00     0.259 A 
ATOM     11  C   UNL A   1      33.883  26.311  25.685  1.00  0.00     0.019 A 
ATOM     12  N   UNL A   1      33.329  26.996  23.496  1.00  0.00    -0.258 N 
ATOM     13  O   UNL A   1      33.791  25.629  21.701  1.00  0.00    -0.269 OA
ATOM     14  C   UNL A   1      33.390  27.233  24.855  1.00  0.00     0.095 A 
BRANCH  12  15
ATOM     15  C   UNL A   1      32.725  27.983  22.631  1.00  0.00     0.451 C 
ATOM     16  F   UNL A   1      31.422  28.131  22.980  1.00  0.00    -0.185 F 
ATOM     17  F   UNL A   1      33.316  29.191  22.817  1.00  0.00    -0.185 F 
ENDBRANCH  12  15
ENDBRANCH   6   8
ENDBRANCH   4   6
ENDBRANCH   3   4
ENDBRANCH   2   3
ENDBRANCH   1   2
BRANCH   1  18
ATOM     18  O   UNL A   1      37.231  21.119  25.567  1.00  0.00    -0.458 OA
BRANCH  18  19
ATOM     19  C   UNL A   1      38.558  20.932  25.761  1.00  0.00     0.338 C 
ATOM     20  O   UNL A   1      39.185  19.910  25.538  1.00  0.00    -0.246 OA
BRANCH  19  21
ATOM     21  C   UNL A   1      39.155  22.162  26.337  1.00  0.00     0.060 A 
ATOM     22  C   UNL A   1      38.636  23.424  26.049  1.00  0.00     0.016 A 
ATOM     23  C   UNL A   1      40.301  22.057  27.128  1.00  0.00     0.016 A 
ATOM     24  C   UNL A   1      39.314  24.572  26.464  1.00  0.00     0.010 A 
ATOM     25  C   UNL A   1      40.921  23.212  27.624  1.00  0.00     0.010 A 
ATOM     26  C   UNL A   1      40.467  24.491  27.259  1.00  0.00    -0.014 A 
BRANCH  26  27
ATOM     27  C   UNL A   1      41.229  25.726  27.634  1.00  0.00     0.031 A 
ATOM     28  C   UNL A   1      40.575  26.801  28.478  1.00  0.00     0.074 A 
ATOM     29  C   UNL A   1      42.524  25.879  27.283  1.00  0.00     0.049 A 
ATOM     30  N   UNL A   1      41.009  27.998  28.783  1.00  0.00    -0.248 NA
ATOM     31  C   UNL A   1      39.255  26.486  29.049  1.00  0.00     0.031 C 
ATOM     32  C   UNL A   1      43.322  24.908  26.532  1.00  0.00     0.029 A 
ATOM     33  N   UNL A   1      43.409  26.904  27.529  1.00  0.00    -0.354 N 
ATOM     34  C   UNL A   1      40.009  28.588  29.550  1.00  0.00     0.074 A 
ATOM     35  C   UNL A   1      38.935  27.623  29.649  1.00  0.00     0.031 C 
ATOM     36  C   UNL A   1      44.584  25.350  26.434  1.00  0.00     0.029 A 
ATOM     37  C   UNL A   1      44.665  26.691  27.003  1.00  0.00     0.049 A 
ATOM     38  H   UNL A   1      43.167  27.714  28.033  1.00  0.00     0.167 HD
ATOM     39  C   UNL A   1      39.982  29.819  30.121  1.00  0.00     0.034 A 
ATOM     40  C   UNL A   1      45.746  27.495  26.928  1.00  0.00     0.034 A 
ATOM     41  C   UNL A   1      41.062  30.772  30.044  1.00  0.00     0.049 A 
ATOM     42  C   UNL A   1      45.656  28.896  27.474  1.00  0.00     0.074 A 
ATOM     43  C   UNL A   1      41.121  32.053  30.567  1.00  0.00     0.029 A 
ATOM     44  N   UNL A   1      42.277  30.549  29.410  1.00  0.00    -0.354 N 
ATOM     45  N   UNL A   1      44.659  29.476  28.100  1.00  0.00    -0.248 NA
ATOM     46  C   UNL A   1      46.828  29.759  27.275  1.00  0.00     0.031 C 
ATOM     47  C   UNL A   1      42.342  32.626  30.196  1.00  0.00     0.029 A 
ATOM     48  C   UNL A   1      43.078  31.679  29.502  1.00  0.00     0.049 A 
ATOM     49  H   UNL A   1      42.533  29.712  28.960  1.00  0.00     0.167 HD
ATOM     50  C   UNL A   1      45.085  30.774  28.367  1.00  0.00     0.074 A 
ATOM     51  C   UNL A   1      46.439  30.880  27.864  1.00  0.00     0.031 C 
ATOM     52  C   UNL A   1      44.413  31.789  28.967  1.00  0.00     0.034 A 
BRANCH  39  53
ATOM     53  C   UNL A   1      38.709  30.233  30.820  1.00  0.00     0.023 A 
ATOM     54  C   UNL A   1      37.680  30.926  30.159  1.00  0.00     0.031 A 
ATOM     55  C   UNL A   1      38.533  29.933  32.183  1.00  0.00     0.131 A 
ATOM     56  C   UNL A   1      36.544  31.337  30.875  1.00  0.00     0.055 A 
ATOM     57  C   UNL A   1      37.371  30.286  32.872  1.00  0.00     0.041 A 
ATOM     58  F   UNL A   1      39.492  29.293  32.871  1.00  0.00    -0.206 F 
ATOM     59  C   UNL A   1      36.373  31.002  32.220  1.00  0.00     0.022 A 
BRANCH  56  60
ATOM     60  S   UNL A   1      35.339  32.419  30.055  1.00  0.00     0.124 S 
ATOM     61  O   UNL A   1      34.917  31.594  28.927  1.00  0.00    -0.237 OA
ATOM     62  O   UNL A   1      34.345  32.632  31.101  1.00  0.00    -0.237 OA
ATOM     63  O   UNL A   1      36.126  33.598  29.695  1.00  0.00    -0.744 OA
ENDBRANCH  56  60
ENDBRANCH  39  53
BRANCH  40  64
ATOM     64  C   UNL A   1      46.976  27.037  26.213  1.00  0.00     0.023 A 
ATOM     65  C   UNL A   1      48.023  26.395  26.893  1.00  0.00     0.031 A 
ATOM     66  C   UNL A   1      47.133  27.274  24.834  1.00  0.00     0.131 A 
ATOM     67  C   UNL A   1      49.189  26.034  26.197  1.00  0.00     0.055 A 
ATOM     68  C   UNL A   1      48.266  26.857  24.137  1.00  0.00     0.041 A 
ATOM     69  F   UNL A   1      46.169  27.897  24.137  1.00  0.00    -0.206 F 
ATOM     70  C   UNL A   1      49.309  26.242  24.820  1.00  0.00     0.022 A 
BRANCH  67  71
ATOM     71  S   UNL A   1      50.589  25.355  27.130  1.00  0.00     0.124 S 
ATOM     72  O   UNL A   1      49.958  24.262  27.860  1.00  0.00    -0.237 OA
ATOM     73  O   UNL A   1      51.507  24.970  26.063  1.00  0.00    -0.237 OA
ATOM     74  O   UNL A   1      51.029  26.482  27.950  1.00  0.00    -0.744 OA
ENDBRANCH  67  71
ENDBRANCH  40  64
BRANCH  52  75
ATOM     75  C   UNL A   1      45.150  33.096  29.121  1.00  0.00     0.023 A 
ATOM     76  C   UNL A   1      45.975  33.347  30.232  1.00  0.00     0.031 A 
ATOM     77  C   UNL A   1      45.004  34.113  28.162  1.00  0.00     0.131 A 
ATOM     78  C   UNL A   1      46.579  34.604  30.385  1.00  0.00     0.055 A 
ATOM     79  C   UNL A   1      45.652  35.342  28.291  1.00  0.00     0.041 A 
ATOM     80  F   UNL A   1      44.225  33.929  27.084  1.00  0.00    -0.206 F 
ATOM     81  C   UNL A   1      46.434  35.598  29.414  1.00  0.00     0.022 A 
BRANCH  78  82
ATOM     82  S   UNL A   1      47.485  34.956  31.917  1.00  0.00     0.124 S 
ATOM     83  O   UNL A   1      47.387  36.409  32.000  1.00  0.00    -0.237 OA
ATOM     84  O   UNL A   1      46.721  34.209  32.911  1.00  0.00    -0.237 OA
ATOM     85  O   UNL A   1      48.826  34.440  31.650  1.00  0.00    -0.744 OA
ENDBRANCH  78  82
ENDBRANCH  52  75
ENDBRANCH  26  27
ENDBRANCH  19  21
ENDBRANCH  18  19
ENDBRANCH   1  18
TORSDOF 16
ENDMDL
MODEL 2
REMARK VINA RESULT:     -11.0      1.386      1.643
REMARK SMILES C[C@@H](C(=O)OCCOC(=O)c1ccc(-c2c3nc(c(-c4cc(S(=O)(=O)[O-])ccc4F)c4ccc([nH]4)c(-c4cc(S(=O)(=O)[O-])ccc4F)c4nc(c(-c5cc(S(=O)(=O)[O-])ccc5F)c5ccc2[nH]5)C=C4)C=C3)cc1)c1cccn(C(F)F)c1=O
REMARK SMILES IDX 7 1 6 2 5 3 3 4 4 5 2 6 1 7 74 8 75 9 82 10 76 11 78 12
REMARK SMILES IDX 83 13 77 14 79 15 80 16 81 17 8 18 9 19 10 20 11 21 12 22
REMARK SMILES IDX 73 23 13 24 72 25 14 26 15 27 16 28 66 29 17 30 71 31 65 32
REMARK SMILES IDX 67 33 18 34 70 35 64 36 63 37 19 39 51 40 31 41 50 42 32 43
REMARK SMILES IDX 35 44 49 45 68 46 33 47 34 48 48 50 69 51 36 52 20 53 21 54
REMARK SMILES IDX 29 55 22 56 28 57 30 58 27 59 23 60 24 61 25 62 26 63 52 64
REMARK SMILES IDX 53 65 61 66 54 67 60 68 62 69 59 70 55 71 56 72 57 73 58 74
REMARK SMILES IDX 37 75 38 76 46 77 39 78 45 79 47 80 44 81 40 82 41 83 42 84
REMARK SMILES IDX 43 85
REMARK H PARENT 67 38 35 49
REMARK Flexibility Score: inf
ROOT
ATOM      1  C   UNL A   1      36.644  20.019  24.964  1.00  0.00     0.275 C 
ENDROOT
BRANCH   1   2
ATOM      2  C   UNL A   1      35.152  20.340  24.948  1.00  0.00     0.274 C 
BRANCH   2   3
ATOM      3  O   UNL A   1      34.943  21.755  25.130  1.00  0.00    -0.462 OA
BRANCH   3   4
ATOM      4  C   UNL A   1      34.024  22.342  24.312  1.00  0.00     0.313 C 
ATOM      5  O   UNL A   1      32.867  21.951  24.190  1.00  0.00    -0.252 OA
BRANCH   4   6
ATOM      6  C   UNL A   1      34.639  23.440  23.443  1.00  0.00     0.132 C 
ATOM      7  C   UNL A   1      36.140  23.276  23.190  1.00  0.00     0.025 C 
BRANCH   6   8
ATOM      8  C   UNL A   1      34.239  24.802  23.980  1.00  0.00     0.032 A 
ATOM      9  C   UNL A   1      34.227  25.084  25.297  1.00  0.00     0.012 A 
ATOM     10  C   UNL A   1      33.846  25.893  23.019  1.00  0.00     0.259 A 
ATOM     11  C   UNL A   1      33.839  26.378  25.794  1.00  0.00     0.019 A 
ATOM     12  N   UNL A   1      33.438  27.091  23.580  1.00  0.00    -0.258 N 
ATOM     13  O   UNL A   1      33.914  25.698  21.809  1.00  0.00    -0.269 OA
ATOM     14  C   UNL A   1      33.443  27.326  24.940  1.00  0.00     0.095 A 
BRANCH  12  15
ATOM     15  C   UNL A   1      32.936  28.109  22.686  1.00  0.00     0.451 C 
ATOM     16  F   UNL A   1      32.076  28.905  23.371  1.00  0.00    -0.185 F 
ATOM     17  F   UNL A   1      33.952  28.906  22.268  1.00  0.00    -0.185 F 
ENDBRANCH  12  15
ENDBRANCH   6   8
ENDBRANCH   4   6
ENDBRANCH   3   4
ENDBRANCH   2   3
ENDBRANCH   1   2
BRANCH   1  18
ATOM     18  O   UNL A   1      37.344  21.128  25.546  1.00  0.00    -0.458 OA
BRANCH  18  19
ATOM     19  C   UNL A   1      38.655  20.924  25.819  1.00  0.00     0.338 C 
ATOM     20  O   UNL A   1      39.271  19.883  25.669  1.00  0.00    -0.246 OA
BRANCH  19  21
ATOM     21  C   UNL A   1      39.245  22.163  26.380  1.00  0.00     0.060 A 
ATOM     22  C   UNL A   1      38.748  23.422  26.042  1.00  0.00     0.016 A 
ATOM     23  C   UNL A   1      40.364  22.070  27.210  1.00  0.00     0.016 A 
ATOM     24  C   UNL A   1      39.423  24.575  26.447  1.00  0.00     0.010 A 
ATOM     25  C   UNL A   1      40.979  23.233  27.694  1.00  0.00     0.010 A 
ATOM     26  C   UNL A   1      40.549  24.506  27.280  1.00  0.00    -0.014 A 
BRANCH  26  27
ATOM     27  C   UNL A   1      41.311  25.744  27.646  1.00  0.00     0.031 A 
ATOM     28  C   UNL A   1      40.653  26.829  28.474  1.00  0.00     0.074 A 
ATOM     29  C   UNL A   1      42.609  25.891  27.302  1.00  0.00     0.049 A 
ATOM     30  N   UNL A   1      41.088  28.028  28.769  1.00  0.00    -0.248 NA
ATOM     31  C   UNL A   1      39.330  26.522  29.041  1.00  0.00     0.031 C 
ATOM     32  C   UNL A   1      43.409  24.911  26.566  1.00  0.00     0.029 A 
ATOM     33  N   UNL A   1      43.493  26.917  27.541  1.00  0.00    -0.354 N 
ATOM     34  C   UNL A   1      40.083  28.628  29.524  1.00  0.00     0.074 A 
ATOM     35  C   UNL A   1      39.008  27.666  29.627  1.00  0.00     0.031 C 
ATOM     36  C   UNL A   1      44.672  25.350  26.471  1.00  0.00     0.029 A 
ATOM     37  C   UNL A   1      44.752  26.697  27.025  1.00  0.00     0.049 A 
ATOM     38  H   UNL A   1      43.250  27.733  28.035  1.00  0.00     0.167 HD
ATOM     39  C   UNL A   1      40.055  29.865  30.081  1.00  0.00     0.034 A 
ATOM     40  C   UNL A   1      45.835  27.499  26.948  1.00  0.00     0.034 A 
ATOM     41  C   UNL A   1      41.137  30.816  29.999  1.00  0.00     0.049 A 
ATOM     42  C   UNL A   1      45.743  28.906  27.477  1.00  0.00     0.074 A 
ATOM     43  C   UNL A   1      41.195  32.103  30.509  1.00  0.00     0.029 A 
ATOM     44  N   UNL A   1      42.355  30.585  29.375  1.00  0.00    -0.354 N 
ATOM     45  N   UNL A   1      44.744  29.494  28.091  1.00  0.00    -0.248 NA
ATOM     46  C   UNL A   1      46.917  29.765  27.277  1.00  0.00     0.031 C 
ATOM     47  C   UNL A   1      42.419  32.670  30.138  1.00  0.00     0.029 A 
ATOM     48  C   UNL A   1      43.157  31.715  29.460  1.00  0.00     0.049 A 
ATOM     49  H   UNL A   1      42.613  29.743  28.937  1.00  0.00     0.167 HD
ATOM     50  C   UNL A   1      45.170  30.794  28.346  1.00  0.00     0.074 A 
ATOM     51  C   UNL A   1      46.527  30.893  27.851  1.00  0.00     0.031 C 
ATOM     52  C   UNL A   1      44.496  31.817  28.932  1.00  0.00     0.034 A 
BRANCH  39  53
ATOM     53  C   UNL A   1      38.779  30.289  30.768  1.00  0.00     0.023 A 
ATOM     54  C   UNL A   1      37.773  31.013  30.104  1.00  0.00     0.031 A 
ATOM     55  C   UNL A   1      38.575  29.966  32.122  1.00  0.00     0.131 A 
ATOM     56  C   UNL A   1      36.632  31.430  30.810  1.00  0.00     0.055 A 
ATOM     57  C   UNL A   1      37.409  30.327  32.799  1.00  0.00     0.041 A 
ATOM     58  F   UNL A   1      39.512  29.296  32.812  1.00  0.00    -0.206 F 
ATOM     59  C   UNL A   1      36.435  31.073  32.146  1.00  0.00     0.022 A 
BRANCH  56  60
ATOM     60  S   UNL A   1      35.460  32.550  29.993  1.00  0.00     0.124 S 
ATOM     61  O   UNL A   1      34.692  33.055  31.127  1.00  0.00    -0.237 OA
ATOM     62  O   UNL A   1      36.344  33.507  29.338  1.00  0.00    -0.237 OA
ATOM     63  O   UNL A   1      34.718  31.669  29.091  1.00  0.00    -0.744 OA
ENDBRANCH  56  60
ENDBRANCH  39  53
BRANCH  40  64
ATOM     64  C   UNL A   1      47.068  27.031  26.246  1.00  0.00     0.023 A 
ATOM     65  C   UNL A   1      48.111  26.398  26.939  1.00  0.00     0.031 A 
ATOM     66  C   UNL A   1      47.232  27.250  24.864  1.00  0.00     0.131 A 
ATOM     67  C   UNL A   1      49.280  26.027  26.253  1.00  0.00     0.055 A 
ATOM     68  C   UNL A   1      48.369  26.825  24.178  1.00  0.00     0.041 A 
ATOM     69  F   UNL A   1      46.273  27.865  24.155  1.00  0.00    -0.206 F 
ATOM     70  C   UNL A   1      49.407  26.218  24.875  1.00  0.00     0.022 A 
BRANCH  67  71
ATOM     71  S   UNL A   1      50.675  25.360  27.202  1.00  0.00     0.124 S 
ATOM     72  O   UNL A   1      50.016  24.366  28.042  1.00  0.00    -0.237 OA
ATOM     73  O   UNL A   1      51.539  24.838  26.148  1.00  0.00    -0.237 OA
ATOM     74  O   UNL A   1      51.195  26.528  27.909  1.00  0.00    -0.744 OA
ENDBRANCH  67  71
ENDBRANCH  40  64
BRANCH  52  75
ATOM     75  C   UNL A   1      45.233  33.125  29.076  1.00  0.00     0.023 A 
ATOM     76  C   UNL A   1      45.369  34.013  27.994  1.00  0.00     0.031 A 
ATOM     77  C   UNL A   1      45.830  33.474  30.298  1.00  0.00     0.131 A 
ATOM     78  C   UNL A   1      46.131  35.182  28.141  1.00  0.00     0.055 A 
ATOM     79  C   UNL A   1      46.541  34.665  30.455  1.00  0.00     0.041 A 
ATOM     80  F   UNL A   1      45.736  32.660  31.363  1.00  0.00    -0.206 F 
ATOM     81  C   UNL A   1      46.707  35.519  29.369  1.00  0.00     0.022 A 
BRANCH  78  82
ATOM     82  S   UNL A   1      46.440  36.212  26.680  1.00  0.00     0.124 S 
ATOM     83  O   UNL A   1      47.897  36.213  26.611  1.00  0.00    -0.237 OA
ATOM     84  O   UNL A   1      45.752  35.474  25.626  1.00  0.00    -0.237 OA
ATOM     85  O   UNL A   1      45.835  37.496  27.031  1.00  0.00    -0.744 OA
ENDBRANCH  78  82
ENDBRANCH  52  75
ENDBRANCH  26  27
ENDBRANCH  19  21
ENDBRANCH  18  19
ENDBRANCH   1  18
TORSDOF 16
ENDMDL
MODEL 3
REMARK VINA RESULT:     -10.8      2.547      3.240
REMARK SMILES C[C@@H](C(=O)OCCOC(=O)c1ccc(-c2c3nc(c(-c4cc(S(=O)(=O)[O-])ccc4F)c4ccc([nH]4)c(-c4cc(S(=O)(=O)[O-])ccc4F)c4nc(c(-c5cc(S(=O)(=O)[O-])ccc5F)c5ccc2[nH]5)C=C4)C=C3)cc1)c1cccn(C(F)F)c1=O
REMARK SMILES IDX 7 1 6 2 5 3 3 4 4 5 2 6 1 7 74 8 75 9 82 10 76 11 78 12
REMARK SMILES IDX 83 13 77 14 79 15 80 16 81 17 8 18 9 19 10 20 11 21 12 22
REMARK SMILES IDX 73 23 13 24 72 25 14 26 15 27 16 28 66 29 17 30 71 31 65 32
REMARK SMILES IDX 67 33 18 34 70 35 64 36 63 37 19 39 51 40 31 41 50 42 32 43
REMARK SMILES IDX 35 44 49 45 68 46 33 47 34 48 48 50 69 51 36 52 20 53 21 54
REMARK SMILES IDX 29 55 22 56 28 57 30 58 27 59 23 60 24 61 25 62 26 63 52 64
REMARK SMILES IDX 53 65 61 66 54 67 60 68 62 69 59 70 55 71 56 72 57 73 58 74
REMARK SMILES IDX 37 75 38 76 46 77 39 78 45 79 47 80 44 81 40 82 41 83 42 84
REMARK SMILES IDX 43 85
REMARK H PARENT 67 38 35 49
REMARK Flexibility Score: inf
ROOT
ATOM      1  C   UNL A   1      36.694  21.516  24.116  1.00  0.00     0.275 C 
ENDROOT
BRANCH   1   2
ATOM      2  C   UNL A   1      36.399  22.941  23.656  1.00  0.00     0.274 C 
BRANCH   2   3
ATOM      3  O   UNL A   1      35.255  22.956  22.778  1.00  0.00    -0.462 OA
BRANCH   3   4
ATOM      4  C   UNL A   1      34.221  23.765  23.144  1.00  0.00     0.313 C 
ATOM      5  O   UNL A   1      34.364  24.899  23.590  1.00  0.00    -0.252 OA
BRANCH   4   6
ATOM      6  C   UNL A   1      32.873  23.045  23.089  1.00  0.00     0.132 C 
ATOM      7  C   UNL A   1      31.663  23.960  23.299  1.00  0.00     0.025 C 
BRANCH   6   8
ATOM      8  C   UNL A   1      32.904  21.828  23.996  1.00  0.00     0.032 A 
ATOM      9  C   UNL A   1      33.247  21.905  25.296  1.00  0.00     0.012 A 
ATOM     10  C   UNL A   1      32.533  20.479  23.441  1.00  0.00     0.259 A 
ATOM     11  C   UNL A   1      33.278  20.742  26.144  1.00  0.00     0.019 A 
ATOM     12  N   UNL A   1      32.638  19.405  24.307  1.00  0.00    -0.258 N 
ATOM     13  O   UNL A   1      32.145  20.379  22.280  1.00  0.00    -0.269 OA
ATOM     14  C   UNL A   1      32.998  19.541  25.633  1.00  0.00     0.095 A 
BRANCH  12  15
ATOM     15  C   UNL A   1      32.411  18.085  23.766  1.00  0.00     0.451 C 
ATOM     16  F   UNL A   1      33.525  17.689  23.099  1.00  0.00    -0.185 F 
ATOM     17  F   UNL A   1      32.223  17.194  24.772  1.00  0.00    -0.185 F 
ENDBRANCH  12  15
ENDBRANCH   6   8
ENDBRANCH   4   6
ENDBRANCH   3   4
ENDBRANCH   2   3
ENDBRANCH   1   2
BRANCH   1  18
ATOM     18  O   UNL A   1      37.074  21.551  25.499  1.00  0.00    -0.458 OA
BRANCH  18  19
ATOM     19  C   UNL A   1      38.378  21.297  25.762  1.00  0.00     0.338 C 
ATOM     20  O   UNL A   1      38.959  20.239  25.585  1.00  0.00    -0.246 OA
BRANCH  19  21
ATOM     21  C   UNL A   1      39.010  22.501  26.352  1.00  0.00     0.060 A 
ATOM     22  C   UNL A   1      38.496  23.777  26.123  1.00  0.00     0.016 A 
ATOM     23  C   UNL A   1      40.184  22.360  27.096  1.00  0.00     0.016 A 
ATOM     24  C   UNL A   1      39.202  24.905  26.546  1.00  0.00     0.010 A 
ATOM     25  C   UNL A   1      40.836  23.493  27.602  1.00  0.00     0.010 A 
ATOM     26  C   UNL A   1      40.384  24.788  27.293  1.00  0.00    -0.014 A 
BRANCH  26  27
ATOM     27  C   UNL A   1      41.174  26.003  27.677  1.00  0.00     0.031 A 
ATOM     28  C   UNL A   1      40.541  27.091  28.518  1.00  0.00     0.074 A 
ATOM     29  C   UNL A   1      42.475  26.123  27.335  1.00  0.00     0.049 A 
ATOM     30  N   UNL A   1      41.003  28.277  28.829  1.00  0.00    -0.248 NA
ATOM     31  C   UNL A   1      39.210  26.809  29.079  1.00  0.00     0.031 C 
ATOM     32  C   UNL A   1      43.253  25.134  26.588  1.00  0.00     0.029 A 
ATOM     33  N   UNL A   1      43.383  27.125  27.589  1.00  0.00    -0.354 N 
ATOM     34  C   UNL A   1      40.013  28.890  29.591  1.00  0.00     0.074 A 
ATOM     35  C   UNL A   1      38.914  27.952  29.680  1.00  0.00     0.031 C 
ATOM     36  C   UNL A   1      44.526  25.545  26.500  1.00  0.00     0.029 A 
ATOM     37  C   UNL A   1      44.637  26.882  27.072  1.00  0.00     0.049 A 
ATOM     38  H   UNL A   1      43.159  27.940  28.094  1.00  0.00     0.167 HD
ATOM     39  C   UNL A   1      40.012  30.120  30.164  1.00  0.00     0.034 A 
ATOM     40  C   UNL A   1      45.739  27.658  27.007  1.00  0.00     0.034 A 
ATOM     41  C   UNL A   1      41.117  31.046  30.096  1.00  0.00     0.049 A 
ATOM     42  C   UNL A   1      45.680  29.060  27.554  1.00  0.00     0.074 A 
ATOM     43  C   UNL A   1      41.204  32.324  30.622  1.00  0.00     0.029 A 
ATOM     44  N   UNL A   1      42.330  30.794  29.470  1.00  0.00    -0.354 N 
ATOM     45  N   UNL A   1      44.694  29.664  28.175  1.00  0.00    -0.248 NA
ATOM     46  C   UNL A   1      46.874  29.894  27.366  1.00  0.00     0.031 C 
ATOM     47  C   UNL A   1      42.442  32.867  30.261  1.00  0.00     0.029 A 
ATOM     48  C   UNL A   1      43.158  31.903  29.571  1.00  0.00     0.049 A 
ATOM     49  H   UNL A   1      42.569  29.952  29.021  1.00  0.00     0.167 HD
ATOM     50  C   UNL A   1      45.151  30.950  28.447  1.00  0.00     0.074 A 
ATOM     51  C   UNL A   1      46.510  31.023  27.955  1.00  0.00     0.031 C 
ATOM     52  C   UNL A   1      44.500  31.981  29.045  1.00  0.00     0.034 A 
BRANCH  39  53
ATOM     53  C   UNL A   1      38.746  30.565  30.855  1.00  0.00     0.023 A 
ATOM     54  C   UNL A   1      37.701  31.207  30.168  1.00  0.00     0.031 A 
ATOM     55  C   UNL A   1      38.592  30.347  32.236  1.00  0.00     0.131 A 
ATOM     56  C   UNL A   1      36.570  31.650  30.873  1.00  0.00     0.055 A 
ATOM     57  C   UNL A   1      37.436  30.732  32.919  1.00  0.00     0.041 A 
ATOM     58  F   UNL A   1      39.567  29.759  32.947  1.00  0.00    -0.206 F 
ATOM     59  C   UNL A   1      36.422  31.397  32.239  1.00  0.00     0.022 A 
BRANCH  56  60
ATOM     60  S   UNL A   1      35.343  32.670  30.007  1.00  0.00     0.124 S 
ATOM     61  O   UNL A   1      34.407  32.985  31.083  1.00  0.00    -0.237 OA
ATOM     62  O   UNL A   1      36.150  33.779  29.512  1.00  0.00    -0.237 OA
ATOM     63  O   UNL A   1      34.818  31.773  28.978  1.00  0.00    -0.744 OA
ENDBRANCH  56  60
ENDBRANCH  39  53
BRANCH  40  64
ATOM     64  C   UNL A   1      46.962  27.171  26.299  1.00  0.00     0.023 A 
ATOM     65  C   UNL A   1      47.985  26.496  26.984  1.00  0.00     0.031 A 
ATOM     66  C   UNL A   1      47.137  27.412  24.923  1.00  0.00     0.131 A 
ATOM     67  C   UNL A   1      49.146  26.107  26.295  1.00  0.00     0.055 A 
ATOM     68  C   UNL A   1      48.265  26.969  24.233  1.00  0.00     0.041 A 
ATOM     69  F   UNL A   1      46.197  28.066  24.222  1.00  0.00    -0.206 F 
ATOM     70  C   UNL A   1      49.284  26.321  24.921  1.00  0.00     0.022 A 
BRANCH  67  71
ATOM     71  S   UNL A   1      50.519  25.385  27.236  1.00  0.00     0.124 S 
ATOM     72  O   UNL A   1      49.842  24.342  27.998  1.00  0.00    -0.237 OA
ATOM     73  O   UNL A   1      51.409  24.929  26.174  1.00  0.00    -0.237 OA
ATOM     74  O   UNL A   1      51.019  26.509  28.025  1.00  0.00    -0.744 OA
ENDBRANCH  67  71
ENDBRANCH  40  64
BRANCH  52  75
ATOM     75  C   UNL A   1      45.268  33.269  29.207  1.00  0.00     0.023 A 
ATOM     76  C   UNL A   1      45.148  34.316  28.277  1.00  0.00     0.031 A 
ATOM     77  C   UNL A   1      46.150  33.440  30.287  1.00  0.00     0.131 A 
ATOM     78  C   UNL A   1      45.939  35.467  28.414  1.00  0.00     0.055 A 
ATOM     79  C   UNL A   1      46.894  34.610  30.450  1.00  0.00     0.041 A 
ATOM     80  F   UNL A   1      46.306  32.470  31.203  1.00  0.00    -0.206 F 
ATOM     81  C   UNL A   1      46.801  35.625  29.503  1.00  0.00     0.022 A 
BRANCH  78  82
ATOM     82  S   UNL A   1      45.896  36.717  27.100  1.00  0.00     0.124 S 
ATOM     83  O   UNL A   1      46.650  36.065  26.035  1.00  0.00    -0.237 OA
ATOM     84  O   UNL A   1      44.465  36.874  26.864  1.00  0.00    -0.237 OA
ATOM     85  O   UNL A   1      46.554  37.875  27.705  1.00  0.00    -0.744 OA
ENDBRANCH  78  82
ENDBRANCH  52  75
ENDBRANCH  26  27
ENDBRANCH  19  21
ENDBRANCH  18  19
ENDBRANCH   1  18
TORSDOF 16
ENDMDL
