MODEL 1
REMARK VINA RESULT:      -8.9      0.000      0.000
REMARK SMILES Cc1c(CC(=O)N[C@@H](CCO)C(=O)OCCOC(=O)c2ccc(-c3c4nc(c(-c5cc(S(=O)(=O)[O-])ccc5F)c5ccc([nH]5)c(-c5cc(S(=O)(=O)[O-])ccc5F)c5nc(c(-c6cc(S(=O)(=O)[O-])ccc6F)c6ccc3[nH]6)C=C5)C=C4)cc2)cc(-c2ccc(S(C)(=O)=O)cc2)n1-c1ccc(F)cc1
REMARK SMILES IDX 15 1 14 2 12 3 13 4 8 5 7 6 5 7 6 8 4 10 3 11 1 12 2 13
REMARK SMILES IDX 95 14 83 15 84 16 96 17 97 18 102 19 98 20 101 21 99 22
REMARK SMILES IDX 100 23 85 24 86 25 94 26 87 27 93 28 88 29 89 30 90 31 91 32
REMARK SMILES IDX 92 33 9 34 10 35 11 36 16 38 17 39 18 40 19 41 20 42 21 43
REMARK SMILES IDX 82 44 22 45 81 46 23 47 24 48 25 49 75 50 26 51 80 52 74 53
REMARK SMILES IDX 76 54 27 55 79 56 73 57 72 58 28 60 60 61 40 62 59 63 41 64
REMARK SMILES IDX 44 65 58 66 77 67 42 68 43 69 57 71 78 72 45 73 29 74 30 75
REMARK SMILES IDX 38 76 31 77 37 78 39 79 36 80 32 81 33 82 34 83 35 84 61 85
REMARK SMILES IDX 62 86 70 87 63 88 69 89 71 90 68 91 64 92 65 93 66 94 67 95
REMARK SMILES IDX 46 96 47 97 55 98 48 99 54 100 56 101 53 102 49 103 50 104
REMARK SMILES IDX 51 105 52 106
REMARK H PARENT 7 9 11 37 76 59 44 70
REMARK Flexibility Score: inf
ROOT
ATOM      1  C   UNL A   1      48.889  24.501  38.753  1.00  0.00     0.274 C 
ENDROOT
BRANCH   1   2
ATOM      2  O   UNL A   1      49.850  24.696  37.675  1.00  0.00    -0.461 OA
BRANCH   2   3
ATOM      3  C   UNL A   1      51.141  24.308  37.916  1.00  0.00     0.328 C 
ATOM      4  O   UNL A   1      51.607  24.121  39.033  1.00  0.00    -0.250 OA
BRANCH   3   5
ATOM      5  C   UNL A   1      51.922  24.017  36.610  1.00  0.00     0.194 C 
BRANCH   5   6
ATOM      6  N   UNL A   1      51.693  24.947  35.503  1.00  0.00    -0.342 N 
ATOM      7  C   UNL A   1      51.329  24.686  34.212  1.00  0.00     0.225 C 
ATOM      8  O   UNL A   1      51.304  25.647  33.437  1.00  0.00    -0.275 OA
ATOM      9  H   UNL A   1      51.820  25.899  35.720  1.00  0.00     0.164 HD
BRANCH   7  10
ATOM     10  C   UNL A   1      50.962  23.273  33.768  1.00  0.00     0.137 C 
BRANCH  10  11
ATOM     11  C   UNL A   1      49.594  22.843  34.230  1.00  0.00    -0.017 A 
ATOM     12  C   UNL A   1      49.998  20.324  34.617  1.00  0.00     0.065 C 
ATOM     13  C   UNL A   1      49.199  21.586  34.672  1.00  0.00     0.024 A 
ATOM     14  N   UNL A   1      47.866  21.664  35.068  1.00  0.00    -0.314 N 
ATOM     15  C   UNL A   1      48.435  23.664  34.251  1.00  0.00     0.033 A 
ATOM     16  C   UNL A   1      47.399  22.961  34.836  1.00  0.00     0.053 A 
BRANCH  14  17
ATOM     17  C   UNL A   1      47.099  20.613  35.639  1.00  0.00     0.046 A 
ATOM     18  C   UNL A   1      46.229  19.872  34.826  1.00  0.00     0.029 A 
ATOM     19  C   UNL A   1      47.155  20.386  37.020  1.00  0.00     0.029 A 
ATOM     20  C   UNL A   1      45.413  18.899  35.399  1.00  0.00     0.041 A 
ATOM     21  C   UNL A   1      46.325  19.418  37.587  1.00  0.00     0.041 A 
ATOM     22  C   UNL A   1      45.465  18.686  36.773  1.00  0.00     0.123 A 
ATOM     23  F   UNL A   1      44.662  17.765  37.325  1.00  0.00    -0.207 F 
ENDBRANCH  14  17
BRANCH  16  24
ATOM     24  C   UNL A   1      46.078  23.472  35.227  1.00  0.00    -0.001 A 
ATOM     25  C   UNL A   1      45.001  23.450  34.324  1.00  0.00     0.011 A 
ATOM     26  C   UNL A   1      45.876  23.999  36.509  1.00  0.00     0.011 A 
ATOM     27  C   UNL A   1      43.771  24.016  34.665  1.00  0.00     0.021 A 
ATOM     28  C   UNL A   1      44.646  24.562  36.861  1.00  0.00     0.021 A 
ATOM     29  C   UNL A   1      43.611  24.595  35.926  1.00  0.00     0.067 A 
BRANCH  29  30
ATOM     30  S   UNL A   1      42.059  25.367  36.317  1.00  0.00     0.175 S 
ATOM     31  C   UNL A   1      42.039  26.815  35.290  1.00  0.00     0.163 C 
ATOM     32  O   UNL A   1      41.011  24.489  35.887  1.00  0.00    -0.224 OA
ATOM     33  O   UNL A   1      42.132  25.834  37.705  1.00  0.00    -0.224 OA
ENDBRANCH  29  30
ENDBRANCH  16  24
ENDBRANCH  10  11
ENDBRANCH   7  10
ENDBRANCH   5   6
BRANCH   5  34
ATOM     34  C   UNL A   1      53.434  23.775  36.805  1.00  0.00     0.065 C 
BRANCH  34  35
ATOM     35  C   UNL A   1      53.943  22.384  36.437  1.00  0.00     0.159 C 
BRANCH  35  36
ATOM     36  O   UNL A   1      54.305  22.301  35.070  1.00  0.00    -0.396 OA
ATOM     37  H   UNL A   1      53.534  22.506  34.518  1.00  0.00     0.210 HD
ENDBRANCH  35  36
ENDBRANCH  34  35
ENDBRANCH   5  34
ENDBRANCH   3   5
ENDBRANCH   2   3
ENDBRANCH   1   2
BRANCH   1  38
ATOM     38  C   UNL A   1      47.993  25.760  38.959  1.00  0.00     0.275 C 
BRANCH  38  39
ATOM     39  O   UNL A   1      48.209  26.949  38.108  1.00  0.00    -0.458 OA
BRANCH  39  40
ATOM     40  C   UNL A   1      47.109  27.464  37.467  1.00  0.00     0.338 C 
ATOM     41  O   UNL A   1      46.200  28.004  38.086  1.00  0.00    -0.246 OA
BRANCH  40  42
ATOM     42  C   UNL A   1      47.120  27.426  35.922  1.00  0.00     0.060 A 
ATOM     43  C   UNL A   1      45.895  27.350  35.290  1.00  0.00     0.016 A 
ATOM     44  C   UNL A   1      48.218  27.283  35.038  1.00  0.00     0.016 A 
ATOM     45  C   UNL A   1      45.791  27.197  33.864  1.00  0.00     0.010 A 
ATOM     46  C   UNL A   1      48.088  27.034  33.560  1.00  0.00     0.010 A 
ATOM     47  C   UNL A   1      46.850  26.965  32.895  1.00  0.00    -0.014 A 
BRANCH  47  48
ATOM     48  C   UNL A   1      46.392  26.447  31.339  1.00  0.00     0.031 A 
ATOM     49  C   UNL A   1      47.030  27.484  30.481  1.00  0.00     0.074 A 
ATOM     50  C   UNL A   1      45.586  25.601  30.530  1.00  0.00     0.049 A 
ATOM     51  N   UNL A   1      46.697  28.726  30.679  1.00  0.00    -0.248 NA
ATOM     52  C   UNL A   1      48.288  27.298  29.756  1.00  0.00     0.031 C 
ATOM     53  C   UNL A   1      44.544  24.639  30.942  1.00  0.00     0.029 A 
ATOM     54  N   UNL A   1      45.478  25.409  29.082  1.00  0.00    -0.354 N 
ATOM     55  C   UNL A   1      47.518  29.490  29.898  1.00  0.00     0.074 A 
ATOM     56  C   UNL A   1      48.590  28.580  29.503  1.00  0.00     0.031 C 
ATOM     57  C   UNL A   1      44.060  23.898  29.892  1.00  0.00     0.029 A 
ATOM     58  C   UNL A   1      44.654  24.293  28.607  1.00  0.00     0.049 A 
ATOM     59  H   UNL A   1      45.941  26.007  28.451  1.00  0.00     0.167 HD
ATOM     60  C   UNL A   1      46.886  30.458  29.177  1.00  0.00     0.034 A 
ATOM     61  C   UNL A   1      44.381  23.783  27.316  1.00  0.00     0.034 A 
ATOM     62  C   UNL A   1      46.665  30.015  27.828  1.00  0.00     0.049 A 
ATOM     63  C   UNL A   1      44.444  24.917  26.399  1.00  0.00     0.074 A 
ATOM     64  C   UNL A   1      47.469  29.357  26.921  1.00  0.00     0.029 A 
ATOM     65  N   UNL A   1      45.359  29.769  27.459  1.00  0.00    -0.354 N 
ATOM     66  N   UNL A   1      43.475  25.774  26.319  1.00  0.00    -0.248 NA
ATOM     67  C   UNL A   1      45.523  25.083  25.433  1.00  0.00     0.031 C 
ATOM     68  C   UNL A   1      46.643  28.341  26.394  1.00  0.00     0.029 A 
ATOM     69  C   UNL A   1      45.312  28.655  26.649  1.00  0.00     0.049 A 
ATOM     70  H   UNL A   1      44.580  30.305  27.732  1.00  0.00     0.167 HD
ATOM     71  C   UNL A   1      44.074  26.839  25.725  1.00  0.00     0.074 A 
ATOM     72  C   UNL A   1      45.176  26.281  24.960  1.00  0.00     0.031 C 
ATOM     73  C   UNL A   1      44.039  27.996  26.433  1.00  0.00     0.034 A 
BRANCH  60  74
ATOM     74  C   UNL A   1      45.894  31.255  29.993  1.00  0.00     0.023 A 
ATOM     75  C   UNL A   1      45.605  30.838  31.297  1.00  0.00     0.031 A 
ATOM     76  C   UNL A   1      45.119  32.310  29.457  1.00  0.00     0.131 A 
ATOM     77  C   UNL A   1      44.525  31.412  31.990  1.00  0.00     0.055 A 
ATOM     78  C   UNL A   1      44.006  32.825  30.118  1.00  0.00     0.041 A 
ATOM     79  F   UNL A   1      45.426  32.853  28.267  1.00  0.00    -0.206 F 
ATOM     80  C   UNL A   1      43.697  32.368  31.392  1.00  0.00     0.022 A 
BRANCH  77  81
ATOM     81  S   UNL A   1      44.234  30.908  33.705  1.00  0.00     0.124 S 
ATOM     82  O   UNL A   1      43.574  32.083  34.269  1.00  0.00    -0.237 OA
ATOM     83  O   UNL A   1      43.386  29.730  33.539  1.00  0.00    -0.237 OA
ATOM     84  O   UNL A   1      45.573  30.637  34.222  1.00  0.00    -0.744 OA
ENDBRANCH  77  81
ENDBRANCH  60  74
BRANCH  61  85
ATOM     85  C   UNL A   1      43.833  22.553  26.457  1.00  0.00     0.023 A 
ATOM     86  C   UNL A   1      44.698  21.660  25.674  1.00  0.00     0.031 A 
ATOM     87  C   UNL A   1      42.588  21.988  26.763  1.00  0.00     0.131 A 
ATOM     88  C   UNL A   1      44.326  20.323  25.305  1.00  0.00     0.055 A 
ATOM     89  C   UNL A   1      42.224  20.665  26.387  1.00  0.00     0.041 A 
ATOM     90  F   UNL A   1      41.722  22.650  27.542  1.00  0.00    -0.206 F 
ATOM     91  C   UNL A   1      43.086  19.827  25.680  1.00  0.00     0.022 A 
BRANCH  88  92
ATOM     92  S   UNL A   1      45.490  19.116  24.498  1.00  0.00     0.124 S 
ATOM     93  O   UNL A   1      45.427  17.956  25.378  1.00  0.00    -0.237 OA
ATOM     94  O   UNL A   1      44.924  18.956  23.162  1.00  0.00    -0.237 OA
ATOM     95  O   UNL A   1      46.778  19.815  24.515  1.00  0.00    -0.744 OA
ENDBRANCH  88  92
ENDBRANCH  61  85
BRANCH  73  96
ATOM     96  C   UNL A   1      42.710  28.380  27.081  1.00  0.00     0.023 A 
ATOM     97  C   UNL A   1      42.401  28.361  28.470  1.00  0.00     0.031 A 
ATOM     98  C   UNL A   1      41.653  28.712  26.217  1.00  0.00     0.131 A 
ATOM     99  C   UNL A   1      41.094  28.629  28.930  1.00  0.00     0.055 A 
ATOM    100  C   UNL A   1      40.371  29.018  26.674  1.00  0.00     0.041 A 
ATOM    101  F   UNL A   1      41.850  28.733  24.889  1.00  0.00    -0.206 F 
ATOM    102  C   UNL A   1      40.081  28.964  28.032  1.00  0.00     0.022 A 
BRANCH  99 103
ATOM    103  S   UNL A   1      40.671  28.460  30.699  1.00  0.00     0.124 S 
ATOM    104  O   UNL A   1      39.490  27.605  30.686  1.00  0.00    -0.237 OA
ATOM    105  O   UNL A   1      41.880  27.867  31.264  1.00  0.00    -0.237 OA
ATOM    106  O   UNL A   1      40.415  29.839  31.122  1.00  0.00    -0.744 OA
ENDBRANCH  99 103
ENDBRANCH  73  96
ENDBRANCH  47  48
ENDBRANCH  40  42
ENDBRANCH  39  40
ENDBRANCH  38  39
ENDBRANCH   1  38
TORSDOF 23
ENDMDL
MODEL 2
REMARK VINA RESULT:      -8.2      5.708     12.729
REMARK SMILES Cc1c(CC(=O)N[C@@H](CCO)C(=O)OCCOC(=O)c2ccc(-c3c4nc(c(-c5cc(S(=O)(=O)[O-])ccc5F)c5ccc([nH]5)c(-c5cc(S(=O)(=O)[O-])ccc5F)c5nc(c(-c6cc(S(=O)(=O)[O-])ccc6F)c6ccc3[nH]6)C=C5)C=C4)cc2)cc(-c2ccc(S(C)(=O)=O)cc2)n1-c1ccc(F)cc1
REMARK SMILES IDX 15 1 14 2 12 3 13 4 8 5 7 6 5 7 6 8 4 10 3 11 1 12 2 13
REMARK SMILES IDX 95 14 83 15 84 16 96 17 97 18 102 19 98 20 101 21 99 22
REMARK SMILES IDX 100 23 85 24 86 25 94 26 87 27 93 28 88 29 89 30 90 31 91 32
REMARK SMILES IDX 92 33 9 34 10 35 11 36 16 38 17 39 18 40 19 41 20 42 21 43
REMARK SMILES IDX 82 44 22 45 81 46 23 47 24 48 25 49 75 50 26 51 80 52 74 53
REMARK SMILES IDX 76 54 27 55 79 56 73 57 72 58 28 60 60 61 40 62 59 63 41 64
REMARK SMILES IDX 44 65 58 66 77 67 42 68 43 69 57 71 78 72 45 73 29 74 30 75
REMARK SMILES IDX 38 76 31 77 37 78 39 79 36 80 32 81 33 82 34 83 35 84 61 85
REMARK SMILES IDX 62 86 70 87 63 88 69 89 71 90 68 91 64 92 65 93 66 94 67 95
REMARK SMILES IDX 46 96 47 97 55 98 48 99 54 100 56 101 53 102 49 103 50 104
REMARK SMILES IDX 51 105 52 106
REMARK H PARENT 7 9 11 37 76 59 44 70
REMARK Flexibility Score: inf
ROOT
ATOM      1  C   UNL A   1      36.209  32.692  33.765  1.00  0.00     0.274 C 
ENDROOT
BRANCH   1   2
ATOM      2  O   UNL A   1      35.047  33.516  33.459  1.00  0.00    -0.461 OA
BRANCH   2   3
ATOM      3  C   UNL A   1      34.561  33.455  32.180  1.00  0.00     0.328 C 
ATOM      4  O   UNL A   1      34.244  32.417  31.613  1.00  0.00    -0.250 OA
BRANCH   3   5
ATOM      5  C   UNL A   1      34.346  34.860  31.564  1.00  0.00     0.194 C 
BRANCH   5   6
ATOM      6  N   UNL A   1      33.286  34.965  30.559  1.00  0.00    -0.342 N 
ATOM      7  C   UNL A   1      33.380  34.968  29.196  1.00  0.00     0.225 C 
ATOM      8  O   UNL A   1      32.338  35.178  28.569  1.00  0.00    -0.275 OA
ATOM      9  H   UNL A   1      32.373  35.048  30.918  1.00  0.00     0.164 HD
BRANCH   7  10
ATOM     10  C   UNL A   1      34.712  34.709  28.498  1.00  0.00     0.137 C 
BRANCH  10  11
ATOM     11  C   UNL A   1      35.005  33.245  28.304  1.00  0.00    -0.017 A 
ATOM     12  C   UNL A   1      37.408  33.116  29.235  1.00  0.00     0.065 C 
ATOM     13  C   UNL A   1      36.138  32.541  28.694  1.00  0.00     0.024 A 
ATOM     14  N   UNL A   1      35.947  31.199  28.378  1.00  0.00    -0.314 N 
ATOM     15  C   UNL A   1      34.164  32.318  27.630  1.00  0.00     0.033 A 
ATOM     16  C   UNL A   1      34.709  31.053  27.746  1.00  0.00     0.053 A 
BRANCH  14  17
ATOM     17  C   UNL A   1      36.843  30.134  28.667  1.00  0.00     0.046 A 
ATOM     18  C   UNL A   1      36.818  29.536  29.935  1.00  0.00     0.029 A 
ATOM     19  C   UNL A   1      37.797  29.753  27.715  1.00  0.00     0.029 A 
ATOM     20  C   UNL A   1      37.752  28.550  30.249  1.00  0.00     0.041 A 
ATOM     21  C   UNL A   1      38.735  28.774  28.042  1.00  0.00     0.041 A 
ATOM     22  C   UNL A   1      38.704  28.184  29.302  1.00  0.00     0.123 A 
ATOM     23  F   UNL A   1      39.615  27.252  29.615  1.00  0.00    -0.207 F 
ENDBRANCH  14  17
BRANCH  16  24
ATOM     24  C   UNL A   1      34.095  29.775  27.361  1.00  0.00    -0.001 A 
ATOM     25  C   UNL A   1      34.749  28.897  26.481  1.00  0.00     0.011 A 
ATOM     26  C   UNL A   1      32.837  29.417  27.865  1.00  0.00     0.011 A 
ATOM     27  C   UNL A   1      34.127  27.724  26.047  1.00  0.00     0.021 A 
ATOM     28  C   UNL A   1      32.209  28.242  27.441  1.00  0.00     0.021 A 
ATOM     29  C   UNL A   1      32.845  27.419  26.510  1.00  0.00     0.067 A 
BRANCH  29  30
ATOM     30  S   UNL A   1      32.045  25.956  25.897  1.00  0.00     0.175 S 
ATOM     31  C   UNL A   1      32.014  26.199  24.139  1.00  0.00     0.163 C 
ATOM     32  O   UNL A   1      32.892  24.837  26.188  1.00  0.00    -0.224 OA
ATOM     33  O   UNL A   1      30.652  25.987  26.353  1.00  0.00    -0.224 OA
ENDBRANCH  29  30
ENDBRANCH  16  24
ENDBRANCH  10  11
ENDBRANCH   7  10
ENDBRANCH   5   6
BRANCH   5  34
ATOM     34  C   UNL A   1      34.227  36.003  32.593  1.00  0.00     0.065 C 
BRANCH  34  35
ATOM     35  C   UNL A   1      33.310  37.160  32.207  1.00  0.00     0.159 C 
BRANCH  35  36
ATOM     36  O   UNL A   1      33.775  37.839  31.055  1.00  0.00    -0.396 OA
ATOM     37  H   UNL A   1      34.091  37.192  30.404  1.00  0.00     0.210 HD
ENDBRANCH  35  36
ENDBRANCH  34  35
ENDBRANCH   5  34
ENDBRANCH   3   5
ENDBRANCH   2   3
ENDBRANCH   1   2
BRANCH   1  38
ATOM     38  C   UNL A   1      36.988  33.233  35.003  1.00  0.00     0.275 C 
BRANCH  38  39
ATOM     39  O   UNL A   1      37.927  32.341  35.714  1.00  0.00    -0.458 OA
BRANCH  39  40
ATOM     40  C   UNL A   1      39.032  32.926  36.281  1.00  0.00     0.338 C 
ATOM     41  O   UNL A   1      39.034  33.296  37.449  1.00  0.00    -0.246 OA
BRANCH  40  42
ATOM     42  C   UNL A   1      40.307  33.000  35.410  1.00  0.00     0.060 A 
ATOM     43  C   UNL A   1      40.160  33.488  34.127  1.00  0.00     0.016 A 
ATOM     44  C   UNL A   1      41.599  32.477  35.667  1.00  0.00     0.016 A 
ATOM     45  C   UNL A   1      41.255  33.498  33.194  1.00  0.00     0.010 A 
ATOM     46  C   UNL A   1      42.705  32.414  34.650  1.00  0.00     0.010 A 
ATOM     47  C   UNL A   1      42.580  32.916  33.341  1.00  0.00    -0.014 A 
BRANCH  47  48
ATOM     48  C   UNL A   1      43.526  32.752  31.935  1.00  0.00     0.031 A 
ATOM     49  C   UNL A   1      42.779  31.697  31.197  1.00  0.00     0.074 A 
ATOM     50  C   UNL A   1      44.734  33.040  31.246  1.00  0.00     0.049 A 
ATOM     51  N   UNL A   1      42.608  30.549  31.784  1.00  0.00    -0.248 NA
ATOM     52  C   UNL A   1      41.859  31.957  30.088  1.00  0.00     0.031 C 
ATOM     53  C   UNL A   1      45.923  33.774  31.721  1.00  0.00     0.029 A 
ATOM     54  N   UNL A   1      45.225  32.708  29.906  1.00  0.00    -0.354 N 
ATOM     55  C   UNL A   1      41.771  29.814  30.993  1.00  0.00     0.074 A 
ATOM     56  C   UNL A   1      41.198  30.790  30.070  1.00  0.00     0.031 C 
ATOM     57  C   UNL A   1      46.856  33.972  30.734  1.00  0.00     0.029 A 
ATOM     58  C   UNL A   1      46.468  33.347  29.463  1.00  0.00     0.049 A 
ATOM     59  H   UNL A   1      44.737  32.079  29.324  1.00  0.00     0.167 HD
ATOM     60  C   UNL A   1      42.174  28.532  30.766  1.00  0.00     0.034 A 
ATOM     61  C   UNL A   1      47.183  33.311  28.242  1.00  0.00     0.034 A 
ATOM     62  C   UNL A   1      42.832  28.430  29.492  1.00  0.00     0.049 A 
ATOM     63  C   UNL A   1      46.939  31.997  27.656  1.00  0.00     0.074 A 
ATOM     64  C   UNL A   1      42.530  28.939  28.246  1.00  0.00     0.029 A 
ATOM     65  N   UNL A   1      44.190  28.188  29.509  1.00  0.00    -0.354 N 
ATOM     66  N   UNL A   1      47.543  30.939  28.097  1.00  0.00    -0.248 NA
ATOM     67  C   UNL A   1      46.116  31.811  26.467  1.00  0.00     0.031 C 
ATOM     68  C   UNL A   1      43.752  29.468  27.780  1.00  0.00     0.029 A 
ATOM     69  C   UNL A   1      44.799  28.918  28.512  1.00  0.00     0.049 A 
ATOM     70  H   UNL A   1      44.652  27.587  30.137  1.00  0.00     0.167 HD
ATOM     71  C   UNL A   1      46.762  29.934  27.619  1.00  0.00     0.074 A 
ATOM     72  C   UNL A   1      46.123  30.477  26.433  1.00  0.00     0.031 C 
ATOM     73  C   UNL A   1      46.235  29.110  28.559  1.00  0.00     0.034 A 
BRANCH  60  74
ATOM     74  C   UNL A   1      42.618  27.818  32.022  1.00  0.00     0.023 A 
ATOM     75  C   UNL A   1      42.032  28.172  33.242  1.00  0.00     0.031 A 
ATOM     76  C   UNL A   1      43.712  26.921  32.058  1.00  0.00     0.131 A 
ATOM     77  C   UNL A   1      42.584  27.699  34.445  1.00  0.00     0.055 A 
ATOM     78  C   UNL A   1      44.301  26.514  33.254  1.00  0.00     0.041 A 
ATOM     79  F   UNL A   1      44.238  26.432  30.922  1.00  0.00    -0.206 F 
ATOM     80  C   UNL A   1      43.741  26.912  34.460  1.00  0.00     0.022 A 
BRANCH  77  81
ATOM     81  S   UNL A   1      41.748  28.109  35.998  1.00  0.00     0.124 S 
ATOM     82  O   UNL A   1      40.819  29.158  35.587  1.00  0.00    -0.237 OA
ATOM     83  O   UNL A   1      41.136  26.834  36.364  1.00  0.00    -0.237 OA
ATOM     84  O   UNL A   1      42.833  28.545  36.874  1.00  0.00    -0.744 OA
ENDBRANCH  77  81
ENDBRANCH  60  74
BRANCH  61  85
ATOM     85  C   UNL A   1      48.300  33.998  27.331  1.00  0.00     0.023 A 
ATOM     86  C   UNL A   1      49.592  33.372  27.021  1.00  0.00     0.031 A 
ATOM     87  C   UNL A   1      47.940  35.000  26.421  1.00  0.00     0.131 A 
ATOM     88  C   UNL A   1      50.381  33.715  25.871  1.00  0.00     0.055 A 
ATOM     89  C   UNL A   1      48.730  35.341  25.289  1.00  0.00     0.041 A 
ATOM     90  F   UNL A   1      46.749  35.607  26.526  1.00  0.00    -0.206 F 
ATOM     91  C   UNL A   1      49.933  34.696  24.999  1.00  0.00     0.022 A 
BRANCH  88  92
ATOM     92  S   UNL A   1      51.910  32.787  25.357  1.00  0.00     0.124 S 
ATOM     93  O   UNL A   1      51.961  31.681  26.306  1.00  0.00    -0.237 OA
ATOM     94  O   UNL A   1      51.634  32.443  23.965  1.00  0.00    -0.237 OA
ATOM     95  O   UNL A   1      52.983  33.771  25.522  1.00  0.00    -0.744 OA
ENDBRANCH  88  92
ENDBRANCH  61  85
BRANCH  73  96
ATOM     96  C   UNL A   1      47.168  28.626  29.669  1.00  0.00     0.023 A 
ATOM     97  C   UNL A   1      47.324  29.199  30.962  1.00  0.00     0.031 A 
ATOM     98  C   UNL A   1      48.021  27.554  29.360  1.00  0.00     0.131 A 
ATOM     99  C   UNL A   1      48.308  28.724  31.855  1.00  0.00     0.055 A 
ATOM    100  C   UNL A   1      48.965  27.056  30.259  1.00  0.00     0.041 A 
ATOM    101  F   UNL A   1      47.957  26.967  28.154  1.00  0.00    -0.206 F 
ATOM    102  C   UNL A   1      49.123  27.649  31.506  1.00  0.00     0.022 A 
BRANCH  99 103
ATOM    103  S   UNL A   1      48.601  29.558  33.455  1.00  0.00     0.124 S 
ATOM    104  O   UNL A   1      47.975  30.863  33.278  1.00  0.00    -0.237 OA
ATOM    105  O   UNL A   1      47.950  28.663  34.408  1.00  0.00    -0.237 OA
ATOM    106  O   UNL A   1      50.061  29.596  33.557  1.00  0.00    -0.744 OA
ENDBRANCH  99 103
ENDBRANCH  73  96
ENDBRANCH  47  48
ENDBRANCH  40  42
ENDBRANCH  39  40
ENDBRANCH  38  39
ENDBRANCH   1  38
TORSDOF 23
ENDMDL
MODEL 3
REMARK VINA RESULT:      -8.0      7.727     13.832
REMARK SMILES Cc1c(CC(=O)N[C@@H](CCO)C(=O)OCCOC(=O)c2ccc(-c3c4nc(c(-c5cc(S(=O)(=O)[O-])ccc5F)c5ccc([nH]5)c(-c5cc(S(=O)(=O)[O-])ccc5F)c5nc(c(-c6cc(S(=O)(=O)[O-])ccc6F)c6ccc3[nH]6)C=C5)C=C4)cc2)cc(-c2ccc(S(C)(=O)=O)cc2)n1-c1ccc(F)cc1
REMARK SMILES IDX 15 1 14 2 12 3 13 4 8 5 7 6 5 7 6 8 4 10 3 11 1 12 2 13
REMARK SMILES IDX 95 14 83 15 84 16 96 17 97 18 102 19 98 20 101 21 99 22
REMARK SMILES IDX 100 23 85 24 86 25 94 26 87 27 93 28 88 29 89 30 90 31 91 32
REMARK SMILES IDX 92 33 9 34 10 35 11 36 16 38 17 39 18 40 19 41 20 42 21 43
REMARK SMILES IDX 82 44 22 45 81 46 23 47 24 48 25 49 75 50 26 51 80 52 74 53
REMARK SMILES IDX 76 54 27 55 79 56 73 57 72 58 28 60 60 61 40 62 59 63 41 64
REMARK SMILES IDX 44 65 58 66 77 67 42 68 43 69 57 71 78 72 45 73 29 74 30 75
REMARK SMILES IDX 38 76 31 77 37 78 39 79 36 80 32 81 33 82 34 83 35 84 61 85
REMARK SMILES IDX 62 86 70 87 63 88 69 89 71 90 68 91 64 92 65 93 66 94 67 95
REMARK SMILES IDX 46 96 47 97 55 98 48 99 54 100 56 101 53 102 49 103 50 104
REMARK SMILES IDX 51 105 52 106
REMARK H PARENT 7 9 11 37 76 59 44 70
REMARK Flexibility Score: inf
ROOT
ATOM      1  C   UNL A   1      44.403  27.357  30.218  1.00  0.00     0.274 C 
ENDROOT
BRANCH   1   2
ATOM      2  O   UNL A   1      42.947  27.367  30.161  1.00  0.00    -0.461 OA
BRANCH   2   3
ATOM      3  C   UNL A   1      42.367  26.942  28.996  1.00  0.00     0.328 C 
ATOM      4  O   UNL A   1      42.520  25.824  28.518  1.00  0.00    -0.250 OA
BRANCH   3   5
ATOM      5  C   UNL A   1      41.398  27.994  28.401  1.00  0.00     0.194 C 
BRANCH   5   6
ATOM      6  N   UNL A   1      42.021  29.177  27.804  1.00  0.00    -0.342 N 
ATOM      7  C   UNL A   1      42.485  29.364  26.532  1.00  0.00     0.225 C 
ATOM      8  O   UNL A   1      43.070  30.427  26.307  1.00  0.00    -0.275 OA
ATOM      9  H   UNL A   1      42.123  29.948  28.407  1.00  0.00     0.164 HD
BRANCH   7  10
ATOM     10  C   UNL A   1      42.270  28.307  25.453  1.00  0.00     0.137 C 
BRANCH  10  11
ATOM     11  C   UNL A   1      43.304  27.213  25.479  1.00  0.00    -0.017 A 
ATOM     12  C   UNL A   1      45.351  28.520  26.351  1.00  0.00     0.065 C 
ATOM     13  C   UNL A   1      44.612  27.286  25.941  1.00  0.00     0.024 A 
ATOM     14  N   UNL A   1      45.179  26.018  25.843  1.00  0.00    -0.314 N 
ATOM     15  C   UNL A   1      43.122  25.894  24.981  1.00  0.00     0.033 A 
ATOM     16  C   UNL A   1      44.246  25.146  25.277  1.00  0.00     0.053 A 
BRANCH  14  17
ATOM     17  C   UNL A   1      46.484  25.649  26.268  1.00  0.00     0.046 A 
ATOM     18  C   UNL A   1      46.671  25.137  27.561  1.00  0.00     0.029 A 
ATOM     19  C   UNL A   1      47.579  25.879  25.425  1.00  0.00     0.029 A 
ATOM     20  C   UNL A   1      47.959  24.854  28.009  1.00  0.00     0.041 A 
ATOM     21  C   UNL A   1      48.866  25.604  25.887  1.00  0.00     0.041 A 
ATOM     22  C   UNL A   1      49.043  25.096  27.171  1.00  0.00     0.123 A 
ATOM     23  F   UNL A   1      50.283  24.845  27.614  1.00  0.00    -0.207 F 
ENDBRANCH  14  17
BRANCH  16  24
ATOM     24  C   UNL A   1      44.425  23.696  25.113  1.00  0.00    -0.001 A 
ATOM     25  C   UNL A   1      43.615  22.787  25.812  1.00  0.00     0.011 A 
ATOM     26  C   UNL A   1      45.418  23.201  24.257  1.00  0.00     0.011 A 
ATOM     27  C   UNL A   1      43.843  21.411  25.725  1.00  0.00     0.021 A 
ATOM     28  C   UNL A   1      45.650  21.826  24.159  1.00  0.00     0.021 A 
ATOM     29  C   UNL A   1      44.882  20.941  24.917  1.00  0.00     0.067 A 
BRANCH  29  30
ATOM     30  S   UNL A   1      45.198  19.194  24.869  1.00  0.00     0.175 S 
ATOM     31  C   UNL A   1      45.072  18.791  23.146  1.00  0.00     0.163 C 
ATOM     32  O   UNL A   1      46.552  18.981  25.290  1.00  0.00    -0.224 OA
ATOM     33  O   UNL A   1      44.083  18.522  25.544  1.00  0.00    -0.224 OA
ENDBRANCH  29  30
ENDBRANCH  16  24
ENDBRANCH  10  11
ENDBRANCH   7  10
ENDBRANCH   5   6
BRANCH   5  34
ATOM     34  C   UNL A   1      40.324  27.417  27.455  1.00  0.00     0.065 C 
BRANCH  34  35
ATOM     35  C   UNL A   1      39.113  26.775  28.127  1.00  0.00     0.159 C 
BRANCH  35  36
ATOM     36  O   UNL A   1      39.462  25.588  28.816  1.00  0.00    -0.396 OA
ATOM     37  H   UNL A   1      40.337  25.288  28.522  1.00  0.00     0.210 HD
ENDBRANCH  35  36
ENDBRANCH  34  35
ENDBRANCH   5  34
ENDBRANCH   3   5
ENDBRANCH   2   3
ENDBRANCH   1   2
BRANCH   1  38
ATOM     38  C   UNL A   1      44.989  28.802  30.210  1.00  0.00     0.275 C 
BRANCH  38  39
ATOM     39  O   UNL A   1      44.209  29.895  29.594  1.00  0.00    -0.458 OA
BRANCH  39  40
ATOM     40  C   UNL A   1      43.620  30.796  30.448  1.00  0.00     0.338 C 
ATOM     41  O   UNL A   1      43.389  30.515  31.618  1.00  0.00    -0.246 OA
BRANCH  40  42
ATOM     42  C   UNL A   1      43.358  32.215  29.893  1.00  0.00     0.060 A 
ATOM     43  C   UNL A   1      44.104  32.605  28.798  1.00  0.00     0.016 A 
ATOM     44  C   UNL A   1      42.580  33.262  30.443  1.00  0.00     0.016 A 
ATOM     45  C   UNL A   1      44.024  33.939  28.268  1.00  0.00     0.010 A 
ATOM     46  C   UNL A   1      42.577  34.676  29.930  1.00  0.00     0.010 A 
ATOM     47  C   UNL A   1      43.320  35.091  28.809  1.00  0.00    -0.014 A 
BRANCH  47  48
ATOM     48  C   UNL A   1      43.716  36.622  28.177  1.00  0.00     0.031 A 
ATOM     49  C   UNL A   1      45.092  36.817  28.712  1.00  0.00     0.074 A 
ATOM     50  C   UNL A   1      43.293  37.812  27.527  1.00  0.00     0.049 A 
ATOM     51  N   UNL A   1      45.253  36.787  30.003  1.00  0.00    -0.248 NA
ATOM     52  C   UNL A   1      46.318  36.603  27.941  1.00  0.00     0.031 C 
ATOM     53  C   UNL A   1      41.934  38.212  27.112  1.00  0.00     0.029 A 
ATOM     54  N   UNL A   1      44.002  39.018  27.089  1.00  0.00    -0.354 N 
ATOM     55  C   UNL A   1      46.597  36.825  30.241  1.00  0.00     0.074 A 
ATOM     56  C   UNL A   1      47.201  36.523  28.946  1.00  0.00     0.031 C 
ATOM     57  C   UNL A   1      41.921  39.381  26.392  1.00  0.00     0.029 A 
ATOM     58  C   UNL A   1      43.257  39.979  26.269  1.00  0.00     0.049 A 
ATOM     59  H   UNL A   1      44.942  39.176  27.335  1.00  0.00     0.167 HD
ATOM     60  C   UNL A   1      46.985  37.715  31.197  1.00  0.00     0.034 A 
ATOM     61  C   UNL A   1      43.628  41.187  25.633  1.00  0.00     0.034 A 
ATOM     62  C   UNL A   1      47.454  38.931  30.592  1.00  0.00     0.049 A 
ATOM     63  C   UNL A   1      44.681  41.782  26.451  1.00  0.00     0.074 A 
ATOM     64  C   UNL A   1      48.281  39.176  29.514  1.00  0.00     0.029 A 
ATOM     65  N   UNL A   1      46.669  40.053  30.758  1.00  0.00    -0.354 N 
ATOM     66  N   UNL A   1      44.409  42.392  27.560  1.00  0.00    -0.248 NA
ATOM     67  C   UNL A   1      46.070  41.844  26.013  1.00  0.00     0.031 C 
ATOM     68  C   UNL A   1      47.607  40.172  28.777  1.00  0.00     0.029 A 
ATOM     69  C   UNL A   1      46.663  40.787  29.593  1.00  0.00     0.049 A 
ATOM     70  H   UNL A   1      46.187  40.293  31.583  1.00  0.00     0.167 HD
ATOM     71  C   UNL A   1      45.613  42.405  28.191  1.00  0.00     0.074 A 
ATOM     72  C   UNL A   1      46.602  42.347  27.129  1.00  0.00     0.031 C 
ATOM     73  C   UNL A   1      45.641  41.798  29.404  1.00  0.00     0.034 A 
BRANCH  60  74
ATOM     74  C   UNL A   1      46.140  37.648  32.448  1.00  0.00     0.023 A 
ATOM     75  C   UNL A   1      45.679  38.841  33.015  1.00  0.00     0.031 A 
ATOM     76  C   UNL A   1      45.920  36.452  33.172  1.00  0.00     0.131 A 
ATOM     77  C   UNL A   1      45.096  38.827  34.294  1.00  0.00     0.055 A 
ATOM     78  C   UNL A   1      45.409  36.451  34.469  1.00  0.00     0.041 A 
ATOM     79  F   UNL A   1      46.213  35.258  32.632  1.00  0.00    -0.206 F 
ATOM     80  C   UNL A   1      45.001  37.649  35.042  1.00  0.00     0.022 A 
BRANCH  77  81
ATOM     81  S   UNL A   1      44.435  40.376  34.959  1.00  0.00     0.124 S 
ATOM     82  O   UNL A   1      43.048  40.347  34.502  1.00  0.00    -0.237 OA
ATOM     83  O   UNL A   1      44.627  40.201  36.397  1.00  0.00    -0.237 OA
ATOM     84  O   UNL A   1      45.272  41.405  34.346  1.00  0.00    -0.744 OA
ENDBRANCH  77  81
ENDBRANCH  60  74
BRANCH  61  85
ATOM     85  C   UNL A   1      43.256  42.282  24.531  1.00  0.00     0.023 A 
ATOM     86  C   UNL A   1      44.245  42.908  23.643  1.00  0.00     0.031 A 
ATOM     87  C   UNL A   1      41.946  42.365  24.043  1.00  0.00     0.131 A 
ATOM     88  C   UNL A   1      43.909  43.497  22.377  1.00  0.00     0.055 A 
ATOM     89  C   UNL A   1      41.620  42.958  22.792  1.00  0.00     0.041 A 
ATOM     90  F   UNL A   1      40.944  41.768  24.703  1.00  0.00    -0.206 F 
ATOM     91  C   UNL A   1      42.589  43.505  21.952  1.00  0.00     0.022 A 
BRANCH  88  92
ATOM     92  S   UNL A   1      45.175  44.103  21.155  1.00  0.00     0.124 S 
ATOM     93  O   UNL A   1      46.352  43.303  21.473  1.00  0.00    -0.237 OA
ATOM     94  O   UNL A   1      44.539  43.846  19.867  1.00  0.00    -0.237 OA
ATOM     95  O   UNL A   1      45.311  45.527  21.475  1.00  0.00    -0.744 OA
ENDBRANCH  88  92
ENDBRANCH  61  85
BRANCH  73  96
ATOM     96  C   UNL A   1      44.493  42.102  30.366  1.00  0.00     0.023 A 
ATOM     97  C   UNL A   1      44.403  43.199  31.268  1.00  0.00     0.031 A 
ATOM     98  C   UNL A   1      43.451  41.162  30.430  1.00  0.00     0.131 A 
ATOM     99  C   UNL A   1      43.340  43.300  32.189  1.00  0.00     0.055 A 
ATOM    100  C   UNL A   1      42.376  41.283  31.312  1.00  0.00     0.041 A 
ATOM    101  F   UNL A   1      43.466  40.084  29.630  1.00  0.00    -0.206 F 
ATOM    102  C   UNL A   1      42.323  42.346  32.205  1.00  0.00     0.022 A 
BRANCH  99 103
ATOM    103  S   UNL A   1      43.308  44.631  33.441  1.00  0.00     0.124 S 
ATOM    104  O   UNL A   1      44.658  44.610  33.993  1.00  0.00    -0.237 OA
ATOM    105  O   UNL A   1      42.961  45.808  32.650  1.00  0.00    -0.237 OA
ATOM    106  O   UNL A   1      42.267  44.196  34.374  1.00  0.00    -0.744 OA
ENDBRANCH  99 103
ENDBRANCH  73  96
ENDBRANCH  47  48
ENDBRANCH  40  42
ENDBRANCH  39  40
ENDBRANCH  38  39
ENDBRANCH   1  38
TORSDOF 23
ENDMDL
