MODEL 1
REMARK VINA RESULT:     -11.8      0.000      0.000
REMARK SMILES COc1ccccc1CCNC(=O)[C@@H]1[C@@H](C(=O)OCCOC(=O)c2ccc(-c3c4nc(c(-c5cc(S(=O)(=O)[O-])ccc5F)c5ccc([nH]5)c(-c5cc(S(=O)(=O)[O-])ccc5F)c5nc(c(-c6cc(S(=O)(=O)[O-])ccc6F)c6ccc3[nH]6)C=C5)C=C4)cc2)[C@H]2C=C[C@@H]1CC2
REMARK SMILES IDX 19 1 18 2 16 3 17 4 15 5 14 6 90 7 87 8 89 9 91 10 88 11
REMARK SMILES IDX 92 12 12 13 11 14 13 16 10 17 9 18 8 19 3 20 4 21 5 22 7 23
REMARK SMILES IDX 6 24 2 25 1 26 20 27 21 28 22 29 23 30 24 31 25 32 86 33
REMARK SMILES IDX 26 34 85 35 27 36 28 37 29 38 79 39 30 40 84 41 78 42 80 43
REMARK SMILES IDX 31 44 83 45 77 46 76 47 32 49 64 50 44 51 63 52 45 53 48 54
REMARK SMILES IDX 62 55 81 56 46 57 47 58 61 60 82 61 49 62 33 63 34 64 42 65
REMARK SMILES IDX 35 66 41 67 43 68 40 69 36 70 37 71 38 72 39 73 65 74 66 75
REMARK SMILES IDX 74 76 67 77 73 78 75 79 72 80 68 81 69 82 70 83 71 84 50 85
REMARK SMILES IDX 51 86 59 87 52 88 58 89 60 90 57 91 53 92 54 93 55 94 56 95
REMARK H PARENT 11 15 80 48 48 59
REMARK Flexibility Score: inf
ROOT
ATOM      1  C   UNL A   1      35.462  21.429  24.641  1.00  0.00     0.274 C 
ENDROOT
BRANCH   1   2
ATOM      2  O   UNL A   1      34.711  22.410  25.382  1.00  0.00    -0.462 OA
BRANCH   2   3
ATOM      3  C   UNL A   1      34.763  23.685  24.910  1.00  0.00     0.310 C 
ATOM      4  O   UNL A   1      35.806  24.286  24.682  1.00  0.00    -0.252 OA
BRANCH   3   5
ATOM      5  C   UNL A   1      33.382  24.236  24.552  1.00  0.00     0.119 C 
ATOM      6  C   UNL A   1      32.277  23.349  25.200  1.00  0.00     0.100 C 
ATOM      7  C   UNL A   1      31.226  22.935  24.137  1.00  0.00     0.025 C 
ATOM      8  C   UNL A   1      33.134  24.299  23.015  1.00  0.00     0.026 C 
ATOM      9  C   UNL A   1      31.995  22.178  23.061  1.00  0.00    -0.027 C 
ATOM     10  C   UNL A   1      30.639  24.182  23.448  1.00  0.00     0.009 C 
ATOM     11  C   UNL A   1      32.987  22.881  22.490  1.00  0.00    -0.027 C 
ATOM     12  C   UNL A   1      31.770  24.987  22.766  1.00  0.00     0.009 C 
BRANCH   6  13
ATOM     13  C   UNL A   1      31.617  23.770  26.511  1.00  0.00     0.224 C 
ATOM     14  N   UNL A   1      30.870  24.872  26.723  1.00  0.00    -0.355 N 
ATOM     15  H   UNL A   1      30.546  24.927  27.650  1.00  0.00     0.163 HD
ATOM     16  O   UNL A   1      31.705  22.999  27.477  1.00  0.00    -0.275 OA
BRANCH  14  17
ATOM     17  C   UNL A   1      30.422  26.001  25.919  1.00  0.00     0.120 C 
BRANCH  17  18
ATOM     18  C   UNL A   1      31.174  27.289  26.253  1.00  0.00     0.060 C 
BRANCH  18  19
ATOM     19  C   UNL A   1      32.004  27.828  25.112  1.00  0.00    -0.004 A 
ATOM     20  C   UNL A   1      31.461  28.589  24.064  1.00  0.00     0.122 A 
ATOM     21  C   UNL A   1      32.276  29.043  23.022  1.00  0.00     0.047 A 
ATOM     22  C   UNL A   1      33.638  28.740  23.012  1.00  0.00     0.004 A 
ATOM     23  C   UNL A   1      33.375  27.515  25.073  1.00  0.00     0.007 A 
ATOM     24  C   UNL A   1      34.184  27.964  24.029  1.00  0.00     0.001 A 
BRANCH  20  25
ATOM     25  O   UNL A   1      30.113  28.780  23.922  1.00  0.00    -0.496 OA
ATOM     26  C   UNL A   1      29.530  27.999  22.882  1.00  0.00     0.278 C 
ENDBRANCH  20  25
ENDBRANCH  18  19
ENDBRANCH  17  18
ENDBRANCH  14  17
ENDBRANCH   6  13
ENDBRANCH   3   5
ENDBRANCH   2   3
ENDBRANCH   1   2
BRANCH   1  27
ATOM     27  C   UNL A   1      36.672  20.932  25.437  1.00  0.00     0.275 C 
BRANCH  27  28
ATOM     28  O   UNL A   1      37.849  21.718  25.172  1.00  0.00    -0.458 OA
BRANCH  28  29
ATOM     29  C   UNL A   1      38.929  21.395  25.916  1.00  0.00     0.338 C 
ATOM     30  O   UNL A   1      39.488  20.307  25.976  1.00  0.00    -0.246 OA
BRANCH  29  31
ATOM     31  C   UNL A   1      39.463  22.591  26.577  1.00  0.00     0.060 A 
ATOM     32  C   UNL A   1      39.021  23.829  26.123  1.00  0.00     0.016 A 
ATOM     33  C   UNL A   1      40.488  22.514  27.520  1.00  0.00     0.016 A 
ATOM     34  C   UNL A   1      39.646  24.995  26.544  1.00  0.00     0.010 A 
ATOM     35  C   UNL A   1      41.077  23.697  27.989  1.00  0.00     0.010 A 
ATOM     36  C   UNL A   1      40.684  24.949  27.480  1.00  0.00    -0.014 A 
BRANCH  36  37
ATOM     37  C   UNL A   1      41.378  26.212  27.856  1.00  0.00     0.031 A 
ATOM     38  C   UNL A   1      40.665  27.245  28.685  1.00  0.00     0.074 A 
ATOM     39  C   UNL A   1      42.668  26.407  27.515  1.00  0.00     0.049 A 
ATOM     40  N   UNL A   1      41.028  28.467  28.984  1.00  0.00    -0.248 NA
ATOM     41  C   UNL A   1      39.358  26.857  29.238  1.00  0.00     0.031 C 
ATOM     42  C   UNL A   1      43.506  25.448  26.791  1.00  0.00     0.029 A 
ATOM     43  N   UNL A   1      43.508  27.467  27.749  1.00  0.00    -0.354 N 
ATOM     44  C   UNL A   1      39.976  29.011  29.713  1.00  0.00     0.074 A 
ATOM     45  C   UNL A   1      38.958  27.984  29.806  1.00  0.00     0.031 C 
ATOM     46  C   UNL A   1      44.747  25.944  26.680  1.00  0.00     0.029 A 
ATOM     47  C   UNL A   1      44.772  27.293  27.231  1.00  0.00     0.049 A 
ATOM     48  H   UNL A   1      43.234  28.275  28.240  1.00  0.00     0.167 HD
ATOM     49  C   UNL A   1      39.871  30.253  30.246  1.00  0.00     0.034 A 
ATOM     50  C   UNL A   1      45.817  28.141  27.160  1.00  0.00     0.034 A 
ATOM     51  C   UNL A   1      40.916  31.245  30.182  1.00  0.00     0.049 A 
ATOM     52  C   UNL A   1      45.654  29.536  27.702  1.00  0.00     0.074 A 
ATOM     53  C   UNL A   1      40.918  32.534  30.689  1.00  0.00     0.029 A 
ATOM     54  N   UNL A   1      42.153  31.059  29.579  1.00  0.00    -0.354 N 
ATOM     55  N   UNL A   1      44.619  30.072  28.306  1.00  0.00    -0.248 NA
ATOM     56  C   UNL A   1      46.792  30.448  27.530  1.00  0.00     0.031 C 
ATOM     57  C   UNL A   1      42.131  33.142  30.347  1.00  0.00     0.029 A 
ATOM     58  C   UNL A   1      42.914  32.214  29.680  1.00  0.00     0.049 A 
ATOM     59  H   UNL A   1      42.447  30.227  29.141  1.00  0.00     0.167 HD
ATOM     60  C   UNL A   1      44.983  31.385  28.585  1.00  0.00     0.074 A 
ATOM     61  C   UNL A   1      46.342  31.551  28.110  1.00  0.00     0.031 C 
ATOM     62  C   UNL A   1      44.258  32.368  29.177  1.00  0.00     0.034 A 
BRANCH  49  63
ATOM     63  C   UNL A   1      38.553  30.626  30.878  1.00  0.00     0.023 A 
ATOM     64  C   UNL A   1      37.565  31.344  30.183  1.00  0.00     0.031 A 
ATOM     65  C   UNL A   1      38.297  30.283  32.218  1.00  0.00     0.131 A 
ATOM     66  C   UNL A   1      36.399  31.753  30.849  1.00  0.00     0.055 A 
ATOM     67  C   UNL A   1      37.103  30.629  32.853  1.00  0.00     0.041 A 
ATOM     68  F   UNL A   1      39.213  29.617  32.939  1.00  0.00    -0.206 F 
ATOM     69  C   UNL A   1      36.151  31.381  32.173  1.00  0.00     0.022 A 
BRANCH  66  70
ATOM     70  S   UNL A   1      35.274  32.899  30.004  1.00  0.00     0.124 S 
ATOM     71  O   UNL A   1      36.206  33.726  29.241  1.00  0.00    -0.237 OA
ATOM     72  O   UNL A   1      34.434  31.998  29.223  1.00  0.00    -0.237 OA
ATOM     73  O   UNL A   1      34.598  33.587  31.102  1.00  0.00    -0.744 OA
ENDBRANCH  66  70
ENDBRANCH  49  63
BRANCH  50  74
ATOM     74  C   UNL A   1      47.075  27.730  26.472  1.00  0.00     0.023 A 
ATOM     75  C   UNL A   1      47.240  27.907  25.090  1.00  0.00     0.031 A 
ATOM     76  C   UNL A   1      48.119  27.116  27.189  1.00  0.00     0.131 A 
ATOM     77  C   UNL A   1      48.410  27.451  24.463  1.00  0.00     0.055 A 
ATOM     78  C   UNL A   1      49.304  26.714  26.570  1.00  0.00     0.041 A 
ATOM     79  F   UNL A   1      48.009  26.912  28.512  1.00  0.00    -0.206 F 
ATOM     80  C   UNL A   1      49.449  26.872  25.196  1.00  0.00     0.022 A 
BRANCH  77  81
ATOM     81  S   UNL A   1      48.524  27.550  22.655  1.00  0.00     0.124 S 
ATOM     82  O   UNL A   1      48.532  26.140  22.280  1.00  0.00    -0.237 OA
ATOM     83  O   UNL A   1      47.320  28.299  22.312  1.00  0.00    -0.237 OA
ATOM     84  O   UNL A   1      49.782  28.261  22.431  1.00  0.00    -0.744 OA
ENDBRANCH  77  81
ENDBRANCH  50  74
BRANCH  62  85
ATOM     85  C   UNL A   1      44.944  33.697  29.359  1.00  0.00     0.023 A 
ATOM     86  C   UNL A   1      44.743  34.755  28.456  1.00  0.00     0.031 A 
ATOM     87  C   UNL A   1      45.825  33.897  30.435  1.00  0.00     0.131 A 
ATOM     88  C   UNL A   1      45.454  35.954  28.619  1.00  0.00     0.055 A 
ATOM     89  C   UNL A   1      46.492  35.109  30.620  1.00  0.00     0.041 A 
ATOM     90  F   UNL A   1      46.052  32.917  31.324  1.00  0.00    -0.206 F 
ATOM     91  C   UNL A   1      46.316  36.142  29.702  1.00  0.00     0.022 A 
BRANCH  88  92
ATOM     92  S   UNL A   1      45.292  37.243  27.353  1.00  0.00     0.124 S 
ATOM     93  O   UNL A   1      46.387  36.917  26.445  1.00  0.00    -0.237 OA
ATOM     94  O   UNL A   1      43.946  37.011  26.839  1.00  0.00    -0.237 OA
ATOM     95  O   UNL A   1      45.460  38.485  28.105  1.00  0.00    -0.744 OA
ENDBRANCH  88  92
ENDBRANCH  62  85
ENDBRANCH  36  37
ENDBRANCH  29  31
ENDBRANCH  28  29
ENDBRANCH  27  28
ENDBRANCH   1  27
TORSDOF 19
ENDMDL
MODEL 2
REMARK VINA RESULT:     -11.7      4.979      9.904
REMARK SMILES COc1ccccc1CCNC(=O)[C@@H]1[C@@H](C(=O)OCCOC(=O)c2ccc(-c3c4nc(c(-c5cc(S(=O)(=O)[O-])ccc5F)c5ccc([nH]5)c(-c5cc(S(=O)(=O)[O-])ccc5F)c5nc(c(-c6cc(S(=O)(=O)[O-])ccc6F)c6ccc3[nH]6)C=C5)C=C4)cc2)[C@H]2C=C[C@@H]1CC2
REMARK SMILES IDX 19 1 18 2 16 3 17 4 15 5 14 6 90 7 87 8 89 9 91 10 88 11
REMARK SMILES IDX 92 12 12 13 11 14 13 16 10 17 9 18 8 19 3 20 4 21 5 22 7 23
REMARK SMILES IDX 6 24 2 25 1 26 20 27 21 28 22 29 23 30 24 31 25 32 86 33
REMARK SMILES IDX 26 34 85 35 27 36 28 37 29 38 79 39 30 40 84 41 78 42 80 43
REMARK SMILES IDX 31 44 83 45 77 46 76 47 32 49 64 50 44 51 63 52 45 53 48 54
REMARK SMILES IDX 62 55 81 56 46 57 47 58 61 60 82 61 49 62 33 63 34 64 42 65
REMARK SMILES IDX 35 66 41 67 43 68 40 69 36 70 37 71 38 72 39 73 65 74 66 75
REMARK SMILES IDX 74 76 67 77 73 78 75 79 72 80 68 81 69 82 70 83 71 84 50 85
REMARK SMILES IDX 51 86 59 87 52 88 58 89 60 90 57 91 53 92 54 93 55 94 56 95
REMARK H PARENT 11 15 80 48 48 59
REMARK Flexibility Score: inf
ROOT
ATOM      1  C   UNL A   1      32.110  29.598  24.730  1.00  0.00     0.274 C 
ENDROOT
BRANCH   1   2
ATOM      2  O   UNL A   1      31.086  28.713  24.236  1.00  0.00    -0.462 OA
BRANCH   2   3
ATOM      3  C   UNL A   1      31.174  27.414  24.633  1.00  0.00     0.310 C 
ATOM      4  O   UNL A   1      30.998  27.041  25.787  1.00  0.00    -0.252 OA
BRANCH   3   5
ATOM      5  C   UNL A   1      31.369  26.453  23.461  1.00  0.00     0.119 C 
ATOM      6  C   UNL A   1      31.861  25.071  23.987  1.00  0.00     0.100 C 
ATOM      7  C   UNL A   1      33.119  24.613  23.205  1.00  0.00     0.025 C 
ATOM      8  C   UNL A   1      32.391  26.979  22.409  1.00  0.00     0.026 C 
ATOM      9  C   UNL A   1      34.164  25.701  23.419  1.00  0.00    -0.027 C 
ATOM     10  C   UNL A   1      32.830  24.587  21.691  1.00  0.00     0.009 C 
ATOM     11  C   UNL A   1      33.782  26.924  23.017  1.00  0.00    -0.027 C 
ATOM     12  C   UNL A   1      32.413  25.997  21.212  1.00  0.00     0.009 C 
BRANCH   6  13
ATOM     13  C   UNL A   1      30.873  23.925  24.189  1.00  0.00     0.224 C 
ATOM     14  N   UNL A   1      30.505  23.372  25.362  1.00  0.00    -0.355 N 
ATOM     15  H   UNL A   1      29.848  22.649  25.241  1.00  0.00     0.163 HD
ATOM     16  O   UNL A   1      30.283  23.487  23.191  1.00  0.00    -0.275 OA
BRANCH  14  17
ATOM     17  C   UNL A   1      30.835  23.581  26.764  1.00  0.00     0.120 C 
BRANCH  17  18
ATOM     18  C   UNL A   1      31.855  22.566  27.280  1.00  0.00     0.060 C 
BRANCH  18  19
ATOM     19  C   UNL A   1      33.068  22.410  26.394  1.00  0.00    -0.004 A 
ATOM     20  C   UNL A   1      33.169  21.423  25.400  1.00  0.00     0.122 A 
ATOM     21  C   UNL A   1      34.327  21.314  24.624  1.00  0.00     0.047 A 
ATOM     22  C   UNL A   1      35.397  22.185  24.832  1.00  0.00     0.004 A 
ATOM     23  C   UNL A   1      34.165  23.266  26.601  1.00  0.00     0.007 A 
ATOM     24  C   UNL A   1      35.322  23.151  25.830  1.00  0.00     0.001 A 
BRANCH  20  25
ATOM     25  O   UNL A   1      32.233  20.434  25.256  1.00  0.00    -0.496 OA
ATOM     26  C   UNL A   1      32.535  19.507  24.215  1.00  0.00     0.278 C 
ENDBRANCH  20  25
ENDBRANCH  18  19
ENDBRANCH  17  18
ENDBRANCH  14  17
ENDBRANCH   6  13
ENDBRANCH   3   5
ENDBRANCH   2   3
ENDBRANCH   1   2
BRANCH   1  27
ATOM     27  C   UNL A   1      31.577  30.505  25.842  1.00  0.00     0.275 C 
BRANCH  27  28
ATOM     28  O   UNL A   1      32.420  30.476  27.009  1.00  0.00    -0.458 OA
BRANCH  28  29
ATOM     29  C   UNL A   1      33.102  31.618  27.248  1.00  0.00     0.338 C 
ATOM     30  O   UNL A   1      32.667  32.762  27.207  1.00  0.00    -0.246 OA
BRANCH  29  31
ATOM     31  C   UNL A   1      34.458  31.308  27.714  1.00  0.00     0.060 A 
ATOM     32  C   UNL A   1      34.741  29.985  28.038  1.00  0.00     0.016 A 
ATOM     33  C   UNL A   1      35.392  32.310  27.976  1.00  0.00     0.016 A 
ATOM     34  C   UNL A   1      35.921  29.660  28.694  1.00  0.00     0.010 A 
ATOM     35  C   UNL A   1      36.610  31.969  28.583  1.00  0.00     0.010 A 
ATOM     36  C   UNL A   1      36.872  30.644  28.979  1.00  0.00    -0.014 A 
BRANCH  36  37
ATOM     37  C   UNL A   1      38.094  30.272  29.745  1.00  0.00     0.031 A 
ATOM     38  C   UNL A   1      39.119  29.359  29.130  1.00  0.00     0.074 A 
ATOM     39  C   UNL A   1      38.321  30.803  30.963  1.00  0.00     0.049 A 
ATOM     40  N   UNL A   1      40.163  28.791  29.679  1.00  0.00    -0.248 NA
ATOM     41  C   UNL A   1      38.935  29.026  27.709  1.00  0.00     0.031 C 
ATOM     42  C   UNL A   1      37.455  31.772  31.639  1.00  0.00     0.029 A 
ATOM     43  N   UNL A   1      39.359  30.621  31.843  1.00  0.00    -0.354 N 
ATOM     44  C   UNL A   1      40.729  27.994  28.690  1.00  0.00     0.074 A 
ATOM     45  C   UNL A   1      39.908  28.150  27.507  1.00  0.00     0.031 C 
ATOM     46  C   UNL A   1      38.019  32.130  32.803  1.00  0.00     0.029 A 
ATOM     47  C   UNL A   1      39.230  31.346  33.006  1.00  0.00     0.049 A 
ATOM     48  H   UNL A   1      40.124  30.028  31.660  1.00  0.00     0.167 HD
ATOM     49  C   UNL A   1      41.828  27.203  28.768  1.00  0.00     0.034 A 
ATOM     50  C   UNL A   1      39.972  31.343  34.131  1.00  0.00     0.034 A 
ATOM     51  C   UNL A   1      42.659  27.097  29.943  1.00  0.00     0.049 A 
ATOM     52  C   UNL A   1      41.149  30.409  34.218  1.00  0.00     0.074 A 
ATOM     53  C   UNL A   1      43.795  26.328  30.131  1.00  0.00     0.029 A 
ATOM     54  N   UNL A   1      42.450  27.788  31.130  1.00  0.00    -0.354 N 
ATOM     55  N   UNL A   1      41.621  29.587  33.309  1.00  0.00    -0.248 NA
ATOM     56  C   UNL A   1      41.879  30.382  35.492  1.00  0.00     0.031 C 
ATOM     57  C   UNL A   1      44.240  26.512  31.446  1.00  0.00     0.029 A 
ATOM     58  C   UNL A   1      43.419  27.445  32.060  1.00  0.00     0.049 A 
ATOM     59  H   UNL A   1      41.717  28.427  31.288  1.00  0.00     0.167 HD
ATOM     60  C   UNL A   1      42.703  28.946  33.903  1.00  0.00     0.074 A 
ATOM     61  C   UNL A   1      42.832  29.497  35.237  1.00  0.00     0.031 C 
ATOM     62  C   UNL A   1      43.515  27.986  33.394  1.00  0.00     0.034 A 
BRANCH  49  63
ATOM     63  C   UNL A   1      42.144  26.337  27.574  1.00  0.00     0.023 A 
ATOM     64  C   UNL A   1      41.688  25.012  27.466  1.00  0.00     0.031 A 
ATOM     65  C   UNL A   1      42.949  26.842  26.537  1.00  0.00     0.131 A 
ATOM     66  C   UNL A   1      42.094  24.218  26.383  1.00  0.00     0.055 A 
ATOM     67  C   UNL A   1      43.290  26.070  25.425  1.00  0.00     0.041 A 
ATOM     68  F   UNL A   1      43.432  28.093  26.596  1.00  0.00    -0.206 F 
ATOM     69  C   UNL A   1      42.874  24.745  25.350  1.00  0.00     0.022 A 
BRANCH  66  70
ATOM     70  S   UNL A   1      41.708  22.445  26.413  1.00  0.00     0.124 S 
ATOM     71  O   UNL A   1      42.108  22.075  27.769  1.00  0.00    -0.237 OA
ATOM     72  O   UNL A   1      40.275  22.431  26.145  1.00  0.00    -0.237 OA
ATOM     73  O   UNL A   1      42.548  21.894  25.352  1.00  0.00    -0.744 OA
ENDBRANCH  66  70
ENDBRANCH  49  63
BRANCH  50  74
ATOM     74  C   UNL A   1      39.574  32.181  35.298  1.00  0.00     0.023 A 
ATOM     75  C   UNL A   1      38.791  31.656  36.337  1.00  0.00     0.031 A 
ATOM     76  C   UNL A   1      39.944  33.537  35.370  1.00  0.00     0.131 A 
ATOM     77  C   UNL A   1      38.379  32.490  37.389  1.00  0.00     0.055 A 
ATOM     78  C   UNL A   1      39.579  34.347  36.446  1.00  0.00     0.041 A 
ATOM     79  F   UNL A   1      40.684  34.093  34.396  1.00  0.00    -0.206 F 
ATOM     80  C   UNL A   1      38.782  33.826  37.460  1.00  0.00     0.022 A 
BRANCH  77  81
ATOM     81  S   UNL A   1      37.237  31.824  38.633  1.00  0.00     0.124 S 
ATOM     82  O   UNL A   1      37.029  30.464  38.146  1.00  0.00    -0.237 OA
ATOM     83  O   UNL A   1      38.012  31.954  39.862  1.00  0.00    -0.237 OA
ATOM     84  O   UNL A   1      36.075  32.705  38.535  1.00  0.00    -0.744 OA
ENDBRANCH  77  81
ENDBRANCH  50  74
BRANCH  62  85
ATOM     85  C   UNL A   1      44.626  27.498  34.288  1.00  0.00     0.023 A 
ATOM     86  C   UNL A   1      44.421  26.455  35.209  1.00  0.00     0.031 A 
ATOM     87  C   UNL A   1      45.895  28.098  34.232  1.00  0.00     0.131 A 
ATOM     88  C   UNL A   1      45.459  26.076  36.073  1.00  0.00     0.055 A 
ATOM     89  C   UNL A   1      46.938  27.683  35.060  1.00  0.00     0.041 A 
ATOM     90  F   UNL A   1      46.140  29.098  33.371  1.00  0.00    -0.206 F 
ATOM     91  C   UNL A   1      46.720  26.674  35.995  1.00  0.00     0.022 A 
BRANCH  88  92
ATOM     92  S   UNL A   1      45.120  24.837  37.354  1.00  0.00     0.124 S 
ATOM     93  O   UNL A   1      43.734  25.133  37.703  1.00  0.00    -0.237 OA
ATOM     94  O   UNL A   1      45.345  23.582  36.644  1.00  0.00    -0.237 OA
ATOM     95  O   UNL A   1      46.100  25.142  38.394  1.00  0.00    -0.744 OA
ENDBRANCH  88  92
ENDBRANCH  62  85
ENDBRANCH  36  37
ENDBRANCH  29  31
ENDBRANCH  28  29
ENDBRANCH  27  28
ENDBRANCH   1  27
TORSDOF 19
ENDMDL
MODEL 3
REMARK VINA RESULT:     -11.5      4.729      9.821
REMARK SMILES COc1ccccc1CCNC(=O)[C@@H]1[C@@H](C(=O)OCCOC(=O)c2ccc(-c3c4nc(c(-c5cc(S(=O)(=O)[O-])ccc5F)c5ccc([nH]5)c(-c5cc(S(=O)(=O)[O-])ccc5F)c5nc(c(-c6cc(S(=O)(=O)[O-])ccc6F)c6ccc3[nH]6)C=C5)C=C4)cc2)[C@H]2C=C[C@@H]1CC2
REMARK SMILES IDX 19 1 18 2 16 3 17 4 15 5 14 6 90 7 87 8 89 9 91 10 88 11
REMARK SMILES IDX 92 12 12 13 11 14 13 16 10 17 9 18 8 19 3 20 4 21 5 22 7 23
REMARK SMILES IDX 6 24 2 25 1 26 20 27 21 28 22 29 23 30 24 31 25 32 86 33
REMARK SMILES IDX 26 34 85 35 27 36 28 37 29 38 79 39 30 40 84 41 78 42 80 43
REMARK SMILES IDX 31 44 83 45 77 46 76 47 32 49 64 50 44 51 63 52 45 53 48 54
REMARK SMILES IDX 62 55 81 56 46 57 47 58 61 60 82 61 49 62 33 63 34 64 42 65
REMARK SMILES IDX 35 66 41 67 43 68 40 69 36 70 37 71 38 72 39 73 65 74 66 75
REMARK SMILES IDX 74 76 67 77 73 78 75 79 72 80 68 81 69 82 70 83 71 84 50 85
REMARK SMILES IDX 51 86 59 87 52 88 58 89 60 90 57 91 53 92 54 93 55 94 56 95
REMARK H PARENT 11 15 80 48 48 59
REMARK Flexibility Score: inf
ROOT
ATOM      1  C   UNL A   1      31.199  30.283  24.957  1.00  0.00     0.274 C 
ENDROOT
BRANCH   1   2
ATOM      2  O   UNL A   1      32.373  29.477  24.732  1.00  0.00    -0.462 OA
BRANCH   2   3
ATOM      3  C   UNL A   1      32.300  28.589  23.704  1.00  0.00     0.310 C 
ATOM      4  O   UNL A   1      32.073  28.907  22.543  1.00  0.00    -0.252 OA
BRANCH   3   5
ATOM      5  C   UNL A   1      32.681  27.170  24.126  1.00  0.00     0.119 C 
ATOM      6  C   UNL A   1      31.400  26.375  24.522  1.00  0.00     0.100 C 
ATOM      7  C   UNL A   1      31.585  25.708  25.910  1.00  0.00     0.025 C 
ATOM      8  C   UNL A   1      33.676  27.139  25.325  1.00  0.00     0.026 C 
ATOM      9  C   UNL A   1      31.865  26.845  26.885  1.00  0.00    -0.027 C 
ATOM     10  C   UNL A   1      32.843  24.818  25.913  1.00  0.00     0.009 C 
ATOM     11  C   UNL A   1      32.940  27.589  26.576  1.00  0.00    -0.027 C 
ATOM     12  C   UNL A   1      34.091  25.670  25.583  1.00  0.00     0.009 C 
BRANCH   6  13
ATOM     13  C   UNL A   1      30.739  25.427  23.524  1.00  0.00     0.224 C 
ATOM     14  N   UNL A   1      31.360  24.554  22.705  1.00  0.00    -0.355 N 
ATOM     15  H   UNL A   1      30.723  24.045  22.155  1.00  0.00     0.163 HD
ATOM     16  O   UNL A   1      29.501  25.387  23.496  1.00  0.00    -0.275 OA
BRANCH  14  17
ATOM     17  C   UNL A   1      32.740  24.178  22.433  1.00  0.00     0.120 C 
BRANCH  17  18
ATOM     18  C   UNL A   1      33.021  22.713  22.767  1.00  0.00     0.060 C 
BRANCH  18  19
ATOM     19  C   UNL A   1      34.319  22.490  23.506  1.00  0.00    -0.004 A 
ATOM     20  C   UNL A   1      34.434  21.629  24.609  1.00  0.00     0.122 A 
ATOM     21  C   UNL A   1      35.659  21.480  25.267  1.00  0.00     0.047 A 
ATOM     22  C   UNL A   1      36.780  22.190  24.835  1.00  0.00     0.004 A 
ATOM     23  C   UNL A   1      35.455  23.212  23.098  1.00  0.00     0.007 A 
ATOM     24  C   UNL A   1      36.674  23.067  23.760  1.00  0.00     0.001 A 
BRANCH  20  25
ATOM     25  O   UNL A   1      33.345  21.035  25.188  1.00  0.00    -0.496 OA
ATOM     26  C   UNL A   1      33.170  19.671  24.813  1.00  0.00     0.278 C 
ENDBRANCH  20  25
ENDBRANCH  18  19
ENDBRANCH  17  18
ENDBRANCH  14  17
ENDBRANCH   6  13
ENDBRANCH   3   5
ENDBRANCH   2   3
ENDBRANCH   1   2
BRANCH   1  27
ATOM     27  C   UNL A   1      31.406  31.260  26.117  1.00  0.00     0.275 C 
BRANCH  27  28
ATOM     28  O   UNL A   1      32.605  30.965  26.860  1.00  0.00    -0.458 OA
BRANCH  28  29
ATOM     29  C   UNL A   1      33.259  32.047  27.337  1.00  0.00     0.338 C 
ATOM     30  O   UNL A   1      32.808  33.174  27.496  1.00  0.00    -0.246 OA
BRANCH  29  31
ATOM     31  C   UNL A   1      34.602  31.665  27.790  1.00  0.00     0.060 A 
ATOM     32  C   UNL A   1      34.802  30.341  28.164  1.00  0.00     0.016 A 
ATOM     33  C   UNL A   1      35.606  32.611  27.989  1.00  0.00     0.016 A 
ATOM     34  C   UNL A   1      35.972  29.964  28.811  1.00  0.00     0.010 A 
ATOM     35  C   UNL A   1      36.812  32.215  28.587  1.00  0.00     0.010 A 
ATOM     36  C   UNL A   1      36.994  30.893  29.035  1.00  0.00    -0.014 A 
BRANCH  36  37
ATOM     37  C   UNL A   1      38.204  30.470  29.792  1.00  0.00     0.031 A 
ATOM     38  C   UNL A   1      39.209  29.550  29.153  1.00  0.00     0.074 A 
ATOM     39  C   UNL A   1      38.442  30.962  31.024  1.00  0.00     0.049 A 
ATOM     40  N   UNL A   1      40.238  28.942  29.688  1.00  0.00    -0.248 NA
ATOM     41  C   UNL A   1      39.020  29.261  27.723  1.00  0.00     0.031 C 
ATOM     42  C   UNL A   1      37.598  31.933  31.725  1.00  0.00     0.029 A 
ATOM     43  N   UNL A   1      39.474  30.731  31.900  1.00  0.00    -0.354 N 
ATOM     44  C   UNL A   1      40.786  28.159  28.678  1.00  0.00     0.074 A 
ATOM     45  C   UNL A   1      39.971  28.367  27.499  1.00  0.00     0.031 C 
ATOM     46  C   UNL A   1      38.168  32.246  32.898  1.00  0.00     0.029 A 
ATOM     47  C   UNL A   1      39.360  31.427  33.082  1.00  0.00     0.049 A 
ATOM     48  H   UNL A   1      40.224  30.125  31.702  1.00  0.00     0.167 HD
ATOM     49  C   UNL A   1      41.865  27.340  28.736  1.00  0.00     0.034 A 
ATOM     50  C   UNL A   1      40.099  31.376  34.208  1.00  0.00     0.034 A 
ATOM     51  C   UNL A   1      42.691  27.182  29.909  1.00  0.00     0.049 A 
ATOM     52  C   UNL A   1      41.253  30.412  34.270  1.00  0.00     0.074 A 
ATOM     53  C   UNL A   1      43.809  26.381  30.078  1.00  0.00     0.029 A 
ATOM     54  N   UNL A   1      42.497  27.845  31.114  1.00  0.00    -0.354 N 
ATOM     55  N   UNL A   1      41.707  29.604  33.340  1.00  0.00    -0.248 NA
ATOM     56  C   UNL A   1      41.979  30.333  35.544  1.00  0.00     0.031 C 
ATOM     57  C   UNL A   1      44.255  26.519  31.397  1.00  0.00     0.029 A 
ATOM     58  C   UNL A   1      43.456  27.454  32.036  1.00  0.00     0.049 A 
ATOM     59  H   UNL A   1      41.780  28.498  31.288  1.00  0.00     0.167 HD
ATOM     60  C   UNL A   1      42.772  28.922  33.918  1.00  0.00     0.074 A 
ATOM     61  C   UNL A   1      42.911  29.433  35.267  1.00  0.00     0.031 C 
ATOM     62  C   UNL A   1      43.562  27.956  33.384  1.00  0.00     0.034 A 
BRANCH  49  63
ATOM     63  C   UNL A   1      42.163  26.499  27.520  1.00  0.00     0.023 A 
ATOM     64  C   UNL A   1      41.753  25.159  27.415  1.00  0.00     0.031 A 
ATOM     65  C   UNL A   1      42.905  27.046  26.456  1.00  0.00     0.131 A 
ATOM     66  C   UNL A   1      42.142  24.394  26.305  1.00  0.00     0.055 A 
ATOM     67  C   UNL A   1      43.227  26.299  25.321  1.00  0.00     0.041 A 
ATOM     68  F   UNL A   1      43.343  28.313  26.510  1.00  0.00    -0.206 F 
ATOM     69  C   UNL A   1      42.858  24.960  25.247  1.00  0.00     0.022 A 
BRANCH  66  70
ATOM     70  S   UNL A   1      41.824  22.607  26.330  1.00  0.00     0.124 S 
ATOM     71  O   UNL A   1      42.306  22.235  27.658  1.00  0.00    -0.237 OA
ATOM     72  O   UNL A   1      40.380  22.541  26.134  1.00  0.00    -0.237 OA
ATOM     73  O   UNL A   1      42.629  22.100  25.220  1.00  0.00    -0.744 OA
ENDBRANCH  66  70
ENDBRANCH  49  63
BRANCH  50  74
ATOM     74  C   UNL A   1      39.719  32.192  35.396  1.00  0.00     0.023 A 
ATOM     75  C   UNL A   1      38.907  31.663  36.412  1.00  0.00     0.031 A 
ATOM     76  C   UNL A   1      40.135  33.531  35.514  1.00  0.00     0.131 A 
ATOM     77  C   UNL A   1      38.514  32.478  37.485  1.00  0.00     0.055 A 
ATOM     78  C   UNL A   1      39.788  34.320  36.611  1.00  0.00     0.041 A 
ATOM     79  F   UNL A   1      40.904  34.090  34.565  1.00  0.00    -0.206 F 
ATOM     80  C   UNL A   1      38.963  33.796  37.601  1.00  0.00     0.022 A 
BRANCH  77  81
ATOM     81  S   UNL A   1      37.337  31.815  38.697  1.00  0.00     0.124 S 
ATOM     82  O   UNL A   1      37.100  30.473  38.176  1.00  0.00    -0.237 OA
ATOM     83  O   UNL A   1      38.097  31.897  39.939  1.00  0.00    -0.237 OA
ATOM     84  O   UNL A   1      36.200  32.729  38.603  1.00  0.00    -0.744 OA
ENDBRANCH  77  81
ENDBRANCH  50  74
BRANCH  62  85
ATOM     85  C   UNL A   1      44.659  27.417  34.266  1.00  0.00     0.023 A 
ATOM     86  C   UNL A   1      45.931  28.015  34.303  1.00  0.00     0.031 A 
ATOM     87  C   UNL A   1      44.433  26.281  35.061  1.00  0.00     0.131 A 
ATOM     88  C   UNL A   1      46.947  27.443  35.083  1.00  0.00     0.055 A 
ATOM     89  C   UNL A   1      45.434  25.746  35.873  1.00  0.00     0.041 A 
ATOM     90  F   UNL A   1      43.236  25.673  35.060  1.00  0.00    -0.206 F 
ATOM     91  C   UNL A   1      46.702  26.320  35.879  1.00  0.00     0.022 A 
BRANCH  88  92
ATOM     92  S   UNL A   1      48.617  28.143  34.990  1.00  0.00     0.124 S 
ATOM     93  O   UNL A   1      48.571  28.874  33.728  1.00  0.00    -0.237 OA
ATOM     94  O   UNL A   1      48.683  28.959  36.198  1.00  0.00    -0.237 OA
ATOM     95  O   UNL A   1      49.483  26.966  34.993  1.00  0.00    -0.744 OA
ENDBRANCH  88  92
ENDBRANCH  62  85
ENDBRANCH  36  37
ENDBRANCH  29  31
ENDBRANCH  28  29
ENDBRANCH  27  28
ENDBRANCH   1  27
TORSDOF 19
ENDMDL
