MODEL 1
REMARK VINA RESULT:     -11.4      0.000      0.000
REMARK SMILES Cc1noc(C)c1COc1ccc(C(=O)OCCOC(=O)c2ccc(-c3c4nc(c(-c5cc(S(=O)(=O)[O-])ccc5F)c5ccc([nH]5)c(-c5cc(S(=O)(=O)[O-])ccc5F)c5nc(c(-c6cc(S(=O)(=O)[O-])ccc6F)c6ccc3[nH]6)C=C5)C=C4)cc2)cc1
REMARK SMILES IDX 17 1 16 2 14 3 15 4 13 5 10 6 11 7 86 8 12 9 85 10 9 11 8 12
REMARK SMILES IDX 7 13 1 14 2 15 3 16 4 17 5 18 6 19 18 20 19 21 20 22 21 23
REMARK SMILES IDX 22 24 23 25 84 26 24 27 83 28 25 29 26 30 27 31 77 32 28 33
REMARK SMILES IDX 82 34 76 35 78 36 29 37 81 38 75 39 74 40 30 42 62 43 42 44
REMARK SMILES IDX 61 45 43 46 46 47 60 48 79 49 44 50 45 51 59 53 80 54 47 55
REMARK SMILES IDX 31 56 32 57 40 58 33 59 39 60 41 61 38 62 34 63 35 64 36 65
REMARK SMILES IDX 37 66 63 67 64 68 72 69 65 70 71 71 73 72 70 73 66 74 67 75
REMARK SMILES IDX 68 76 69 77 48 78 49 79 57 80 50 81 56 82 58 83 55 84 51 85
REMARK SMILES IDX 52 86 53 87 54 88
REMARK H PARENT 78 41 46 52
REMARK Flexibility Score: inf
ROOT
ATOM      1  C   UNL A   1      34.943  21.210  24.691  1.00  0.00     0.275 C 
ENDROOT
BRANCH   1   2
ATOM      2  O   UNL A   1      33.988  20.941  25.733  1.00  0.00    -0.458 OA
BRANCH   2   3
ATOM      3  C   UNL A   1      32.694  20.812  25.339  1.00  0.00     0.338 C 
ATOM      4  O   UNL A   1      32.130  19.779  25.034  1.00  0.00    -0.246 OA
BRANCH   3   5
ATOM      5  C   UNL A   1      32.005  22.127  25.390  1.00  0.00     0.060 A 
ATOM      6  C   UNL A   1      30.756  24.616  25.408  1.00  0.00     0.119 A 
ATOM      7  C   UNL A   1      30.971  23.977  24.197  1.00  0.00     0.047 A 
ATOM      8  C   UNL A   1      31.099  23.994  26.612  1.00  0.00     0.047 A 
ATOM      9  C   UNL A   1      31.633  22.752  24.187  1.00  0.00     0.019 A 
ATOM     10  C   UNL A   1      31.734  22.754  26.606  1.00  0.00     0.019 A 
BRANCH   6  11
ATOM     11  O   UNL A   1      30.179  25.855  25.384  1.00  0.00    -0.489 OA
BRANCH  11  12
ATOM     12  C   UNL A   1      30.987  26.817  26.089  1.00  0.00     0.271 C 
BRANCH  12  13
ATOM     13  C   UNL A   1      31.927  27.537  25.188  1.00  0.00     0.055 A 
ATOM     14  C   UNL A   1      34.048  26.037  25.420  1.00  0.00     0.071 C 
ATOM     15  C   UNL A   1      33.276  27.191  24.899  1.00  0.00     0.087 A 
ATOM     16  N   UNL A   1      33.803  28.011  23.982  1.00  0.00    -0.085 NA
ATOM     17  O   UNL A   1      32.788  28.880  23.625  1.00  0.00    -0.361 OA
ATOM     18  C   UNL A   1      31.663  28.580  24.328  1.00  0.00     0.140 A 
ATOM     19  C   UNL A   1      30.447  29.342  23.983  1.00  0.00     0.091 C 
ENDBRANCH  12  13
ENDBRANCH  11  12
ENDBRANCH   6  11
ENDBRANCH   3   5
ENDBRANCH   2   3
ENDBRANCH   1   2
BRANCH   1  20
ATOM     20  C   UNL A   1      36.303  20.586  25.008  1.00  0.00     0.275 C 
BRANCH  20  21
ATOM     21  O   UNL A   1      37.324  21.597  25.111  1.00  0.00    -0.458 OA
BRANCH  21  22
ATOM     22  C   UNL A   1      38.460  21.194  25.724  1.00  0.00     0.338 C 
ATOM     23  O   UNL A   1      38.985  20.094  25.655  1.00  0.00    -0.246 OA
BRANCH  22  24
ATOM     24  C   UNL A   1      39.080  22.317  26.438  1.00  0.00     0.060 A 
ATOM     25  C   UNL A   1      38.606  23.592  26.161  1.00  0.00     0.016 A 
ATOM     26  C   UNL A   1      40.229  22.155  27.207  1.00  0.00     0.016 A 
ATOM     27  C   UNL A   1      39.332  24.715  26.534  1.00  0.00     0.010 A 
ATOM     28  C   UNL A   1      40.892  23.291  27.693  1.00  0.00     0.010 A 
ATOM     29  C   UNL A   1      40.478  24.588  27.329  1.00  0.00    -0.014 A 
BRANCH  29  30
ATOM     30  C   UNL A   1      41.245  25.803  27.741  1.00  0.00     0.031 A 
ATOM     31  C   UNL A   1      40.583  26.872  28.577  1.00  0.00     0.074 A 
ATOM     32  C   UNL A   1      42.539  25.949  27.387  1.00  0.00     0.049 A 
ATOM     33  N   UNL A   1      41.001  28.078  28.868  1.00  0.00    -0.248 NA
ATOM     34  C   UNL A   1      39.265  26.545  29.143  1.00  0.00     0.031 C 
ATOM     35  C   UNL A   1      43.329  24.970  26.634  1.00  0.00     0.029 A 
ATOM     36  N   UNL A   1      43.427  26.974  27.612  1.00  0.00    -0.354 N 
ATOM     37  C   UNL A   1      39.977  28.673  29.600  1.00  0.00     0.074 A 
ATOM     38  C   UNL A   1      38.910  27.698  29.690  1.00  0.00     0.031 C 
ATOM     39  C   UNL A   1      44.584  25.418  26.501  1.00  0.00     0.029 A 
ATOM     40  C   UNL A   1      44.664  26.767  27.044  1.00  0.00     0.049 A 
ATOM     41  H   UNL A   1      43.199  27.779  28.131  1.00  0.00     0.167 HD
ATOM     42  C   UNL A   1      39.935  29.917  30.143  1.00  0.00     0.034 A 
ATOM     43  C   UNL A   1      45.727  27.587  26.910  1.00  0.00     0.034 A 
ATOM     44  C   UNL A   1      41.028  30.858  30.073  1.00  0.00     0.049 A 
ATOM     45  C   UNL A   1      45.630  28.988  27.452  1.00  0.00     0.074 A 
ATOM     46  C   UNL A   1      41.100  32.137  30.598  1.00  0.00     0.029 A 
ATOM     47  N   UNL A   1      42.245  30.623  29.442  1.00  0.00    -0.354 N 
ATOM     48  N   UNL A   1      44.632  29.561  28.085  1.00  0.00    -0.248 NA
ATOM     49  C   UNL A   1      46.796  29.857  27.253  1.00  0.00     0.031 C 
ATOM     50  C   UNL A   1      42.322  32.702  30.220  1.00  0.00     0.029 A 
ATOM     51  C   UNL A   1      43.057  31.745  29.539  1.00  0.00     0.049 A 
ATOM     52  H   UNL A   1      42.495  29.784  28.993  1.00  0.00     0.167 HD
ATOM     53  C   UNL A   1      45.064  30.849  28.385  1.00  0.00     0.074 A 
ATOM     54  C   UNL A   1      46.417  30.961  27.878  1.00  0.00     0.031 C 
ATOM     55  C   UNL A   1      44.403  31.847  29.025  1.00  0.00     0.034 A 
BRANCH  42  56
ATOM     56  C   UNL A   1      38.644  30.353  30.802  1.00  0.00     0.023 A 
ATOM     57  C   UNL A   1      37.608  30.978  30.088  1.00  0.00     0.031 A 
ATOM     58  C   UNL A   1      38.461  30.157  32.185  1.00  0.00     0.131 A 
ATOM     59  C   UNL A   1      36.473  31.450  30.767  1.00  0.00     0.055 A 
ATOM     60  C   UNL A   1      37.292  30.551  32.838  1.00  0.00     0.041 A 
ATOM     61  F   UNL A   1      39.421  29.586  32.928  1.00  0.00    -0.206 F 
ATOM     62  C   UNL A   1      36.295  31.217  32.133  1.00  0.00     0.022 A 
BRANCH  59  63
ATOM     63  S   UNL A   1      35.303  32.508  29.871  1.00  0.00     0.124 S 
ATOM     64  O   UNL A   1      36.122  33.686  29.596  1.00  0.00    -0.237 OA
ATOM     65  O   UNL A   1      34.956  31.689  28.718  1.00  0.00    -0.237 OA
ATOM     66  O   UNL A   1      34.226  32.721  30.835  1.00  0.00    -0.744 OA
ENDBRANCH  59  63
ENDBRANCH  42  56
BRANCH  43  67
ATOM     67  C   UNL A   1      46.942  27.134  26.169  1.00  0.00     0.023 A 
ATOM     68  C   UNL A   1      48.036  26.570  26.844  1.00  0.00     0.031 A 
ATOM     69  C   UNL A   1      47.042  27.293  24.773  1.00  0.00     0.131 A 
ATOM     70  C   UNL A   1      49.195  26.225  26.131  1.00  0.00     0.055 A 
ATOM     71  C   UNL A   1      48.170  26.884  24.060  1.00  0.00     0.041 A 
ATOM     72  F   UNL A   1      46.030  27.832  24.075  1.00  0.00    -0.206 F 
ATOM     73  C   UNL A   1      49.261  26.359  24.742  1.00  0.00     0.022 A 
BRANCH  70  74
ATOM     74  S   UNL A   1      50.656  25.686  27.060  1.00  0.00     0.124 S 
ATOM     75  O   UNL A   1      50.254  24.353  27.497  1.00  0.00    -0.237 OA
ATOM     76  O   UNL A   1      51.699  25.740  26.041  1.00  0.00    -0.237 OA
ATOM     77  O   UNL A   1      50.769  26.683  28.122  1.00  0.00    -0.744 OA
ENDBRANCH  70  74
ENDBRANCH  43  67
BRANCH  55  78
ATOM     78  C   UNL A   1      45.166  33.126  29.268  1.00  0.00     0.023 A 
ATOM     79  C   UNL A   1      45.044  34.239  28.417  1.00  0.00     0.031 A 
ATOM     80  C   UNL A   1      46.041  33.224  30.363  1.00  0.00     0.131 A 
ATOM     81  C   UNL A   1      45.829  35.380  28.643  1.00  0.00     0.055 A 
ATOM     82  C   UNL A   1      46.770  34.386  30.622  1.00  0.00     0.041 A 
ATOM     83  F   UNL A   1      46.203  32.190  31.204  1.00  0.00    -0.206 F 
ATOM     84  C   UNL A   1      46.676  35.468  29.752  1.00  0.00     0.022 A 
BRANCH  81  85
ATOM     85  S   UNL A   1      45.809  36.711  27.411  1.00  0.00     0.124 S 
ATOM     86  O   UNL A   1      46.799  36.244  26.446  1.00  0.00    -0.237 OA
ATOM     87  O   UNL A   1      44.422  36.696  26.958  1.00  0.00    -0.237 OA
ATOM     88  O   UNL A   1      46.198  37.893  28.177  1.00  0.00    -0.744 OA
ENDBRANCH  81  85
ENDBRANCH  55  78
ENDBRANCH  29  30
ENDBRANCH  22  24
ENDBRANCH  21  22
ENDBRANCH  20  21
ENDBRANCH   1  20
TORSDOF 17
ENDMDL
MODEL 2
REMARK VINA RESULT:     -11.4      2.023      2.499
REMARK SMILES Cc1noc(C)c1COc1ccc(C(=O)OCCOC(=O)c2ccc(-c3c4nc(c(-c5cc(S(=O)(=O)[O-])ccc5F)c5ccc([nH]5)c(-c5cc(S(=O)(=O)[O-])ccc5F)c5nc(c(-c6cc(S(=O)(=O)[O-])ccc6F)c6ccc3[nH]6)C=C5)C=C4)cc2)cc1
REMARK SMILES IDX 17 1 16 2 14 3 15 4 13 5 10 6 11 7 86 8 12 9 85 10 9 11 8 12
REMARK SMILES IDX 7 13 1 14 2 15 3 16 4 17 5 18 6 19 18 20 19 21 20 22 21 23
REMARK SMILES IDX 22 24 23 25 84 26 24 27 83 28 25 29 26 30 27 31 77 32 28 33
REMARK SMILES IDX 82 34 76 35 78 36 29 37 81 38 75 39 74 40 30 42 62 43 42 44
REMARK SMILES IDX 61 45 43 46 46 47 60 48 79 49 44 50 45 51 59 53 80 54 47 55
REMARK SMILES IDX 31 56 32 57 40 58 33 59 39 60 41 61 38 62 34 63 35 64 36 65
REMARK SMILES IDX 37 66 63 67 64 68 72 69 65 70 71 71 73 72 70 73 66 74 67 75
REMARK SMILES IDX 68 76 69 77 48 78 49 79 57 80 50 81 56 82 58 83 55 84 51 85
REMARK SMILES IDX 52 86 53 87 54 88
REMARK H PARENT 78 41 46 52
REMARK Flexibility Score: inf
ROOT
ATOM      1  C   UNL A   1      35.223  20.671  25.363  1.00  0.00     0.275 C 
ENDROOT
BRANCH   1   2
ATOM      2  O   UNL A   1      34.316  19.856  24.598  1.00  0.00    -0.458 OA
BRANCH   2   3
ATOM      3  C   UNL A   1      33.029  19.825  25.032  1.00  0.00     0.338 C 
ATOM      4  O   UNL A   1      32.510  18.951  25.697  1.00  0.00    -0.246 OA
BRANCH   3   5
ATOM      5  C   UNL A   1      32.320  21.069  24.634  1.00  0.00     0.060 A 
ATOM      6  C   UNL A   1      31.058  23.417  23.826  1.00  0.00     0.119 A 
ATOM      7  C   UNL A   1      31.696  22.632  22.878  1.00  0.00     0.047 A 
ATOM      8  C   UNL A   1      30.990  23.007  25.161  1.00  0.00     0.047 A 
ATOM      9  C   UNL A   1      32.361  21.480  23.290  1.00  0.00     0.019 A 
ATOM     10  C   UNL A   1      31.630  21.838  25.570  1.00  0.00     0.019 A 
BRANCH   6  11
ATOM     11  O   UNL A   1      30.484  24.585  23.409  1.00  0.00    -0.489 OA
BRANCH  11  12
ATOM     12  C   UNL A   1      31.476  25.503  22.912  1.00  0.00     0.271 C 
BRANCH  12  13
ATOM     13  C   UNL A   1      31.754  26.608  23.867  1.00  0.00     0.055 A 
ATOM     14  C   UNL A   1      29.804  28.239  23.285  1.00  0.00     0.071 C 
ATOM     15  C   UNL A   1      31.017  27.814  24.025  1.00  0.00     0.087 A 
ATOM     16  N   UNL A   1      31.497  28.550  25.035  1.00  0.00    -0.085 NA
ATOM     17  O   UNL A   1      32.532  27.813  25.580  1.00  0.00    -0.361 OA
ATOM     18  C   UNL A   1      32.668  26.644  24.897  1.00  0.00     0.140 A 
ATOM     19  C   UNL A   1      33.658  25.684  25.424  1.00  0.00     0.091 C 
ENDBRANCH  12  13
ENDBRANCH  11  12
ENDBRANCH   6  11
ENDBRANCH   3   5
ENDBRANCH   2   3
ENDBRANCH   1   2
BRANCH   1  20
ATOM     20  C   UNL A   1      36.677  20.403  24.973  1.00  0.00     0.275 C 
BRANCH  20  21
ATOM     21  O   UNL A   1      37.517  21.524  25.308  1.00  0.00    -0.458 OA
BRANCH  21  22
ATOM     22  C   UNL A   1      38.713  21.195  25.847  1.00  0.00     0.338 C 
ATOM     23  O   UNL A   1      39.304  20.132  25.736  1.00  0.00    -0.246 OA
BRANCH  22  24
ATOM     24  C   UNL A   1      39.301  22.353  26.532  1.00  0.00     0.060 A 
ATOM     25  C   UNL A   1      38.823  23.610  26.187  1.00  0.00     0.016 A 
ATOM     26  C   UNL A   1      40.426  22.235  27.341  1.00  0.00     0.016 A 
ATOM     27  C   UNL A   1      39.528  24.755  26.534  1.00  0.00     0.010 A 
ATOM     28  C   UNL A   1      41.064  23.397  27.798  1.00  0.00     0.010 A 
ATOM     29  C   UNL A   1      40.649  24.673  27.368  1.00  0.00    -0.014 A 
BRANCH  29  30
ATOM     30  C   UNL A   1      41.392  25.912  27.752  1.00  0.00     0.031 A 
ATOM     31  C   UNL A   1      40.726  26.963  28.605  1.00  0.00     0.074 A 
ATOM     32  C   UNL A   1      42.670  26.095  27.355  1.00  0.00     0.049 A 
ATOM     33  N   UNL A   1      41.117  28.183  28.879  1.00  0.00    -0.248 NA
ATOM     34  C   UNL A   1      39.438  26.600  29.215  1.00  0.00     0.031 C 
ATOM     35  C   UNL A   1      43.464  25.137  26.580  1.00  0.00     0.029 A 
ATOM     36  N   UNL A   1      43.534  27.147  27.548  1.00  0.00    -0.354 N 
ATOM     37  C   UNL A   1      40.100  28.750  29.643  1.00  0.00     0.074 A 
ATOM     38  C   UNL A   1      39.066  27.744  29.769  1.00  0.00     0.031 C 
ATOM     39  C   UNL A   1      44.700  25.623  26.405  1.00  0.00     0.029 A 
ATOM     40  C   UNL A   1      44.757  26.975  26.941  1.00  0.00     0.049 A 
ATOM     41  H   UNL A   1      43.299  27.947  28.072  1.00  0.00     0.167 HD
ATOM     42  C   UNL A   1      40.038  29.994  30.183  1.00  0.00     0.034 A 
ATOM     43  C   UNL A   1      45.790  27.826  26.771  1.00  0.00     0.034 A 
ATOM     44  C   UNL A   1      41.100  30.967  30.074  1.00  0.00     0.049 A 
ATOM     45  C   UNL A   1      45.669  29.225  27.312  1.00  0.00     0.074 A 
ATOM     46  C   UNL A   1      41.150  32.250  30.594  1.00  0.00     0.029 A 
ATOM     47  N   UNL A   1      42.302  30.766  29.406  1.00  0.00    -0.354 N 
ATOM     48  N   UNL A   1      44.675  29.771  27.975  1.00  0.00    -0.248 NA
ATOM     49  C   UNL A   1      46.801  30.128  27.072  1.00  0.00     0.031 C 
ATOM     50  C   UNL A   1      42.342  32.850  30.174  1.00  0.00     0.029 A 
ATOM     51  C   UNL A   1      43.082  31.912  29.473  1.00  0.00     0.049 A 
ATOM     52  H   UNL A   1      42.562  29.933  28.951  1.00  0.00     0.167 HD
ATOM     53  C   UNL A   1      45.077  31.073  28.257  1.00  0.00     0.074 A 
ATOM     54  C   UNL A   1      46.409  31.223  27.706  1.00  0.00     0.031 C 
ATOM     55  C   UNL A   1      44.408  32.052  28.915  1.00  0.00     0.034 A 
BRANCH  42  56
ATOM     56  C   UNL A   1      38.757  30.394  30.882  1.00  0.00     0.023 A 
ATOM     57  C   UNL A   1      37.691  31.013  30.206  1.00  0.00     0.031 A 
ATOM     58  C   UNL A   1      38.612  30.168  32.265  1.00  0.00     0.131 A 
ATOM     59  C   UNL A   1      36.566  31.452  30.922  1.00  0.00     0.055 A 
ATOM     60  C   UNL A   1      37.453  30.528  32.955  1.00  0.00     0.041 A 
ATOM     61  F   UNL A   1      39.601  29.601  32.973  1.00  0.00    -0.206 F 
ATOM     62  C   UNL A   1      36.427  31.189  32.287  1.00  0.00     0.022 A 
BRANCH  59  63
ATOM     63  S   UNL A   1      35.355  32.505  30.076  1.00  0.00     0.124 S 
ATOM     64  O   UNL A   1      35.066  31.719  28.879  1.00  0.00    -0.237 OA
ATOM     65  O   UNL A   1      34.279  32.598  31.055  1.00  0.00    -0.237 OA
ATOM     66  O   UNL A   1      36.090  33.745  29.834  1.00  0.00    -0.744 OA
ENDBRANCH  59  63
ENDBRANCH  42  56
BRANCH  43  67
ATOM     67  C   UNL A   1      46.993  27.407  25.992  1.00  0.00     0.023 A 
ATOM     68  C   UNL A   1      47.153  27.775  24.648  1.00  0.00     0.031 A 
ATOM     69  C   UNL A   1      47.988  26.596  26.573  1.00  0.00     0.131 A 
ATOM     70  C   UNL A   1      48.255  27.302  23.919  1.00  0.00     0.055 A 
ATOM     71  C   UNL A   1      49.117  26.185  25.863  1.00  0.00     0.041 A 
ATOM     72  F   UNL A   1      47.886  26.206  27.854  1.00  0.00    -0.206 F 
ATOM     73  C   UNL A   1      49.248  26.527  24.522  1.00  0.00     0.022 A 
BRANCH  70  74
ATOM     74  S   UNL A   1      48.324  27.635  22.137  1.00  0.00     0.124 S 
ATOM     75  O   UNL A   1      47.028  28.264  21.903  1.00  0.00    -0.237 OA
ATOM     76  O   UNL A   1      49.489  28.508  22.037  1.00  0.00    -0.237 OA
ATOM     77  O   UNL A   1      48.489  26.307  21.550  1.00  0.00    -0.744 OA
ENDBRANCH  70  74
ENDBRANCH  43  67
BRANCH  55  78
ATOM     78  C   UNL A   1      45.139  33.355  29.129  1.00  0.00     0.023 A 
ATOM     79  C   UNL A   1      45.981  33.564  30.236  1.00  0.00     0.031 A 
ATOM     80  C   UNL A   1      44.977  34.410  28.214  1.00  0.00     0.131 A 
ATOM     81  C   UNL A   1      46.580  34.818  30.431  1.00  0.00     0.055 A 
ATOM     82  C   UNL A   1      45.629  35.633  28.376  1.00  0.00     0.041 A 
ATOM     83  F   UNL A   1      44.180  34.269  27.142  1.00  0.00    -0.206 F 
ATOM     84  C   UNL A   1      46.426  35.846  29.497  1.00  0.00     0.022 A 
BRANCH  81  85
ATOM     85  S   UNL A   1      47.482  35.123  31.974  1.00  0.00     0.124 S 
ATOM     86  O   UNL A   1      46.778  34.255  32.912  1.00  0.00    -0.237 OA
ATOM     87  O   UNL A   1      48.840  34.717  31.627  1.00  0.00    -0.237 OA
ATOM     88  O   UNL A   1      47.302  36.556  32.199  1.00  0.00    -0.744 OA
ENDBRANCH  81  85
ENDBRANCH  55  78
ENDBRANCH  29  30
ENDBRANCH  22  24
ENDBRANCH  21  22
ENDBRANCH  20  21
ENDBRANCH   1  20
TORSDOF 17
ENDMDL
MODEL 3
REMARK VINA RESULT:     -11.4      5.067     10.104
REMARK SMILES Cc1noc(C)c1COc1ccc(C(=O)OCCOC(=O)c2ccc(-c3c4nc(c(-c5cc(S(=O)(=O)[O-])ccc5F)c5ccc([nH]5)c(-c5cc(S(=O)(=O)[O-])ccc5F)c5nc(c(-c6cc(S(=O)(=O)[O-])ccc6F)c6ccc3[nH]6)C=C5)C=C4)cc2)cc1
REMARK SMILES IDX 17 1 16 2 14 3 15 4 13 5 10 6 11 7 86 8 12 9 85 10 9 11 8 12
REMARK SMILES IDX 7 13 1 14 2 15 3 16 4 17 5 18 6 19 18 20 19 21 20 22 21 23
REMARK SMILES IDX 22 24 23 25 84 26 24 27 83 28 25 29 26 30 27 31 77 32 28 33
REMARK SMILES IDX 82 34 76 35 78 36 29 37 81 38 75 39 74 40 30 42 62 43 42 44
REMARK SMILES IDX 61 45 43 46 46 47 60 48 79 49 44 50 45 51 59 53 80 54 47 55
REMARK SMILES IDX 31 56 32 57 40 58 33 59 39 60 41 61 38 62 34 63 35 64 36 65
REMARK SMILES IDX 37 66 63 67 64 68 72 69 65 70 71 71 73 72 70 73 66 74 67 75
REMARK SMILES IDX 68 76 69 77 48 78 49 79 57 80 50 81 56 82 58 83 55 84 51 85
REMARK SMILES IDX 52 86 53 87 54 88
REMARK H PARENT 78 41 46 52
REMARK Flexibility Score: inf
ROOT
ATOM      1  C   UNL A   1      31.052  29.707  24.761  1.00  0.00     0.275 C 
ENDROOT
BRANCH   1   2
ATOM      2  O   UNL A   1      31.234  28.392  24.207  1.00  0.00    -0.458 OA
BRANCH   2   3
ATOM      3  C   UNL A   1      32.332  28.218  23.425  1.00  0.00     0.338 C 
ATOM      4  O   UNL A   1      32.710  28.955  22.536  1.00  0.00    -0.246 OA
BRANCH   3   5
ATOM      5  C   UNL A   1      33.079  27.006  23.847  1.00  0.00     0.060 A 
ATOM      6  C   UNL A   1      34.425  24.683  24.587  1.00  0.00     0.119 A 
ATOM      7  C   UNL A   1      33.926  24.793  23.298  1.00  0.00     0.047 A 
ATOM      8  C   UNL A   1      34.314  25.747  25.487  1.00  0.00     0.047 A 
ATOM      9  C   UNL A   1      33.218  25.938  22.943  1.00  0.00     0.019 A 
ATOM     10  C   UNL A   1      33.632  26.906  25.123  1.00  0.00     0.019 A 
BRANCH   6  11
ATOM     11  O   UNL A   1      35.043  23.514  24.936  1.00  0.00    -0.489 OA
BRANCH  11  12
ATOM     12  C   UNL A   1      34.397  22.903  26.069  1.00  0.00     0.271 C 
BRANCH  12  13
ATOM     13  C   UNL A   1      33.247  22.048  25.673  1.00  0.00     0.055 A 
ATOM     14  C   UNL A   1      34.504  19.927  24.821  1.00  0.00     0.071 C 
ATOM     15  C   UNL A   1      33.298  20.739  25.120  1.00  0.00     0.087 A 
ATOM     16  N   UNL A   1      32.071  20.229  24.959  1.00  0.00    -0.085 NA
ATOM     17  O   UNL A   1      31.199  21.185  25.447  1.00  0.00    -0.361 OA
ATOM     18  C   UNL A   1      31.904  22.258  25.894  1.00  0.00     0.140 A 
ATOM     19  C   UNL A   1      31.129  23.327  26.555  1.00  0.00     0.091 C 
ENDBRANCH  12  13
ENDBRANCH  11  12
ENDBRANCH   6  11
ENDBRANCH   3   5
ENDBRANCH   2   3
ENDBRANCH   1   2
BRANCH   1  20
ATOM     20  C   UNL A   1      31.672  29.815  26.155  1.00  0.00     0.275 C 
BRANCH  20  21
ATOM     21  O   UNL A   1      33.024  30.303  26.082  1.00  0.00    -0.458 OA
BRANCH  21  22
ATOM     22  C   UNL A   1      33.341  31.237  27.009  1.00  0.00     0.338 C 
ATOM     23  O   UNL A   1      32.609  32.100  27.466  1.00  0.00    -0.246 OA
BRANCH  22  24
ATOM     24  C   UNL A   1      34.706  31.021  27.504  1.00  0.00     0.060 A 
ATOM     25  C   UNL A   1      35.075  29.720  27.818  1.00  0.00     0.016 A 
ATOM     26  C   UNL A   1      35.540  32.081  27.846  1.00  0.00     0.016 A 
ATOM     27  C   UNL A   1      36.207  29.469  28.582  1.00  0.00     0.010 A 
ATOM     28  C   UNL A   1      36.748  31.816  28.507  1.00  0.00     0.010 A 
ATOM     29  C   UNL A   1      37.080  30.510  28.921  1.00  0.00    -0.014 A 
BRANCH  29  30
ATOM     30  C   UNL A   1      38.306  30.230  29.730  1.00  0.00     0.031 A 
ATOM     31  C   UNL A   1      39.393  29.341  29.177  1.00  0.00     0.074 A 
ATOM     32  C   UNL A   1      38.461  30.782  30.952  1.00  0.00     0.049 A 
ATOM     33  N   UNL A   1      40.427  28.817  29.784  1.00  0.00    -0.248 NA
ATOM     34  C   UNL A   1      39.290  28.978  27.755  1.00  0.00     0.031 C 
ATOM     35  C   UNL A   1      37.524  31.711  31.590  1.00  0.00     0.029 A 
ATOM     36  N   UNL A   1      39.465  30.649  31.882  1.00  0.00    -0.354 N 
ATOM     37  C   UNL A   1      41.064  28.018  28.838  1.00  0.00     0.074 A 
ATOM     38  C   UNL A   1      40.284  28.114  27.621  1.00  0.00     0.031 C 
ATOM     39  C   UNL A   1      38.014  32.095  32.775  1.00  0.00     0.029 A 
ATOM     40  C   UNL A   1      39.236  31.349  33.045  1.00  0.00     0.049 A 
ATOM     41  H   UNL A   1      40.271  30.104  31.730  1.00  0.00     0.167 HD
ATOM     42  C   UNL A   1      42.192  27.275  28.976  1.00  0.00     0.034 A 
ATOM     43  C   UNL A   1      39.891  31.348  34.224  1.00  0.00     0.034 A 
ATOM     44  C   UNL A   1      42.974  27.226  30.190  1.00  0.00     0.049 A 
ATOM     45  C   UNL A   1      41.094  30.458  34.380  1.00  0.00     0.074 A 
ATOM     46  C   UNL A   1      44.140  26.520  30.436  1.00  0.00     0.029 A 
ATOM     47  N   UNL A   1      42.676  27.914  31.361  1.00  0.00    -0.354 N 
ATOM     48  N   UNL A   1      41.649  29.658  33.499  1.00  0.00    -0.248 NA
ATOM     49  C   UNL A   1      41.755  30.462  35.691  1.00  0.00     0.031 C 
ATOM     50  C   UNL A   1      44.501  26.716  31.773  1.00  0.00     0.029 A 
ATOM     51  C   UNL A   1      43.617  27.621  32.339  1.00  0.00     0.049 A 
ATOM     52  H   UNL A   1      41.909  28.520  31.479  1.00  0.00     0.167 HD
ATOM     53  C   UNL A   1      42.742  29.085  34.142  1.00  0.00     0.074 A 
ATOM     54  C   UNL A   1      42.775  29.645  35.479  1.00  0.00     0.031 C 
ATOM     55  C   UNL A   1      43.637  28.182  33.670  1.00  0.00     0.034 A 
BRANCH  42  56
ATOM     56  C   UNL A   1      42.609  26.407  27.809  1.00  0.00     0.023 A 
ATOM     57  C   UNL A   1      42.049  25.139  27.575  1.00  0.00     0.031 A 
ATOM     58  C   UNL A   1      43.610  26.854  26.925  1.00  0.00     0.131 A 
ATOM     59  C   UNL A   1      42.543  24.335  26.535  1.00  0.00     0.055 A 
ATOM     60  C   UNL A   1      44.035  26.084  25.840  1.00  0.00     0.041 A 
ATOM     61  F   UNL A   1      44.201  28.045  27.106  1.00  0.00    -0.206 F 
ATOM     62  C   UNL A   1      43.513  24.809  25.649  1.00  0.00     0.022 A 
BRANCH  59  63
ATOM     63  S   UNL A   1      42.010  22.603  26.450  1.00  0.00     0.124 S 
ATOM     64  O   UNL A   1      42.605  22.174  25.187  1.00  0.00    -0.237 OA
ATOM     65  O   UNL A   1      42.593  22.033  27.658  1.00  0.00    -0.237 OA
ATOM     66  O   UNL A   1      40.551  22.694  26.442  1.00  0.00    -0.744 OA
ENDBRANCH  59  63
ENDBRANCH  42  56
BRANCH  43  67
ATOM     67  C   UNL A   1      39.380  32.156  35.372  1.00  0.00     0.023 A 
ATOM     68  C   UNL A   1      38.711  31.549  36.445  1.00  0.00     0.031 A 
ATOM     69  C   UNL A   1      39.522  33.557  35.395  1.00  0.00     0.131 A 
ATOM     70  C   UNL A   1      38.174  32.340  37.473  1.00  0.00     0.055 A 
ATOM     71  C   UNL A   1      39.046  34.333  36.452  1.00  0.00     0.041 A 
ATOM     72  F   UNL A   1      40.148  34.194  34.392  1.00  0.00    -0.206 F 
ATOM     73  C   UNL A   1      38.354  33.725  37.494  1.00  0.00     0.022 A 
BRANCH  70  74
ATOM     74  S   UNL A   1      37.147  31.542  38.737  1.00  0.00     0.124 S 
ATOM     75  O   UNL A   1      37.999  31.643  39.917  1.00  0.00    -0.237 OA
ATOM     76  O   UNL A   1      35.953  32.381  38.732  1.00  0.00    -0.237 OA
ATOM     77  O   UNL A   1      36.960  30.189  38.217  1.00  0.00    -0.744 OA
ENDBRANCH  70  74
ENDBRANCH  43  67
BRANCH  55  78
ATOM     78  C   UNL A   1      44.769  27.795  34.591  1.00  0.00     0.023 A 
ATOM     79  C   UNL A   1      44.674  26.701  35.469  1.00  0.00     0.031 A 
ATOM     80  C   UNL A   1      45.957  28.546  34.596  1.00  0.00     0.131 A 
ATOM     81  C   UNL A   1      45.724  26.426  36.358  1.00  0.00     0.055 A 
ATOM     82  C   UNL A   1      47.026  28.226  35.435  1.00  0.00     0.041 A 
ATOM     83  F   UNL A   1      46.101  29.605  33.783  1.00  0.00    -0.206 F 
ATOM     84  C   UNL A   1      46.908  27.169  36.332  1.00  0.00     0.022 A 
BRANCH  81  85
ATOM     85  S   UNL A   1      45.485  25.148  37.622  1.00  0.00     0.124 S 
ATOM     86  O   UNL A   1      45.791  23.929  36.880  1.00  0.00    -0.237 OA
ATOM     87  O   UNL A   1      46.453  25.533  38.643  1.00  0.00    -0.237 OA
ATOM     88  O   UNL A   1      44.083  25.304  38.007  1.00  0.00    -0.744 OA
ENDBRANCH  81  85
ENDBRANCH  55  78
ENDBRANCH  29  30
ENDBRANCH  22  24
ENDBRANCH  21  22
ENDBRANCH  20  21
ENDBRANCH   1  20
TORSDOF 17
ENDMDL
