MODEL 1
REMARK VINA RESULT:     -12.5      0.000      0.000
REMARK SMILES NC(=O)[C@@H]1CCC[N@H+]1[C@H](C(=O)OCCOC(=O)c1ccc(-c2c3nc(c(-c4cc(S(=O)(=O)[O-])ccc4F)c4ccc([nH]4)c(-c4cc(S(=O)(=O)[O-])ccc4F)c4nc(c(-c5cc(S(=O)(=O)[O-])ccc5F)c5ccc2[nH]5)C=C4)C=C3)cc1)c1c[nH]c2cc(NC(=O)c3ccccc3)ccc12
REMARK SMILES IDX 13 1 12 2 10 3 11 4 9 5 8 6 4 7 5 8 6 9 7 10 2 12 1 13 3 16
REMARK SMILES IDX 81 17 82 18 98 19 83 20 84 21 97 22 85 24 96 25 86 26 87 27
REMARK SMILES IDX 88 28 89 30 90 31 91 32 95 33 92 34 94 35 93 36 14 37 15 38
REMARK SMILES IDX 16 39 17 40 18 41 19 42 80 43 20 44 79 45 21 46 22 47 23 48
REMARK SMILES IDX 73 49 24 50 78 51 72 52 74 53 25 54 77 55 71 56 70 57 26 59
REMARK SMILES IDX 58 60 38 61 57 62 39 63 42 64 56 65 75 66 40 67 41 68 55 70
REMARK SMILES IDX 76 71 43 72 27 73 28 74 36 75 29 76 35 77 37 78 34 79 30 80
REMARK SMILES IDX 31 81 32 82 33 83 59 84 60 85 68 86 61 87 67 88 69 89 66 90
REMARK SMILES IDX 62 91 63 92 64 93 65 94 44 95 45 96 53 97 46 98 52 99 54 100
REMARK SMILES IDX 51 101 47 102 48 103 49 104 50 105
REMARK H PARENT 8 11 1 14 1 15 83 23 87 29 74 58 42 69
REMARK Flexibility Score: inf
ROOT
ATOM      1  C   UNL A   1      36.288  19.340  24.935  1.00  0.00     0.274 C 
ENDROOT
BRANCH   1   2
ATOM      2  O   UNL A   1      35.408  20.494  24.977  1.00  0.00    -0.457 OA
BRANCH   2   3
ATOM      3  C   UNL A   1      34.131  20.307  24.518  1.00  0.00     0.370 C 
ATOM      4  O   UNL A   1      33.691  19.171  24.321  1.00  0.00    -0.245 OA
BRANCH   3   5
ATOM      5  C   UNL A   1      33.282  21.624  24.210  1.00  0.00     0.329 C 
BRANCH   5   6
ATOM      6  N   UNL A   1      32.579  21.942  25.474  1.00  0.00    -0.309 N 
ATOM      7  C   UNL A   1      32.941  23.017  26.415  1.00  0.00     0.275 C 
ATOM      8  C   UNL A   1      31.631  23.704  26.850  1.00  0.00     0.081 C 
ATOM      9  C   UNL A   1      30.678  23.327  25.727  1.00  0.00     0.068 C 
ATOM     10  C   UNL A   1      31.116  21.919  25.372  1.00  0.00     0.264 C 
ATOM     11  H   UNL A   1      33.023  21.144  25.931  1.00  0.00     0.349 HD
BRANCH   7  12
ATOM     12  C   UNL A   1      34.394  22.903  27.374  1.00  0.00     0.275 C 
ATOM     13  N   UNL A   1      36.225  23.467  27.037  1.00  0.00    -0.365 N 
ATOM     14  H   UNL A   1      36.921  23.311  27.717  1.00  0.00     0.159 HD
ATOM     15  H   UNL A   1      36.457  23.908  26.187  1.00  0.00     0.159 HD
ATOM     16  O   UNL A   1      34.009  22.224  28.364  1.00  0.00    -0.268 OA
ENDBRANCH   7  12
ENDBRANCH   5   6
BRANCH   5  17
ATOM     17  C   UNL A   1      33.967  22.686  23.322  1.00  0.00     0.046 A 
ATOM     18  C   UNL A   1      35.320  23.014  23.519  1.00  0.00     0.094 A 
ATOM     19  C   UNL A   1      33.600  23.785  22.448  1.00  0.00     0.009 A 
ATOM     20  N   UNL A   1      35.127  24.338  23.948  1.00  0.00    -0.361 N 
ATOM     21  C   UNL A   1      34.163  24.874  23.114  1.00  0.00     0.048 A 
ATOM     22  C   UNL A   1      32.785  24.119  21.346  1.00  0.00     0.013 A 
ATOM     23  H   UNL A   1      35.587  24.791  24.691  1.00  0.00     0.166 HD
ATOM     24  C   UNL A   1      33.644  26.175  23.052  1.00  0.00     0.052 A 
ATOM     25  C   UNL A   1      32.353  25.473  21.185  1.00  0.00     0.027 A 
ATOM     26  C   UNL A   1      32.634  26.458  22.150  1.00  0.00     0.043 A 
BRANCH  26  27
ATOM     27  N   UNL A   1      31.867  27.656  22.136  1.00  0.00    -0.322 N 
ATOM     28  C   UNL A   1      31.503  28.634  23.062  1.00  0.00     0.255 C 
ATOM     29  H   UNL A   1      31.499  27.844  21.243  1.00  0.00     0.170 HD
ATOM     30  O   UNL A   1      30.765  29.551  22.685  1.00  0.00    -0.269 OA
BRANCH  28  31
ATOM     31  C   UNL A   1      31.769  28.586  24.527  1.00  0.00     0.040 A 
ATOM     32  C   UNL A   1      31.079  27.635  25.310  1.00  0.00     0.014 A 
ATOM     33  C   UNL A   1      32.674  29.430  25.157  1.00  0.00     0.014 A 
ATOM     34  C   UNL A   1      31.479  27.375  26.628  1.00  0.00     0.001 A 
ATOM     35  C   UNL A   1      33.085  29.163  26.468  1.00  0.00     0.001 A 
ATOM     36  C   UNL A   1      32.519  28.111  27.188  1.00  0.00     0.000 A 
ENDBRANCH  28  31
ENDBRANCH  26  27
ENDBRANCH   5  17
ENDBRANCH   3   5
ENDBRANCH   2   3
ENDBRANCH   1   2
BRANCH   1  37
ATOM     37  C   UNL A   1      37.754  19.764  24.804  1.00  0.00     0.275 C 
BRANCH  37  38
ATOM     38  O   UNL A   1      38.485  19.271  25.944  1.00  0.00    -0.458 OA
BRANCH  38  39
ATOM     39  C   UNL A   1      39.756  19.722  25.920  1.00  0.00     0.338 C 
ATOM     40  O   UNL A   1      40.716  19.062  25.556  1.00  0.00    -0.246 OA
BRANCH  39  41
ATOM     41  C   UNL A   1      39.932  21.098  26.357  1.00  0.00     0.060 A 
ATOM     42  C   UNL A   1      39.097  22.563  25.658  1.00  0.00     0.016 A 
ATOM     43  C   UNL A   1      41.355  21.286  27.470  1.00  0.00     0.016 A 
ATOM     44  C   UNL A   1      39.750  24.246  26.063  1.00  0.00     0.010 A 
ATOM     45  C   UNL A   1      42.006  22.941  27.897  1.00  0.00     0.010 A 
ATOM     46  C   UNL A   1      41.233  24.410  27.152  1.00  0.00    -0.014 A 
BRANCH  46  47
ATOM     47  C   UNL A   1      41.761  25.709  27.567  1.00  0.00     0.031 A 
ATOM     48  C   UNL A   1      40.951  26.711  28.339  1.00  0.00     0.074 A 
ATOM     49  C   UNL A   1      42.983  25.975  27.091  1.00  0.00     0.049 A 
ATOM     50  N   UNL A   1      41.292  27.919  28.708  1.00  0.00    -0.248 NA
ATOM     51  C   UNL A   1      39.585  26.336  28.739  1.00  0.00     0.031 C 
ATOM     52  C   UNL A   1      43.751  25.075  26.229  1.00  0.00     0.029 A 
ATOM     53  N   UNL A   1      43.790  27.060  27.240  1.00  0.00    -0.354 N 
ATOM     54  C   UNL A   1      40.191  28.450  29.376  1.00  0.00     0.074 A 
ATOM     55  C   UNL A   1      39.153  27.443  29.334  1.00  0.00     0.031 C 
ATOM     56  C   UNL A   1      44.951  25.604  25.993  1.00  0.00     0.029 A 
ATOM     57  C   UNL A   1      44.983  26.930  26.577  1.00  0.00     0.049 A 
ATOM     58  H   UNL A   1      43.543  27.854  27.767  1.00  0.00     0.167 HD
ATOM     59  C   UNL A   1      40.080  29.669  29.965  1.00  0.00     0.034 A 
ATOM     60  C   UNL A   1      45.983  27.808  26.414  1.00  0.00     0.034 A 
ATOM     61  C   UNL A   1      41.154  30.642  29.944  1.00  0.00     0.049 A 
ATOM     62  C   UNL A   1      45.833  29.139  27.072  1.00  0.00     0.074 A 
ATOM     63  C   UNL A   1      41.207  31.887  30.544  1.00  0.00     0.029 A 
ATOM     64  N   UNL A   1      42.360  30.480  29.265  1.00  0.00    -0.354 N 
ATOM     65  N   UNL A   1      44.812  29.605  27.755  1.00  0.00    -0.248 NA
ATOM     66  C   UNL A   1      46.965  30.054  26.952  1.00  0.00     0.031 C 
ATOM     67  C   UNL A   1      42.401  32.508  30.160  1.00  0.00     0.029 A 
ATOM     68  C   UNL A   1      43.144  31.615  29.403  1.00  0.00     0.049 A 
ATOM     69  H   UNL A   1      42.619  29.674  28.762  1.00  0.00     0.167 HD
ATOM     70  C   UNL A   1      45.183  30.877  28.160  1.00  0.00     0.074 A 
ATOM     71  C   UNL A   1      46.537  31.080  27.671  1.00  0.00     0.031 C 
ATOM     72  C   UNL A   1      44.476  31.795  28.868  1.00  0.00     0.034 A 
BRANCH  59  73
ATOM     73  C   UNL A   1      38.774  30.040  30.642  1.00  0.00     0.023 A 
ATOM     74  C   UNL A   1      37.759  30.751  29.976  1.00  0.00     0.031 A 
ATOM     75  C   UNL A   1      38.517  29.640  31.968  1.00  0.00     0.131 A 
ATOM     76  C   UNL A   1      36.563  31.072  30.643  1.00  0.00     0.055 A 
ATOM     77  C   UNL A   1      37.299  29.899  32.603  1.00  0.00     0.041 A 
ATOM     78  F   UNL A   1      39.448  28.978  32.674  1.00  0.00    -0.206 F 
ATOM     79  C   UNL A   1      36.315  30.628  31.943  1.00  0.00     0.022 A 
BRANCH  76  80
ATOM     80  S   UNL A   1      35.377  32.180  29.829  1.00  0.00     0.124 S 
ATOM     81  O   UNL A   1      36.239  33.279  29.403  1.00  0.00    -0.237 OA
ATOM     82  O   UNL A   1      34.840  31.340  28.764  1.00  0.00    -0.237 OA
ATOM     83  O   UNL A   1      34.432  32.516  30.893  1.00  0.00    -0.744 OA
ENDBRANCH  76  80
ENDBRANCH  59  73
BRANCH  60  84
ATOM     84  C   UNL A   1      47.159  27.421  25.597  1.00  0.00     0.023 A 
ATOM     85  C   UNL A   1      47.246  27.786  24.251  1.00  0.00     0.031 A 
ATOM     86  C   UNL A   1      48.253  26.746  26.177  1.00  0.00     0.131 A 
ATOM     87  C   UNL A   1      48.389  27.448  23.514  1.00  0.00     0.055 A 
ATOM     88  C   UNL A   1      49.417  26.479  25.460  1.00  0.00     0.041 A 
ATOM     89  F   UNL A   1      48.228  26.398  27.474  1.00  0.00    -0.206 F 
ATOM     90  C   UNL A   1      49.484  26.819  24.114  1.00  0.00     0.022 A 
BRANCH  87  91
ATOM     91  S   UNL A   1      48.386  27.768  21.733  1.00  0.00     0.124 S 
ATOM     92  O   UNL A   1      47.031  28.264  21.524  1.00  0.00    -0.237 OA
ATOM     93  O   UNL A   1      49.457  28.751  21.601  1.00  0.00    -0.237 OA
ATOM     94  O   UNL A   1      48.668  26.457  21.154  1.00  0.00    -0.744 OA
ENDBRANCH  87  91
ENDBRANCH  60  84
BRANCH  72  95
ATOM     95  C   UNL A   1      45.193  33.086  29.159  1.00  0.00     0.023 A 
ATOM     96  C   UNL A   1      45.236  34.125  28.214  1.00  0.00     0.031 A 
ATOM     97  C   UNL A   1      45.895  33.249  30.365  1.00  0.00     0.131 A 
ATOM     98  C   UNL A   1      46.045  35.244  28.453  1.00  0.00     0.055 A 
ATOM     99  C   UNL A   1      46.624  34.406  30.634  1.00  0.00     0.041 A 
ATOM    100  F   UNL A   1      45.893  32.280  31.295  1.00  0.00    -0.206 F 
ATOM    101  C   UNL A   1      46.720  35.403  29.666  1.00  0.00     0.022 A 
BRANCH  98 102
ATOM    102  S   UNL A   1      46.321  36.410  27.094  1.00  0.00     0.124 S 
ATOM    103  O   UNL A   1      46.942  35.555  26.088  1.00  0.00    -0.237 OA
ATOM    104  O   UNL A   1      44.969  36.869  26.794  1.00  0.00    -0.237 OA
ATOM    105  O   UNL A   1      47.202  37.417  27.683  1.00  0.00    -0.744 OA
ENDBRANCH  98 102
ENDBRANCH  72  95
ENDBRANCH  46  47
ENDBRANCH  39  41
ENDBRANCH  38  39
ENDBRANCH  37  38
ENDBRANCH   1  37
TORSDOF 19
ENDMDL
MODEL 2
REMARK VINA RESULT:     -12.4      2.243      3.020
REMARK SMILES NC(=O)[C@@H]1CCC[N@H+]1[C@H](C(=O)OCCOC(=O)c1ccc(-c2c3nc(c(-c4cc(S(=O)(=O)[O-])ccc4F)c4ccc([nH]4)c(-c4cc(S(=O)(=O)[O-])ccc4F)c4nc(c(-c5cc(S(=O)(=O)[O-])ccc5F)c5ccc2[nH]5)C=C4)C=C3)cc1)c1c[nH]c2cc(NC(=O)c3ccccc3)ccc12
REMARK SMILES IDX 13 1 12 2 10 3 11 4 9 5 8 6 4 7 5 8 6 9 7 10 2 12 1 13 3 16
REMARK SMILES IDX 81 17 82 18 98 19 83 20 84 21 97 22 85 24 96 25 86 26 87 27
REMARK SMILES IDX 88 28 89 30 90 31 91 32 95 33 92 34 94 35 93 36 14 37 15 38
REMARK SMILES IDX 16 39 17 40 18 41 19 42 80 43 20 44 79 45 21 46 22 47 23 48
REMARK SMILES IDX 73 49 24 50 78 51 72 52 74 53 25 54 77 55 71 56 70 57 26 59
REMARK SMILES IDX 58 60 38 61 57 62 39 63 42 64 56 65 75 66 40 67 41 68 55 70
REMARK SMILES IDX 76 71 43 72 27 73 28 74 36 75 29 76 35 77 37 78 34 79 30 80
REMARK SMILES IDX 31 81 32 82 33 83 59 84 60 85 68 86 61 87 67 88 69 89 66 90
REMARK SMILES IDX 62 91 63 92 64 93 65 94 44 95 45 96 53 97 46 98 52 99 54 100
REMARK SMILES IDX 51 101 47 102 48 103 49 104 50 105
REMARK H PARENT 8 11 1 14 1 15 83 23 87 29 74 58 42 69
REMARK Flexibility Score: inf
ROOT
ATOM      1  C   UNL A   1      35.027  22.973  26.213  1.00  0.00     0.274 C 
ENDROOT
BRANCH   1   2
ATOM      2  O   UNL A   1      34.770  23.512  24.889  1.00  0.00    -0.457 OA
BRANCH   2   3
ATOM      3  C   UNL A   1      33.803  24.477  24.798  1.00  0.00     0.370 C 
ATOM      4  O   UNL A   1      33.766  25.410  25.604  1.00  0.00    -0.245 OA
BRANCH   3   5
ATOM      5  C   UNL A   1      32.720  24.297  23.638  1.00  0.00     0.329 C 
BRANCH   5   6
ATOM      6  N   UNL A   1      31.690  23.394  24.201  1.00  0.00    -0.309 N 
ATOM      7  C   UNL A   1      31.946  22.105  24.868  1.00  0.00     0.275 C 
ATOM      8  C   UNL A   1      31.036  22.046  26.112  1.00  0.00     0.081 C 
ATOM      9  C   UNL A   1      30.729  23.514  26.360  1.00  0.00     0.068 C 
ATOM     10  C   UNL A   1      30.635  24.080  24.955  1.00  0.00     0.264 C 
ATOM     11  H   UNL A   1      31.452  23.069  23.263  1.00  0.00     0.349 HD
BRANCH   7  12
ATOM     12  C   UNL A   1      32.501  20.728  23.951  1.00  0.00     0.275 C 
ATOM     13  N   UNL A   1      33.636  19.220  24.425  1.00  0.00    -0.365 N 
ATOM     14  H   UNL A   1      33.840  18.528  23.754  1.00  0.00     0.159 HD
ATOM     15  H   UNL A   1      34.006  19.148  25.335  1.00  0.00     0.159 HD
ATOM     16  O   UNL A   1      32.076  20.988  22.794  1.00  0.00    -0.268 OA
ENDBRANCH   7  12
ENDBRANCH   5   6
BRANCH   5  17
ATOM     17  C   UNL A   1      32.391  25.560  22.811  1.00  0.00     0.046 A 
ATOM     18  C   UNL A   1      33.230  25.959  21.756  1.00  0.00     0.094 A 
ATOM     19  C   UNL A   1      31.592  26.766  22.924  1.00  0.00     0.009 A 
ATOM     20  N   UNL A   1      33.685  27.160  22.327  1.00  0.00    -0.361 N 
ATOM     21  C   UNL A   1      32.574  27.757  22.895  1.00  0.00     0.048 A 
ATOM     22  C   UNL A   1      30.290  27.228  23.210  1.00  0.00     0.013 A 
ATOM     23  H   UNL A   1      34.606  27.505  22.322  1.00  0.00     0.166 HD
ATOM     24  C   UNL A   1      32.443  28.999  23.534  1.00  0.00     0.052 A 
ATOM     25  C   UNL A   1      30.120  28.546  23.736  1.00  0.00     0.027 A 
ATOM     26  C   UNL A   1      31.220  29.356  24.072  1.00  0.00     0.043 A 
BRANCH  26  27
ATOM     27  N   UNL A   1      31.004  30.467  24.934  1.00  0.00    -0.322 N 
ATOM     28  C   UNL A   1      31.645  31.029  26.038  1.00  0.00     0.255 C 
ATOM     29  H   UNL A   1      30.193  30.968  24.689  1.00  0.00     0.170 HD
ATOM     30  O   UNL A   1      31.127  32.013  26.577  1.00  0.00    -0.269 OA
BRANCH  28  31
ATOM     31  C   UNL A   1      32.813  30.447  26.756  1.00  0.00     0.040 A 
ATOM     32  C   UNL A   1      32.970  29.044  26.766  1.00  0.00     0.014 A 
ATOM     33  C   UNL A   1      33.762  31.223  27.407  1.00  0.00     0.014 A 
ATOM     34  C   UNL A   1      34.174  28.467  27.194  1.00  0.00     0.001 A 
ATOM     35  C   UNL A   1      34.970  30.651  27.822  1.00  0.00     0.001 A 
ATOM     36  C   UNL A   1      35.193  29.282  27.677  1.00  0.00     0.000 A 
ENDBRANCH  28  31
ENDBRANCH  26  27
ENDBRANCH   5  17
ENDBRANCH   3   5
ENDBRANCH   2   3
ENDBRANCH   1   2
BRANCH   1  37
ATOM     37  C   UNL A   1      35.775  21.640  26.136  1.00  0.00     0.275 C 
BRANCH  37  38
ATOM     38  O   UNL A   1      36.657  21.665  24.995  1.00  0.00    -0.458 OA
BRANCH  38  39
ATOM     39  C   UNL A   1      37.846  21.109  25.306  1.00  0.00     0.338 C 
ATOM     40  O   UNL A   1      38.115  19.927  25.163  1.00  0.00    -0.246 OA
BRANCH  39  41
ATOM     41  C   UNL A   1      38.840  22.032  25.832  1.00  0.00     0.060 A 
ATOM     42  C   UNL A   1      40.120  21.641  27.073  1.00  0.00     0.016 A 
ATOM     43  C   UNL A   1      38.477  23.755  25.386  1.00  0.00     0.016 A 
ATOM     44  C   UNL A   1      41.013  23.030  27.907  1.00  0.00     0.010 A 
ATOM     45  C   UNL A   1      39.359  25.142  26.188  1.00  0.00     0.010 A 
ATOM     46  C   UNL A   1      40.586  24.775  27.480  1.00  0.00    -0.014 A 
BRANCH  46  47
ATOM     47  C   UNL A   1      41.298  25.919  28.050  1.00  0.00     0.031 A 
ATOM     48  C   UNL A   1      40.625  26.960  28.897  1.00  0.00     0.074 A 
ATOM     49  C   UNL A   1      42.570  26.021  27.646  1.00  0.00     0.049 A 
ATOM     50  N   UNL A   1      41.140  28.051  29.405  1.00  0.00    -0.248 NA
ATOM     51  C   UNL A   1      39.198  26.783  29.209  1.00  0.00     0.031 C 
ATOM     52  C   UNL A   1      43.223  25.096  26.718  1.00  0.00     0.029 A 
ATOM     53  N   UNL A   1      43.535  26.935  27.937  1.00  0.00    -0.354 N 
ATOM     54  C   UNL A   1      40.109  28.690  30.089  1.00  0.00     0.074 A 
ATOM     55  C   UNL A   1      38.924  27.882  29.904  1.00  0.00     0.031 C 
ATOM     56  C   UNL A   1      44.504  25.436  26.580  1.00  0.00     0.029 A 
ATOM     57  C   UNL A   1      44.723  26.673  27.305  1.00  0.00     0.049 A 
ATOM     58  H   UNL A   1      43.395  27.702  28.538  1.00  0.00     0.167 HD
ATOM     59  C   UNL A   1      40.170  29.845  30.801  1.00  0.00     0.034 A 
ATOM     60  C   UNL A   1      45.860  27.382  27.269  1.00  0.00     0.034 A 
ATOM     61  C   UNL A   1      41.388  30.620  30.920  1.00  0.00     0.049 A 
ATOM     62  C   UNL A   1      45.898  28.647  28.062  1.00  0.00     0.074 A 
ATOM     63  C   UNL A   1      41.614  31.772  31.652  1.00  0.00     0.029 A 
ATOM     64  N   UNL A   1      42.585  30.326  30.269  1.00  0.00    -0.354 N 
ATOM     65  N   UNL A   1      44.934  29.207  28.756  1.00  0.00    -0.248 NA
ATOM     66  C   UNL A   1      47.169  29.365  28.078  1.00  0.00     0.031 C 
ATOM     67  C   UNL A   1      42.912  32.218  31.377  1.00  0.00     0.029 A 
ATOM     68  C   UNL A   1      43.536  31.293  30.554  1.00  0.00     0.049 A 
ATOM     69  H   UNL A   1      42.734  29.543  29.691  1.00  0.00     0.167 HD
ATOM     70  C   UNL A   1      45.487  30.351  29.307  1.00  0.00     0.074 A 
ATOM     71  C   UNL A   1      46.879  30.371  28.889  1.00  0.00     0.031 C 
ATOM     72  C   UNL A   1      44.905  31.299  30.086  1.00  0.00     0.034 A 
BRANCH  59  73
ATOM     73  C   UNL A   1      38.910  30.361  31.470  1.00  0.00     0.023 A 
ATOM     74  C   UNL A   1      38.040  31.267  30.835  1.00  0.00     0.031 A 
ATOM     75  C   UNL A   1      38.544  29.908  32.753  1.00  0.00     0.131 A 
ATOM     76  C   UNL A   1      36.881  31.718  31.493  1.00  0.00     0.055 A 
ATOM     77  C   UNL A   1      37.355  30.303  33.373  1.00  0.00     0.041 A 
ATOM     78  F   UNL A   1      39.336  29.060  33.428  1.00  0.00    -0.206 F 
ATOM     79  C   UNL A   1      36.519  31.221  32.747  1.00  0.00     0.022 A 
BRANCH  76  80
ATOM     80  S   UNL A   1      35.909  33.052  30.738  1.00  0.00     0.124 S 
ATOM     81  O   UNL A   1      36.142  34.154  31.668  1.00  0.00    -0.237 OA
ATOM     82  O   UNL A   1      36.525  33.186  29.423  1.00  0.00    -0.237 OA
ATOM     83  O   UNL A   1      34.545  32.526  30.736  1.00  0.00    -0.744 OA
ENDBRANCH  76  80
ENDBRANCH  59  73
BRANCH  60  84
ATOM     84  C   UNL A   1      46.997  26.885  26.456  1.00  0.00     0.023 A 
ATOM     85  C   UNL A   1      47.229  27.387  25.172  1.00  0.00     0.031 A 
ATOM     86  C   UNL A   1      47.916  25.958  26.986  1.00  0.00     0.131 A 
ATOM     87  C   UNL A   1      48.337  26.936  24.442  1.00  0.00     0.055 A 
ATOM     88  C   UNL A   1      49.056  25.569  26.286  1.00  0.00     0.041 A 
ATOM     89  F   UNL A   1      47.751  25.468  28.226  1.00  0.00    -0.206 F 
ATOM     90  C   UNL A   1      49.265  26.050  24.999  1.00  0.00     0.022 A 
BRANCH  87  91
ATOM     91  S   UNL A   1      48.500  27.460  22.718  1.00  0.00     0.124 S 
ATOM     92  O   UNL A   1      47.261  28.203  22.517  1.00  0.00    -0.237 OA
ATOM     93  O   UNL A   1      49.724  28.254  22.758  1.00  0.00    -0.237 OA
ATOM     94  O   UNL A   1      48.597  26.199  21.989  1.00  0.00    -0.744 OA
ENDBRANCH  87  91
ENDBRANCH  60  84
BRANCH  72  95
ATOM     95  C   UNL A   1      45.808  32.415  30.537  1.00  0.00     0.023 A 
ATOM     96  C   UNL A   1      46.519  32.336  31.746  1.00  0.00     0.031 A 
ATOM     97  C   UNL A   1      45.903  33.597  29.782  1.00  0.00     0.131 A 
ATOM     98  C   UNL A   1      47.220  33.455  32.212  1.00  0.00     0.055 A 
ATOM     99  C   UNL A   1      46.676  34.675  30.210  1.00  0.00     0.041 A 
ATOM    100  F   UNL A   1      45.233  33.727  28.625  1.00  0.00    -0.206 F 
ATOM    101  C   UNL A   1      47.324  34.616  31.441  1.00  0.00     0.022 A 
BRANCH  98 102
ATOM    102  S   UNL A   1      47.863  33.423  33.906  1.00  0.00     0.124 S 
ATOM    103  O   UNL A   1      46.883  34.242  34.613  1.00  0.00    -0.237 OA
ATOM    104  O   UNL A   1      47.848  31.999  34.220  1.00  0.00    -0.237 OA
ATOM    105  O   UNL A   1      49.192  34.017  33.777  1.00  0.00    -0.744 OA
ENDBRANCH  98 102
ENDBRANCH  72  95
ENDBRANCH  46  47
ENDBRANCH  39  41
ENDBRANCH  38  39
ENDBRANCH  37  38
ENDBRANCH   1  37
TORSDOF 19
ENDMDL
MODEL 3
REMARK VINA RESULT:     -12.1      4.944     10.241
REMARK SMILES NC(=O)[C@@H]1CCC[N@H+]1[C@H](C(=O)OCCOC(=O)c1ccc(-c2c3nc(c(-c4cc(S(=O)(=O)[O-])ccc4F)c4ccc([nH]4)c(-c4cc(S(=O)(=O)[O-])ccc4F)c4nc(c(-c5cc(S(=O)(=O)[O-])ccc5F)c5ccc2[nH]5)C=C4)C=C3)cc1)c1c[nH]c2cc(NC(=O)c3ccccc3)ccc12
REMARK SMILES IDX 13 1 12 2 10 3 11 4 9 5 8 6 4 7 5 8 6 9 7 10 2 12 1 13 3 16
REMARK SMILES IDX 81 17 82 18 98 19 83 20 84 21 97 22 85 24 96 25 86 26 87 27
REMARK SMILES IDX 88 28 89 30 90 31 91 32 95 33 92 34 94 35 93 36 14 37 15 38
REMARK SMILES IDX 16 39 17 40 18 41 19 42 80 43 20 44 79 45 21 46 22 47 23 48
REMARK SMILES IDX 73 49 24 50 78 51 72 52 74 53 25 54 77 55 71 56 70 57 26 59
REMARK SMILES IDX 58 60 38 61 57 62 39 63 42 64 56 65 75 66 40 67 41 68 55 70
REMARK SMILES IDX 76 71 43 72 27 73 28 74 36 75 29 76 35 77 37 78 34 79 30 80
REMARK SMILES IDX 31 81 32 82 33 83 59 84 60 85 68 86 61 87 67 88 69 89 66 90
REMARK SMILES IDX 62 91 63 92 64 93 65 94 44 95 45 96 53 97 46 98 52 99 54 100
REMARK SMILES IDX 51 101 47 102 48 103 49 104 50 105
REMARK H PARENT 8 11 1 14 1 15 83 23 87 29 74 58 42 69
REMARK Flexibility Score: inf
ROOT
ATOM      1  C   UNL A   1      30.884  30.720  25.163  1.00  0.00     0.274 C 
ENDROOT
BRANCH   1   2
ATOM      2  O   UNL A   1      31.326  29.467  24.579  1.00  0.00    -0.457 OA
BRANCH   2   3
ATOM      3  C   UNL A   1      30.527  28.929  23.605  1.00  0.00     0.370 C 
ATOM      4  O   UNL A   1      29.540  29.542  23.190  1.00  0.00    -0.245 OA
BRANCH   3   5
ATOM      5  C   UNL A   1      30.914  27.469  23.087  1.00  0.00     0.329 C 
BRANCH   5   6
ATOM      6  N   UNL A   1      32.393  27.457  23.017  1.00  0.00    -0.309 N 
ATOM      7  C   UNL A   1      33.301  26.938  24.056  1.00  0.00     0.275 C 
ATOM      8  C   UNL A   1      34.403  26.132  23.340  1.00  0.00     0.081 C 
ATOM      9  C   UNL A   1      33.748  25.801  22.009  1.00  0.00     0.068 C 
ATOM     10  C   UNL A   1      32.931  27.044  21.716  1.00  0.00     0.264 C 
ATOM     11  H   UNL A   1      32.420  28.454  23.235  1.00  0.00     0.349 HD
BRANCH   7  12
ATOM     12  C   UNL A   1      33.485  27.782  25.573  1.00  0.00     0.275 C 
ATOM     13  N   UNL A   1      34.649  29.243  26.117  1.00  0.00    -0.365 N 
ATOM     14  H   UNL A   1      34.605  29.591  27.038  1.00  0.00     0.159 HD
ATOM     15  H   UNL A   1      35.282  29.636  25.473  1.00  0.00     0.159 HD
ATOM     16  O   UNL A   1      32.731  27.124  26.339  1.00  0.00    -0.268 OA
ENDBRANCH   7  12
ENDBRANCH   5   6
BRANCH   5  17
ATOM     17  C   UNL A   1      30.074  26.300  23.651  1.00  0.00     0.046 A 
ATOM     18  C   UNL A   1      28.931  26.554  24.429  1.00  0.00     0.094 A 
ATOM     19  C   UNL A   1      30.218  24.883  23.928  1.00  0.00     0.009 A 
ATOM     20  N   UNL A   1      29.412  26.029  25.640  1.00  0.00    -0.361 N 
ATOM     21  C   UNL A   1      30.060  24.851  25.314  1.00  0.00     0.048 A 
ATOM     22  C   UNL A   1      30.608  23.659  23.346  1.00  0.00     0.013 A 
ATOM     23  H   UNL A   1      29.308  26.419  26.537  1.00  0.00     0.166 HD
ATOM     24  C   UNL A   1      30.662  23.891  26.142  1.00  0.00     0.052 A 
ATOM     25  C   UNL A   1      31.099  22.613  24.188  1.00  0.00     0.027 A 
ATOM     26  C   UNL A   1      31.299  22.807  25.567  1.00  0.00     0.043 A 
BRANCH  26  27
ATOM     27  N   UNL A   1      32.137  21.892  26.264  1.00  0.00    -0.322 N 
ATOM     28  C   UNL A   1      33.509  21.678  26.398  1.00  0.00     0.255 C 
ATOM     29  H   UNL A   1      31.613  21.243  26.787  1.00  0.00     0.170 HD
ATOM     30  O   UNL A   1      33.888  20.725  27.087  1.00  0.00    -0.269 OA
BRANCH  28  31
ATOM     31  C   UNL A   1      34.578  22.385  25.639  1.00  0.00     0.040 A 
ATOM     32  C   UNL A   1      35.353  23.357  26.307  1.00  0.00     0.014 A 
ATOM     33  C   UNL A   1      34.852  22.123  24.303  1.00  0.00     0.014 A 
ATOM     34  C   UNL A   1      36.526  23.855  25.722  1.00  0.00     0.001 A 
ATOM     35  C   UNL A   1      36.030  22.608  23.722  1.00  0.00     0.001 A 
ATOM     36  C   UNL A   1      36.887  23.438  24.445  1.00  0.00     0.000 A 
ENDBRANCH  28  31
ENDBRANCH  26  27
ENDBRANCH   5  17
ENDBRANCH   3   5
ENDBRANCH   2   3
ENDBRANCH   1   2
BRANCH   1  37
ATOM     37  C   UNL A   1      31.573  30.982  26.505  1.00  0.00     0.275 C 
BRANCH  37  38
ATOM     38  O   UNL A   1      32.769  31.752  26.272  1.00  0.00    -0.458 OA
BRANCH  38  39
ATOM     39  C   UNL A   1      32.979  32.616  27.287  1.00  0.00     0.338 C 
ATOM     40  O   UNL A   1      32.203  33.499  27.614  1.00  0.00    -0.246 OA
BRANCH  39  41
ATOM     41  C   UNL A   1      34.227  32.425  28.011  1.00  0.00     0.060 A 
ATOM     42  C   UNL A   1      35.702  33.495  27.910  1.00  0.00     0.016 A 
ATOM     43  C   UNL A   1      34.320  30.790  28.795  1.00  0.00     0.016 A 
ATOM     44  C   UNL A   1      37.310  32.869  28.577  1.00  0.00     0.010 A 
ATOM     45  C   UNL A   1      35.896  30.159  29.475  1.00  0.00     0.010 A 
ATOM     46  C   UNL A   1      37.393  31.179  29.318  1.00  0.00    -0.014 A 
BRANCH  46  47
ATOM     47  C   UNL A   1      38.613  30.648  29.925  1.00  0.00     0.031 A 
ATOM     48  C   UNL A   1      39.465  29.601  29.266  1.00  0.00     0.074 A 
ATOM     49  C   UNL A   1      38.834  31.086  31.170  1.00  0.00     0.049 A 
ATOM     50  N   UNL A   1      40.533  29.010  29.737  1.00  0.00    -0.248 NA
ATOM     51  C   UNL A   1      39.076  29.135  27.925  1.00  0.00     0.031 C 
ATOM     52  C   UNL A   1      37.956  32.009  31.893  1.00  0.00     0.029 A 
ATOM     53  N   UNL A   1      39.833  30.818  32.054  1.00  0.00    -0.354 N 
ATOM     54  C   UNL A   1      40.943  28.105  28.760  1.00  0.00     0.074 A 
ATOM     55  C   UNL A   1      39.986  28.199  27.679  1.00  0.00     0.031 C 
ATOM     56  C   UNL A   1      38.495  32.299  33.076  1.00  0.00     0.029 A 
ATOM     57  C   UNL A   1      39.683  31.484  33.244  1.00  0.00     0.049 A 
ATOM     58  H   UNL A   1      40.583  30.211  31.861  1.00  0.00     0.167 HD
ATOM     59  C   UNL A   1      42.023  27.283  28.784  1.00  0.00     0.034 A 
ATOM     60  C   UNL A   1      40.399  31.409  34.374  1.00  0.00     0.034 A 
ATOM     61  C   UNL A   1      42.926  27.220  29.915  1.00  0.00     0.049 A 
ATOM     62  C   UNL A   1      41.581  30.498  34.371  1.00  0.00     0.074 A 
ATOM     63  C   UNL A   1      44.088  26.483  30.057  1.00  0.00     0.029 A 
ATOM     64  N   UNL A   1      42.751  27.914  31.112  1.00  0.00    -0.354 N 
ATOM     65  N   UNL A   1      41.994  29.695  33.417  1.00  0.00    -0.248 NA
ATOM     66  C   UNL A   1      42.398  30.489  35.582  1.00  0.00     0.031 C 
ATOM     67  C   UNL A   1      44.565  26.663  31.361  1.00  0.00     0.029 A 
ATOM     68  C   UNL A   1      43.761  27.592  32.005  1.00  0.00     0.049 A 
ATOM     69  H   UNL A   1      42.016  28.543  31.295  1.00  0.00     0.167 HD
ATOM     70  C   UNL A   1      43.135  29.084  33.910  1.00  0.00     0.074 A 
ATOM     71  C   UNL A   1      43.358  29.647  35.232  1.00  0.00     0.031 C 
ATOM     72  C   UNL A   1      43.928  28.147  33.331  1.00  0.00     0.034 A 
BRANCH  59  73
ATOM     73  C   UNL A   1      42.278  26.372  27.598  1.00  0.00     0.023 A 
ATOM     74  C   UNL A   1      41.812  25.045  27.557  1.00  0.00     0.031 A 
ATOM     75  C   UNL A   1      42.965  26.849  26.464  1.00  0.00     0.131 A 
ATOM     76  C   UNL A   1      42.070  24.236  26.435  1.00  0.00     0.055 A 
ATOM     77  C   UNL A   1      43.156  26.065  25.322  1.00  0.00     0.041 A 
ATOM     78  F   UNL A   1      43.458  28.098  26.440  1.00  0.00    -0.206 F 
ATOM     79  C   UNL A   1      42.716  24.746  25.306  1.00  0.00     0.022 A 
BRANCH  76  80
ATOM     80  S   UNL A   1      41.653  22.471  26.512  1.00  0.00     0.124 S 
ATOM     81  O   UNL A   1      42.004  22.142  27.891  1.00  0.00    -0.237 OA
ATOM     82  O   UNL A   1      40.229  22.470  26.199  1.00  0.00    -0.237 OA
ATOM     83  O   UNL A   1      42.514  21.868  25.497  1.00  0.00    -0.744 OA
ENDBRANCH  76  80
ENDBRANCH  59  73
BRANCH  60  84
ATOM     84  C   UNL A   1      39.985  32.217  35.548  1.00  0.00     0.023 A 
ATOM     85  C   UNL A   1      39.074  31.709  36.478  1.00  0.00     0.031 A 
ATOM     86  C   UNL A   1      40.558  33.480  35.797  1.00  0.00     0.131 A 
ATOM     87  C   UNL A   1      38.734  32.472  37.603  1.00  0.00     0.055 A 
ATOM     88  C   UNL A   1      40.273  34.202  36.953  1.00  0.00     0.041 A 
ATOM     89  F   UNL A   1      41.458  33.999  34.946  1.00  0.00    -0.206 F 
ATOM     90  C   UNL A   1      39.345  33.704  37.860  1.00  0.00     0.022 A 
BRANCH  87  91
ATOM     91  S   UNL A   1      37.414  31.868  38.683  1.00  0.00     0.124 S 
ATOM     92  O   UNL A   1      37.170  30.538  38.136  1.00  0.00    -0.237 OA
ATOM     93  O   UNL A   1      38.051  31.915  39.995  1.00  0.00    -0.237 OA
ATOM     94  O   UNL A   1      36.339  32.834  38.476  1.00  0.00    -0.744 OA
ENDBRANCH  87  91
ENDBRANCH  60  84
BRANCH  72  95
ATOM     95  C   UNL A   1      45.116  27.707  34.143  1.00  0.00     0.023 A 
ATOM     96  C   UNL A   1      45.031  26.623  35.034  1.00  0.00     0.031 A 
ATOM     97  C   UNL A   1      46.324  28.421  34.074  1.00  0.00     0.131 A 
ATOM     98  C   UNL A   1      46.105  26.344  35.889  1.00  0.00     0.055 A 
ATOM     99  C   UNL A   1      47.420  28.080  34.864  1.00  0.00     0.041 A 
ATOM    100  F   UNL A   1      46.452  29.471  33.246  1.00  0.00    -0.206 F 
ATOM    101  C   UNL A   1      47.307  27.050  35.794  1.00  0.00     0.022 A 
BRANCH  98 102
ATOM    102  S   UNL A   1      45.849  25.151  37.228  1.00  0.00     0.124 S 
ATOM    103  O   UNL A   1      44.986  24.164  36.588  1.00  0.00    -0.237 OA
ATOM    104  O   UNL A   1      47.209  24.713  37.522  1.00  0.00    -0.237 OA
ATOM    105  O   UNL A   1      45.213  25.946  38.276  1.00  0.00    -0.744 OA
ENDBRANCH  98 102
ENDBRANCH  72  95
ENDBRANCH  46  47
ENDBRANCH  39  41
ENDBRANCH  38  39
ENDBRANCH  37  38
ENDBRANCH   1  37
TORSDOF 19
ENDMDL
