MODEL 1
REMARK VINA RESULT:     -11.7      0.000      0.000
REMARK SMILES CCc1cccc(-c2ccc([C@@H](C)C(=O)OCCOC(=O)c3ccc(-c4c5nc(c(-c6cc(S(=O)(=O)[O-])ccc6F)c6ccc([nH]6)c(-c6cc(S(=O)(=O)[O-])ccc6F)c6nc(c(-c7cc(S(=O)(=O)[O-])ccc7F)c7ccc4[nH]7)C=C6)C=C5)cc3)cc2)c1
REMARK SMILES IDX 17 1 16 2 14 3 15 4 12 5 13 6 11 7 8 8 9 9 86 10 10 11 85 12
REMARK SMILES IDX 7 13 3 14 4 15 87 16 5 17 6 18 2 19 1 20 18 21 19 22 20 23
REMARK SMILES IDX 21 24 22 25 23 26 84 27 24 28 83 29 25 30 26 31 27 32 77 33
REMARK SMILES IDX 28 34 82 35 76 36 78 37 29 38 81 39 75 40 74 41 30 43 62 44
REMARK SMILES IDX 42 45 61 46 43 47 46 48 60 49 79 50 44 51 45 52 59 54 80 55
REMARK SMILES IDX 47 56 31 57 32 58 40 59 33 60 39 61 41 62 38 63 34 64 35 65
REMARK SMILES IDX 36 66 37 67 63 68 64 69 72 70 65 71 71 72 73 73 70 74 66 75
REMARK SMILES IDX 67 76 68 77 69 78 48 79 49 80 57 81 50 82 56 83 58 84 55 85
REMARK SMILES IDX 51 86 52 87 53 88 54 89
REMARK H PARENT 78 42 46 53
REMARK Flexibility Score: inf
ROOT
ATOM      1  C   UNL A   1      31.770  28.903  25.546  1.00  0.00     0.274 C 
ENDROOT
BRANCH   1   2
ATOM      2  O   UNL A   1      30.960  29.111  24.374  1.00  0.00    -0.462 OA
BRANCH   2   3
ATOM      3  C   UNL A   1      31.394  28.541  23.219  1.00  0.00     0.313 C 
ATOM      4  O   UNL A   1      32.301  28.996  22.528  1.00  0.00    -0.252 OA
BRANCH   3   5
ATOM      5  C   UNL A   1      30.605  27.303  22.809  1.00  0.00     0.126 C 
ATOM      6  C   UNL A   1      29.173  27.409  23.335  1.00  0.00     0.025 C 
BRANCH   5   7
ATOM      7  C   UNL A   1      31.247  25.964  23.140  1.00  0.00    -0.034 A 
ATOM      8  C   UNL A   1      32.496  23.481  23.750  1.00  0.00    -0.018 A 
ATOM      9  C   UNL A   1      31.101  23.630  23.809  1.00  0.00     0.009 A 
ATOM     10  C   UNL A   1      33.256  24.600  23.385  1.00  0.00     0.009 A 
ATOM     11  C   UNL A   1      30.486  24.848  23.505  1.00  0.00     0.005 A 
ATOM     12  C   UNL A   1      32.642  25.822  23.082  1.00  0.00     0.005 A 
BRANCH   8  13
ATOM     13  C   UNL A   1      33.131  22.186  24.053  1.00  0.00    -0.018 A 
ATOM     14  C   UNL A   1      33.144  19.733  23.952  1.00  0.00    -0.048 A 
ATOM     15  C   UNL A   1      34.371  19.722  24.627  1.00  0.00     0.004 A 
ATOM     16  C   UNL A   1      32.531  20.969  23.682  1.00  0.00     0.012 A 
ATOM     17  C   UNL A   1      34.976  20.916  25.014  1.00  0.00     0.001 A 
ATOM     18  C   UNL A   1      34.361  22.135  24.728  1.00  0.00     0.009 A 
BRANCH  14  19
ATOM     19  C   UNL A   1      32.479  18.432  23.571  1.00  0.00     0.032 C 
ATOM     20  C   UNL A   1      33.463  17.312  23.258  1.00  0.00     0.009 C 
ENDBRANCH  14  19
ENDBRANCH   8  13
ENDBRANCH   5   7
ENDBRANCH   3   5
ENDBRANCH   2   3
ENDBRANCH   1   2
BRANCH   1  21
ATOM     21  C   UNL A   1      31.896  30.189  26.363  1.00  0.00     0.275 C 
BRANCH  21  22
ATOM     22  O   UNL A   1      33.219  30.741  26.253  1.00  0.00    -0.458 OA
BRANCH  22  23
ATOM     23  C   UNL A   1      33.551  31.634  27.216  1.00  0.00     0.338 C 
ATOM     24  O   UNL A   1      32.880  32.562  27.626  1.00  0.00    -0.246 OA
BRANCH  23  25
ATOM     25  C   UNL A   1      34.847  31.257  27.795  1.00  0.00     0.060 A 
ATOM     26  C   UNL A   1      35.028  29.936  28.212  1.00  0.00     0.016 A 
ATOM     27  C   UNL A   1      35.843  32.211  28.000  1.00  0.00     0.016 A 
ATOM     28  C   UNL A   1      36.206  29.562  28.853  1.00  0.00     0.010 A 
ATOM     29  C   UNL A   1      37.030  31.833  28.634  1.00  0.00     0.010 A 
ATOM     30  C   UNL A   1      37.213  30.510  29.076  1.00  0.00    -0.014 A 
BRANCH  30  31
ATOM     31  C   UNL A   1      38.433  30.127  29.827  1.00  0.00     0.031 A 
ATOM     32  C   UNL A   1      39.388  29.132  29.234  1.00  0.00     0.074 A 
ATOM     33  C   UNL A   1      38.684  30.681  31.028  1.00  0.00     0.049 A 
ATOM     34  N   UNL A   1      40.456  28.591  29.761  1.00  0.00    -0.248 NA
ATOM     35  C   UNL A   1      39.094  28.684  27.865  1.00  0.00     0.031 C 
ATOM     36  C   UNL A   1      37.849  31.690  31.681  1.00  0.00     0.029 A 
ATOM     37  N   UNL A   1      39.707  30.467  31.916  1.00  0.00    -0.354 N 
ATOM     38  C   UNL A   1      40.957  27.724  28.796  1.00  0.00     0.074 A 
ATOM     39  C   UNL A   1      40.056  27.794  27.663  1.00  0.00     0.031 C 
ATOM     40  C   UNL A   1      38.390  32.003  32.869  1.00  0.00     0.029 A 
ATOM     41  C   UNL A   1      39.578  31.182  33.084  1.00  0.00     0.049 A 
ATOM     42  H   UNL A   1      40.461  29.862  31.734  1.00  0.00     0.167 HD
ATOM     43  C   UNL A   1      42.067  26.947  28.850  1.00  0.00     0.034 A 
ATOM     44  C   UNL A   1      40.314  31.150  34.212  1.00  0.00     0.034 A 
ATOM     45  C   UNL A   1      42.949  26.888  29.992  1.00  0.00     0.049 A 
ATOM     46  C   UNL A   1      41.503  30.226  34.279  1.00  0.00     0.074 A 
ATOM     47  C   UNL A   1      44.102  26.139  30.157  1.00  0.00     0.029 A 
ATOM     48  N   UNL A   1      42.770  27.601  31.172  1.00  0.00    -0.354 N 
ATOM     49  N   UNL A   1      41.957  29.396  33.368  1.00  0.00    -0.248 NA
ATOM     50  C   UNL A   1      42.279  30.236  35.526  1.00  0.00     0.031 C 
ATOM     51  C   UNL A   1      44.585  26.355  31.454  1.00  0.00     0.029 A 
ATOM     52  C   UNL A   1      43.774  27.290  32.077  1.00  0.00     0.049 A 
ATOM     53  H   UNL A   1      42.036  28.237  31.340  1.00  0.00     0.167 HD
ATOM     54  C   UNL A   1      43.083  28.799  33.926  1.00  0.00     0.074 A 
ATOM     55  C   UNL A   1      43.248  29.376  35.245  1.00  0.00     0.031 C 
ATOM     56  C   UNL A   1      43.910  27.861  33.397  1.00  0.00     0.034 A 
BRANCH  43  57
ATOM     57  C   UNL A   1      42.345  26.059  27.662  1.00  0.00     0.023 A 
ATOM     58  C   UNL A   1      41.802  24.766  27.558  1.00  0.00     0.031 A 
ATOM     59  C   UNL A   1      43.206  26.495  26.639  1.00  0.00     0.131 A 
ATOM     60  C   UNL A   1      42.185  23.929  26.499  1.00  0.00     0.055 A 
ATOM     61  C   UNL A   1      43.524  25.685  25.547  1.00  0.00     0.041 A 
ATOM     62  F   UNL A   1      43.773  27.711  26.695  1.00  0.00    -0.206 F 
ATOM     63  C   UNL A   1      43.025  24.387  25.481  1.00  0.00     0.022 A 
BRANCH  60  64
ATOM     64  S   UNL A   1      41.690  22.184  26.548  1.00  0.00     0.124 S 
ATOM     65  O   UNL A   1      42.388  21.646  25.383  1.00  0.00    -0.237 OA
ATOM     66  O   UNL A   1      42.188  21.752  27.848  1.00  0.00    -0.237 OA
ATOM     67  O   UNL A   1      40.235  22.236  26.423  1.00  0.00    -0.744 OA
ENDBRANCH  60  64
ENDBRANCH  43  57
BRANCH  44  68
ATOM     68  C   UNL A   1      39.917  31.971  35.390  1.00  0.00     0.023 A 
ATOM     69  C   UNL A   1      39.011  31.487  36.346  1.00  0.00     0.031 A 
ATOM     70  C   UNL A   1      40.419  33.275  35.555  1.00  0.00     0.131 A 
ATOM     71  C   UNL A   1      38.608  32.313  37.407  1.00  0.00     0.055 A 
ATOM     72  C   UNL A   1      40.053  34.075  36.638  1.00  0.00     0.041 A 
ATOM     73  F   UNL A   1      41.289  33.785  34.669  1.00  0.00    -0.206 F 
ATOM     74  C   UNL A   1      39.132  33.599  37.565  1.00  0.00     0.022 A 
BRANCH  71  75
ATOM     75  S   UNL A   1      37.332  31.708  38.544  1.00  0.00     0.124 S 
ATOM     76  O   UNL A   1      38.031  31.746  39.824  1.00  0.00    -0.237 OA
ATOM     77  O   UNL A   1      36.273  32.694  38.363  1.00  0.00    -0.237 OA
ATOM     78  O   UNL A   1      37.030  30.372  38.037  1.00  0.00    -0.744 OA
ENDBRANCH  71  75
ENDBRANCH  44  68
BRANCH  56  79
ATOM     79  C   UNL A   1      45.083  27.436  34.243  1.00  0.00     0.023 A 
ATOM     80  C   UNL A   1      44.983  26.385  35.170  1.00  0.00     0.031 A 
ATOM     81  C   UNL A   1      46.313  28.108  34.131  1.00  0.00     0.131 A 
ATOM     82  C   UNL A   1      46.078  26.069  35.989  1.00  0.00     0.055 A 
ATOM     83  C   UNL A   1      47.416  27.755  34.911  1.00  0.00     0.041 A 
ATOM     84  F   UNL A   1      46.462  29.121  33.262  1.00  0.00    -0.206 F 
ATOM     85  C   UNL A   1      47.298  26.738  35.855  1.00  0.00     0.022 A 
BRANCH  82  86
ATOM     86  S   UNL A   1      45.865  24.824  37.291  1.00  0.00     0.124 S 
ATOM     87  O   UNL A   1      47.240  24.391  37.524  1.00  0.00    -0.237 OA
ATOM     88  O   UNL A   1      45.250  25.597  38.365  1.00  0.00    -0.237 OA
ATOM     89  O   UNL A   1      44.997  23.825  36.672  1.00  0.00    -0.744 OA
ENDBRANCH  82  86
ENDBRANCH  56  79
ENDBRANCH  30  31
ENDBRANCH  23  25
ENDBRANCH  22  23
ENDBRANCH  21  22
ENDBRANCH   1  21
TORSDOF 17
ENDMDL
MODEL 2
REMARK VINA RESULT:     -11.6      5.239     10.504
REMARK SMILES CCc1cccc(-c2ccc([C@@H](C)C(=O)OCCOC(=O)c3ccc(-c4c5nc(c(-c6cc(S(=O)(=O)[O-])ccc6F)c6ccc([nH]6)c(-c6cc(S(=O)(=O)[O-])ccc6F)c6nc(c(-c7cc(S(=O)(=O)[O-])ccc7F)c7ccc4[nH]7)C=C6)C=C5)cc3)cc2)c1
REMARK SMILES IDX 17 1 16 2 14 3 15 4 12 5 13 6 11 7 8 8 9 9 86 10 10 11 85 12
REMARK SMILES IDX 7 13 3 14 4 15 87 16 5 17 6 18 2 19 1 20 18 21 19 22 20 23
REMARK SMILES IDX 21 24 22 25 23 26 84 27 24 28 83 29 25 30 26 31 27 32 77 33
REMARK SMILES IDX 28 34 82 35 76 36 78 37 29 38 81 39 75 40 74 41 30 43 62 44
REMARK SMILES IDX 42 45 61 46 43 47 46 48 60 49 79 50 44 51 45 52 59 54 80 55
REMARK SMILES IDX 47 56 31 57 32 58 40 59 33 60 39 61 41 62 38 63 34 64 35 65
REMARK SMILES IDX 36 66 37 67 63 68 64 69 72 70 65 71 71 72 73 73 70 74 66 75
REMARK SMILES IDX 67 76 68 77 69 78 48 79 49 80 57 81 50 82 56 83 58 84 55 85
REMARK SMILES IDX 51 86 52 87 53 88 54 89
REMARK H PARENT 78 42 46 53
REMARK Flexibility Score: inf
ROOT
ATOM      1  C   UNL A   1      35.930  20.314  25.032  1.00  0.00     0.274 C 
ENDROOT
BRANCH   1   2
ATOM      2  O   UNL A   1      35.461  21.663  24.849  1.00  0.00    -0.462 OA
BRANCH   2   3
ATOM      3  C   UNL A   1      34.219  21.951  25.323  1.00  0.00     0.313 C 
ATOM      4  O   UNL A   1      33.187  21.444  24.895  1.00  0.00    -0.252 OA
BRANCH   3   5
ATOM      5  C   UNL A   1      34.207  23.022  26.408  1.00  0.00     0.126 C 
ATOM      6  C   UNL A   1      33.655  22.432  27.706  1.00  0.00     0.025 C 
BRANCH   5   7
ATOM      7  C   UNL A   1      33.537  24.337  26.037  1.00  0.00    -0.034 A 
ATOM      8  C   UNL A   1      32.236  26.776  25.362  1.00  0.00    -0.018 A 
ATOM      9  C   UNL A   1      33.606  26.587  25.114  1.00  0.00     0.009 A 
ATOM     10  C   UNL A   1      31.530  25.724  25.960  1.00  0.00     0.009 A 
ATOM     11  C   UNL A   1      34.245  25.387  25.441  1.00  0.00     0.005 A 
ATOM     12  C   UNL A   1      32.169  24.522  26.290  1.00  0.00     0.005 A 
BRANCH   8  13
ATOM     13  C   UNL A   1      31.571  28.039  24.994  1.00  0.00    -0.018 A 
ATOM     14  C   UNL A   1      29.979  29.296  23.612  1.00  0.00    -0.048 A 
ATOM     15  C   UNL A   1      30.297  30.460  24.321  1.00  0.00     0.004 A 
ATOM     16  C   UNL A   1      30.630  28.097  23.951  1.00  0.00     0.012 A 
ATOM     17  C   UNL A   1      31.235  30.427  25.351  1.00  0.00     0.001 A 
ATOM     18  C   UNL A   1      31.864  29.227  25.684  1.00  0.00     0.009 A 
BRANCH  14  19
ATOM     19  C   UNL A   1      28.988  29.351  22.473  1.00  0.00     0.032 C 
ATOM     20  C   UNL A   1      29.023  30.662  21.697  1.00  0.00     0.009 C 
ENDBRANCH  14  19
ENDBRANCH   8  13
ENDBRANCH   5   7
ENDBRANCH   3   5
ENDBRANCH   2   3
ENDBRANCH   1   2
BRANCH   1  21
ATOM     21  C   UNL A   1      37.452  20.242  24.914  1.00  0.00     0.275 C 
BRANCH  21  22
ATOM     22  O   UNL A   1      38.072  21.373  25.549  1.00  0.00    -0.458 OA
BRANCH  22  23
ATOM     23  C   UNL A   1      39.244  21.110  26.176  1.00  0.00     0.338 C 
ATOM     24  O   UNL A   1      39.817  20.039  26.254  1.00  0.00    -0.246 OA
BRANCH  23  25
ATOM     25  C   UNL A   1      39.807  22.366  26.688  1.00  0.00     0.060 A 
ATOM     26  C   UNL A   1      39.357  23.568  26.137  1.00  0.00     0.016 A 
ATOM     27  C   UNL A   1      40.825  22.356  27.640  1.00  0.00     0.016 A 
ATOM     28  C   UNL A   1      39.935  24.773  26.526  1.00  0.00     0.010 A 
ATOM     29  C   UNL A   1      41.398  23.568  28.039  1.00  0.00     0.010 A 
ATOM     30  C   UNL A   1      40.966  24.781  27.474  1.00  0.00    -0.014 A 
BRANCH  30  31
ATOM     31  C   UNL A   1      41.631  26.059  27.829  1.00  0.00     0.031 A 
ATOM     32  C   UNL A   1      40.868  27.109  28.584  1.00  0.00     0.074 A 
ATOM     33  C   UNL A   1      42.916  26.264  27.486  1.00  0.00     0.049 A 
ATOM     34  N   UNL A   1      41.227  28.324  28.908  1.00  0.00    -0.248 NA
ATOM     35  C   UNL A   1      39.516  26.739  29.026  1.00  0.00     0.031 C 
ATOM     36  C   UNL A   1      43.767  25.297  26.791  1.00  0.00     0.029 A 
ATOM     37  N   UNL A   1      43.727  27.356  27.665  1.00  0.00    -0.354 N 
ATOM     38  C   UNL A   1      40.141  28.874  29.579  1.00  0.00     0.074 A 
ATOM     39  C   UNL A   1      39.101  27.865  29.589  1.00  0.00     0.031 C 
ATOM     40  C   UNL A   1      44.979  25.842  26.597  1.00  0.00     0.029 A 
ATOM     41  C   UNL A   1      44.975  27.210  27.107  1.00  0.00     0.049 A 
ATOM     42  H   UNL A   1      43.443  28.164  28.149  1.00  0.00     0.167 HD
ATOM     43  C   UNL A   1      40.026  30.105  30.137  1.00  0.00     0.034 A 
ATOM     44  C   UNL A   1      45.985  28.093  26.987  1.00  0.00     0.034 A 
ATOM     45  C   UNL A   1      41.073  31.098  30.110  1.00  0.00     0.049 A 
ATOM     46  C   UNL A   1      45.811  29.480  27.552  1.00  0.00     0.074 A 
ATOM     47  C   UNL A   1      41.068  32.375  30.645  1.00  0.00     0.029 A 
ATOM     48  N   UNL A   1      42.314  30.928  29.506  1.00  0.00    -0.354 N 
ATOM     49  N   UNL A   1      44.773  29.996  28.168  1.00  0.00    -0.248 NA
ATOM     50  C   UNL A   1      46.946  30.401  27.406  1.00  0.00     0.031 C 
ATOM     51  C   UNL A   1      42.279  32.996  30.314  1.00  0.00     0.029 A 
ATOM     52  C   UNL A   1      43.070  32.085  29.631  1.00  0.00     0.049 A 
ATOM     53  H   UNL A   1      42.613  30.106  29.056  1.00  0.00     0.167 HD
ATOM     54  C   UNL A   1      45.137  31.298  28.499  1.00  0.00     0.074 A 
ATOM     55  C   UNL A   1      46.495  31.481  28.029  1.00  0.00     0.031 C 
ATOM     56  C   UNL A   1      44.416  32.256  29.138  1.00  0.00     0.034 A 
BRANCH  43  57
ATOM     57  C   UNL A   1      38.699  30.454  30.766  1.00  0.00     0.023 A 
ATOM     58  C   UNL A   1      37.778  31.306  30.131  1.00  0.00     0.031 A 
ATOM     59  C   UNL A   1      38.371  29.966  32.044  1.00  0.00     0.131 A 
ATOM     60  C   UNL A   1      36.613  31.703  30.805  1.00  0.00     0.055 A 
ATOM     61  C   UNL A   1      37.174  30.304  32.677  1.00  0.00     0.041 A 
ATOM     62  F   UNL A   1      39.221  29.167  32.709  1.00  0.00    -0.206 F 
ATOM     63  C   UNL A   1      36.294  31.190  32.064  1.00  0.00     0.022 A 
BRANCH  60  64
ATOM     64  S   UNL A   1      35.592  33.014  30.076  1.00  0.00     0.124 S 
ATOM     65  O   UNL A   1      35.654  34.046  31.108  1.00  0.00    -0.237 OA
ATOM     66  O   UNL A   1      36.297  33.308  28.834  1.00  0.00    -0.237 OA
ATOM     67  O   UNL A   1      34.283  32.383  29.916  1.00  0.00    -0.744 OA
ENDBRANCH  60  64
ENDBRANCH  43  57
BRANCH  44  68
ATOM     68  C   UNL A   1      47.227  27.717  26.254  1.00  0.00     0.023 A 
ATOM     69  C   UNL A   1      47.344  27.909  24.869  1.00  0.00     0.031 A 
ATOM     70  C   UNL A   1      48.307  27.126  26.934  1.00  0.00     0.131 A 
ATOM     71  C   UNL A   1      48.502  27.482  24.201  1.00  0.00     0.055 A 
ATOM     72  C   UNL A   1      49.476  26.746  26.273  1.00  0.00     0.041 A 
ATOM     73  F   UNL A   1      48.246  26.921  28.260  1.00  0.00    -0.206 F 
ATOM     74  C   UNL A   1      49.573  26.913  24.896  1.00  0.00     0.022 A 
BRANCH  71  75
ATOM     75  S   UNL A   1      48.564  27.616  22.394  1.00  0.00     0.124 S 
ATOM     76  O   UNL A   1      49.815  28.339  22.191  1.00  0.00    -0.237 OA
ATOM     77  O   UNL A   1      48.559  26.216  21.985  1.00  0.00    -0.237 OA
ATOM     78  O   UNL A   1      47.351  28.362  22.066  1.00  0.00    -0.744 OA
ENDBRANCH  71  75
ENDBRANCH  44  68
BRANCH  56  79
ATOM     79  C   UNL A   1      45.109  33.571  29.389  1.00  0.00     0.023 A 
ATOM     80  C   UNL A   1      45.047  34.628  28.464  1.00  0.00     0.031 A 
ATOM     81  C   UNL A   1      45.859  33.760  30.563  1.00  0.00     0.131 A 
ATOM     82  C   UNL A   1      45.766  35.808  28.704  1.00  0.00     0.055 A 
ATOM     83  C   UNL A   1      46.529  34.957  30.822  1.00  0.00     0.041 A 
ATOM     84  F   UNL A   1      45.953  32.782  31.479  1.00  0.00    -0.206 F 
ATOM     85  C   UNL A   1      46.495  35.984  29.883  1.00  0.00     0.022 A 
BRANCH  82  86
ATOM     86  S   UNL A   1      45.804  37.085  27.415  1.00  0.00     0.124 S 
ATOM     87  O   UNL A   1      44.389  37.416  27.274  1.00  0.00    -0.237 OA
ATOM     88  O   UNL A   1      46.642  38.114  28.021  1.00  0.00    -0.237 OA
ATOM     89  O   UNL A   1      46.398  36.399  26.270  1.00  0.00    -0.744 OA
ENDBRANCH  82  86
ENDBRANCH  56  79
ENDBRANCH  30  31
ENDBRANCH  23  25
ENDBRANCH  22  23
ENDBRANCH  21  22
ENDBRANCH   1  21
TORSDOF 17
ENDMDL
MODEL 3
REMARK VINA RESULT:     -11.6      1.143      7.735
REMARK SMILES CCc1cccc(-c2ccc([C@@H](C)C(=O)OCCOC(=O)c3ccc(-c4c5nc(c(-c6cc(S(=O)(=O)[O-])ccc6F)c6ccc([nH]6)c(-c6cc(S(=O)(=O)[O-])ccc6F)c6nc(c(-c7cc(S(=O)(=O)[O-])ccc7F)c7ccc4[nH]7)C=C6)C=C5)cc3)cc2)c1
REMARK SMILES IDX 17 1 16 2 14 3 15 4 12 5 13 6 11 7 8 8 9 9 86 10 10 11 85 12
REMARK SMILES IDX 7 13 3 14 4 15 87 16 5 17 6 18 2 19 1 20 18 21 19 22 20 23
REMARK SMILES IDX 21 24 22 25 23 26 84 27 24 28 83 29 25 30 26 31 27 32 77 33
REMARK SMILES IDX 28 34 82 35 76 36 78 37 29 38 81 39 75 40 74 41 30 43 62 44
REMARK SMILES IDX 42 45 61 46 43 47 46 48 60 49 79 50 44 51 45 52 59 54 80 55
REMARK SMILES IDX 47 56 31 57 32 58 40 59 33 60 39 61 41 62 38 63 34 64 35 65
REMARK SMILES IDX 36 66 37 67 63 68 64 69 72 70 65 71 71 72 73 73 70 74 66 75
REMARK SMILES IDX 67 76 68 77 69 78 48 79 49 80 57 81 50 82 56 83 58 84 55 85
REMARK SMILES IDX 51 86 52 87 53 88 54 89
REMARK H PARENT 78 42 46 53
REMARK Flexibility Score: inf
ROOT
ATOM      1  C   UNL A   1      31.028  31.128  25.575  1.00  0.00     0.274 C 
ENDROOT
BRANCH   1   2
ATOM      2  O   UNL A   1      31.927  30.004  25.548  1.00  0.00    -0.462 OA
BRANCH   2   3
ATOM      3  C   UNL A   1      31.401  28.804  25.186  1.00  0.00     0.313 C 
ATOM      4  O   UNL A   1      30.902  28.577  24.088  1.00  0.00    -0.252 OA
BRANCH   3   5
ATOM      5  C   UNL A   1      31.423  27.761  26.298  1.00  0.00     0.126 C 
ATOM      6  C   UNL A   1      31.759  28.436  27.628  1.00  0.00     0.025 C 
BRANCH   5   7
ATOM      7  C   UNL A   1      32.278  26.530  26.040  1.00  0.00    -0.034 A 
ATOM      8  C   UNL A   1      33.835  24.197  25.554  1.00  0.00    -0.018 A 
ATOM      9  C   UNL A   1      34.439  25.450  25.749  1.00  0.00     0.009 A 
ATOM     10  C   UNL A   1      32.436  24.134  25.601  1.00  0.00     0.009 A 
ATOM     11  C   UNL A   1      33.676  26.596  25.993  1.00  0.00     0.005 A 
ATOM     12  C   UNL A   1      31.669  25.281  25.842  1.00  0.00     0.005 A 
BRANCH   8  13
ATOM     13  C   UNL A   1      34.652  22.994  25.318  1.00  0.00    -0.018 A 
ATOM     14  C   UNL A   1      34.839  20.590  24.859  1.00  0.00    -0.048 A 
ATOM     15  C   UNL A   1      36.233  20.710  24.850  1.00  0.00     0.004 A 
ATOM     16  C   UNL A   1      34.062  21.735  25.105  1.00  0.00     0.012 A 
ATOM     17  C   UNL A   1      36.838  21.946  25.069  1.00  0.00     0.001 A 
ATOM     18  C   UNL A   1      36.054  23.076  25.300  1.00  0.00     0.009 A 
BRANCH  14  19
ATOM     19  C   UNL A   1      34.195  19.239  24.657  1.00  0.00     0.032 C 
ATOM     20  C   UNL A   1      32.855  19.088  25.367  1.00  0.00     0.009 C 
ENDBRANCH  14  19
ENDBRANCH   8  13
ENDBRANCH   5   7
ENDBRANCH   3   5
ENDBRANCH   2   3
ENDBRANCH   1   2
BRANCH   1  21
ATOM     21  C   UNL A   1      31.526  32.208  26.534  1.00  0.00     0.275 C 
BRANCH  21  22
ATOM     22  O   UNL A   1      32.691  31.764  27.250  1.00  0.00    -0.458 OA
BRANCH  22  23
ATOM     23  C   UNL A   1      33.549  32.745  27.617  1.00  0.00     0.338 C 
ATOM     24  O   UNL A   1      33.345  33.944  27.617  1.00  0.00    -0.246 OA
BRANCH  23  25
ATOM     25  C   UNL A   1      34.782  32.136  28.133  1.00  0.00     0.060 A 
ATOM     26  C   UNL A   1      34.766  30.778  28.459  1.00  0.00     0.016 A 
ATOM     27  C   UNL A   1      35.917  32.911  28.369  1.00  0.00     0.016 A 
ATOM     28  C   UNL A   1      35.883  30.187  29.040  1.00  0.00     0.010 A 
ATOM     29  C   UNL A   1      37.044  32.315  28.943  1.00  0.00     0.010 A 
ATOM     30  C   UNL A   1      37.029  30.953  29.294  1.00  0.00    -0.014 A 
BRANCH  30  31
ATOM     31  C   UNL A   1      38.189  30.339  29.984  1.00  0.00     0.031 A 
ATOM     32  C   UNL A   1      38.519  30.749  31.391  1.00  0.00     0.074 A 
ATOM     33  C   UNL A   1      38.930  29.410  29.353  1.00  0.00     0.049 A 
ATOM     34  N   UNL A   1      39.538  30.410  32.137  1.00  0.00    -0.248 NA
ATOM     35  C   UNL A   1      37.575  31.671  32.038  1.00  0.00     0.031 C 
ATOM     36  C   UNL A   1      38.676  28.903  28.004  1.00  0.00     0.029 A 
ATOM     37  N   UNL A   1      40.053  28.734  29.758  1.00  0.00    -0.354 N 
ATOM     38  C   UNL A   1      39.371  31.087  33.338  1.00  0.00     0.074 A 
ATOM     39  C   UNL A   1      38.164  31.879  33.207  1.00  0.00     0.031 C 
ATOM     40  C   UNL A   1      39.620  28.002  27.690  1.00  0.00     0.029 A 
ATOM     41  C   UNL A   1      40.572  27.904  28.792  1.00  0.00     0.049 A 
ATOM     42  H   UNL A   1      40.448  28.833  30.654  1.00  0.00     0.167 HD
ATOM     43  C   UNL A   1      40.149  31.048  34.448  1.00  0.00     0.034 A 
ATOM     44  C   UNL A   1      41.707  27.177  28.785  1.00  0.00     0.034 A 
ATOM     45  C   UNL A   1      41.352  30.257  34.556  1.00  0.00     0.049 A 
ATOM     46  C   UNL A   1      42.596  27.203  30.002  1.00  0.00     0.074 A 
ATOM     47  C   UNL A   1      42.216  30.138  35.631  1.00  0.00     0.029 A 
ATOM     48  N   UNL A   1      41.867  29.452  33.545  1.00  0.00    -0.354 N 
ATOM     49  N   UNL A   1      42.438  27.863  31.126  1.00  0.00    -0.248 NA
ATOM     50  C   UNL A   1      43.815  26.385  29.948  1.00  0.00     0.031 C 
ATOM     51  C   UNL A   1      43.281  29.311  35.251  1.00  0.00     0.029 A 
ATOM     52  C   UNL A   1      43.049  28.857  33.962  1.00  0.00     0.049 A 
ATOM     53  H   UNL A   1      41.451  29.322  32.662  1.00  0.00     0.167 HD
ATOM     54  C   UNL A   1      43.529  27.524  31.921  1.00  0.00     0.074 A 
ATOM     55  C   UNL A   1      44.328  26.590  31.153  1.00  0.00     0.031 C 
ATOM     56  C   UNL A   1      43.843  27.944  33.174  1.00  0.00     0.034 A 
BRANCH  43  57
ATOM     57  C   UNL A   1      39.748  31.935  35.603  1.00  0.00     0.023 A 
ATOM     58  C   UNL A   1      38.933  31.468  36.649  1.00  0.00     0.031 A 
ATOM     59  C   UNL A   1      40.149  33.282  35.631  1.00  0.00     0.131 A 
ATOM     60  C   UNL A   1      38.483  32.358  37.635  1.00  0.00     0.055 A 
ATOM     61  C   UNL A   1      39.760  34.145  36.658  1.00  0.00     0.041 A 
ATOM     62  F   UNL A   1      40.909  33.791  34.649  1.00  0.00    -0.206 F 
ATOM     63  C   UNL A   1      38.909  33.688  37.660  1.00  0.00     0.022 A 
BRANCH  60  64
ATOM     64  S   UNL A   1      37.215  31.792  38.803  1.00  0.00     0.124 S 
ATOM     65  O   UNL A   1      36.111  32.701  38.505  1.00  0.00    -0.237 OA
ATOM     66  O   UNL A   1      37.022  30.402  38.408  1.00  0.00    -0.237 OA
ATOM     67  O   UNL A   1      37.837  31.989  40.110  1.00  0.00    -0.744 OA
ENDBRANCH  60  64
ENDBRANCH  43  57
BRANCH  44  68
ATOM     68  C   UNL A   1      42.099  26.413  27.568  1.00  0.00     0.023 A 
ATOM     69  C   UNL A   1      41.813  25.045  27.441  1.00  0.00     0.031 A 
ATOM     70  C   UNL A   1      42.801  27.042  26.523  1.00  0.00     0.131 A 
ATOM     71  C   UNL A   1      42.256  24.341  26.310  1.00  0.00     0.055 A 
ATOM     72  C   UNL A   1      43.198  26.348  25.379  1.00  0.00     0.041 A 
ATOM     73  F   UNL A   1      43.099  28.349  26.595  1.00  0.00    -0.206 F 
ATOM     74  C   UNL A   1      42.936  24.987  25.273  1.00  0.00     0.022 A 
BRANCH  71  75
ATOM     75  S   UNL A   1      41.992  22.548  26.242  1.00  0.00     0.124 S 
ATOM     76  O   UNL A   1      42.666  22.195  24.998  1.00  0.00    -0.237 OA
ATOM     77  O   UNL A   1      42.639  22.100  27.471  1.00  0.00    -0.237 OA
ATOM     78  O   UNL A   1      40.537  22.419  26.224  1.00  0.00    -0.744 OA
ENDBRANCH  71  75
ENDBRANCH  44  68
BRANCH  56  79
ATOM     79  C   UNL A   1      45.087  27.360  33.793  1.00  0.00     0.023 A 
ATOM     80  C   UNL A   1      45.055  26.163  34.529  1.00  0.00     0.031 A 
ATOM     81  C   UNL A   1      46.319  28.024  33.660  1.00  0.00     0.131 A 
ATOM     82  C   UNL A   1      46.222  25.693  35.150  1.00  0.00     0.055 A 
ATOM     83  C   UNL A   1      47.489  27.524  34.235  1.00  0.00     0.041 A 
ATOM     84  F   UNL A   1      46.405  29.173  32.969  1.00  0.00    -0.206 F 
ATOM     85  C   UNL A   1      47.441  26.358  34.995  1.00  0.00     0.022 A 
BRANCH  82  86
ATOM     86  S   UNL A   1      46.113  24.240  36.231  1.00  0.00     0.124 S 
ATOM     87  O   UNL A   1      44.950  24.561  37.053  1.00  0.00    -0.237 OA
ATOM     88  O   UNL A   1      45.938  23.152  35.275  1.00  0.00    -0.237 OA
ATOM     89  O   UNL A   1      47.391  24.242  36.938  1.00  0.00    -0.744 OA
ENDBRANCH  82  86
ENDBRANCH  56  79
ENDBRANCH  30  31
ENDBRANCH  23  25
ENDBRANCH  22  23
ENDBRANCH  21  22
ENDBRANCH   1  21
TORSDOF 17
ENDMDL
