MODEL 1
REMARK VINA RESULT:     -11.8      0.000      0.000
REMARK SMILES CCc1ccc2c(c1)C=C(C(=O)OCCOC(=O)c1ccc(-c3c4nc(c(-c5cc(S(=O)(=O)[O-])ccc5F)c5ccc([nH]5)c(-c5cc(S(=O)(=O)[O-])ccc5F)c5nc(c(-c6cc(S(=O)(=O)[O-])ccc6F)c6ccc3[nH]6)C=C5)C=C4)cc1)[C@H](C(F)(F)F)O2
REMARK SMILES IDX 15 1 14 2 13 3 11 4 12 5 10 6 3 7 4 8 8 9 5 10 7 11 6 12
REMARK SMILES IDX 9 13 87 14 82 15 2 16 1 17 83 18 84 19 85 20 86 21 16 22
REMARK SMILES IDX 17 23 18 24 19 25 20 26 81 27 21 28 80 29 22 30 23 31 24 32
REMARK SMILES IDX 74 33 25 34 79 35 73 36 75 37 26 38 78 39 72 40 71 41 27 43
REMARK SMILES IDX 59 44 39 45 58 46 40 47 43 48 57 49 76 50 41 51 42 52 56 54
REMARK SMILES IDX 77 55 44 56 28 57 29 58 37 59 30 60 36 61 38 62 35 63 31 64
REMARK SMILES IDX 32 65 33 66 34 67 60 68 61 69 69 70 62 71 68 72 70 73 67 74
REMARK SMILES IDX 63 75 64 76 65 77 66 78 45 79 46 80 54 81 47 82 53 83 55 84
REMARK SMILES IDX 52 85 48 86 49 87 50 88 51 89
REMARK H PARENT 75 42 43 53
REMARK Flexibility Score: inf
ROOT
ATOM      1  C   UNL A   1      36.755  20.439  25.050  1.00  0.00     0.275 C 
ENDROOT
BRANCH   1   2
ATOM      2  C   UNL A   1      35.292  20.862  24.883  1.00  0.00     0.275 C 
BRANCH   2   3
ATOM      3  O   UNL A   1      35.031  22.141  25.500  1.00  0.00    -0.459 OA
BRANCH   3   4
ATOM      4  C   UNL A   1      33.727  22.526  25.553  1.00  0.00     0.338 C 
ATOM      5  O   UNL A   1      32.808  21.827  25.931  1.00  0.00    -0.246 OA
BRANCH   4   6
ATOM      6  C   UNL A   1      33.548  23.927  25.097  1.00  0.00     0.087 C 
ATOM      7  C   UNL A   1      33.539  28.713  25.848  1.00  0.00    -0.047 A 
ATOM      8  C   UNL A   1      33.336  28.907  24.474  1.00  0.00     0.007 A 
ATOM      9  C   UNL A   1      33.621  27.401  26.346  1.00  0.00     0.015 A 
ATOM     10  C   UNL A   1      33.300  27.818  23.606  1.00  0.00     0.047 A 
ATOM     11  C   UNL A   1      33.580  26.304  25.478  1.00  0.00     0.018 A 
ATOM     12  C   UNL A   1      33.446  26.528  24.108  1.00  0.00     0.128 A 
ATOM     13  C   UNL A   1      33.748  24.936  25.962  1.00  0.00     0.027 C 
ATOM     14  O   UNL A   1      33.539  25.523  23.191  1.00  0.00    -0.475 OA
ATOM     15  C   UNL A   1      33.141  24.203  23.655  1.00  0.00     0.316 C 
BRANCH   7  16
ATOM     16  C   UNL A   1      33.683  29.909  26.758  1.00  0.00     0.032 C 
ATOM     17  C   UNL A   1      32.452  30.809  26.745  1.00  0.00     0.009 C 
ENDBRANCH   7  16
BRANCH  15  18
ATOM     18  C   UNL A   1      33.567  23.200  22.563  1.00  0.00     0.430 C 
ATOM     19  F   UNL A   1      32.964  22.000  22.711  1.00  0.00    -0.167 F 
ATOM     20  F   UNL A   1      33.187  23.652  21.340  1.00  0.00    -0.167 F 
ATOM     21  F   UNL A   1      34.904  23.019  22.522  1.00  0.00    -0.167 F 
ENDBRANCH  15  18
ENDBRANCH   4   6
ENDBRANCH   3   4
ENDBRANCH   2   3
ENDBRANCH   1   2
BRANCH   1  22
ATOM     22  O   UNL A   1      37.547  21.490  25.630  1.00  0.00    -0.458 OA
BRANCH  22  23
ATOM     23  C   UNL A   1      38.801  21.123  25.991  1.00  0.00     0.338 C 
ATOM     24  O   UNL A   1      39.331  20.043  25.788  1.00  0.00    -0.246 OA
BRANCH  23  25
ATOM     25  C   UNL A   1      39.538  22.300  26.490  1.00  0.00     0.060 A 
ATOM     26  C   UNL A   1      39.149  23.542  25.984  1.00  0.00     0.016 A 
ATOM     27  C   UNL A   1      40.582  22.215  27.411  1.00  0.00     0.016 A 
ATOM     28  C   UNL A   1      39.736  24.716  26.450  1.00  0.00     0.010 A 
ATOM     29  C   UNL A   1      41.216  23.390  27.835  1.00  0.00     0.010 A 
ATOM     30  C   UNL A   1      40.784  24.647  27.371  1.00  0.00    -0.014 A 
BRANCH  30  31
ATOM     31  C   UNL A   1      41.508  25.883  27.754  1.00  0.00     0.031 A 
ATOM     32  C   UNL A   1      40.787  26.924  28.557  1.00  0.00     0.074 A 
ATOM     33  C   UNL A   1      42.797  26.063  27.415  1.00  0.00     0.049 A 
ATOM     34  N   UNL A   1      41.169  28.129  28.891  1.00  0.00    -0.248 NA
ATOM     35  C   UNL A   1      39.455  26.549  29.057  1.00  0.00     0.031 C 
ATOM     36  C   UNL A   1      43.638  25.073  26.742  1.00  0.00     0.029 A 
ATOM     37  N   UNL A   1      43.623  27.147  27.582  1.00  0.00    -0.354 N 
ATOM     38  C   UNL A   1      40.122  28.663  29.635  1.00  0.00     0.074 A 
ATOM     39  C   UNL A   1      39.087  27.652  29.691  1.00  0.00     0.031 C 
ATOM     40  C   UNL A   1      44.852  25.609  26.527  1.00  0.00     0.029 A 
ATOM     41  C   UNL A   1      44.859  26.994  26.994  1.00  0.00     0.049 A 
ATOM     42  H   UNL A   1      43.357  27.957  28.075  1.00  0.00     0.167 HD
ATOM     43  C   UNL A   1      40.036  29.888  30.210  1.00  0.00     0.034 A 
ATOM     44  C   UNL A   1      45.854  27.888  26.811  1.00  0.00     0.034 A 
ATOM     45  C   UNL A   1      41.067  30.892  30.111  1.00  0.00     0.049 A 
ATOM     46  C   UNL A   1      45.672  29.300  27.324  1.00  0.00     0.074 A 
ATOM     47  C   UNL A   1      41.069  32.178  30.624  1.00  0.00     0.029 A 
ATOM     48  N   UNL A   1      42.272  30.733  29.439  1.00  0.00    -0.354 N 
ATOM     49  N   UNL A   1      44.662  29.816  27.986  1.00  0.00    -0.248 NA
ATOM     50  C   UNL A   1      46.760  30.252  27.057  1.00  0.00     0.031 C 
ATOM     51  C   UNL A   1      42.234  32.819  30.192  1.00  0.00     0.029 A 
ATOM     52  C   UNL A   1      43.006  31.908  29.491  1.00  0.00     0.049 A 
ATOM     53  H   UNL A   1      42.562  29.905  28.990  1.00  0.00     0.167 HD
ATOM     54  C   UNL A   1      45.014  31.139  28.250  1.00  0.00     0.074 A 
ATOM     55  C   UNL A   1      46.328  31.342  27.675  1.00  0.00     0.031 C 
ATOM     56  C   UNL A   1      44.318  32.097  28.915  1.00  0.00     0.034 A 
BRANCH  43  57
ATOM     57  C   UNL A   1      38.746  30.228  30.912  1.00  0.00     0.023 A 
ATOM     58  C   UNL A   1      37.729  30.970  30.284  1.00  0.00     0.031 A 
ATOM     59  C   UNL A   1      38.549  29.842  32.250  1.00  0.00     0.131 A 
ATOM     60  C   UNL A   1      36.599  31.362  31.016  1.00  0.00     0.055 A 
ATOM     61  C   UNL A   1      37.384  30.165  32.947  1.00  0.00     0.041 A 
ATOM     62  F   UNL A   1      39.497  29.158  32.910  1.00  0.00    -0.206 F 
ATOM     63  C   UNL A   1      36.407  30.944  32.336  1.00  0.00     0.022 A 
BRANCH  60  64
ATOM     64  S   UNL A   1      35.457  32.560  30.271  1.00  0.00     0.124 S 
ATOM     65  O   UNL A   1      35.215  31.963  28.960  1.00  0.00    -0.237 OA
ATOM     66  O   UNL A   1      34.331  32.541  31.198  1.00  0.00    -0.237 OA
ATOM     67  O   UNL A   1      36.228  33.801  30.250  1.00  0.00    -0.744 OA
ENDBRANCH  60  64
ENDBRANCH  43  57
BRANCH  44  68
ATOM     68  C   UNL A   1      47.080  27.516  26.042  1.00  0.00     0.023 A 
ATOM     69  C   UNL A   1      47.221  27.846  24.685  1.00  0.00     0.031 A 
ATOM     70  C   UNL A   1      48.098  26.749  26.640  1.00  0.00     0.131 A 
ATOM     71  C   UNL A   1      48.325  27.367  23.958  1.00  0.00     0.055 A 
ATOM     72  C   UNL A   1      49.224  26.330  25.928  1.00  0.00     0.041 A 
ATOM     73  F   UNL A   1      48.010  26.388  27.930  1.00  0.00    -0.206 F 
ATOM     74  C   UNL A   1      49.335  26.627  24.574  1.00  0.00     0.022 A 
BRANCH  71  75
ATOM     75  S   UNL A   1      48.367  27.634  22.163  1.00  0.00     0.124 S 
ATOM     76  O   UNL A   1      47.072  28.261  21.927  1.00  0.00    -0.237 OA
ATOM     77  O   UNL A   1      49.536  28.495  22.011  1.00  0.00    -0.237 OA
ATOM     78  O   UNL A   1      48.515  26.285  21.622  1.00  0.00    -0.744 OA
ENDBRANCH  71  75
ENDBRANCH  44  68
BRANCH  56  79
ATOM     79  C   UNL A   1      44.990  33.434  29.122  1.00  0.00     0.023 A 
ATOM     80  C   UNL A   1      44.824  34.505  28.227  1.00  0.00     0.031 A 
ATOM     81  C   UNL A   1      45.791  33.643  30.261  1.00  0.00     0.131 A 
ATOM     82  C   UNL A   1      45.479  35.725  28.467  1.00  0.00     0.055 A 
ATOM     83  C   UNL A   1      46.391  34.874  30.525  1.00  0.00     0.041 A 
ATOM     84  F   UNL A   1      45.987  32.654  31.148  1.00  0.00    -0.206 F 
ATOM     85  C   UNL A   1      46.243  35.921  29.621  1.00  0.00     0.022 A 
BRANCH  82  86
ATOM     86  S   UNL A   1      45.373  37.037  27.220  1.00  0.00     0.124 S 
ATOM     87  O   UNL A   1      45.881  38.193  27.952  1.00  0.00    -0.237 OA
ATOM     88  O   UNL A   1      46.232  36.528  26.155  1.00  0.00    -0.237 OA
ATOM     89  O   UNL A   1      43.949  37.088  26.893  1.00  0.00    -0.744 OA
ENDBRANCH  82  86
ENDBRANCH  56  79
ENDBRANCH  30  31
ENDBRANCH  23  25
ENDBRANCH  22  23
ENDBRANCH   1  22
TORSDOF 16
ENDMDL
MODEL 2
REMARK VINA RESULT:     -11.7      1.760      2.083
REMARK SMILES CCc1ccc2c(c1)C=C(C(=O)OCCOC(=O)c1ccc(-c3c4nc(c(-c5cc(S(=O)(=O)[O-])ccc5F)c5ccc([nH]5)c(-c5cc(S(=O)(=O)[O-])ccc5F)c5nc(c(-c6cc(S(=O)(=O)[O-])ccc6F)c6ccc3[nH]6)C=C5)C=C4)cc1)[C@H](C(F)(F)F)O2
REMARK SMILES IDX 15 1 14 2 13 3 11 4 12 5 10 6 3 7 4 8 8 9 5 10 7 11 6 12
REMARK SMILES IDX 9 13 87 14 82 15 2 16 1 17 83 18 84 19 85 20 86 21 16 22
REMARK SMILES IDX 17 23 18 24 19 25 20 26 81 27 21 28 80 29 22 30 23 31 24 32
REMARK SMILES IDX 74 33 25 34 79 35 73 36 75 37 26 38 78 39 72 40 71 41 27 43
REMARK SMILES IDX 59 44 39 45 58 46 40 47 43 48 57 49 76 50 41 51 42 52 56 54
REMARK SMILES IDX 77 55 44 56 28 57 29 58 37 59 30 60 36 61 38 62 35 63 31 64
REMARK SMILES IDX 32 65 33 66 34 67 60 68 61 69 69 70 62 71 68 72 70 73 67 74
REMARK SMILES IDX 63 75 64 76 65 77 66 78 45 79 46 80 54 81 47 82 53 83 55 84
REMARK SMILES IDX 52 85 48 86 49 87 50 88 51 89
REMARK H PARENT 75 42 43 53
REMARK Flexibility Score: inf
ROOT
ATOM      1  C   UNL A   1      36.433  20.721  25.005  1.00  0.00     0.275 C 
ENDROOT
BRANCH   1   2
ATOM      2  C   UNL A   1      34.940  20.971  25.238  1.00  0.00     0.275 C 
BRANCH   2   3
ATOM      3  O   UNL A   1      34.684  22.326  25.664  1.00  0.00    -0.459 OA
BRANCH   3   4
ATOM      4  C   UNL A   1      33.934  23.089  24.823  1.00  0.00     0.338 C 
ATOM      5  O   UNL A   1      33.768  22.866  23.641  1.00  0.00    -0.246 OA
BRANCH   4   6
ATOM      6  C   UNL A   1      33.322  24.244  25.526  1.00  0.00     0.087 C 
ATOM      7  C   UNL A   1      33.271  28.890  26.898  1.00  0.00    -0.047 A 
ATOM      8  C   UNL A   1      31.986  28.698  27.426  1.00  0.00     0.007 A 
ATOM      9  C   UNL A   1      33.933  27.801  26.305  1.00  0.00     0.015 A 
ATOM     10  C   UNL A   1      31.345  27.469  27.291  1.00  0.00     0.047 A 
ATOM     11  C   UNL A   1      33.294  26.563  26.172  1.00  0.00     0.018 A 
ATOM     12  C   UNL A   1      31.991  26.419  26.645  1.00  0.00     0.128 A 
ATOM     13  C   UNL A   1      33.931  25.442  25.484  1.00  0.00     0.027 C 
ATOM     14  O   UNL A   1      31.255  25.291  26.426  1.00  0.00    -0.475 OA
ATOM     15  C   UNL A   1      32.013  24.058  26.282  1.00  0.00     0.316 C 
BRANCH   7  16
ATOM     16  C   UNL A   1      33.907  30.258  26.958  1.00  0.00     0.032 C 
ATOM     17  C   UNL A   1      35.287  30.236  27.608  1.00  0.00     0.009 C 
ENDBRANCH   7  16
BRANCH  15  18
ATOM     18  C   UNL A   1      31.024  22.981  25.792  1.00  0.00     0.430 C 
ATOM     19  F   UNL A   1      29.888  22.961  26.524  1.00  0.00    -0.167 F 
ATOM     20  F   UNL A   1      30.634  23.250  24.519  1.00  0.00    -0.167 F 
ATOM     21  F   UNL A   1      31.567  21.745  25.789  1.00  0.00    -0.167 F 
ENDBRANCH  15  18
ENDBRANCH   4   6
ENDBRANCH   3   4
ENDBRANCH   2   3
ENDBRANCH   1   2
BRANCH   1  22
ATOM     22  O   UNL A   1      37.245  21.707  25.667  1.00  0.00    -0.458 OA
BRANCH  22  23
ATOM     23  C   UNL A   1      38.511  21.309  25.940  1.00  0.00     0.338 C 
ATOM     24  O   UNL A   1      39.013  20.233  25.662  1.00  0.00    -0.246 OA
BRANCH  23  25
ATOM     25  C   UNL A   1      39.291  22.455  26.446  1.00  0.00     0.060 A 
ATOM     26  C   UNL A   1      38.896  23.722  26.013  1.00  0.00     0.016 A 
ATOM     27  C   UNL A   1      40.382  22.318  27.306  1.00  0.00     0.016 A 
ATOM     28  C   UNL A   1      39.525  24.867  26.494  1.00  0.00     0.010 A 
ATOM     29  C   UNL A   1      41.055  23.466  27.744  1.00  0.00     0.010 A 
ATOM     30  C   UNL A   1      40.619  24.746  27.355  1.00  0.00    -0.014 A 
BRANCH  30  31
ATOM     31  C   UNL A   1      41.381  25.956  27.748  1.00  0.00     0.031 A 
ATOM     32  C   UNL A   1      40.684  27.026  28.534  1.00  0.00     0.074 A 
ATOM     33  C   UNL A   1      42.683  26.085  27.434  1.00  0.00     0.049 A 
ATOM     34  N   UNL A   1      41.105  28.216  28.871  1.00  0.00    -0.248 NA
ATOM     35  C   UNL A   1      39.330  26.704  29.008  1.00  0.00     0.031 C 
ATOM     36  C   UNL A   1      43.499  25.062  26.781  1.00  0.00     0.029 A 
ATOM     37  N   UNL A   1      43.545  27.139  27.614  1.00  0.00    -0.354 N 
ATOM     38  C   UNL A   1      40.065  28.792  29.593  1.00  0.00     0.074 A 
ATOM     39  C   UNL A   1      38.991  27.822  29.631  1.00  0.00     0.031 C 
ATOM     40  C   UNL A   1      44.736  25.551  26.589  1.00  0.00     0.029 A 
ATOM     41  C   UNL A   1      44.786  26.937  27.052  1.00  0.00     0.049 A 
ATOM     42  H   UNL A   1      43.301  27.959  28.100  1.00  0.00     0.167 HD
ATOM     43  C   UNL A   1      40.013  30.022  30.163  1.00  0.00     0.034 A 
ATOM     44  C   UNL A   1      45.818  27.792  26.885  1.00  0.00     0.034 A 
ATOM     45  C   UNL A   1      41.083  30.986  30.082  1.00  0.00     0.049 A 
ATOM     46  C   UNL A   1      45.680  29.211  27.390  1.00  0.00     0.074 A 
ATOM     47  C   UNL A   1      41.124  32.273  30.591  1.00  0.00     0.029 A 
ATOM     48  N   UNL A   1      42.295  30.779  29.434  1.00  0.00    -0.354 N 
ATOM     49  N   UNL A   1      44.677  29.768  28.031  1.00  0.00    -0.248 NA
ATOM     50  C   UNL A   1      46.807  30.121  27.143  1.00  0.00     0.031 C 
ATOM     51  C   UNL A   1      42.321  32.868  30.180  1.00  0.00     0.029 A 
ATOM     52  C   UNL A   1      43.071  31.926  29.496  1.00  0.00     0.049 A 
ATOM     53  H   UNL A   1      42.562  29.939  28.994  1.00  0.00     0.167 HD
ATOM     54  C   UNL A   1      45.073  31.078  28.298  1.00  0.00     0.074 A 
ATOM     55  C   UNL A   1      46.404  31.229  27.749  1.00  0.00     0.031 C 
ATOM     56  C   UNL A   1      44.400  32.064  28.946  1.00  0.00     0.034 A 
BRANCH  43  57
ATOM     57  C   UNL A   1      38.724  30.413  30.838  1.00  0.00     0.023 A 
ATOM     58  C   UNL A   1      37.805  31.292  30.237  1.00  0.00     0.031 A 
ATOM     59  C   UNL A   1      38.430  29.932  32.127  1.00  0.00     0.131 A 
ATOM     60  C   UNL A   1      36.677  31.719  30.954  1.00  0.00     0.055 A 
ATOM     61  C   UNL A   1      37.263  30.296  32.800  1.00  0.00     0.041 A 
ATOM     62  F   UNL A   1      39.283  29.114  32.762  1.00  0.00    -0.206 F 
ATOM     63  C   UNL A   1      36.386  31.207  32.221  1.00  0.00     0.022 A 
BRANCH  60  64
ATOM     64  S   UNL A   1      35.678  33.072  30.273  1.00  0.00     0.124 S 
ATOM     65  O   UNL A   1      36.344  33.318  28.996  1.00  0.00    -0.237 OA
ATOM     66  O   UNL A   1      34.350  32.476  30.196  1.00  0.00    -0.237 OA
ATOM     67  O   UNL A   1      35.827  34.139  31.260  1.00  0.00    -0.744 OA
ENDBRANCH  60  64
ENDBRANCH  43  57
BRANCH  44  68
ATOM     68  C   UNL A   1      47.044  27.371  26.142  1.00  0.00     0.023 A 
ATOM     69  C   UNL A   1      48.181  26.896  26.815  1.00  0.00     0.031 A 
ATOM     70  C   UNL A   1      47.123  27.518  24.745  1.00  0.00     0.131 A 
ATOM     71  C   UNL A   1      49.361  26.634  26.099  1.00  0.00     0.055 A 
ATOM     72  C   UNL A   1      48.279  27.196  24.030  1.00  0.00     0.041 A 
ATOM     73  F   UNL A   1      46.074  27.985  24.048  1.00  0.00    -0.206 F 
ATOM     74  C   UNL A   1      49.413  26.765  24.710  1.00  0.00     0.022 A 
BRANCH  71  75
ATOM     75  S   UNL A   1      50.869  26.225  27.024  1.00  0.00     0.124 S 
ATOM     76  O   UNL A   1      50.832  24.767  27.017  1.00  0.00    -0.237 OA
ATOM     77  O   UNL A   1      51.906  26.846  26.206  1.00  0.00    -0.237 OA
ATOM     78  O   UNL A   1      50.649  26.849  28.327  1.00  0.00    -0.744 OA
ENDBRANCH  71  75
ENDBRANCH  44  68
BRANCH  56  79
ATOM     79  C   UNL A   1      45.118  33.374  29.163  1.00  0.00     0.023 A 
ATOM     80  C   UNL A   1      45.086  34.414  28.217  1.00  0.00     0.031 A 
ATOM     81  C   UNL A   1      45.825  33.594  30.361  1.00  0.00     0.131 A 
ATOM     82  C   UNL A   1      45.778  35.610  28.469  1.00  0.00     0.055 A 
ATOM     83  C   UNL A   1      46.461  34.806  30.632  1.00  0.00     0.041 A 
ATOM     84  F   UNL A   1      45.891  32.635  31.299  1.00  0.00    -0.206 F 
ATOM     85  C   UNL A   1      46.447  35.819  29.679  1.00  0.00     0.022 A 
BRANCH  82  86
ATOM     86  S   UNL A   1      45.850  36.873  27.169  1.00  0.00     0.124 S 
ATOM     87  O   UNL A   1      46.800  37.829  27.726  1.00  0.00    -0.237 OA
ATOM     88  O   UNL A   1      46.315  36.109  26.016  1.00  0.00    -0.237 OA
ATOM     89  O   UNL A   1      44.471  37.351  27.077  1.00  0.00    -0.744 OA
ENDBRANCH  82  86
ENDBRANCH  56  79
ENDBRANCH  30  31
ENDBRANCH  23  25
ENDBRANCH  22  23
ENDBRANCH   1  22
TORSDOF 16
ENDMDL
MODEL 3
REMARK VINA RESULT:     -11.6      5.134     10.230
REMARK SMILES CCc1ccc2c(c1)C=C(C(=O)OCCOC(=O)c1ccc(-c3c4nc(c(-c5cc(S(=O)(=O)[O-])ccc5F)c5ccc([nH]5)c(-c5cc(S(=O)(=O)[O-])ccc5F)c5nc(c(-c6cc(S(=O)(=O)[O-])ccc6F)c6ccc3[nH]6)C=C5)C=C4)cc1)[C@H](C(F)(F)F)O2
REMARK SMILES IDX 15 1 14 2 13 3 11 4 12 5 10 6 3 7 4 8 8 9 5 10 7 11 6 12
REMARK SMILES IDX 9 13 87 14 82 15 2 16 1 17 83 18 84 19 85 20 86 21 16 22
REMARK SMILES IDX 17 23 18 24 19 25 20 26 81 27 21 28 80 29 22 30 23 31 24 32
REMARK SMILES IDX 74 33 25 34 79 35 73 36 75 37 26 38 78 39 72 40 71 41 27 43
REMARK SMILES IDX 59 44 39 45 58 46 40 47 43 48 57 49 76 50 41 51 42 52 56 54
REMARK SMILES IDX 77 55 44 56 28 57 29 58 37 59 30 60 36 61 38 62 35 63 31 64
REMARK SMILES IDX 32 65 33 66 34 67 60 68 61 69 69 70 62 71 68 72 70 73 67 74
REMARK SMILES IDX 63 75 64 76 65 77 66 78 45 79 46 80 54 81 47 82 53 83 55 84
REMARK SMILES IDX 52 85 48 86 49 87 50 88 51 89
REMARK H PARENT 75 42 43 53
REMARK Flexibility Score: inf
ROOT
ATOM      1  C   UNL A   1      32.022  30.459  25.795  1.00  0.00     0.275 C 
ENDROOT
BRANCH   1   2
ATOM      2  C   UNL A   1      32.177  29.213  24.919  1.00  0.00     0.275 C 
BRANCH   2   3
ATOM      3  O   UNL A   1      31.153  28.234  25.194  1.00  0.00    -0.459 OA
BRANCH   3   4
ATOM      4  C   UNL A   1      31.502  27.218  26.029  1.00  0.00     0.338 C 
ATOM      5  O   UNL A   1      31.213  27.153  27.207  1.00  0.00    -0.246 OA
BRANCH   4   6
ATOM      6  C   UNL A   1      32.286  26.172  25.326  1.00  0.00     0.087 C 
ATOM      7  C   UNL A   1      36.154  23.290  24.875  1.00  0.00    -0.047 A 
ATOM      8  C   UNL A   1      35.530  22.656  23.791  1.00  0.00     0.007 A 
ATOM      9  C   UNL A   1      35.493  24.352  25.517  1.00  0.00     0.015 A 
ATOM     10  C   UNL A   1      34.240  23.020  23.410  1.00  0.00     0.047 A 
ATOM     11  C   UNL A   1      34.199  24.722  25.134  1.00  0.00     0.018 A 
ATOM     12  C   UNL A   1      33.574  24.030  24.097  1.00  0.00     0.128 A 
ATOM     13  C   UNL A   1      33.460  25.766  25.841  1.00  0.00     0.027 C 
ATOM     14  O   UNL A   1      32.268  24.239  23.762  1.00  0.00    -0.475 OA
ATOM     15  C   UNL A   1      31.750  25.571  24.033  1.00  0.00     0.316 C 
BRANCH   7  16
ATOM     16  C   UNL A   1      37.508  22.812  25.342  1.00  0.00     0.032 C 
ATOM     17  C   UNL A   1      37.763  21.347  25.000  1.00  0.00     0.009 C 
ENDBRANCH   7  16
BRANCH  15  18
ATOM     18  C   UNL A   1      30.223  25.505  23.826  1.00  0.00     0.430 C 
ATOM     19  F   UNL A   1      29.757  26.561  23.125  1.00  0.00    -0.167 F 
ATOM     20  F   UNL A   1      29.897  24.407  23.095  1.00  0.00    -0.167 F 
ATOM     21  F   UNL A   1      29.549  25.420  24.993  1.00  0.00    -0.167 F 
ENDBRANCH  15  18
ENDBRANCH   4   6
ENDBRANCH   3   4
ENDBRANCH   2   3
ENDBRANCH   1   2
BRANCH   1  22
ATOM     22  O   UNL A   1      32.855  30.392  26.965  1.00  0.00    -0.458 OA
BRANCH  22  23
ATOM     23  C   UNL A   1      33.443  31.564  27.312  1.00  0.00     0.338 C 
ATOM     24  O   UNL A   1      32.937  32.673  27.270  1.00  0.00    -0.246 OA
BRANCH  23  25
ATOM     25  C   UNL A   1      34.739  31.293  27.964  1.00  0.00     0.060 A 
ATOM     26  C   UNL A   1      34.882  30.048  28.580  1.00  0.00     0.016 A 
ATOM     27  C   UNL A   1      35.786  32.214  27.993  1.00  0.00     0.016 A 
ATOM     28  C   UNL A   1      36.092  29.675  29.157  1.00  0.00     0.010 A 
ATOM     29  C   UNL A   1      36.986  31.863  28.626  1.00  0.00     0.010 A 
ATOM     30  C   UNL A   1      37.151  30.587  29.195  1.00  0.00    -0.014 A 
BRANCH  30  31
ATOM     31  C   UNL A   1      38.388  30.245  29.939  1.00  0.00     0.031 A 
ATOM     32  C   UNL A   1      39.351  29.269  29.332  1.00  0.00     0.074 A 
ATOM     33  C   UNL A   1      38.662  30.818  31.125  1.00  0.00     0.049 A 
ATOM     34  N   UNL A   1      40.420  28.725  29.850  1.00  0.00    -0.248 NA
ATOM     35  C   UNL A   1      39.071  28.859  27.947  1.00  0.00     0.031 C 
ATOM     36  C   UNL A   1      37.865  31.868  31.759  1.00  0.00     0.029 A 
ATOM     37  N   UNL A   1      39.683  30.588  32.014  1.00  0.00    -0.354 N 
ATOM     38  C   UNL A   1      40.940  27.899  28.859  1.00  0.00     0.074 A 
ATOM     39  C   UNL A   1      40.059  28.009  27.715  1.00  0.00     0.031 C 
ATOM     40  C   UNL A   1      38.412  32.169  32.949  1.00  0.00     0.029 A 
ATOM     41  C   UNL A   1      39.562  31.298  33.188  1.00  0.00     0.049 A 
ATOM     42  H   UNL A   1      40.431  29.975  31.830  1.00  0.00     0.167 HD
ATOM     43  C   UNL A   1      42.047  27.118  28.908  1.00  0.00     0.034 A 
ATOM     44  C   UNL A   1      40.266  31.213  34.336  1.00  0.00     0.034 A 
ATOM     45  C   UNL A   1      42.891  26.998  30.072  1.00  0.00     0.049 A 
ATOM     46  C   UNL A   1      41.403  30.218  34.423  1.00  0.00     0.074 A 
ATOM     47  C   UNL A   1      44.016  26.210  30.242  1.00  0.00     0.029 A 
ATOM     48  N   UNL A   1      42.693  27.670  31.272  1.00  0.00    -0.354 N 
ATOM     49  N   UNL A   1      41.864  29.404  33.500  1.00  0.00    -0.248 NA
ATOM     50  C   UNL A   1      42.110  30.123  35.708  1.00  0.00     0.031 C 
ATOM     51  C   UNL A   1      44.445  26.342  31.567  1.00  0.00     0.029 A 
ATOM     52  C   UNL A   1      43.649  27.284  32.198  1.00  0.00     0.049 A 
ATOM     53  H   UNL A   1      41.976  28.324  31.439  1.00  0.00     0.167 HD
ATOM     54  C   UNL A   1      42.939  28.734  34.082  1.00  0.00     0.074 A 
ATOM     55  C   UNL A   1      43.058  29.238  35.435  1.00  0.00     0.031 C 
ATOM     56  C   UNL A   1      43.759  27.795  33.545  1.00  0.00     0.034 A 
BRANCH  43  57
ATOM     57  C   UNL A   1      42.344  26.270  27.696  1.00  0.00     0.023 A 
ATOM     58  C   UNL A   1      41.941  24.926  27.612  1.00  0.00     0.031 A 
ATOM     59  C   UNL A   1      43.084  26.806  26.626  1.00  0.00     0.131 A 
ATOM     60  C   UNL A   1      42.343  24.145  26.517  1.00  0.00     0.055 A 
ATOM     61  C   UNL A   1      43.408  26.045  25.502  1.00  0.00     0.041 A 
ATOM     62  F   UNL A   1      43.521  28.074  26.665  1.00  0.00    -0.206 F 
ATOM     63  C   UNL A   1      43.052  24.702  25.450  1.00  0.00     0.022 A 
BRANCH  60  64
ATOM     64  S   UNL A   1      42.063  22.353  26.581  1.00  0.00     0.124 S 
ATOM     65  O   UNL A   1      42.733  21.993  27.829  1.00  0.00    -0.237 OA
ATOM     66  O   UNL A   1      40.608  22.261  26.588  1.00  0.00    -0.237 OA
ATOM     67  O   UNL A   1      42.715  21.861  25.369  1.00  0.00    -0.744 OA
ENDBRANCH  60  64
ENDBRANCH  43  57
BRANCH  44  68
ATOM     68  C   UNL A   1      39.881  32.024  35.529  1.00  0.00     0.023 A 
ATOM     69  C   UNL A   1      39.010  31.518  36.508  1.00  0.00     0.031 A 
ATOM     70  C   UNL A   1      40.316  33.356  35.665  1.00  0.00     0.131 A 
ATOM     71  C   UNL A   1      38.563  32.352  37.547  1.00  0.00     0.055 A 
ATOM     72  C   UNL A   1      39.918  34.160  36.734  1.00  0.00     0.041 A 
ATOM     73  F   UNL A   1      41.135  33.901  34.751  1.00  0.00    -0.206 F 
ATOM     74  C   UNL A   1      39.025  33.664  37.677  1.00  0.00     0.022 A 
BRANCH  71  75
ATOM     75  S   UNL A   1      37.279  31.732  38.671  1.00  0.00     0.124 S 
ATOM     76  O   UNL A   1      37.028  30.403  38.126  1.00  0.00    -0.237 OA
ATOM     77  O   UNL A   1      37.956  31.780  39.963  1.00  0.00    -0.237 OA
ATOM     78  O   UNL A   1      36.189  32.691  38.505  1.00  0.00    -0.744 OA
ENDBRANCH  71  75
ENDBRANCH  44  68
BRANCH  56  79
ATOM     79  C   UNL A   1      44.905  27.298  34.394  1.00  0.00     0.023 A 
ATOM     80  C   UNL A   1      44.803  26.146  35.193  1.00  0.00     0.031 A 
ATOM     81  C   UNL A   1      46.136  27.982  34.375  1.00  0.00     0.131 A 
ATOM     82  C   UNL A   1      45.900  25.733  35.967  1.00  0.00     0.055 A 
ATOM     83  C   UNL A   1      47.240  27.534  35.100  1.00  0.00     0.041 A 
ATOM     84  F   UNL A   1      46.289  29.090  33.632  1.00  0.00    -0.206 F 
ATOM     85  C   UNL A   1      47.123  26.409  35.909  1.00  0.00     0.022 A 
BRANCH  82  86
ATOM     86  S   UNL A   1      45.694  24.336  37.106  1.00  0.00     0.124 S 
ATOM     87  O   UNL A   1      44.974  24.951  38.215  1.00  0.00    -0.237 OA
ATOM     88  O   UNL A   1      44.935  23.385  36.300  1.00  0.00    -0.237 OA
ATOM     89  O   UNL A   1      47.067  23.931  37.406  1.00  0.00    -0.744 OA
ENDBRANCH  82  86
ENDBRANCH  56  79
ENDBRANCH  30  31
ENDBRANCH  23  25
ENDBRANCH  22  23
ENDBRANCH   1  22
TORSDOF 16
ENDMDL
