MODEL 1
REMARK VINA RESULT:     -12.4      0.000      0.000
REMARK SMILES O=C(OCCOC(=O)c1ccc(-c2c3nc(c(-c4cc(S(=O)(=O)[O-])ccc4F)c4ccc([nH]4)c(-c4cc(S(=O)(=O)[O-])ccc4F)c4nc(c(-c5cc(S(=O)(=O)[O-])ccc5F)c5ccc2[nH]5)C=C4)C=C3)cc1)C1=Cc2c(ccc(Cl)c2Cl)O[C@H]1C(F)(F)F
REMARK SMILES IDX 5 1 4 2 3 3 2 4 1 5 72 6 73 7 83 8 74 9 82 10 75 11 80 12
REMARK SMILES IDX 76 13 78 14 81 15 77 16 79 17 84 18 85 19 86 20 87 21 6 22
REMARK SMILES IDX 7 23 8 24 9 25 10 26 71 27 11 28 70 29 12 30 13 31 14 32
REMARK SMILES IDX 64 33 15 34 69 35 63 36 65 37 16 38 68 39 62 40 61 41 17 43
REMARK SMILES IDX 49 44 29 45 48 46 30 47 33 48 47 49 66 50 31 51 32 52 46 54
REMARK SMILES IDX 67 55 34 56 18 57 19 58 27 59 20 60 26 61 28 62 25 63 21 64
REMARK SMILES IDX 22 65 23 66 24 67 50 68 51 69 59 70 52 71 58 72 60 73 57 74
REMARK SMILES IDX 53 75 54 76 55 77 56 78 35 79 36 80 44 81 37 82 43 83 45 84
REMARK SMILES IDX 42 85 38 86 39 87 40 88 41 89
REMARK H PARENT 65 42 33 53
REMARK Flexibility Score: inf
ROOT
ATOM      1  C   UNL A   1      31.741  32.760  26.879  1.00  0.00     0.275 C 
ENDROOT
BRANCH   1   2
ATOM      2  C   UNL A   1      31.796  31.225  26.871  1.00  0.00     0.275 C 
BRANCH   2   3
ATOM      3  O   UNL A   1      31.336  30.612  25.646  1.00  0.00    -0.459 OA
BRANCH   3   4
ATOM      4  C   UNL A   1      31.926  29.666  24.884  1.00  0.00     0.338 C 
ATOM      5  O   UNL A   1      33.145  29.702  24.731  1.00  0.00    -0.246 OA
BRANCH   4   6
ATOM      6  C   UNL A   1      31.172  28.556  24.252  1.00  0.00     0.087 C 
ATOM      7  C   UNL A   1      31.206  27.286  24.684  1.00  0.00     0.029 C 
ATOM      8  C   UNL A   1      30.688  28.868  22.844  1.00  0.00     0.316 C 
ATOM      9  C   UNL A   1      31.689  26.334  23.667  1.00  0.00     0.037 A 
ATOM     10  O   UNL A   1      30.763  27.743  21.921  1.00  0.00    -0.475 OA
ATOM     11  C   UNL A   1      31.488  26.656  22.322  1.00  0.00     0.129 A 
ATOM     12  C   UNL A   1      32.412  25.173  24.008  1.00  0.00     0.070 A 
ATOM     13  C   UNL A   1      32.010  25.847  21.318  1.00  0.00     0.049 A 
ATOM     14  C   UNL A   1      32.976  24.390  22.993  1.00  0.00     0.060 A 
ATOM     15  Cl  UNL A   1      32.613  24.720  25.673  1.00  0.00    -0.082 Cl
ATOM     16  C   UNL A   1      32.776  24.731  21.653  1.00  0.00     0.026 A 
ATOM     17  Cl  UNL A   1      33.954  23.002  23.326  1.00  0.00    -0.083 Cl
BRANCH   8  18
ATOM     18  C   UNL A   1      29.243  29.393  22.893  1.00  0.00     0.430 C 
ATOM     19  F   UNL A   1      28.374  28.455  23.323  1.00  0.00    -0.167 F 
ATOM     20  F   UNL A   1      29.133  30.459  23.718  1.00  0.00    -0.167 F 
ATOM     21  F   UNL A   1      28.828  29.787  21.662  1.00  0.00    -0.167 F 
ENDBRANCH   8  18
ENDBRANCH   4   6
ENDBRANCH   3   4
ENDBRANCH   2   3
ENDBRANCH   1   2
BRANCH   1  22
ATOM     22  O   UNL A   1      33.043  33.350  26.901  1.00  0.00    -0.458 OA
BRANCH  22  23
ATOM     23  C   UNL A   1      33.433  33.722  28.147  1.00  0.00     0.338 C 
ATOM     24  O   UNL A   1      32.777  34.380  28.939  1.00  0.00    -0.246 OA
BRANCH  23  25
ATOM     25  C   UNL A   1      34.690  33.027  28.483  1.00  0.00     0.060 A 
ATOM     26  C   UNL A   1      34.588  31.715  28.951  1.00  0.00     0.016 A 
ATOM     27  C   UNL A   1      35.942  33.638  28.342  1.00  0.00     0.016 A 
ATOM     28  C   UNL A   1      35.733  31.029  29.344  1.00  0.00     0.010 A 
ATOM     29  C   UNL A   1      37.091  32.943  28.724  1.00  0.00     0.010 A 
ATOM     30  C   UNL A   1      36.986  31.651  29.268  1.00  0.00    -0.014 A 
BRANCH  30  31
ATOM     31  C   UNL A   1      38.150  30.998  29.914  1.00  0.00     0.031 A 
ATOM     32  C   UNL A   1      38.442  31.320  31.354  1.00  0.00     0.074 A 
ATOM     33  C   UNL A   1      38.885  30.087  29.249  1.00  0.00     0.049 A 
ATOM     34  N   UNL A   1      39.362  30.832  32.143  1.00  0.00    -0.248 NA
ATOM     35  C   UNL A   1      37.579  32.328  31.993  1.00  0.00     0.031 C 
ATOM     36  C   UNL A   1      38.666  29.677  27.863  1.00  0.00     0.029 A 
ATOM     37  N   UNL A   1      39.961  29.338  29.652  1.00  0.00    -0.354 N 
ATOM     38  C   UNL A   1      39.182  31.461  33.370  1.00  0.00     0.074 A 
ATOM     39  C   UNL A   1      38.101  32.408  33.206  1.00  0.00     0.031 C 
ATOM     40  C   UNL A   1      39.584  28.756  27.527  1.00  0.00     0.029 A 
ATOM     41  C   UNL A   1      40.470  28.524  28.666  1.00  0.00     0.049 A 
ATOM     42  H   UNL A   1      40.334  29.378  30.563  1.00  0.00     0.167 HD
ATOM     43  C   UNL A   1      39.844  31.250  34.533  1.00  0.00     0.034 A 
ATOM     44  C   UNL A   1      41.536  27.698  28.682  1.00  0.00     0.034 A 
ATOM     45  C   UNL A   1      40.922  30.305  34.676  1.00  0.00     0.049 A 
ATOM     46  C   UNL A   1      42.315  27.552  29.969  1.00  0.00     0.074 A 
ATOM     47  C   UNL A   1      41.642  29.986  35.812  1.00  0.00     0.029 A 
ATOM     48  N   UNL A   1      41.445  29.538  33.643  1.00  0.00    -0.354 N 
ATOM     49  N   UNL A   1      42.093  28.110  31.139  1.00  0.00    -0.248 NA
ATOM     50  C   UNL A   1      43.477  26.654  29.946  1.00  0.00     0.031 C 
ATOM     51  C   UNL A   1      42.651  29.087  35.451  1.00  0.00     0.029 A 
ATOM     52  C   UNL A   1      42.511  28.783  34.106  1.00  0.00     0.049 A 
ATOM     53  H   UNL A   1      41.108  29.531  32.718  1.00  0.00     0.167 HD
ATOM     54  C   UNL A   1      43.069  27.602  31.994  1.00  0.00     0.074 A 
ATOM     55  C   UNL A   1      43.864  26.678  31.212  1.00  0.00     0.031 C 
ATOM     56  C   UNL A   1      43.293  27.872  33.305  1.00  0.00     0.034 A 
BRANCH  43  57
ATOM     57  C   UNL A   1      39.449  32.089  35.723  1.00  0.00     0.023 A 
ATOM     58  C   UNL A   1      38.628  31.584  36.747  1.00  0.00     0.031 A 
ATOM     59  C   UNL A   1      39.891  33.419  35.826  1.00  0.00     0.131 A 
ATOM     60  C   UNL A   1      38.231  32.421  37.801  1.00  0.00     0.055 A 
ATOM     61  C   UNL A   1      39.551  34.225  36.914  1.00  0.00     0.041 A 
ATOM     62  F   UNL A   1      40.655  33.962  34.866  1.00  0.00    -0.206 F 
ATOM     63  C   UNL A   1      38.706  33.730  37.904  1.00  0.00     0.022 A 
BRANCH  60  64
ATOM     64  S   UNL A   1      36.988  31.813  38.974  1.00  0.00     0.124 S 
ATOM     65  O   UNL A   1      37.664  32.021  40.253  1.00  0.00    -0.237 OA
ATOM     66  O   UNL A   1      35.848  32.679  38.706  1.00  0.00    -0.237 OA
ATOM     67  O   UNL A   1      36.812  30.413  38.592  1.00  0.00    -0.744 OA
ENDBRANCH  60  64
ENDBRANCH  43  57
BRANCH  44  68
ATOM     68  C   UNL A   1      41.970  26.978  27.448  1.00  0.00     0.023 A 
ATOM     69  C   UNL A   1      41.788  25.592  27.307  1.00  0.00     0.031 A 
ATOM     70  C   UNL A   1      42.668  27.653  26.429  1.00  0.00     0.131 A 
ATOM     71  C   UNL A   1      42.357  24.917  26.216  1.00  0.00     0.055 A 
ATOM     72  C   UNL A   1      43.176  26.987  25.313  1.00  0.00     0.041 A 
ATOM     73  F   UNL A   1      42.879  28.976  26.511  1.00  0.00    -0.206 F 
ATOM     74  C   UNL A   1      43.040  25.607  25.211  1.00  0.00     0.022 A 
BRANCH  71  75
ATOM     75  S   UNL A   1      42.314  23.102  26.198  1.00  0.00     0.124 S 
ATOM     76  O   UNL A   1      40.907  22.836  26.474  1.00  0.00    -0.237 OA
ATOM     77  O   UNL A   1      42.771  22.802  24.846  1.00  0.00    -0.237 OA
ATOM     78  O   UNL A   1      43.241  22.730  27.265  1.00  0.00    -0.744 OA
ENDBRANCH  71  75
ENDBRANCH  44  68
BRANCH  56  79
ATOM     79  C   UNL A   1      44.423  27.131  33.975  1.00  0.00     0.023 A 
ATOM     80  C   UNL A   1      44.236  25.858  34.540  1.00  0.00     0.031 A 
ATOM     81  C   UNL A   1      45.705  27.706  34.049  1.00  0.00     0.131 A 
ATOM     82  C   UNL A   1      45.299  25.223  35.199  1.00  0.00     0.055 A 
ATOM     83  C   UNL A   1      46.775  27.042  34.648  1.00  0.00     0.041 A 
ATOM     84  F   UNL A   1      45.940  28.921  33.528  1.00  0.00    -0.206 F 
ATOM     85  C   UNL A   1      46.572  25.797  35.240  1.00  0.00     0.022 A 
BRANCH  82  86
ATOM     86  S   UNL A   1      44.973  23.672  36.079  1.00  0.00     0.124 S 
ATOM     87  O   UNL A   1      44.921  24.115  37.468  1.00  0.00    -0.237 OA
ATOM     88  O   UNL A   1      43.703  23.244  35.500  1.00  0.00    -0.237 OA
ATOM     89  O   UNL A   1      46.122  22.835  35.737  1.00  0.00    -0.744 OA
ENDBRANCH  82  86
ENDBRANCH  56  79
ENDBRANCH  30  31
ENDBRANCH  23  25
ENDBRANCH  22  23
ENDBRANCH   1  22
TORSDOF 15
ENDMDL
MODEL 2
REMARK VINA RESULT:     -12.3      5.309     10.730
REMARK SMILES O=C(OCCOC(=O)c1ccc(-c2c3nc(c(-c4cc(S(=O)(=O)[O-])ccc4F)c4ccc([nH]4)c(-c4cc(S(=O)(=O)[O-])ccc4F)c4nc(c(-c5cc(S(=O)(=O)[O-])ccc5F)c5ccc2[nH]5)C=C4)C=C3)cc1)C1=Cc2c(ccc(Cl)c2Cl)O[C@H]1C(F)(F)F
REMARK SMILES IDX 5 1 4 2 3 3 2 4 1 5 72 6 73 7 83 8 74 9 82 10 75 11 80 12
REMARK SMILES IDX 76 13 78 14 81 15 77 16 79 17 84 18 85 19 86 20 87 21 6 22
REMARK SMILES IDX 7 23 8 24 9 25 10 26 71 27 11 28 70 29 12 30 13 31 14 32
REMARK SMILES IDX 64 33 15 34 69 35 63 36 65 37 16 38 68 39 62 40 61 41 17 43
REMARK SMILES IDX 49 44 29 45 48 46 30 47 33 48 47 49 66 50 31 51 32 52 46 54
REMARK SMILES IDX 67 55 34 56 18 57 19 58 27 59 20 60 26 61 28 62 25 63 21 64
REMARK SMILES IDX 22 65 23 66 24 67 50 68 51 69 59 70 52 71 58 72 60 73 57 74
REMARK SMILES IDX 53 75 54 76 55 77 56 78 35 79 36 80 44 81 37 82 43 83 45 84
REMARK SMILES IDX 42 85 38 86 39 87 40 88 41 89
REMARK H PARENT 65 42 33 53
REMARK Flexibility Score: inf
ROOT
ATOM      1  C   UNL A   1      38.029  20.155  25.173  1.00  0.00     0.275 C 
ENDROOT
BRANCH   1   2
ATOM      2  C   UNL A   1      36.562  20.535  24.917  1.00  0.00     0.275 C 
BRANCH   2   3
ATOM      3  O   UNL A   1      36.321  21.954  24.790  1.00  0.00    -0.459 OA
BRANCH   3   4
ATOM      4  C   UNL A   1      35.638  22.627  23.840  1.00  0.00     0.338 C 
ATOM      5  O   UNL A   1      36.220  22.953  22.808  1.00  0.00    -0.246 OA
BRANCH   4   6
ATOM      6  C   UNL A   1      34.198  22.960  23.967  1.00  0.00     0.087 C 
ATOM      7  C   UNL A   1      33.570  23.874  23.211  1.00  0.00     0.029 C 
ATOM      8  C   UNL A   1      33.576  22.498  25.276  1.00  0.00     0.316 C 
ATOM      9  C   UNL A   1      32.963  24.965  23.995  1.00  0.00     0.037 A 
ATOM     10  O   UNL A   1      32.606  23.429  25.841  1.00  0.00    -0.475 OA
ATOM     11  C   UNL A   1      32.567  24.686  25.306  1.00  0.00     0.129 A 
ATOM     12  C   UNL A   1      32.856  26.279  23.496  1.00  0.00     0.070 A 
ATOM     13  C   UNL A   1      32.081  25.700  26.126  1.00  0.00     0.049 A 
ATOM     14  C   UNL A   1      32.412  27.303  24.343  1.00  0.00     0.060 A 
ATOM     15  Cl  UNL A   1      33.278  26.630  21.849  1.00  0.00    -0.082 Cl
ATOM     16  C   UNL A   1      32.030  27.010  25.654  1.00  0.00     0.026 A 
ATOM     17  Cl  UNL A   1      32.338  28.956  23.839  1.00  0.00    -0.083 Cl
BRANCH   8  18
ATOM     18  C   UNL A   1      32.912  21.124  25.084  1.00  0.00     0.430 C 
ATOM     19  F   UNL A   1      33.299  20.235  26.022  1.00  0.00    -0.167 F 
ATOM     20  F   UNL A   1      31.563  21.215  25.141  1.00  0.00    -0.167 F 
ATOM     21  F   UNL A   1      33.233  20.595  23.875  1.00  0.00    -0.167 F 
ENDBRANCH   8  18
ENDBRANCH   4   6
ENDBRANCH   3   4
ENDBRANCH   2   3
ENDBRANCH   1   2
BRANCH   1  22
ATOM     22  O   UNL A   1      38.859  21.301  25.377  1.00  0.00    -0.458 OA
BRANCH  22  23
ATOM     23  C   UNL A   1      39.817  21.098  26.317  1.00  0.00     0.338 C 
ATOM     24  O   UNL A   1      40.415  20.053  26.518  1.00  0.00    -0.246 OA
BRANCH  23  25
ATOM     25  C   UNL A   1      40.179  22.394  26.921  1.00  0.00     0.060 A 
ATOM     26  C   UNL A   1      39.461  23.517  26.499  1.00  0.00     0.016 A 
ATOM     27  C   UNL A   1      41.192  22.515  27.880  1.00  0.00     0.016 A 
ATOM     28  C   UNL A   1      39.798  24.776  26.985  1.00  0.00     0.010 A 
ATOM     29  C   UNL A   1      41.518  23.779  28.376  1.00  0.00     0.010 A 
ATOM     30  C   UNL A   1      40.851  24.919  27.897  1.00  0.00    -0.014 A 
BRANCH  30  31
ATOM     31  C   UNL A   1      41.347  26.281  28.210  1.00  0.00     0.031 A 
ATOM     32  C   UNL A   1      42.738  26.654  27.773  1.00  0.00     0.074 A 
ATOM     33  C   UNL A   1      40.548  27.184  28.808  1.00  0.00     0.049 A 
ATOM     34  N   UNL A   1      43.363  27.797  27.881  1.00  0.00    -0.248 NA
ATOM     35  C   UNL A   1      43.532  25.596  27.126  1.00  0.00     0.031 C 
ATOM     36  C   UNL A   1      39.173  26.937  29.240  1.00  0.00     0.029 A 
ATOM     37  N   UNL A   1      40.774  28.493  29.150  1.00  0.00    -0.354 N 
ATOM     38  C   UNL A   1      44.614  27.600  27.307  1.00  0.00     0.074 A 
ATOM     39  C   UNL A   1      44.681  26.213  26.902  1.00  0.00     0.031 C 
ATOM     40  C   UNL A   1      38.680  28.055  29.797  1.00  0.00     0.029 A 
ATOM     41  C   UNL A   1      39.708  29.093  29.782  1.00  0.00     0.049 A 
ATOM     42  H   UNL A   1      41.620  28.960  28.961  1.00  0.00     0.167 HD
ATOM     43  C   UNL A   1      45.606  28.501  27.114  1.00  0.00     0.034 A 
ATOM     44  C   UNL A   1      39.587  30.333  30.297  1.00  0.00     0.034 A 
ATOM     45  C   UNL A   1      45.522  29.878  27.528  1.00  0.00     0.049 A 
ATOM     46  C   UNL A   1      40.747  31.291  30.150  1.00  0.00     0.074 A 
ATOM     47  C   UNL A   1      46.452  30.887  27.356  1.00  0.00     0.029 A 
ATOM     48  N   UNL A   1      44.451  30.436  28.212  1.00  0.00    -0.354 N 
ATOM     49  N   UNL A   1      41.902  31.107  29.549  1.00  0.00    -0.248 NA
ATOM     50  C   UNL A   1      40.584  32.628  30.735  1.00  0.00     0.031 C 
ATOM     51  C   UNL A   1      45.979  32.032  28.005  1.00  0.00     0.029 A 
ATOM     52  C   UNL A   1      44.718  31.763  28.512  1.00  0.00     0.049 A 
ATOM     53  H   UNL A   1      43.622  29.960  28.449  1.00  0.00     0.167 HD
ATOM     54  C   UNL A   1      42.585  32.316  29.657  1.00  0.00     0.074 A 
ATOM     55  C   UNL A   1      41.704  33.227  30.359  1.00  0.00     0.031 C 
ATOM     56  C   UNL A   1      43.825  32.650  29.220  1.00  0.00     0.034 A 
BRANCH  43  57
ATOM     57  C   UNL A   1      46.879  28.011  26.469  1.00  0.00     0.023 A 
ATOM     58  C   UNL A   1      47.087  28.096  25.081  1.00  0.00     0.031 A 
ATOM     59  C   UNL A   1      47.893  27.438  27.255  1.00  0.00     0.131 A 
ATOM     60  C   UNL A   1      48.257  27.566  24.516  1.00  0.00     0.055 A 
ATOM     61  C   UNL A   1      49.086  26.978  26.695  1.00  0.00     0.041 A 
ATOM     62  F   UNL A   1      47.738  27.308  28.582  1.00  0.00    -0.206 F 
ATOM     63  C   UNL A   1      49.269  27.030  25.316  1.00  0.00     0.022 A 
BRANCH  60  64
ATOM     64  S   UNL A   1      48.390  27.480  22.709  1.00  0.00     0.124 S 
ATOM     65  O   UNL A   1      49.660  28.163  22.474  1.00  0.00    -0.237 OA
ATOM     66  O   UNL A   1      48.380  26.045  22.458  1.00  0.00    -0.237 OA
ATOM     67  O   UNL A   1      47.207  28.203  22.244  1.00  0.00    -0.744 OA
ENDBRANCH  60  64
ENDBRANCH  43  57
BRANCH  44  68
ATOM     68  C   UNL A   1      38.356  30.742  31.038  1.00  0.00     0.023 A 
ATOM     69  C   UNL A   1      37.274  31.348  30.380  1.00  0.00     0.031 A 
ATOM     70  C   UNL A   1      38.287  30.621  32.438  1.00  0.00     0.131 A 
ATOM     71  C   UNL A   1      36.207  31.875  31.124  1.00  0.00     0.055 A 
ATOM     72  C   UNL A   1      37.193  31.089  33.168  1.00  0.00     0.041 A 
ATOM     73  F   UNL A   1      39.294  30.056  33.124  1.00  0.00    -0.206 F 
ATOM     74  C   UNL A   1      36.153  31.739  32.514  1.00  0.00     0.022 A 
BRANCH  71  75
ATOM     75  S   UNL A   1      34.953  32.867  30.264  1.00  0.00     0.124 S 
ATOM     76  O   UNL A   1      34.028  33.181  31.346  1.00  0.00    -0.237 OA
ATOM     77  O   UNL A   1      35.746  33.980  29.753  1.00  0.00    -0.237 OA
ATOM     78  O   UNL A   1      34.437  31.953  29.246  1.00  0.00    -0.744 OA
ENDBRANCH  71  75
ENDBRANCH  44  68
BRANCH  56  79
ATOM     79  C   UNL A   1      44.282  34.067  29.463  1.00  0.00     0.023 A 
ATOM     80  C   UNL A   1      44.002  35.097  28.549  1.00  0.00     0.031 A 
ATOM     81  C   UNL A   1      45.005  34.391  30.625  1.00  0.00     0.131 A 
ATOM     82  C   UNL A   1      44.487  36.391  28.786  1.00  0.00     0.055 A 
ATOM     83  C   UNL A   1      45.429  35.693  30.887  1.00  0.00     0.041 A 
ATOM     84  F   UNL A   1      45.302  33.446  31.531  1.00  0.00    -0.206 F 
ATOM     85  C   UNL A   1      45.182  36.701  29.958  1.00  0.00     0.022 A 
BRANCH  82  86
ATOM     86  S   UNL A   1      44.273  37.649  27.498  1.00  0.00     0.124 S 
ATOM     87  O   UNL A   1      45.529  37.549  26.763  1.00  0.00    -0.237 OA
ATOM     88  O   UNL A   1      43.084  37.177  26.794  1.00  0.00    -0.237 OA
ATOM     89  O   UNL A   1      44.093  38.888  28.254  1.00  0.00    -0.744 OA
ENDBRANCH  82  86
ENDBRANCH  56  79
ENDBRANCH  30  31
ENDBRANCH  23  25
ENDBRANCH  22  23
ENDBRANCH   1  22
TORSDOF 15
ENDMDL
MODEL 3
REMARK VINA RESULT:     -12.3      5.308     10.740
REMARK SMILES O=C(OCCOC(=O)c1ccc(-c2c3nc(c(-c4cc(S(=O)(=O)[O-])ccc4F)c4ccc([nH]4)c(-c4cc(S(=O)(=O)[O-])ccc4F)c4nc(c(-c5cc(S(=O)(=O)[O-])ccc5F)c5ccc2[nH]5)C=C4)C=C3)cc1)C1=Cc2c(ccc(Cl)c2Cl)O[C@H]1C(F)(F)F
REMARK SMILES IDX 5 1 4 2 3 3 2 4 1 5 72 6 73 7 83 8 74 9 82 10 75 11 80 12
REMARK SMILES IDX 76 13 78 14 81 15 77 16 79 17 84 18 85 19 86 20 87 21 6 22
REMARK SMILES IDX 7 23 8 24 9 25 10 26 71 27 11 28 70 29 12 30 13 31 14 32
REMARK SMILES IDX 64 33 15 34 69 35 63 36 65 37 16 38 68 39 62 40 61 41 17 43
REMARK SMILES IDX 49 44 29 45 48 46 30 47 33 48 47 49 66 50 31 51 32 52 46 54
REMARK SMILES IDX 67 55 34 56 18 57 19 58 27 59 20 60 26 61 28 62 25 63 21 64
REMARK SMILES IDX 22 65 23 66 24 67 50 68 51 69 59 70 52 71 58 72 60 73 57 74
REMARK SMILES IDX 53 75 54 76 55 77 56 78 35 79 36 80 44 81 37 82 43 83 45 84
REMARK SMILES IDX 42 85 38 86 39 87 40 88 41 89
REMARK H PARENT 65 42 33 53
REMARK Flexibility Score: inf
ROOT
ATOM      1  C   UNL A   1      37.442  20.338  24.991  1.00  0.00     0.275 C 
ENDROOT
BRANCH   1   2
ATOM      2  C   UNL A   1      36.026  20.794  25.378  1.00  0.00     0.275 C 
BRANCH   2   3
ATOM      3  O   UNL A   1      35.950  22.136  25.909  1.00  0.00    -0.459 OA
BRANCH   3   4
ATOM      4  C   UNL A   1      34.867  22.855  26.272  1.00  0.00     0.338 C 
ATOM      5  O   UNL A   1      34.491  22.814  27.441  1.00  0.00    -0.246 OA
BRANCH   4   6
ATOM      6  C   UNL A   1      34.128  23.730  25.329  1.00  0.00     0.087 C 
ATOM      7  C   UNL A   1      34.262  25.064  25.282  1.00  0.00     0.029 C 
ATOM      8  C   UNL A   1      32.911  23.065  24.703  1.00  0.00     0.316 C 
ATOM      9  C   UNL A   1      33.001  25.789  25.526  1.00  0.00     0.037 A 
ATOM     10  O   UNL A   1      31.764  23.949  24.537  1.00  0.00    -0.475 OA
ATOM     11  C   UNL A   1      31.805  25.150  25.188  1.00  0.00     0.129 A 
ATOM     12  C   UNL A   1      32.968  27.047  26.159  1.00  0.00     0.070 A 
ATOM     13  C   UNL A   1      30.582  25.742  25.486  1.00  0.00     0.049 A 
ATOM     14  C   UNL A   1      31.733  27.614  26.500  1.00  0.00     0.060 A 
ATOM     15  Cl  UNL A   1      34.444  27.886  26.524  1.00  0.00    -0.082 Cl
ATOM     16  C   UNL A   1      30.546  26.959  26.166  1.00  0.00     0.026 A 
ATOM     17  Cl  UNL A   1      31.606  29.110  27.359  1.00  0.00    -0.083 Cl
BRANCH   8  18
ATOM     18  C   UNL A   1      33.290  22.459  23.340  1.00  0.00     0.430 C 
ATOM     19  F   UNL A   1      34.582  22.681  23.025  1.00  0.00    -0.167 F 
ATOM     20  F   UNL A   1      33.090  21.122  23.323  1.00  0.00    -0.167 F 
ATOM     21  F   UNL A   1      32.538  22.996  22.345  1.00  0.00    -0.167 F 
ENDBRANCH   8  18
ENDBRANCH   4   6
ENDBRANCH   3   4
ENDBRANCH   2   3
ENDBRANCH   1   2
BRANCH   1  22
ATOM     22  O   UNL A   1      38.405  21.387  25.122  1.00  0.00    -0.458 OA
BRANCH  22  23
ATOM     23  C   UNL A   1      39.373  21.103  26.031  1.00  0.00     0.338 C 
ATOM     24  O   UNL A   1      39.905  20.017  26.197  1.00  0.00    -0.246 OA
BRANCH  23  25
ATOM     25  C   UNL A   1      39.838  22.361  26.645  1.00  0.00     0.060 A 
ATOM     26  C   UNL A   1      39.213  23.541  26.232  1.00  0.00     0.016 A 
ATOM     27  C   UNL A   1      40.856  22.392  27.605  1.00  0.00     0.016 A 
ATOM     28  C   UNL A   1      39.650  24.765  26.727  1.00  0.00     0.010 A 
ATOM     29  C   UNL A   1      41.283  23.621  28.112  1.00  0.00     0.010 A 
ATOM     30  C   UNL A   1      40.711  24.816  27.641  1.00  0.00    -0.014 A 
BRANCH  30  31
ATOM     31  C   UNL A   1      41.315  26.131  27.965  1.00  0.00     0.031 A 
ATOM     32  C   UNL A   1      42.696  26.430  27.447  1.00  0.00     0.074 A 
ATOM     33  C   UNL A   1      40.619  27.059  28.647  1.00  0.00     0.049 A 
ATOM     34  N   UNL A   1      43.400  27.526  27.550  1.00  0.00    -0.248 NA
ATOM     35  C   UNL A   1      43.373  25.350  26.711  1.00  0.00     0.031 C 
ATOM     36  C   UNL A   1      39.263  26.883  29.164  1.00  0.00     0.029 A 
ATOM     37  N   UNL A   1      40.953  28.336  29.017  1.00  0.00    -0.354 N 
ATOM     38  C   UNL A   1      44.595  27.273  26.884  1.00  0.00     0.074 A 
ATOM     39  C   UNL A   1      44.543  25.901  26.429  1.00  0.00     0.031 C 
ATOM     40  C   UNL A   1      38.883  28.008  29.792  1.00  0.00     0.029 A 
ATOM     41  C   UNL A   1      39.974  28.978  29.740  1.00  0.00     0.049 A 
ATOM     42  H   UNL A   1      41.814  28.756  28.786  1.00  0.00     0.167 HD
ATOM     43  C   UNL A   1      45.629  28.116  26.654  1.00  0.00     0.034 A 
ATOM     44  C   UNL A   1      39.969  30.203  30.305  1.00  0.00     0.034 A 
ATOM     45  C   UNL A   1      45.664  29.479  27.119  1.00  0.00     0.049 A 
ATOM     46  C   UNL A   1      41.177  31.091  30.111  1.00  0.00     0.074 A 
ATOM     47  C   UNL A   1      46.644  30.433  26.918  1.00  0.00     0.029 A 
ATOM     48  N   UNL A   1      44.679  30.077  27.894  1.00  0.00    -0.354 N 
ATOM     49  N   UNL A   1      42.275  30.856  29.425  1.00  0.00    -0.248 NA
ATOM     50  C   UNL A   1      41.142  32.412  30.750  1.00  0.00     0.031 C 
ATOM     51  C   UNL A   1      46.292  31.580  27.636  1.00  0.00     0.029 A 
ATOM     52  C   UNL A   1      45.052  31.371  28.220  1.00  0.00     0.049 A 
ATOM     53  H   UNL A   1      43.838  29.646  28.171  1.00  0.00     0.167 HD
ATOM     54  C   UNL A   1      43.041  32.015  29.527  1.00  0.00     0.074 A 
ATOM     55  C   UNL A   1      42.271  32.953  30.318  1.00  0.00     0.031 C 
ATOM     56  C   UNL A   1      44.269  32.286  29.017  1.00  0.00     0.034 A 
BRANCH  43  57
ATOM     57  C   UNL A   1      46.821  27.571  25.907  1.00  0.00     0.023 A 
ATOM     58  C   UNL A   1      47.076  27.915  24.567  1.00  0.00     0.031 A 
ATOM     59  C   UNL A   1      47.706  26.684  26.542  1.00  0.00     0.131 A 
ATOM     60  C   UNL A   1      48.159  27.332  23.891  1.00  0.00     0.055 A 
ATOM     61  C   UNL A   1      48.822  26.163  25.885  1.00  0.00     0.041 A 
ATOM     62  F   UNL A   1      47.497  26.301  27.811  1.00  0.00    -0.206 F 
ATOM     63  C   UNL A   1      49.047  26.478  24.547  1.00  0.00     0.022 A 
BRANCH  60  64
ATOM     64  S   UNL A   1      48.323  27.613  22.106  1.00  0.00     0.124 S 
ATOM     65  O   UNL A   1      48.549  26.255  21.614  1.00  0.00    -0.237 OA
ATOM     66  O   UNL A   1      47.041  28.213  21.760  1.00  0.00    -0.237 OA
ATOM     67  O   UNL A   1      49.478  28.504  22.004  1.00  0.00    -0.744 OA
ENDBRANCH  60  64
ENDBRANCH  43  57
BRANCH  44  68
ATOM     68  C   UNL A   1      38.820  30.660  31.142  1.00  0.00     0.023 A 
ATOM     69  C   UNL A   1      37.803  31.469  30.609  1.00  0.00     0.031 A 
ATOM     70  C   UNL A   1      38.776  30.376  32.520  1.00  0.00     0.131 A 
ATOM     71  C   UNL A   1      36.830  32.022  31.457  1.00  0.00     0.055 A 
ATOM     72  C   UNL A   1      37.770  30.876  33.347  1.00  0.00     0.041 A 
ATOM     73  F   UNL A   1      39.724  29.614  33.088  1.00  0.00    -0.206 F 
ATOM     74  C   UNL A   1      36.799  31.722  32.821  1.00  0.00     0.022 A 
BRANCH  71  75
ATOM     75  S   UNL A   1      35.685  33.256  30.777  1.00  0.00     0.124 S 
ATOM     76  O   UNL A   1      36.378  33.668  29.562  1.00  0.00    -0.237 OA
ATOM     77  O   UNL A   1      34.471  32.469  30.587  1.00  0.00    -0.237 OA
ATOM     78  O   UNL A   1      35.611  34.268  31.829  1.00  0.00    -0.744 OA
ENDBRANCH  71  75
ENDBRANCH  44  68
BRANCH  56  79
ATOM     79  C   UNL A   1      44.833  33.661  29.276  1.00  0.00     0.023 A 
ATOM     80  C   UNL A   1      44.538  34.748  28.435  1.00  0.00     0.031 A 
ATOM     81  C   UNL A   1      45.676  33.887  30.379  1.00  0.00     0.131 A 
ATOM     82  C   UNL A   1      45.122  35.999  28.680  1.00  0.00     0.055 A 
ATOM     83  C   UNL A   1      46.201  35.149  30.655  1.00  0.00     0.041 A 
ATOM     84  F   UNL A   1      45.992  32.885  31.214  1.00  0.00    -0.206 F 
ATOM     85  C   UNL A   1      45.936  36.212  29.795  1.00  0.00     0.022 A 
BRANCH  82  86
ATOM     86  S   UNL A   1      44.873  37.326  27.470  1.00  0.00     0.124 S 
ATOM     87  O   UNL A   1      44.959  38.519  28.305  1.00  0.00    -0.237 OA
ATOM     88  O   UNL A   1      45.981  37.117  26.543  1.00  0.00    -0.237 OA
ATOM     89  O   UNL A   1      43.547  37.047  26.922  1.00  0.00    -0.744 OA
ENDBRANCH  82  86
ENDBRANCH  56  79
ENDBRANCH  30  31
ENDBRANCH  23  25
ENDBRANCH  22  23
ENDBRANCH   1  22
TORSDOF 15
ENDMDL
