MODEL 1
REMARK VINA RESULT:     -10.9      0.000      0.000
REMARK SMILES CCC[C@]1(C(=O)OCCOC(=O)c2ccc(-c3c4nc(c(-c5cc(S(=O)(=O)[O-])ccc5F)c5ccc([nH]5)c(-c5cc(S(=O)(=O)[O-])ccc5F)c5nc(c(-c6cc(S(=O)(=O)[O-])ccc6F)c6ccc3[nH]6)C=C5)C=C4)cc2)CCN(c2cncc(C(=O)OC)n2)C1
REMARK SMILES IDX 8 1 7 2 5 3 6 4 4 5 76 6 89 7 77 8 78 9 3 10 2 11 1 12 79 13
REMARK SMILES IDX 80 14 88 15 81 16 83 17 82 18 84 19 85 20 86 21 87 22 9 23
REMARK SMILES IDX 10 24 11 25 12 26 13 27 14 28 75 29 15 30 74 31 16 32 17 33
REMARK SMILES IDX 18 34 68 35 19 36 73 37 67 38 69 39 20 40 72 41 66 42 65 43
REMARK SMILES IDX 21 45 53 46 33 47 52 48 34 49 37 50 51 51 70 52 35 53 36 54
REMARK SMILES IDX 50 56 71 57 38 58 22 59 23 60 31 61 24 62 30 63 32 64 29 65
REMARK SMILES IDX 25 66 26 67 27 68 28 69 54 70 55 71 63 72 56 73 62 74 64 75
REMARK SMILES IDX 61 76 57 77 58 78 59 79 60 80 39 81 40 82 48 83 41 84 47 85
REMARK SMILES IDX 49 86 46 87 42 88 43 89 44 90 45 91
REMARK H PARENT 69 44 37 55
REMARK Flexibility Score: inf
ROOT
ATOM      1  C   UNL A   1      37.738  19.722  24.659  1.00  0.00     0.274 C 
ENDROOT
BRANCH   1   2
ATOM      2  O   UNL A   1      36.553  20.194  25.333  1.00  0.00    -0.462 OA
BRANCH   2   3
ATOM      3  C   UNL A   1      36.221  21.500  25.144  1.00  0.00     0.314 C 
ATOM      4  O   UNL A   1      37.037  22.415  25.141  1.00  0.00    -0.252 OA
BRANCH   3   5
ATOM      5  C   UNL A   1      34.707  21.731  25.025  1.00  0.00     0.087 C 
ATOM      6  C   UNL A   1      34.088  22.474  26.226  1.00  0.00     0.042 C 
ATOM      7  C   UNL A   1      34.556  22.709  23.840  1.00  0.00     0.137 C 
ATOM      8  C   UNL A   1      33.104  23.462  25.615  1.00  0.00     0.119 C 
ATOM      9  N   UNL A   1      33.711  23.793  24.342  1.00  0.00    -0.354 N 
BRANCH   5  10
ATOM     10  C   UNL A   1      34.047  20.334  24.829  1.00  0.00     0.020 C 
BRANCH  10  11
ATOM     11  C   UNL A   1      32.712  20.188  24.093  1.00  0.00    -0.002 C 
ATOM     12  C   UNL A   1      32.370  18.762  23.708  1.00  0.00     0.004 C 
ENDBRANCH  10  11
ENDBRANCH   5  10
BRANCH   9  13
ATOM     13  C   UNL A   1      33.686  25.022  23.737  1.00  0.00     0.148 A 
ATOM     14  C   UNL A   1      33.761  25.188  22.345  1.00  0.00     0.157 A 
ATOM     15  N   UNL A   1      33.538  26.123  24.513  1.00  0.00    -0.221 NA
ATOM     16  N   UNL A   1      33.650  26.376  21.693  1.00  0.00    -0.258 NA
ATOM     17  C   UNL A   1      33.434  27.326  23.879  1.00  0.00     0.169 A 
ATOM     18  C   UNL A   1      33.475  27.443  22.499  1.00  0.00     0.147 A 
BRANCH  17  19
ATOM     19  C   UNL A   1      33.278  28.570  24.672  1.00  0.00     0.358 C 
ATOM     20  O   UNL A   1      32.515  29.473  24.354  1.00  0.00    -0.244 OA
BRANCH  19  21
ATOM     21  O   UNL A   1      34.098  28.579  25.753  1.00  0.00    -0.464 OA
ATOM     22  C   UNL A   1      33.683  29.472  26.786  1.00  0.00     0.282 C 
ENDBRANCH  19  21
ENDBRANCH  17  19
ENDBRANCH   9  13
ENDBRANCH   3   5
ENDBRANCH   2   3
ENDBRANCH   1   2
BRANCH   1  23
ATOM     23  C   UNL A   1      38.780  19.259  25.672  1.00  0.00     0.275 C 
BRANCH  23  24
ATOM     24  O   UNL A   1      39.839  20.227  25.739  1.00  0.00    -0.458 OA
BRANCH  24  25
ATOM     25  C   UNL A   1      40.458  20.336  26.936  1.00  0.00     0.338 C 
ATOM     26  O   UNL A   1      40.838  19.429  27.656  1.00  0.00    -0.246 OA
BRANCH  25  27
ATOM     27  C   UNL A   1      40.645  21.759  27.270  1.00  0.00     0.060 A 
ATOM     28  C   UNL A   1      39.923  22.732  26.584  1.00  0.00     0.016 A 
ATOM     29  C   UNL A   1      41.637  22.136  28.172  1.00  0.00     0.016 A 
ATOM     30  C   UNL A   1      40.277  24.077  26.697  1.00  0.00     0.010 A 
ATOM     31  C   UNL A   1      41.904  23.495  28.378  1.00  0.00     0.010 A 
ATOM     32  C   UNL A   1      41.264  24.484  27.606  1.00  0.00    -0.014 A 
BRANCH  32  33
ATOM     33  C   UNL A   1      41.671  25.919  27.721  1.00  0.00     0.031 A 
ATOM     34  C   UNL A   1      42.952  26.391  27.074  1.00  0.00     0.074 A 
ATOM     35  C   UNL A   1      40.913  26.808  28.396  1.00  0.00     0.049 A 
ATOM     36  N   UNL A   1      43.614  27.507  27.254  1.00  0.00    -0.248 NA
ATOM     37  C   UNL A   1      43.582  25.471  26.115  1.00  0.00     0.031 C 
ATOM     38  C   UNL A   1      39.625  26.522  29.030  1.00  0.00     0.029 A 
ATOM     39  N   UNL A   1      41.117  28.143  28.658  1.00  0.00    -0.354 N 
ATOM     40  C   UNL A   1      44.775  27.389  26.493  1.00  0.00     0.074 A 
ATOM     41  C   UNL A   1      44.723  26.092  25.851  1.00  0.00     0.031 C 
ATOM     42  C   UNL A   1      39.136  27.649  29.566  1.00  0.00     0.029 A 
ATOM     43  C   UNL A   1      40.118  28.716  29.412  1.00  0.00     0.049 A 
ATOM     44  H   UNL A   1      41.903  28.641  28.337  1.00  0.00     0.167 HD
ATOM     45  C   UNL A   1      45.791  28.278  26.350  1.00  0.00     0.034 A 
ATOM     46  C   UNL A   1      40.021  29.940  29.969  1.00  0.00     0.034 A 
ATOM     47  C   UNL A   1      45.799  29.595  26.942  1.00  0.00     0.049 A 
ATOM     48  C   UNL A   1      41.163  30.906  29.811  1.00  0.00     0.074 A 
ATOM     49  C   UNL A   1      46.770  30.579  26.854  1.00  0.00     0.029 A 
ATOM     50  N   UNL A   1      44.774  30.123  27.719  1.00  0.00    -0.354 N 
ATOM     51  N   UNL A   1      42.300  30.743  29.175  1.00  0.00    -0.248 NA
ATOM     52  C   UNL A   1      41.017  32.214  30.464  1.00  0.00     0.031 C 
ATOM     53  C   UNL A   1      46.354  31.680  27.612  1.00  0.00     0.029 A 
ATOM     54  C   UNL A   1      45.097  31.408  28.125  1.00  0.00     0.049 A 
ATOM     55  H   UNL A   1      43.941  29.651  27.948  1.00  0.00     0.167 HD
ATOM     56  C   UNL A   1      43.004  31.930  29.353  1.00  0.00     0.074 A 
ATOM     57  C   UNL A   1      42.153  32.808  30.130  1.00  0.00     0.031 C 
ATOM     58  C   UNL A   1      44.246  32.263  28.917  1.00  0.00     0.034 A 
BRANCH  45  59
ATOM     59  C   UNL A   1      47.006  27.827  25.574  1.00  0.00     0.023 A 
ATOM     60  C   UNL A   1      47.180  28.120  24.211  1.00  0.00     0.031 A 
ATOM     61  C   UNL A   1      47.996  27.055  26.211  1.00  0.00     0.131 A 
ATOM     62  C   UNL A   1      48.276  27.585  23.514  1.00  0.00     0.055 A 
ATOM     63  C   UNL A   1      49.123  26.591  25.531  1.00  0.00     0.041 A 
ATOM     64  F   UNL A   1      47.876  26.726  27.508  1.00  0.00    -0.206 F 
ATOM     65  C   UNL A   1      49.260  26.842  24.170  1.00  0.00     0.022 A 
BRANCH  62  66
ATOM     66  S   UNL A   1      48.322  27.753  21.708  1.00  0.00     0.124 S 
ATOM     67  O   UNL A   1      46.984  28.264  21.425  1.00  0.00    -0.237 OA
ATOM     68  O   UNL A   1      49.420  28.692  21.507  1.00  0.00    -0.237 OA
ATOM     69  O   UNL A   1      48.573  26.391  21.242  1.00  0.00    -0.744 OA
ENDBRANCH  62  66
ENDBRANCH  45  59
BRANCH  46  70
ATOM     70  C   UNL A   1      38.835  30.293  30.801  1.00  0.00     0.023 A 
ATOM     71  C   UNL A   1      37.760  31.017  30.262  1.00  0.00     0.031 A 
ATOM     72  C   UNL A   1      38.773  29.930  32.159  1.00  0.00     0.131 A 
ATOM     73  C   UNL A   1      36.680  31.378  31.084  1.00  0.00     0.055 A 
ATOM     74  C   UNL A   1      37.674  30.246  32.958  1.00  0.00     0.041 A 
ATOM     75  F   UNL A   1      39.775  29.239  32.723  1.00  0.00    -0.206 F 
ATOM     76  C   UNL A   1      36.623  30.983  32.423  1.00  0.00     0.022 A 
BRANCH  73  77
ATOM     77  S   UNL A   1      35.374  32.429  30.392  1.00  0.00     0.124 S 
ATOM     78  O   UNL A   1      36.079  33.691  30.198  1.00  0.00    -0.237 OA
ATOM     79  O   UNL A   1      35.009  31.704  29.180  1.00  0.00    -0.237 OA
ATOM     80  O   UNL A   1      34.354  32.439  31.439  1.00  0.00    -0.744 OA
ENDBRANCH  73  77
ENDBRANCH  46  70
BRANCH  58  81
ATOM     81  C   UNL A   1      44.730  33.650  29.252  1.00  0.00     0.023 A 
ATOM     82  C   UNL A   1      44.514  34.733  28.383  1.00  0.00     0.031 A 
ATOM     83  C   UNL A   1      45.442  33.881  30.441  1.00  0.00     0.131 A 
ATOM     84  C   UNL A   1      45.052  35.991  28.692  1.00  0.00     0.055 A 
ATOM     85  C   UNL A   1      45.935  35.145  30.766  1.00  0.00     0.041 A 
ATOM     86  F   UNL A   1      45.677  32.878  31.303  1.00  0.00    -0.206 F 
ATOM     87  C   UNL A   1      45.750  36.207  29.883  1.00  0.00     0.022 A 
BRANCH  84  88
ATOM     88  S   UNL A   1      44.897  37.328  27.476  1.00  0.00     0.124 S 
ATOM     89  O   UNL A   1      45.071  38.516  28.306  1.00  0.00    -0.237 OA
ATOM     90  O   UNL A   1      45.985  37.035  26.549  1.00  0.00    -0.237 OA
ATOM     91  O   UNL A   1      43.553  37.144  26.932  1.00  0.00    -0.744 OA
ENDBRANCH  84  88
ENDBRANCH  58  81
ENDBRANCH  32  33
ENDBRANCH  25  27
ENDBRANCH  24  25
ENDBRANCH  23  24
ENDBRANCH   1  23
TORSDOF 19
ENDMDL
MODEL 2
REMARK VINA RESULT:     -10.9      1.871      2.160
REMARK SMILES CCC[C@]1(C(=O)OCCOC(=O)c2ccc(-c3c4nc(c(-c5cc(S(=O)(=O)[O-])ccc5F)c5ccc([nH]5)c(-c5cc(S(=O)(=O)[O-])ccc5F)c5nc(c(-c6cc(S(=O)(=O)[O-])ccc6F)c6ccc3[nH]6)C=C5)C=C4)cc2)CCN(c2cncc(C(=O)OC)n2)C1
REMARK SMILES IDX 8 1 7 2 5 3 6 4 4 5 76 6 89 7 77 8 78 9 3 10 2 11 1 12 79 13
REMARK SMILES IDX 80 14 88 15 81 16 83 17 82 18 84 19 85 20 86 21 87 22 9 23
REMARK SMILES IDX 10 24 11 25 12 26 13 27 14 28 75 29 15 30 74 31 16 32 17 33
REMARK SMILES IDX 18 34 68 35 19 36 73 37 67 38 69 39 20 40 72 41 66 42 65 43
REMARK SMILES IDX 21 45 53 46 33 47 52 48 34 49 37 50 51 51 70 52 35 53 36 54
REMARK SMILES IDX 50 56 71 57 38 58 22 59 23 60 31 61 24 62 30 63 32 64 29 65
REMARK SMILES IDX 25 66 26 67 27 68 28 69 54 70 55 71 63 72 56 73 62 74 64 75
REMARK SMILES IDX 61 76 57 77 58 78 59 79 60 80 39 81 40 82 48 83 41 84 47 85
REMARK SMILES IDX 49 86 46 87 42 88 43 89 44 90 45 91
REMARK H PARENT 69 44 37 55
REMARK Flexibility Score: inf
ROOT
ATOM      1  C   UNL A   1      36.188  19.620  24.987  1.00  0.00     0.274 C 
ENDROOT
BRANCH   1   2
ATOM      2  O   UNL A   1      35.402  20.790  24.683  1.00  0.00    -0.462 OA
BRANCH   2   3
ATOM      3  C   UNL A   1      34.494  21.178  25.618  1.00  0.00     0.314 C 
ATOM      4  O   UNL A   1      34.772  21.372  26.796  1.00  0.00    -0.252 OA
BRANCH   3   5
ATOM      5  C   UNL A   1      33.059  21.260  25.075  1.00  0.00     0.087 C 
ATOM      6  C   UNL A   1      32.105  22.106  25.944  1.00  0.00     0.042 C 
ATOM      7  C   UNL A   1      33.189  22.050  23.755  1.00  0.00     0.137 C 
ATOM      8  C   UNL A   1      31.279  22.914  24.952  1.00  0.00     0.119 C 
ATOM      9  N   UNL A   1      32.193  23.116  23.845  1.00  0.00    -0.354 N 
BRANCH   5  10
ATOM     10  C   UNL A   1      32.541  19.799  24.933  1.00  0.00     0.020 C 
BRANCH  10  11
ATOM     11  C   UNL A   1      32.523  19.096  23.573  1.00  0.00    -0.002 C 
ATOM     12  C   UNL A   1      33.265  17.773  23.550  1.00  0.00     0.004 C 
ENDBRANCH  10  11
ENDBRANCH   5  10
BRANCH   9  13
ATOM     13  C   UNL A   1      32.276  24.245  23.071  1.00  0.00     0.148 A 
ATOM     14  C   UNL A   1      33.136  24.349  21.968  1.00  0.00     0.157 A 
ATOM     15  N   UNL A   1      31.461  25.289  23.358  1.00  0.00    -0.221 NA
ATOM     16  N   UNL A   1      33.191  25.408  21.117  1.00  0.00    -0.258 NA
ATOM     17  C   UNL A   1      31.507  26.366  22.523  1.00  0.00     0.169 A 
ATOM     18  C   UNL A   1      32.344  26.414  21.420  1.00  0.00     0.147 A 
BRANCH  17  19
ATOM     19  C   UNL A   1      30.645  27.544  22.785  1.00  0.00     0.358 C 
ATOM     20  O   UNL A   1      30.109  28.191  21.896  1.00  0.00    -0.244 OA
BRANCH  19  21
ATOM     21  O   UNL A   1      30.559  27.813  24.113  1.00  0.00    -0.464 OA
ATOM     22  C   UNL A   1      31.257  28.994  24.510  1.00  0.00     0.282 C 
ENDBRANCH  19  21
ENDBRANCH  17  19
ENDBRANCH   9  13
ENDBRANCH   3   5
ENDBRANCH   2   3
ENDBRANCH   1   2
BRANCH   1  23
ATOM     23  C   UNL A   1      37.672  19.904  24.778  1.00  0.00     0.275 C 
BRANCH  23  24
ATOM     24  O   UNL A   1      38.066  21.004  25.612  1.00  0.00    -0.458 OA
BRANCH  24  25
ATOM     25  C   UNL A   1      39.325  20.946  26.103  1.00  0.00     0.338 C 
ATOM     26  O   UNL A   1      40.062  19.976  26.131  1.00  0.00    -0.246 OA
BRANCH  25  27
ATOM     27  C   UNL A   1      39.723  22.273  26.607  1.00  0.00     0.060 A 
ATOM     28  C   UNL A   1      38.997  23.401  26.235  1.00  0.00     0.016 A 
ATOM     29  C   UNL A   1      40.899  22.412  27.341  1.00  0.00     0.016 A 
ATOM     30  C   UNL A   1      39.510  24.675  26.479  1.00  0.00     0.010 A 
ATOM     31  C   UNL A   1      41.344  23.691  27.694  1.00  0.00     0.010 A 
ATOM     32  C   UNL A   1      40.685  24.844  27.226  1.00  0.00    -0.014 A 
BRANCH  32  33
ATOM     33  C   UNL A   1      41.259  26.202  27.476  1.00  0.00     0.031 A 
ATOM     34  C   UNL A   1      42.597  26.575  26.880  1.00  0.00     0.074 A 
ATOM     35  C   UNL A   1      40.604  27.111  28.228  1.00  0.00     0.049 A 
ATOM     36  N   UNL A   1      43.385  27.581  27.165  1.00  0.00    -0.248 NA
ATOM     37  C   UNL A   1      43.126  25.677  25.841  1.00  0.00     0.031 C 
ATOM     38  C   UNL A   1      39.282  26.924  28.829  1.00  0.00     0.029 A 
ATOM     39  N   UNL A   1      40.962  28.381  28.615  1.00  0.00    -0.354 N 
ATOM     40  C   UNL A   1      44.535  27.395  26.400  1.00  0.00     0.074 A 
ATOM     41  C   UNL A   1      44.337  26.179  25.640  1.00  0.00     0.031 C 
ATOM     42  C   UNL A   1      38.923  28.048  29.466  1.00  0.00     0.029 A 
ATOM     43  C   UNL A   1      40.028  28.998  29.416  1.00  0.00     0.049 A 
ATOM     44  H   UNL A   1      41.806  28.808  28.344  1.00  0.00     0.167 HD
ATOM     45  C   UNL A   1      45.651  28.164  26.344  1.00  0.00     0.034 A 
ATOM     46  C   UNL A   1      40.070  30.168  30.084  1.00  0.00     0.034 A 
ATOM     47  C   UNL A   1      45.809  29.411  27.057  1.00  0.00     0.049 A 
ATOM     48  C   UNL A   1      41.322  31.001  30.020  1.00  0.00     0.074 A 
ATOM     49  C   UNL A   1      46.892  30.273  27.064  1.00  0.00     0.029 A 
ATOM     50  N   UNL A   1      44.844  29.984  27.876  1.00  0.00    -0.354 N 
ATOM     51  N   UNL A   1      42.441  30.761  29.376  1.00  0.00    -0.248 NA
ATOM     52  C   UNL A   1      41.324  32.251  30.792  1.00  0.00     0.031 C 
ATOM     53  C   UNL A   1      46.600  31.342  27.920  1.00  0.00     0.029 A 
ATOM     54  C   UNL A   1      45.311  31.178  28.401  1.00  0.00     0.049 A 
ATOM     55  H   UNL A   1      43.956  29.597  28.057  1.00  0.00     0.167 HD
ATOM     56  C   UNL A   1      43.279  31.832  29.666  1.00  0.00     0.074 A 
ATOM     57  C   UNL A   1      42.528  32.731  30.519  1.00  0.00     0.031 C 
ATOM     58  C   UNL A   1      44.558  32.052  29.267  1.00  0.00     0.034 A 
BRANCH  45  59
ATOM     59  C   UNL A   1      46.815  27.643  25.534  1.00  0.00     0.023 A 
ATOM     60  C   UNL A   1      47.056  28.056  24.212  1.00  0.00     0.031 A 
ATOM     61  C   UNL A   1      47.682  26.683  26.090  1.00  0.00     0.131 A 
ATOM     62  C   UNL A   1      48.089  27.459  23.470  1.00  0.00     0.055 A 
ATOM     63  C   UNL A   1      48.753  26.151  25.373  1.00  0.00     0.041 A 
ATOM     64  F   UNL A   1      47.490  26.236  27.342  1.00  0.00    -0.206 F 
ATOM     65  C   UNL A   1      48.953  26.527  24.048  1.00  0.00     0.022 A 
BRANCH  62  66
ATOM     66  S   UNL A   1      48.197  27.813  21.694  1.00  0.00     0.124 S 
ATOM     67  O   UNL A   1      49.253  28.822  21.658  1.00  0.00    -0.237 OA
ATOM     68  O   UNL A   1      48.540  26.510  21.134  1.00  0.00    -0.237 OA
ATOM     69  O   UNL A   1      46.863  28.305  21.359  1.00  0.00    -0.744 OA
ENDBRANCH  62  66
ENDBRANCH  45  59
BRANCH  46  70
ATOM     70  C   UNL A   1      38.924  30.584  30.941  1.00  0.00     0.023 A 
ATOM     71  C   UNL A   1      37.952  31.480  30.469  1.00  0.00     0.031 A 
ATOM     72  C   UNL A   1      38.797  30.106  32.258  1.00  0.00     0.131 A 
ATOM     73  C   UNL A   1      36.911  31.891  31.318  1.00  0.00     0.055 A 
ATOM     74  C   UNL A   1      37.733  30.477  33.080  1.00  0.00     0.041 A 
ATOM     75  F   UNL A   1      39.701  29.248  32.758  1.00  0.00    -0.206 F 
ATOM     76  C   UNL A   1      36.786  31.382  32.613  1.00  0.00     0.022 A 
BRANCH  73  77
ATOM     77  S   UNL A   1      35.751  33.153  30.724  1.00  0.00     0.124 S 
ATOM     78  O   UNL A   1      36.083  34.288  31.577  1.00  0.00    -0.237 OA
ATOM     79  O   UNL A   1      36.127  33.275  29.319  1.00  0.00    -0.237 OA
ATOM     80  O   UNL A   1      34.441  32.553  30.966  1.00  0.00    -0.744 OA
ENDBRANCH  73  77
ENDBRANCH  46  70
BRANCH  58  81
ATOM     81  C   UNL A   1      45.200  33.333  29.732  1.00  0.00     0.023 A 
ATOM     82  C   UNL A   1      45.846  33.421  30.977  1.00  0.00     0.031 A 
ATOM     83  C   UNL A   1      45.134  34.487  28.932  1.00  0.00     0.131 A 
ATOM     84  C   UNL A   1      46.359  34.653  31.410  1.00  0.00     0.055 A 
ATOM     85  C   UNL A   1      45.688  35.698  29.347  1.00  0.00     0.041 A 
ATOM     86  F   UNL A   1      44.525  34.455  27.736  1.00  0.00    -0.206 F 
ATOM     87  C   UNL A   1      46.294  35.789  30.598  1.00  0.00     0.022 A 
BRANCH  84  88
ATOM     88  S   UNL A   1      47.042  34.773  33.086  1.00  0.00     0.124 S 
ATOM     89  O   UNL A   1      48.437  35.109  32.823  1.00  0.00    -0.237 OA
ATOM     90  O   UNL A   1      46.232  35.833  33.678  1.00  0.00    -0.237 OA
ATOM     91  O   UNL A   1      46.820  33.441  33.644  1.00  0.00    -0.744 OA
ENDBRANCH  84  88
ENDBRANCH  58  81
ENDBRANCH  32  33
ENDBRANCH  25  27
ENDBRANCH  24  25
ENDBRANCH  23  24
ENDBRANCH   1  23
TORSDOF 19
ENDMDL
MODEL 3
REMARK VINA RESULT:     -10.8      1.310      7.670
REMARK SMILES CCC[C@]1(C(=O)OCCOC(=O)c2ccc(-c3c4nc(c(-c5cc(S(=O)(=O)[O-])ccc5F)c5ccc([nH]5)c(-c5cc(S(=O)(=O)[O-])ccc5F)c5nc(c(-c6cc(S(=O)(=O)[O-])ccc6F)c6ccc3[nH]6)C=C5)C=C4)cc2)CCN(c2cncc(C(=O)OC)n2)C1
REMARK SMILES IDX 8 1 7 2 5 3 6 4 4 5 76 6 89 7 77 8 78 9 3 10 2 11 1 12 79 13
REMARK SMILES IDX 80 14 88 15 81 16 83 17 82 18 84 19 85 20 86 21 87 22 9 23
REMARK SMILES IDX 10 24 11 25 12 26 13 27 14 28 75 29 15 30 74 31 16 32 17 33
REMARK SMILES IDX 18 34 68 35 19 36 73 37 67 38 69 39 20 40 72 41 66 42 65 43
REMARK SMILES IDX 21 45 53 46 33 47 52 48 34 49 37 50 51 51 70 52 35 53 36 54
REMARK SMILES IDX 50 56 71 57 38 58 22 59 23 60 31 61 24 62 30 63 32 64 29 65
REMARK SMILES IDX 25 66 26 67 27 68 28 69 54 70 55 71 63 72 56 73 62 74 64 75
REMARK SMILES IDX 61 76 57 77 58 78 59 79 60 80 39 81 40 82 48 83 41 84 47 85
REMARK SMILES IDX 49 86 46 87 42 88 43 89 44 90 45 91
REMARK H PARENT 69 44 37 55
REMARK Flexibility Score: inf
ROOT
ATOM      1  C   UNL A   1      36.585  22.579  23.680  1.00  0.00     0.274 C 
ENDROOT
BRANCH   1   2
ATOM      2  O   UNL A   1      35.382  23.107  24.274  1.00  0.00    -0.462 OA
BRANCH   2   3
ATOM      3  C   UNL A   1      34.300  23.229  23.459  1.00  0.00     0.314 C 
ATOM      4  O   UNL A   1      34.375  23.324  22.239  1.00  0.00    -0.252 OA
BRANCH   3   5
ATOM      5  C   UNL A   1      32.971  23.330  24.223  1.00  0.00     0.087 C 
ATOM      6  C   UNL A   1      33.132  23.644  25.725  1.00  0.00     0.042 C 
ATOM      7  C   UNL A   1      32.278  24.578  23.635  1.00  0.00     0.137 C 
ATOM      8  C   UNL A   1      32.039  24.658  26.036  1.00  0.00     0.119 C 
ATOM      9  N   UNL A   1      31.900  25.389  24.792  1.00  0.00    -0.354 N 
BRANCH   5  10
ATOM     10  C   UNL A   1      32.219  21.984  24.010  1.00  0.00     0.020 C 
BRANCH  10  11
ATOM     11  C   UNL A   1      32.981  20.657  23.933  1.00  0.00    -0.002 C 
ATOM     12  C   UNL A   1      33.293  20.044  25.284  1.00  0.00     0.004 C 
ENDBRANCH  10  11
ENDBRANCH   5  10
BRANCH   9  13
ATOM     13  C   UNL A   1      31.637  26.729  24.675  1.00  0.00     0.148 A 
ATOM     14  C   UNL A   1      30.686  27.243  23.780  1.00  0.00     0.157 A 
ATOM     15  N   UNL A   1      32.293  27.591  25.489  1.00  0.00    -0.221 NA
ATOM     16  N   UNL A   1      30.325  28.551  23.690  1.00  0.00    -0.258 NA
ATOM     17  C   UNL A   1      31.953  28.909  25.407  1.00  0.00     0.169 A 
ATOM     18  C   UNL A   1      30.980  29.372  24.537  1.00  0.00     0.147 A 
BRANCH  17  19
ATOM     19  C   UNL A   1      32.639  29.905  26.267  1.00  0.00     0.358 C 
ATOM     20  O   UNL A   1      33.854  30.048  26.285  1.00  0.00    -0.244 OA
BRANCH  19  21
ATOM     21  O   UNL A   1      31.755  30.598  27.030  1.00  0.00    -0.464 OA
ATOM     22  C   UNL A   1      31.404  31.874  26.495  1.00  0.00     0.282 C 
ENDBRANCH  19  21
ENDBRANCH  17  19
ENDBRANCH   9  13
ENDBRANCH   3   5
ENDBRANCH   2   3
ENDBRANCH   1   2
BRANCH   1  23
ATOM     23  C   UNL A   1      37.024  21.309  24.400  1.00  0.00     0.275 C 
BRANCH  23  24
ATOM     24  O   UNL A   1      37.441  21.640  25.734  1.00  0.00    -0.458 OA
BRANCH  24  25
ATOM     25  C   UNL A   1      38.757  21.472  25.996  1.00  0.00     0.338 C 
ATOM     26  O   UNL A   1      39.444  20.501  25.732  1.00  0.00    -0.246 OA
BRANCH  25  27
ATOM     27  C   UNL A   1      39.289  22.678  26.655  1.00  0.00     0.060 A 
ATOM     28  C   UNL A   1      38.774  23.930  26.329  1.00  0.00     0.016 A 
ATOM     29  C   UNL A   1      40.395  22.579  27.496  1.00  0.00     0.016 A 
ATOM     30  C   UNL A   1      39.437  25.088  26.736  1.00  0.00     0.010 A 
ATOM     31  C   UNL A   1      40.981  23.743  28.006  1.00  0.00     0.010 A 
ATOM     32  C   UNL A   1      40.544  25.016  27.593  1.00  0.00    -0.014 A 
BRANCH  32  33
ATOM     33  C   UNL A   1      41.280  26.247  28.019  1.00  0.00     0.031 A 
ATOM     34  C   UNL A   1      40.573  27.300  28.840  1.00  0.00     0.074 A 
ATOM     35  C   UNL A   1      42.573  26.439  27.683  1.00  0.00     0.049 A 
ATOM     36  N   UNL A   1      40.930  28.533  29.099  1.00  0.00    -0.248 NA
ATOM     37  C   UNL A   1      39.279  26.918  29.425  1.00  0.00     0.031 C 
ATOM     38  C   UNL A   1      43.409  25.494  26.940  1.00  0.00     0.029 A 
ATOM     39  N   UNL A   1      43.415  27.498  27.927  1.00  0.00    -0.354 N 
ATOM     40  C   UNL A   1      39.873  29.097  29.809  1.00  0.00     0.074 A 
ATOM     41  C   UNL A   1      38.862  28.068  29.937  1.00  0.00     0.031 C 
ATOM     42  C   UNL A   1      44.649  25.994  26.829  1.00  0.00     0.029 A 
ATOM     43  C   UNL A   1      44.673  27.338  27.394  1.00  0.00     0.049 A 
ATOM     44  H   UNL A   1      43.142  28.297  28.435  1.00  0.00     0.167 HD
ATOM     45  C   UNL A   1      39.755  30.356  30.300  1.00  0.00     0.034 A 
ATOM     46  C   UNL A   1      45.715  28.189  27.313  1.00  0.00     0.034 A 
ATOM     47  C   UNL A   1      40.797  31.353  30.224  1.00  0.00     0.049 A 
ATOM     48  C   UNL A   1      45.561  29.586  27.851  1.00  0.00     0.074 A 
ATOM     49  C   UNL A   1      40.788  32.654  30.696  1.00  0.00     0.029 A 
ATOM     50  N   UNL A   1      42.048  31.151  29.652  1.00  0.00    -0.354 N 
ATOM     51  N   UNL A   1      44.517  30.138  28.427  1.00  0.00    -0.248 NA
ATOM     52  C   UNL A   1      46.717  30.481  27.708  1.00  0.00     0.031 C 
ATOM     53  C   UNL A   1      42.012  33.252  30.372  1.00  0.00     0.029 A 
ATOM     54  C   UNL A   1      42.809  32.305  29.749  1.00  0.00     0.049 A 
ATOM     55  H   UNL A   1      42.349  30.310  29.238  1.00  0.00     0.167 HD
ATOM     56  C   UNL A   1      44.895  31.445  28.715  1.00  0.00     0.074 A 
ATOM     57  C   UNL A   1      46.268  31.590  28.276  1.00  0.00     0.031 C 
ATOM     58  C   UNL A   1      44.169  32.440  29.287  1.00  0.00     0.034 A 
BRANCH  45  59
ATOM     59  C   UNL A   1      38.426  30.746  30.905  1.00  0.00     0.023 A 
ATOM     60  C   UNL A   1      37.407  31.355  30.153  1.00  0.00     0.031 A 
ATOM     61  C   UNL A   1      38.193  30.533  32.277  1.00  0.00     0.131 A 
ATOM     62  C   UNL A   1      36.234  31.793  30.790  1.00  0.00     0.055 A 
ATOM     63  C   UNL A   1      36.993  30.901  32.888  1.00  0.00     0.041 A 
ATOM     64  F   UNL A   1      39.137  29.973  33.051  1.00  0.00    -0.206 F 
ATOM     65  C   UNL A   1      36.011  31.549  32.148  1.00  0.00     0.022 A 
BRANCH  62  66
ATOM     66  S   UNL A   1      35.065  32.813  29.851  1.00  0.00     0.124 S 
ATOM     67  O   UNL A   1      35.948  33.833  29.289  1.00  0.00    -0.237 OA
ATOM     68  O   UNL A   1      34.507  31.858  28.899  1.00  0.00    -0.237 OA
ATOM     69  O   UNL A   1      34.135  33.297  30.868  1.00  0.00    -0.744 OA
ENDBRANCH  62  66
ENDBRANCH  45  59
BRANCH  46  70
ATOM     70  C   UNL A   1      46.970  27.776  26.621  1.00  0.00     0.023 A 
ATOM     71  C   UNL A   1      47.103  27.893  25.229  1.00  0.00     0.031 A 
ATOM     72  C   UNL A   1      48.048  27.235  27.345  1.00  0.00     0.131 A 
ATOM     73  C   UNL A   1      48.279  27.449  24.601  1.00  0.00     0.055 A 
ATOM     74  C   UNL A   1      49.233  26.843  26.723  1.00  0.00     0.041 A 
ATOM     75  F   UNL A   1      47.970  27.100  28.678  1.00  0.00    -0.206 F 
ATOM     76  C   UNL A   1      49.350  26.941  25.340  1.00  0.00     0.022 A 
BRANCH  73  77
ATOM     77  S   UNL A   1      48.365  27.487  22.789  1.00  0.00     0.124 S 
ATOM     78  O   UNL A   1      47.144  28.207  22.448  1.00  0.00    -0.237 OA
ATOM     79  O   UNL A   1      49.617  28.200  22.559  1.00  0.00    -0.237 OA
ATOM     80  O   UNL A   1      48.380  26.073  22.420  1.00  0.00    -0.744 OA
ENDBRANCH  73  77
ENDBRANCH  46  70
BRANCH  58  81
ATOM     81  C   UNL A   1      44.872  33.756  29.493  1.00  0.00     0.023 A 
ATOM     82  C   UNL A   1      44.819  34.776  28.527  1.00  0.00     0.031 A 
ATOM     83  C   UNL A   1      45.630  33.978  30.654  1.00  0.00     0.131 A 
ATOM     84  C   UNL A   1      45.554  35.955  28.717  1.00  0.00     0.055 A 
ATOM     85  C   UNL A   1      46.322  35.172  30.861  1.00  0.00     0.041 A 
ATOM     86  F   UNL A   1      45.716  33.034  31.606  1.00  0.00    -0.206 F 
ATOM     87  C   UNL A   1      46.296  36.165  29.884  1.00  0.00     0.022 A 
BRANCH  84  88
ATOM     88  S   UNL A   1      45.595  37.183  27.383  1.00  0.00     0.124 S 
ATOM     89  O   UNL A   1      46.846  36.856  26.706  1.00  0.00    -0.237 OA
ATOM     90  O   UNL A   1      44.373  36.883  26.644  1.00  0.00    -0.237 OA
ATOM     91  O   UNL A   1      45.591  38.461  28.093  1.00  0.00    -0.744 OA
ENDBRANCH  84  88
ENDBRANCH  58  81
ENDBRANCH  32  33
ENDBRANCH  25  27
ENDBRANCH  24  25
ENDBRANCH  23  24
ENDBRANCH   1  23
TORSDOF 19
ENDMDL
