MODEL 1
REMARK VINA RESULT:     -12.1      0.000      0.000
REMARK SMILES CCS(=O)(=O)c1ccc(N2CCC[C@H](C(=O)OCCOC(=O)c3ccc(-c4c5nc(c(-c6cc(S(=O)(=O)[O-])ccc6F)c6ccc([nH]6)c(-c6cc(S(=O)(=O)[O-])ccc6F)c6nc(c(-c7cc(S(=O)(=O)[O-])ccc7F)c7ccc4[nH]7)C=C6)C=C5)cc3)C2)c(F)c1
REMARK SMILES IDX 18 1 17 2 15 3 16 4 14 5 10 6 11 7 86 8 12 9 13 10 9 11 6 12
REMARK SMILES IDX 7 13 89 14 8 15 87 16 88 17 3 18 4 19 5 20 2 21 1 22 19 23
REMARK SMILES IDX 20 24 21 25 22 26 23 27 24 28 85 29 25 30 84 31 26 32 27 33
REMARK SMILES IDX 28 34 78 35 29 36 83 37 77 38 79 39 30 40 82 41 76 42 75 43
REMARK SMILES IDX 31 45 63 46 43 47 62 48 44 49 47 50 61 51 80 52 45 53 46 54
REMARK SMILES IDX 60 56 81 57 48 58 32 59 33 60 41 61 34 62 40 63 42 64 39 65
REMARK SMILES IDX 35 66 36 67 37 68 38 69 64 70 65 71 73 72 66 73 72 74 74 75
REMARK SMILES IDX 71 76 67 77 68 78 69 79 70 80 49 81 50 82 58 83 51 84 57 85
REMARK SMILES IDX 59 86 56 87 52 88 53 89 54 90 55 91
REMARK H PARENT 79 44 47 55
REMARK Flexibility Score: inf
ROOT
ATOM      1  C   UNL A   1      31.673  28.429  26.748  1.00  0.00     0.274 C 
ENDROOT
BRANCH   1   2
ATOM      2  O   UNL A   1      32.729  27.492  26.464  1.00  0.00    -0.462 OA
BRANCH   2   3
ATOM      3  C   UNL A   1      32.388  26.179  26.374  1.00  0.00     0.310 C 
ATOM      4  O   UNL A   1      31.415  25.680  26.926  1.00  0.00    -0.252 OA
BRANCH   3   5
ATOM      5  C   UNL A   1      33.342  25.367  25.509  1.00  0.00     0.118 C 
ATOM      6  N   UNL A   1      32.199  25.574  23.360  1.00  0.00    -0.368 N 
ATOM      7  C   UNL A   1      31.942  24.145  23.217  1.00  0.00     0.116 C 
ATOM      8  C   UNL A   1      33.397  25.964  24.106  1.00  0.00     0.132 C 
ATOM      9  C   UNL A   1      31.906  23.455  24.578  1.00  0.00     0.022 C 
ATOM     10  C   UNL A   1      33.088  23.853  25.466  1.00  0.00     0.019 C 
BRANCH   6  11
ATOM     11  C   UNL A   1      31.228  26.542  23.167  1.00  0.00     0.073 A 
ATOM     12  C   UNL A   1      29.280  28.561  22.849  1.00  0.00     0.070 A 
ATOM     13  C   UNL A   1      28.931  27.338  23.421  1.00  0.00     0.022 A 
ATOM     14  C   UNL A   1      30.596  28.800  22.453  1.00  0.00     0.061 A 
ATOM     15  C   UNL A   1      29.897  26.332  23.550  1.00  0.00     0.030 A 
ATOM     16  C   UNL A   1      31.550  27.802  22.628  1.00  0.00     0.147 A 
ATOM     17  F   UNL A   1      32.809  28.062  22.239  1.00  0.00    -0.205 F 
BRANCH  12  18
ATOM     18  S   UNL A   1      28.110  29.864  22.569  1.00  0.00     0.178 S 
ATOM     19  O   UNL A   1      26.924  29.523  23.333  1.00  0.00    -0.224 OA
ATOM     20  O   UNL A   1      28.040  30.038  21.132  1.00  0.00    -0.224 OA
BRANCH  18  21
ATOM     21  C   UNL A   1      28.761  31.372  23.241  1.00  0.00     0.139 C 
ATOM     22  C   UNL A   1      28.744  32.542  22.278  1.00  0.00     0.021 C 
ENDBRANCH  18  21
ENDBRANCH  12  18
ENDBRANCH   6  11
ENDBRANCH   3   5
ENDBRANCH   2   3
ENDBRANCH   1   2
BRANCH   1  23
ATOM     23  C   UNL A   1      31.810  29.677  25.877  1.00  0.00     0.275 C 
BRANCH  23  24
ATOM     24  O   UNL A   1      33.134  30.226  25.978  1.00  0.00    -0.458 OA
BRANCH  24  25
ATOM     25  C   UNL A   1      33.278  31.221  26.885  1.00  0.00     0.338 C 
ATOM     26  O   UNL A   1      32.479  32.097  27.162  1.00  0.00    -0.246 OA
BRANCH  25  27
ATOM     27  C   UNL A   1      34.536  31.005  27.610  1.00  0.00     0.060 A 
ATOM     28  C   UNL A   1      34.818  29.722  28.080  1.00  0.00     0.016 A 
ATOM     29  C   UNL A   1      35.413  32.062  27.847  1.00  0.00     0.016 A 
ATOM     30  C   UNL A   1      35.993  29.478  28.782  1.00  0.00     0.010 A 
ATOM     31  C   UNL A   1      36.596  31.816  28.547  1.00  0.00     0.010 A 
ATOM     32  C   UNL A   1      36.894  30.522  29.014  1.00  0.00    -0.014 A 
BRANCH  32  33
ATOM     33  C   UNL A   1      38.154  30.268  29.747  1.00  0.00     0.031 A 
ATOM     34  C   UNL A   1      39.197  29.376  29.146  1.00  0.00     0.074 A 
ATOM     35  C   UNL A   1      38.349  30.840  30.949  1.00  0.00     0.049 A 
ATOM     36  N   UNL A   1      40.274  28.880  29.695  1.00  0.00    -0.248 NA
ATOM     37  C   UNL A   1      39.001  28.991  27.739  1.00  0.00     0.031 C 
ATOM     38  C   UNL A   1      37.438  31.789  31.592  1.00  0.00     0.029 A 
ATOM     39  N   UNL A   1      39.376  30.702  31.848  1.00  0.00    -0.354 N 
ATOM     40  C   UNL A   1      40.877  28.106  28.712  1.00  0.00     0.074 A 
ATOM     41  C   UNL A   1      40.040  28.193  27.533  1.00  0.00     0.031 C 
ATOM     42  C   UNL A   1      37.947  32.149  32.780  1.00  0.00     0.029 A 
ATOM     43  C   UNL A   1      39.182  31.407  33.013  1.00  0.00     0.049 A 
ATOM     44  H   UNL A   1      40.174  30.151  31.676  1.00  0.00     0.167 HD
ATOM     45  C   UNL A   1      42.021  27.385  28.796  1.00  0.00     0.034 A 
ATOM     46  C   UNL A   1      39.897  31.416  34.154  1.00  0.00     0.034 A 
ATOM     47  C   UNL A   1      42.835  27.311  29.984  1.00  0.00     0.049 A 
ATOM     48  C   UNL A   1      41.116  30.540  34.255  1.00  0.00     0.074 A 
ATOM     49  C   UNL A   1      43.991  26.579  30.194  1.00  0.00     0.029 A 
ATOM     50  N   UNL A   1      42.583  28.000  31.163  1.00  0.00    -0.354 N 
ATOM     51  N   UNL A   1      41.622  29.728  33.357  1.00  0.00    -0.248 NA
ATOM     52  C   UNL A   1      41.851  30.573  35.525  1.00  0.00     0.031 C 
ATOM     53  C   UNL A   1      44.408  26.787  31.514  1.00  0.00     0.029 A 
ATOM     54  C   UNL A   1      43.552  27.701  32.107  1.00  0.00     0.049 A 
ATOM     55  H   UNL A   1      41.825  28.612  31.307  1.00  0.00     0.167 HD
ATOM     56  C   UNL A   1      42.749  29.167  33.947  1.00  0.00     0.074 A 
ATOM     57  C   UNL A   1      42.850  29.737  35.276  1.00  0.00     0.031 C 
ATOM     58  C   UNL A   1      43.627  28.269  33.432  1.00  0.00     0.034 A 
BRANCH  45  59
ATOM     59  C   UNL A   1      42.421  26.573  27.593  1.00  0.00     0.023 A 
ATOM     60  C   UNL A   1      42.061  25.222  27.458  1.00  0.00     0.031 A 
ATOM     61  C   UNL A   1      43.175  27.165  26.564  1.00  0.00     0.131 A 
ATOM     62  C   UNL A   1      42.488  24.496  26.335  1.00  0.00     0.055 A 
ATOM     63  C   UNL A   1      43.545  26.454  25.421  1.00  0.00     0.041 A 
ATOM     64  F   UNL A   1      43.566  28.446  26.655  1.00  0.00    -0.206 F 
ATOM     65  C   UNL A   1      43.206  25.109  25.305  1.00  0.00     0.022 A 
BRANCH  62  66
ATOM     66  S   UNL A   1      42.156  22.714  26.267  1.00  0.00     0.124 S 
ATOM     67  O   UNL A   1      42.800  22.248  27.493  1.00  0.00    -0.237 OA
ATOM     68  O   UNL A   1      40.699  22.661  26.251  1.00  0.00    -0.237 OA
ATOM     69  O   UNL A   1      42.808  22.291  25.029  1.00  0.00    -0.744 OA
ENDBRANCH  62  66
ENDBRANCH  45  59
BRANCH  46  70
ATOM     70  C   UNL A   1      39.444  32.241  35.306  1.00  0.00     0.023 A 
ATOM     71  C   UNL A   1      39.886  33.562  35.468  1.00  0.00     0.031 A 
ATOM     72  C   UNL A   1      38.552  31.718  36.261  1.00  0.00     0.131 A 
ATOM     73  C   UNL A   1      39.448  34.314  36.569  1.00  0.00     0.055 A 
ATOM     74  C   UNL A   1      38.089  32.481  37.332  1.00  0.00     0.041 A 
ATOM     75  F   UNL A   1      38.098  30.459  36.146  1.00  0.00    -0.206 F 
ATOM     76  C   UNL A   1      38.542  33.787  37.494  1.00  0.00     0.022 A 
BRANCH  73  77
ATOM     77  S   UNL A   1      40.098  35.991  36.794  1.00  0.00     0.124 S 
ATOM     78  O   UNL A   1      41.525  35.736  36.959  1.00  0.00    -0.237 OA
ATOM     79  O   UNL A   1      39.702  36.643  35.551  1.00  0.00    -0.237 OA
ATOM     80  O   UNL A   1      39.407  36.467  37.990  1.00  0.00    -0.744 OA
ENDBRANCH  73  77
ENDBRANCH  46  70
BRANCH  58  81
ATOM     81  C   UNL A   1      44.798  27.885  34.296  1.00  0.00     0.023 A 
ATOM     82  C   UNL A   1      44.721  26.829  35.217  1.00  0.00     0.031 A 
ATOM     83  C   UNL A   1      46.013  28.584  34.178  1.00  0.00     0.131 A 
ATOM     84  C   UNL A   1      45.833  26.524  36.018  1.00  0.00     0.055 A 
ATOM     85  C   UNL A   1      47.128  28.244  34.943  1.00  0.00     0.041 A 
ATOM     86  F   UNL A   1      46.134  29.600  33.310  1.00  0.00    -0.206 F 
ATOM     87  C   UNL A   1      47.040  27.215  35.875  1.00  0.00     0.022 A 
BRANCH  84  88
ATOM     88  S   UNL A   1      45.667  25.240  37.287  1.00  0.00     0.124 S 
ATOM     89  O   UNL A   1      44.844  24.246  36.606  1.00  0.00    -0.237 OA
ATOM     90  O   UNL A   1      47.053  24.858  37.534  1.00  0.00    -0.237 OA
ATOM     91  O   UNL A   1      45.012  25.935  38.395  1.00  0.00    -0.744 OA
ENDBRANCH  84  88
ENDBRANCH  58  81
ENDBRANCH  32  33
ENDBRANCH  25  27
ENDBRANCH  24  25
ENDBRANCH  23  24
ENDBRANCH   1  23
TORSDOF 17
ENDMDL
MODEL 2
REMARK VINA RESULT:     -11.9      5.553     10.442
REMARK SMILES CCS(=O)(=O)c1ccc(N2CCC[C@H](C(=O)OCCOC(=O)c3ccc(-c4c5nc(c(-c6cc(S(=O)(=O)[O-])ccc6F)c6ccc([nH]6)c(-c6cc(S(=O)(=O)[O-])ccc6F)c6nc(c(-c7cc(S(=O)(=O)[O-])ccc7F)c7ccc4[nH]7)C=C6)C=C5)cc3)C2)c(F)c1
REMARK SMILES IDX 18 1 17 2 15 3 16 4 14 5 10 6 11 7 86 8 12 9 13 10 9 11 6 12
REMARK SMILES IDX 7 13 89 14 8 15 87 16 88 17 3 18 4 19 5 20 2 21 1 22 19 23
REMARK SMILES IDX 20 24 21 25 22 26 23 27 24 28 85 29 25 30 84 31 26 32 27 33
REMARK SMILES IDX 28 34 78 35 29 36 83 37 77 38 79 39 30 40 82 41 76 42 75 43
REMARK SMILES IDX 31 45 63 46 43 47 62 48 44 49 47 50 61 51 80 52 45 53 46 54
REMARK SMILES IDX 60 56 81 57 48 58 32 59 33 60 41 61 34 62 40 63 42 64 39 65
REMARK SMILES IDX 35 66 36 67 37 68 38 69 64 70 65 71 73 72 66 73 72 74 74 75
REMARK SMILES IDX 71 76 67 77 68 78 69 79 70 80 49 81 50 82 58 83 51 84 57 85
REMARK SMILES IDX 59 86 56 87 52 88 53 89 54 90 55 91
REMARK H PARENT 79 44 47 55
REMARK Flexibility Score: inf
ROOT
ATOM      1  C   UNL A   1      36.015  22.556  23.712  1.00  0.00     0.274 C 
ENDROOT
BRANCH   1   2
ATOM      2  O   UNL A   1      35.674  23.691  24.531  1.00  0.00    -0.462 OA
BRANCH   2   3
ATOM      3  C   UNL A   1      34.662  24.488  24.099  1.00  0.00     0.310 C 
ATOM      4  O   UNL A   1      34.383  24.672  22.920  1.00  0.00    -0.252 OA
BRANCH   3   5
ATOM      5  C   UNL A   1      33.887  25.144  25.233  1.00  0.00     0.118 C 
ATOM      6  N   UNL A   1      32.289  23.358  25.705  1.00  0.00    -0.368 N 
ATOM      7  C   UNL A   1      31.113  24.148  25.360  1.00  0.00     0.116 C 
ATOM      8  C   UNL A   1      33.445  24.082  26.235  1.00  0.00     0.132 C 
ATOM      9  C   UNL A   1      31.469  25.265  24.382  1.00  0.00     0.022 C 
ATOM     10  C   UNL A   1      32.714  26.043  24.814  1.00  0.00     0.019 C 
BRANCH   6  11
ATOM     11  C   UNL A   1      32.506  22.075  25.234  1.00  0.00     0.073 A 
ATOM     12  C   UNL A   1      33.039  19.475  24.268  1.00  0.00     0.070 A 
ATOM     13  C   UNL A   1      32.532  20.450  23.408  1.00  0.00     0.022 A 
ATOM     14  C   UNL A   1      33.305  19.786  25.600  1.00  0.00     0.061 A 
ATOM     15  C   UNL A   1      32.244  21.729  23.902  1.00  0.00     0.030 A 
ATOM     16  C   UNL A   1      33.052  21.074  26.061  1.00  0.00     0.147 A 
ATOM     17  F   UNL A   1      33.320  21.345  27.349  1.00  0.00    -0.205 F 
BRANCH  12  18
ATOM     18  S   UNL A   1      33.356  17.807  23.755  1.00  0.00     0.178 S 
ATOM     19  O   UNL A   1      34.763  17.559  24.012  1.00  0.00    -0.224 OA
ATOM     20  O   UNL A   1      32.815  17.691  22.415  1.00  0.00    -0.224 OA
BRANCH  18  21
ATOM     21  C   UNL A   1      32.423  16.705  24.786  1.00  0.00     0.139 C 
ATOM     22  C   UNL A   1      33.264  15.887  25.745  1.00  0.00     0.021 C 
ENDBRANCH  18  21
ENDBRANCH  12  18
ENDBRANCH   6  11
ENDBRANCH   3   5
ENDBRANCH   2   3
ENDBRANCH   1   2
BRANCH   1  23
ATOM     23  C   UNL A   1      36.452  21.376  24.580  1.00  0.00     0.275 C 
BRANCH  23  24
ATOM     24  O   UNL A   1      37.058  21.837  25.799  1.00  0.00    -0.458 OA
BRANCH  24  25
ATOM     25  C   UNL A   1      38.342  21.450  25.986  1.00  0.00     0.338 C 
ATOM     26  O   UNL A   1      38.833  20.361  25.748  1.00  0.00    -0.246 OA
BRANCH  25  27
ATOM     27  C   UNL A   1      39.118  22.619  26.413  1.00  0.00     0.060 A 
ATOM     28  C   UNL A   1      38.712  23.880  25.974  1.00  0.00     0.016 A 
ATOM     29  C   UNL A   1      40.249  22.473  27.214  1.00  0.00     0.016 A 
ATOM     30  C   UNL A   1      39.427  25.013  26.345  1.00  0.00     0.010 A 
ATOM     31  C   UNL A   1      40.964  23.611  27.592  1.00  0.00     0.010 A 
ATOM     32  C   UNL A   1      40.554  24.886  27.164  1.00  0.00    -0.014 A 
BRANCH  32  33
ATOM     33  C   UNL A   1      41.312  26.088  27.576  1.00  0.00     0.031 A 
ATOM     34  C   UNL A   1      40.652  27.128  28.430  1.00  0.00     0.074 A 
ATOM     35  C   UNL A   1      42.589  26.238  27.177  1.00  0.00     0.049 A 
ATOM     36  N   UNL A   1      41.069  28.326  28.742  1.00  0.00    -0.248 NA
ATOM     37  C   UNL A   1      39.347  26.770  29.008  1.00  0.00     0.031 C 
ATOM     38  C   UNL A   1      43.356  25.251  26.414  1.00  0.00     0.029 A 
ATOM     39  N   UNL A   1      43.465  27.278  27.354  1.00  0.00    -0.354 N 
ATOM     40  C   UNL A   1      40.073  28.878  29.537  1.00  0.00     0.074 A 
ATOM     41  C   UNL A   1      39.025  27.885  29.652  1.00  0.00     0.031 C 
ATOM     42  C   UNL A   1      44.589  25.734  26.190  1.00  0.00     0.029 A 
ATOM     43  C   UNL A   1      44.676  27.086  26.732  1.00  0.00     0.049 A 
ATOM     44  H   UNL A   1      43.247  28.084  27.876  1.00  0.00     0.167 HD
ATOM     45  C   UNL A   1      40.040  30.106  30.108  1.00  0.00     0.034 A 
ATOM     46  C   UNL A   1      45.719  27.924  26.579  1.00  0.00     0.034 A 
ATOM     47  C   UNL A   1      41.095  31.080  29.975  1.00  0.00     0.049 A 
ATOM     48  C   UNL A   1      45.624  29.314  27.147  1.00  0.00     0.074 A 
ATOM     49  C   UNL A   1      41.148  32.370  30.475  1.00  0.00     0.029 A 
ATOM     50  N   UNL A   1      42.288  30.869  29.295  1.00  0.00    -0.354 N 
ATOM     51  N   UNL A   1      44.633  29.866  27.808  1.00  0.00    -0.248 NA
ATOM     52  C   UNL A   1      46.779  30.195  26.940  1.00  0.00     0.031 C 
ATOM     53  C   UNL A   1      42.349  32.953  30.057  1.00  0.00     0.029 A 
ATOM     54  C   UNL A   1      43.077  32.007  29.353  1.00  0.00     0.049 A 
ATOM     55  H   UNL A   1      42.536  30.033  28.839  1.00  0.00     0.167 HD
ATOM     56  C   UNL A   1      45.055  31.156  28.112  1.00  0.00     0.074 A 
ATOM     57  C   UNL A   1      46.391  31.296  27.567  1.00  0.00     0.031 C 
ATOM     58  C   UNL A   1      44.400  32.132  28.791  1.00  0.00     0.034 A 
BRANCH  45  59
ATOM     59  C   UNL A   1      38.799  30.484  30.872  1.00  0.00     0.023 A 
ATOM     60  C   UNL A   1      37.741  31.185  30.269  1.00  0.00     0.031 A 
ATOM     61  C   UNL A   1      38.674  30.134  32.228  1.00  0.00     0.131 A 
ATOM     62  C   UNL A   1      36.620  31.546  31.031  1.00  0.00     0.055 A 
ATOM     63  C   UNL A   1      37.530  30.443  32.966  1.00  0.00     0.041 A 
ATOM     64  F   UNL A   1      39.665  29.485  32.859  1.00  0.00    -0.206 F 
ATOM     65  C   UNL A   1      36.497  31.159  32.369  1.00  0.00     0.022 A 
BRANCH  62  66
ATOM     66  S   UNL A   1      35.349  32.596  30.275  1.00  0.00     0.124 S 
ATOM     67  O   UNL A   1      34.901  31.761  29.164  1.00  0.00    -0.237 OA
ATOM     68  O   UNL A   1      34.396  32.778  31.363  1.00  0.00    -0.237 OA
ATOM     69  O   UNL A   1      36.084  33.798  29.886  1.00  0.00    -0.744 OA
ENDBRANCH  62  66
ENDBRANCH  45  59
BRANCH  46  70
ATOM     70  C   UNL A   1      46.915  27.486  25.810  1.00  0.00     0.023 A 
ATOM     71  C   UNL A   1      47.075  27.835  24.461  1.00  0.00     0.031 A 
ATOM     72  C   UNL A   1      47.922  26.716  26.420  1.00  0.00     0.131 A 
ATOM     73  C   UNL A   1      48.209  27.400  23.759  1.00  0.00     0.055 A 
ATOM     74  C   UNL A   1      49.066  26.319  25.730  1.00  0.00     0.041 A 
ATOM     75  F   UNL A   1      47.815  26.361  27.711  1.00  0.00    -0.206 F 
ATOM     76  C   UNL A   1      49.213  26.657  24.388  1.00  0.00     0.022 A 
BRANCH  73  77
ATOM     77  S   UNL A   1      48.350  27.799  21.996  1.00  0.00     0.124 S 
ATOM     78  O   UNL A   1      47.114  28.538  21.760  1.00  0.00    -0.237 OA
ATOM     79  O   UNL A   1      49.581  28.579  21.955  1.00  0.00    -0.237 OA
ATOM     80  O   UNL A   1      48.425  26.488  21.355  1.00  0.00    -0.744 OA
ENDBRANCH  73  77
ENDBRANCH  46  70
BRANCH  58  81
ATOM     81  C   UNL A   1      45.142  33.421  29.019  1.00  0.00     0.023 A 
ATOM     82  C   UNL A   1      44.976  34.529  28.172  1.00  0.00     0.031 A 
ATOM     83  C   UNL A   1      46.016  33.541  30.115  1.00  0.00     0.131 A 
ATOM     84  C   UNL A   1      45.708  35.702  28.411  1.00  0.00     0.055 A 
ATOM     85  C   UNL A   1      46.704  34.726  30.374  1.00  0.00     0.041 A 
ATOM     86  F   UNL A   1      46.206  32.510  30.952  1.00  0.00    -0.206 F 
ATOM     87  C   UNL A   1      46.559  35.811  29.516  1.00  0.00     0.022 A 
BRANCH  84  88
ATOM     88  S   UNL A   1      45.573  37.071  27.231  1.00  0.00     0.124 S 
ATOM     89  O   UNL A   1      46.023  38.206  28.032  1.00  0.00    -0.237 OA
ATOM     90  O   UNL A   1      46.468  36.654  26.158  1.00  0.00    -0.237 OA
ATOM     91  O   UNL A   1      44.153  37.083  26.882  1.00  0.00    -0.744 OA
ENDBRANCH  84  88
ENDBRANCH  58  81
ENDBRANCH  32  33
ENDBRANCH  25  27
ENDBRANCH  24  25
ENDBRANCH  23  24
ENDBRANCH   1  23
TORSDOF 17
ENDMDL
MODEL 3
REMARK VINA RESULT:     -11.8      1.444      1.667
REMARK SMILES CCS(=O)(=O)c1ccc(N2CCC[C@H](C(=O)OCCOC(=O)c3ccc(-c4c5nc(c(-c6cc(S(=O)(=O)[O-])ccc6F)c6ccc([nH]6)c(-c6cc(S(=O)(=O)[O-])ccc6F)c6nc(c(-c7cc(S(=O)(=O)[O-])ccc7F)c7ccc4[nH]7)C=C6)C=C5)cc3)C2)c(F)c1
REMARK SMILES IDX 18 1 17 2 15 3 16 4 14 5 10 6 11 7 86 8 12 9 13 10 9 11 6 12
REMARK SMILES IDX 7 13 89 14 8 15 87 16 88 17 3 18 4 19 5 20 2 21 1 22 19 23
REMARK SMILES IDX 20 24 21 25 22 26 23 27 24 28 85 29 25 30 84 31 26 32 27 33
REMARK SMILES IDX 28 34 78 35 29 36 83 37 77 38 79 39 30 40 82 41 76 42 75 43
REMARK SMILES IDX 31 45 63 46 43 47 62 48 44 49 47 50 61 51 80 52 45 53 46 54
REMARK SMILES IDX 60 56 81 57 48 58 32 59 33 60 41 61 34 62 40 63 42 64 39 65
REMARK SMILES IDX 35 66 36 67 37 68 38 69 64 70 65 71 73 72 66 73 72 74 74 75
REMARK SMILES IDX 71 76 67 77 68 78 69 79 70 80 49 81 50 82 58 83 51 84 57 85
REMARK SMILES IDX 59 86 56 87 52 88 53 89 54 90 55 91
REMARK H PARENT 79 44 47 55
REMARK Flexibility Score: inf
ROOT
ATOM      1  C   UNL A   1      31.625  28.609  27.201  1.00  0.00     0.274 C 
ENDROOT
BRANCH   1   2
ATOM      2  O   UNL A   1      32.661  27.609  27.211  1.00  0.00    -0.462 OA
BRANCH   2   3
ATOM      3  C   UNL A   1      32.410  26.446  26.555  1.00  0.00     0.310 C 
ATOM      4  O   UNL A   1      31.339  25.851  26.591  1.00  0.00    -0.252 OA
BRANCH   3   5
ATOM      5  C   UNL A   1      33.600  25.938  25.753  1.00  0.00     0.118 C 
ATOM      6  N   UNL A   1      32.714  26.240  23.496  1.00  0.00    -0.368 N 
ATOM      7  C   UNL A   1      32.752  24.822  23.156  1.00  0.00     0.116 C 
ATOM      8  C   UNL A   1      33.714  26.723  24.450  1.00  0.00     0.132 C 
ATOM      9  C   UNL A   1      32.679  23.955  24.410  1.00  0.00     0.022 C 
ATOM     10  C   UNL A   1      33.644  24.423  25.502  1.00  0.00     0.019 C 
BRANCH   6  11
ATOM     11  C   UNL A   1      31.610  27.044  23.274  1.00  0.00     0.073 A 
ATOM     12  C   UNL A   1      29.376  28.731  22.898  1.00  0.00     0.070 A 
ATOM     13  C   UNL A   1      29.203  27.447  23.414  1.00  0.00     0.022 A 
ATOM     14  C   UNL A   1      30.654  29.194  22.587  1.00  0.00     0.061 A 
ATOM     15  C   UNL A   1      30.313  26.607  23.571  1.00  0.00     0.030 A 
ATOM     16  C   UNL A   1      31.748  28.359  22.791  1.00  0.00     0.147 A 
ATOM     17  F   UNL A   1      32.967  28.834  22.484  1.00  0.00    -0.205 F 
BRANCH  12  18
ATOM     18  S   UNL A   1      28.025  29.836  22.586  1.00  0.00     0.178 S 
ATOM     19  O   UNL A   1      26.867  29.267  23.251  1.00  0.00    -0.224 OA
ATOM     20  O   UNL A   1      28.018  30.067  21.155  1.00  0.00    -0.224 OA
BRANCH  18  21
ATOM     21  C   UNL A   1      28.371  31.395  23.359  1.00  0.00     0.139 C 
ATOM     22  C   UNL A   1      28.615  32.532  22.387  1.00  0.00     0.021 C 
ENDBRANCH  18  21
ENDBRANCH  12  18
ENDBRANCH   6  11
ENDBRANCH   3   5
ENDBRANCH   2   3
ENDBRANCH   1   2
BRANCH   1  23
ATOM     23  C   UNL A   1      31.994  29.760  26.266  1.00  0.00     0.275 C 
BRANCH  23  24
ATOM     24  O   UNL A   1      33.384  30.098  26.399  1.00  0.00    -0.458 OA
BRANCH  24  25
ATOM     25  C   UNL A   1      33.638  31.233  27.092  1.00  0.00     0.338 C 
ATOM     26  O   UNL A   1      32.946  32.233  27.162  1.00  0.00    -0.246 OA
BRANCH  25  27
ATOM     27  C   UNL A   1      34.855  31.027  27.886  1.00  0.00     0.060 A 
ATOM     28  C   UNL A   1      35.048  29.784  28.490  1.00  0.00     0.016 A 
ATOM     29  C   UNL A   1      35.780  32.055  28.055  1.00  0.00     0.016 A 
ATOM     30  C   UNL A   1      36.182  29.551  29.260  1.00  0.00     0.010 A 
ATOM     31  C   UNL A   1      36.922  31.819  28.824  1.00  0.00     0.010 A 
ATOM     32  C   UNL A   1      37.131  30.565  29.426  1.00  0.00    -0.014 A 
BRANCH  32  33
ATOM     33  C   UNL A   1      38.347  30.321  30.231  1.00  0.00     0.031 A 
ATOM     34  C   UNL A   1      39.408  29.395  29.717  1.00  0.00     0.074 A 
ATOM     35  C   UNL A   1      38.489  30.930  31.423  1.00  0.00     0.049 A 
ATOM     36  N   UNL A   1      40.447  28.905  30.337  1.00  0.00    -0.248 NA
ATOM     37  C   UNL A   1      39.279  28.965  28.315  1.00  0.00     0.031 C 
ATOM     38  C   UNL A   1      37.559  31.913  31.985  1.00  0.00     0.029 A 
ATOM     39  N   UNL A   1      39.465  30.811  32.378  1.00  0.00    -0.354 N 
ATOM     40  C   UNL A   1      41.089  28.091  29.413  1.00  0.00     0.074 A 
ATOM     41  C   UNL A   1      40.316  28.147  28.190  1.00  0.00     0.031 C 
ATOM     42  C   UNL A   1      38.012  32.307  33.186  1.00  0.00     0.029 A 
ATOM     43  C   UNL A   1      39.222  31.558  33.507  1.00  0.00     0.049 A 
ATOM     44  H   UNL A   1      40.264  30.245  32.266  1.00  0.00     0.167 HD
ATOM     45  C   UNL A   1      42.218  27.359  29.581  1.00  0.00     0.034 A 
ATOM     46  C   UNL A   1      39.877  31.597  34.683  1.00  0.00     0.034 A 
ATOM     47  C   UNL A   1      42.968  27.316  30.811  1.00  0.00     0.049 A 
ATOM     48  C   UNL A   1      41.077  30.710  34.877  1.00  0.00     0.074 A 
ATOM     49  C   UNL A   1      44.101  26.577  31.106  1.00  0.00     0.029 A 
ATOM     50  N   UNL A   1      42.665  28.048  31.952  1.00  0.00    -0.354 N 
ATOM     51  N   UNL A   1      41.617  29.862  34.033  1.00  0.00    -0.248 NA
ATOM     52  C   UNL A   1      41.746  30.777  36.181  1.00  0.00     0.031 C 
ATOM     53  C   UNL A   1      44.452  26.825  32.437  1.00  0.00     0.029 A 
ATOM     54  C   UNL A   1      43.580  27.770  32.954  1.00  0.00     0.049 A 
ATOM     55  H   UNL A   1      41.909  28.674  32.035  1.00  0.00     0.167 HD
ATOM     56  C   UNL A   1      42.704  29.307  34.700  1.00  0.00     0.074 A 
ATOM     57  C   UNL A   1      42.744  29.921  36.012  1.00  0.00     0.031 C 
ATOM     58  C   UNL A   1      43.594  28.382  34.261  1.00  0.00     0.034 A 
BRANCH  45  59
ATOM     59  C   UNL A   1      42.668  26.501  28.428  1.00  0.00     0.023 A 
ATOM     60  C   UNL A   1      43.785  26.837  27.646  1.00  0.00     0.031 A 
ATOM     61  C   UNL A   1      41.965  25.326  28.110  1.00  0.00     0.131 A 
ATOM     62  C   UNL A   1      44.145  26.025  26.559  1.00  0.00     0.055 A 
ATOM     63  C   UNL A   1      42.363  24.490  27.067  1.00  0.00     0.041 A 
ATOM     64  F   UNL A   1      40.876  24.971  28.811  1.00  0.00    -0.206 F 
ATOM     65  C   UNL A   1      43.456  24.841  26.280  1.00  0.00     0.022 A 
BRANCH  62  66
ATOM     66  S   UNL A   1      45.484  26.570  25.465  1.00  0.00     0.124 S 
ATOM     67  O   UNL A   1      45.658  25.400  24.608  1.00  0.00    -0.237 OA
ATOM     68  O   UNL A   1      44.914  27.751  24.826  1.00  0.00    -0.237 OA
ATOM     69  O   UNL A   1      46.592  26.833  26.382  1.00  0.00    -0.744 OA
ENDBRANCH  62  66
ENDBRANCH  45  59
BRANCH  46  70
ATOM     70  C   UNL A   1      39.377  32.467  35.781  1.00  0.00     0.023 A 
ATOM     71  C   UNL A   1      39.858  33.774  35.945  1.00  0.00     0.031 A 
ATOM     72  C   UNL A   1      38.400  32.001  36.681  1.00  0.00     0.131 A 
ATOM     73  C   UNL A   1      39.373  34.568  36.996  1.00  0.00     0.055 A 
ATOM     74  C   UNL A   1      37.894  32.807  37.700  1.00  0.00     0.041 A 
ATOM     75  F   UNL A   1      37.907  30.758  36.563  1.00  0.00    -0.206 F 
ATOM     76  C   UNL A   1      38.385  34.099  37.865  1.00  0.00     0.022 A 
BRANCH  73  77
ATOM     77  S   UNL A   1      40.071  36.225  37.229  1.00  0.00     0.124 S 
ATOM     78  O   UNL A   1      39.874  36.819  35.911  1.00  0.00    -0.237 OA
ATOM     79  O   UNL A   1      39.241  36.759  38.304  1.00  0.00    -0.237 OA
ATOM     80  O   UNL A   1      41.462  35.961  37.593  1.00  0.00    -0.744 OA
ENDBRANCH  73  77
ENDBRANCH  46  70
BRANCH  58  81
ATOM     81  C   UNL A   1      44.714  28.013  35.197  1.00  0.00     0.023 A 
ATOM     82  C   UNL A   1      44.514  27.147  36.284  1.00  0.00     0.031 A 
ATOM     83  C   UNL A   1      46.005  28.529  34.982  1.00  0.00     0.131 A 
ATOM     84  C   UNL A   1      45.583  26.852  37.144  1.00  0.00     0.055 A 
ATOM     85  C   UNL A   1      47.074  28.194  35.812  1.00  0.00     0.041 A 
ATOM     86  F   UNL A   1      46.245  29.360  33.956  1.00  0.00    -0.206 F 
ATOM     87  C   UNL A   1      46.865  27.358  36.905  1.00  0.00     0.022 A 
BRANCH  84  88
ATOM     88  S   UNL A   1      45.269  25.834  38.610  1.00  0.00     0.124 S 
ATOM     89  O   UNL A   1      45.232  24.490  38.043  1.00  0.00    -0.237 OA
ATOM     90  O   UNL A   1      46.416  26.137  39.458  1.00  0.00    -0.237 OA
ATOM     91  O   UNL A   1      43.986  26.333  39.106  1.00  0.00    -0.744 OA
ENDBRANCH  84  88
ENDBRANCH  58  81
ENDBRANCH  32  33
ENDBRANCH  25  27
ENDBRANCH  24  25
ENDBRANCH  23  24
ENDBRANCH   1  23
TORSDOF 17
ENDMDL
