MODEL 1
REMARK VINA RESULT:     -11.1      0.000      0.000
REMARK SMILES O=C(CCSC1=NC=NC2=[NH+]C=N[C@@H]12)OCCOC(=O)c1ccc(-c2c3nc(c(-c4cc(S(=O)(=O)[O-])ccc4F)c4ccc([nH]4)c(-c4cc(S(=O)(=O)[O-])ccc4F)c4nc(c(-c5cc(S(=O)(=O)[O-])ccc5F)c5ccc2[nH]5)C=C4)C=C3)cc1
REMARK SMILES IDX 16 1 15 2 2 3 1 4 3 5 4 6 5 7 6 8 7 9 14 10 8 11 10 12 13 13
REMARK SMILES IDX 9 14 11 15 12 16 17 18 18 19 19 20 20 21 21 22 22 23 83 24
REMARK SMILES IDX 23 25 82 26 24 27 25 28 26 29 76 30 27 31 81 32 75 33 77 34
REMARK SMILES IDX 28 35 80 36 74 37 73 38 29 40 61 41 41 42 60 43 42 44 45 45
REMARK SMILES IDX 59 46 78 47 43 48 44 49 58 51 79 52 46 53 30 54 31 55 39 56
REMARK SMILES IDX 32 57 38 58 40 59 37 60 33 61 34 62 35 63 36 64 62 65 63 66
REMARK SMILES IDX 71 67 64 68 70 69 72 70 69 71 65 72 66 73 67 74 68 75 47 76
REMARK SMILES IDX 48 77 56 78 49 79 55 80 57 81 54 82 50 83 51 84 52 85 53 86
REMARK H PARENT 11 17 77 39 45 50
REMARK Flexibility Score: inf
ROOT
ATOM      1  C   UNL A   1      37.549  30.588  32.919  1.00  0.00     0.274 C 
ENDROOT
BRANCH   1   2
ATOM      2  O   UNL A   1      38.210  31.748  33.465  1.00  0.00    -0.462 OA
BRANCH   2   3
ATOM      3  C   UNL A   1      37.674  32.669  34.299  1.00  0.00     0.306 C 
ATOM      4  O   UNL A   1      37.117  32.320  35.340  1.00  0.00    -0.252 OA
BRANCH   3   5
ATOM      5  C   UNL A   1      37.800  34.136  33.968  1.00  0.00     0.134 C 
BRANCH   5   6
ATOM      6  C   UNL A   1      36.814  34.574  32.891  1.00  0.00     0.088 C 
BRANCH   6   7
ATOM      7  S   UNL A   1      35.063  34.143  33.207  1.00  0.00    -0.106 SA
BRANCH   7   8
ATOM      8  C   UNL A   1      34.223  35.608  32.730  1.00  0.00     0.128 C 
ATOM      9  N   UNL A   1      34.533  36.733  33.284  1.00  0.00    -0.214 NA
ATOM     10  C   UNL A   1      33.108  35.500  31.738  1.00  0.00     0.340 C 
ATOM     11  C   UNL A   1      33.894  37.877  32.865  1.00  0.00     0.320 C 
ATOM     12  C   UNL A   1      32.968  36.834  31.119  1.00  0.00     0.285 C 
ATOM     13  N   UNL A   1      33.348  34.664  30.534  1.00  0.00    -0.130 NA
ATOM     14  N   UNL A   1      33.095  37.968  31.847  1.00  0.00    -0.092 NA
ATOM     15  N   UNL A   1      32.848  36.792  29.840  1.00  0.00    -0.248 N 
ATOM     16  C   UNL A   1      33.086  35.472  29.544  1.00  0.00     0.362 C 
ATOM     17  H   UNL A   1      32.637  37.528  29.221  1.00  0.00     0.266 HD
ENDBRANCH   7   8
ENDBRANCH   6   7
ENDBRANCH   5   6
ENDBRANCH   3   5
ENDBRANCH   2   3
ENDBRANCH   1   2
BRANCH   1  18
ATOM     18  C   UNL A   1      36.335  30.883  32.073  1.00  0.00     0.275 C 
BRANCH  18  19
ATOM     19  O   UNL A   1      36.688  30.646  30.729  1.00  0.00    -0.458 OA
BRANCH  19  20
ATOM     20  C   UNL A   1      36.885  31.763  29.981  1.00  0.00     0.338 C 
ATOM     21  O   UNL A   1      36.114  32.678  29.790  1.00  0.00    -0.246 OA
BRANCH  20  22
ATOM     22  C   UNL A   1      38.156  31.548  29.277  1.00  0.00     0.060 A 
ATOM     23  C   UNL A   1      38.085  30.416  28.474  1.00  0.00     0.016 A 
ATOM     24  C   UNL A   1      39.324  31.929  29.960  1.00  0.00     0.016 A 
ATOM     25  C   UNL A   1      39.023  29.448  28.711  1.00  0.00     0.010 A 
ATOM     26  C   UNL A   1      40.233  30.943  30.233  1.00  0.00     0.010 A 
ATOM     27  C   UNL A   1      40.018  29.689  29.672  1.00  0.00    -0.014 A 
BRANCH  27  28
ATOM     28  C   UNL A   1      41.011  28.662  29.847  1.00  0.00     0.031 A 
ATOM     29  C   UNL A   1      41.238  28.448  31.286  1.00  0.00     0.074 A 
ATOM     30  C   UNL A   1      41.597  27.959  28.866  1.00  0.00     0.049 A 
ATOM     31  N   UNL A   1      42.162  28.997  31.998  1.00  0.00    -0.248 NA
ATOM     32  C   UNL A   1      40.137  27.862  32.068  1.00  0.00     0.031 C 
ATOM     33  C   UNL A   1      41.269  27.888  27.445  1.00  0.00     0.029 A 
ATOM     34  N   UNL A   1      42.610  27.070  28.997  1.00  0.00    -0.354 N 
ATOM     35  C   UNL A   1      41.901  28.583  33.294  1.00  0.00     0.074 A 
ATOM     36  C   UNL A   1      40.524  28.185  33.300  1.00  0.00     0.031 C 
ATOM     37  C   UNL A   1      41.921  26.830  26.900  1.00  0.00     0.029 A 
ATOM     38  C   UNL A   1      42.801  26.241  27.902  1.00  0.00     0.049 A 
ATOM     39  H   UNL A   1      43.167  27.015  29.806  1.00  0.00     0.167 HD
ATOM     40  C   UNL A   1      42.926  28.282  34.133  1.00  0.00     0.034 A 
ATOM     41  C   UNL A   1      43.560  25.112  27.885  1.00  0.00     0.034 A 
ATOM     42  C   UNL A   1      44.171  28.845  33.635  1.00  0.00     0.049 A 
ATOM     43  C   UNL A   1      44.534  25.236  29.009  1.00  0.00     0.074 A 
ATOM     44  C   UNL A   1      44.590  30.124  33.314  1.00  0.00     0.029 A 
ATOM     45  N   UNL A   1      45.057  27.997  32.996  1.00  0.00    -0.354 N 
ATOM     46  N   UNL A   1      45.473  26.145  29.038  1.00  0.00    -0.248 NA
ATOM     47  C   UNL A   1      44.151  24.714  30.316  1.00  0.00     0.031 C 
ATOM     48  C   UNL A   1      45.378  29.973  32.134  1.00  0.00     0.029 A 
ATOM     49  C   UNL A   1      45.475  28.611  31.840  1.00  0.00     0.049 A 
ATOM     50  H   UNL A   1      45.338  27.110  33.314  1.00  0.00     0.167 HD
ATOM     51  C   UNL A   1      45.488  26.616  30.344  1.00  0.00     0.074 A 
ATOM     52  C   UNL A   1      44.718  25.634  31.107  1.00  0.00     0.031 C 
ATOM     53  C   UNL A   1      45.864  27.899  30.634  1.00  0.00     0.034 A 
BRANCH  40  54
ATOM     54  C   UNL A   1      42.886  27.119  35.104  1.00  0.00     0.023 A 
ATOM     55  C   UNL A   1      43.694  26.021  34.770  1.00  0.00     0.031 A 
ATOM     56  C   UNL A   1      41.927  26.880  36.119  1.00  0.00     0.131 A 
ATOM     57  C   UNL A   1      43.413  24.743  35.270  1.00  0.00     0.055 A 
ATOM     58  C   UNL A   1      41.692  25.615  36.660  1.00  0.00     0.041 A 
ATOM     59  F   UNL A   1      41.115  27.819  36.610  1.00  0.00    -0.206 F 
ATOM     60  C   UNL A   1      42.405  24.526  36.202  1.00  0.00     0.022 A 
BRANCH  57  61
ATOM     61  S   UNL A   1      44.264  23.344  34.507  1.00  0.00     0.124 S 
ATOM     62  O   UNL A   1      45.505  23.974  34.068  1.00  0.00    -0.237 OA
ATOM     63  O   UNL A   1      44.371  22.417  35.629  1.00  0.00    -0.237 OA
ATOM     64  O   UNL A   1      43.353  22.938  33.441  1.00  0.00    -0.744 OA
ENDBRANCH  57  61
ENDBRANCH  40  54
BRANCH  41  65
ATOM     65  C   UNL A   1      43.218  23.819  27.222  1.00  0.00     0.023 A 
ATOM     66  C   UNL A   1      44.024  23.224  26.226  1.00  0.00     0.031 A 
ATOM     67  C   UNL A   1      42.174  23.020  27.745  1.00  0.00     0.131 A 
ATOM     68  C   UNL A   1      43.768  21.898  25.797  1.00  0.00     0.055 A 
ATOM     69  C   UNL A   1      41.925  21.715  27.316  1.00  0.00     0.041 A 
ATOM     70  F   UNL A   1      41.407  23.450  28.759  1.00  0.00    -0.206 F 
ATOM     71  C   UNL A   1      42.727  21.144  26.345  1.00  0.00     0.022 A 
BRANCH  68  72
ATOM     72  S   UNL A   1      44.844  21.090  24.564  1.00  0.00     0.124 S 
ATOM     73  O   UNL A   1      44.219  19.781  24.417  1.00  0.00    -0.237 OA
ATOM     74  O   UNL A   1      44.746  21.991  23.423  1.00  0.00    -0.237 OA
ATOM     75  O   UNL A   1      46.156  21.071  25.216  1.00  0.00    -0.744 OA
ENDBRANCH  68  72
ENDBRANCH  41  65
BRANCH  53  76
ATOM     76  C   UNL A   1      46.563  28.708  29.558  1.00  0.00     0.023 A 
ATOM     77  C   UNL A   1      45.918  29.392  28.501  1.00  0.00     0.031 A 
ATOM     78  C   UNL A   1      47.952  28.886  29.695  1.00  0.00     0.131 A 
ATOM     79  C   UNL A   1      46.668  30.205  27.626  1.00  0.00     0.055 A 
ATOM     80  C   UNL A   1      48.685  29.708  28.841  1.00  0.00     0.041 A 
ATOM     81  F   UNL A   1      48.620  28.285  30.694  1.00  0.00    -0.206 F 
ATOM     82  C   UNL A   1      48.046  30.368  27.800  1.00  0.00     0.022 A 
BRANCH  79  83
ATOM     83  S   UNL A   1      45.868  31.060  26.228  1.00  0.00     0.124 S 
ATOM     84  O   UNL A   1      44.445  30.943  26.524  1.00  0.00    -0.237 OA
ATOM     85  O   UNL A   1      46.431  32.404  26.316  1.00  0.00    -0.237 OA
ATOM     86  O   UNL A   1      46.311  30.292  25.061  1.00  0.00    -0.744 OA
ENDBRANCH  79  83
ENDBRANCH  53  76
ENDBRANCH  27  28
ENDBRANCH  20  22
ENDBRANCH  19  20
ENDBRANCH  18  19
ENDBRANCH   1  18
TORSDOF 17
ENDMDL
MODEL 2
REMARK VINA RESULT:     -10.8      2.629      7.270
REMARK SMILES O=C(CCSC1=NC=NC2=[NH+]C=N[C@@H]12)OCCOC(=O)c1ccc(-c2c3nc(c(-c4cc(S(=O)(=O)[O-])ccc4F)c4ccc([nH]4)c(-c4cc(S(=O)(=O)[O-])ccc4F)c4nc(c(-c5cc(S(=O)(=O)[O-])ccc5F)c5ccc2[nH]5)C=C4)C=C3)cc1
REMARK SMILES IDX 16 1 15 2 2 3 1 4 3 5 4 6 5 7 6 8 7 9 14 10 8 11 10 12 13 13
REMARK SMILES IDX 9 14 11 15 12 16 17 18 18 19 19 20 20 21 21 22 22 23 83 24
REMARK SMILES IDX 23 25 82 26 24 27 25 28 26 29 76 30 27 31 81 32 75 33 77 34
REMARK SMILES IDX 28 35 80 36 74 37 73 38 29 40 61 41 41 42 60 43 42 44 45 45
REMARK SMILES IDX 59 46 78 47 43 48 44 49 58 51 79 52 46 53 30 54 31 55 39 56
REMARK SMILES IDX 32 57 38 58 40 59 37 60 33 61 34 62 35 63 36 64 62 65 63 66
REMARK SMILES IDX 71 67 64 68 70 69 72 70 69 71 65 72 66 73 67 74 68 75 47 76
REMARK SMILES IDX 48 77 56 78 49 79 55 80 57 81 54 82 50 83 51 84 52 85 53 86
REMARK H PARENT 11 17 77 39 45 50
REMARK Flexibility Score: inf
ROOT
ATOM      1  C   UNL A   1      38.692  32.826  30.911  1.00  0.00     0.274 C 
ENDROOT
BRANCH   1   2
ATOM      2  O   UNL A   1      38.143  33.955  31.623  1.00  0.00    -0.462 OA
BRANCH   2   3
ATOM      3  C   UNL A   1      37.684  33.965  32.896  1.00  0.00     0.306 C 
ATOM      4  O   UNL A   1      37.888  34.934  33.626  1.00  0.00    -0.252 OA
BRANCH   3   5
ATOM      5  C   UNL A   1      36.881  32.794  33.406  1.00  0.00     0.134 C 
BRANCH   5   6
ATOM      6  C   UNL A   1      35.391  33.107  33.492  1.00  0.00     0.088 C 
BRANCH   6   7
ATOM      7  S   UNL A   1      34.563  33.432  31.893  1.00  0.00    -0.106 SA
BRANCH   7   8
ATOM      8  C   UNL A   1      33.995  35.080  32.091  1.00  0.00     0.128 C 
ATOM      9  N   UNL A   1      34.348  35.759  33.133  1.00  0.00    -0.214 NA
ATOM     10  C   UNL A   1      33.047  35.636  31.075  1.00  0.00     0.340 C 
ATOM     11  C   UNL A   1      33.929  37.063  33.248  1.00  0.00     0.320 C 
ATOM     12  C   UNL A   1      33.173  37.106  31.146  1.00  0.00     0.285 C 
ATOM     13  N   UNL A   1      33.372  35.403  29.644  1.00  0.00    -0.130 NA
ATOM     14  N   UNL A   1      33.320  37.746  32.329  1.00  0.00    -0.092 NA
ATOM     15  N   UNL A   1      33.254  37.667  29.992  1.00  0.00    -0.248 N 
ATOM     16  C   UNL A   1      33.372  36.603  29.132  1.00  0.00     0.362 C 
ATOM     17  H   UNL A   1      33.236  38.627  29.776  1.00  0.00     0.266 HD
ENDBRANCH   7   8
ENDBRANCH   6   7
ENDBRANCH   5   6
ENDBRANCH   3   5
ENDBRANCH   2   3
ENDBRANCH   1   2
BRANCH   1  18
ATOM     18  C   UNL A   1      37.673  31.851  30.375  1.00  0.00     0.275 C 
BRANCH  18  19
ATOM     19  O   UNL A   1      38.197  30.554  30.545  1.00  0.00    -0.458 OA
BRANCH  19  20
ATOM     20  C   UNL A   1      37.296  29.547  30.403  1.00  0.00     0.338 C 
ATOM     21  O   UNL A   1      36.251  29.392  30.996  1.00  0.00    -0.246 OA
BRANCH  20  22
ATOM     22  C   UNL A   1      37.940  28.562  29.524  1.00  0.00     0.060 A 
ATOM     23  C   UNL A   1      38.659  27.636  30.269  1.00  0.00     0.016 A 
ATOM     24  C   UNL A   1      38.364  29.026  28.266  1.00  0.00     0.016 A 
ATOM     25  C   UNL A   1      39.989  27.522  29.968  1.00  0.00     0.010 A 
ATOM     26  C   UNL A   1      39.703  28.950  27.996  1.00  0.00     0.010 A 
ATOM     27  C   UNL A   1      40.510  28.271  28.902  1.00  0.00    -0.014 A 
BRANCH  27  28
ATOM     28  C   UNL A   1      41.903  28.075  28.593  1.00  0.00     0.031 A 
ATOM     29  C   UNL A   1      42.062  26.808  27.860  1.00  0.00     0.074 A 
ATOM     30  C   UNL A   1      42.897  28.931  28.867  1.00  0.00     0.049 A 
ATOM     31  N   UNL A   1      42.358  25.664  28.376  1.00  0.00    -0.248 NA
ATOM     32  C   UNL A   1      41.495  26.733  26.503  1.00  0.00     0.031 C 
ATOM     33  C   UNL A   1      42.837  30.312  29.338  1.00  0.00     0.029 A 
ATOM     34  N   UNL A   1      44.223  28.722  28.687  1.00  0.00    -0.354 N 
ATOM     35  C   UNL A   1      42.281  24.771  27.321  1.00  0.00     0.074 A 
ATOM     36  C   UNL A   1      41.463  25.412  26.333  1.00  0.00     0.031 C 
ATOM     37  C   UNL A   1      44.059  30.880  29.182  1.00  0.00     0.029 A 
ATOM     38  C   UNL A   1      45.003  29.867  28.725  1.00  0.00     0.049 A 
ATOM     39  H   UNL A   1      44.604  27.826  28.541  1.00  0.00     0.167 HD
ATOM     40  C   UNL A   1      43.173  23.752  27.222  1.00  0.00     0.034 A 
ATOM     41  C   UNL A   1      46.298  29.959  28.317  1.00  0.00     0.034 A 
ATOM     42  C   UNL A   1      43.837  23.534  28.498  1.00  0.00     0.049 A 
ATOM     43  C   UNL A   1      46.857  28.576  28.357  1.00  0.00     0.074 A 
ATOM     44  C   UNL A   1      43.395  23.244  29.776  1.00  0.00     0.029 A 
ATOM     45  N   UNL A   1      45.119  24.027  28.656  1.00  0.00    -0.354 N 
ATOM     46  N   UNL A   1      47.011  27.904  29.469  1.00  0.00    -0.248 NA
ATOM     47  C   UNL A   1      46.750  27.752  27.159  1.00  0.00     0.031 C 
ATOM     48  C   UNL A   1      44.222  24.020  30.642  1.00  0.00     0.029 A 
ATOM     49  C   UNL A   1      45.179  24.676  29.866  1.00  0.00     0.049 A 
ATOM     50  H   UNL A   1      45.858  23.930  28.014  1.00  0.00     0.167 HD
ATOM     51  C   UNL A   1      46.592  26.613  29.178  1.00  0.00     0.074 A 
ATOM     52  C   UNL A   1      46.532  26.556  27.718  1.00  0.00     0.031 C 
ATOM     53  C   UNL A   1      46.050  25.807  30.142  1.00  0.00     0.034 A 
BRANCH  40  54
ATOM     54  C   UNL A   1      43.769  23.297  25.904  1.00  0.00     0.023 A 
ATOM     55  C   UNL A   1      43.669  21.924  25.634  1.00  0.00     0.031 A 
ATOM     56  C   UNL A   1      44.664  24.016  25.074  1.00  0.00     0.131 A 
ATOM     57  C   UNL A   1      44.553  21.301  24.743  1.00  0.00     0.055 A 
ATOM     58  C   UNL A   1      45.499  23.398  24.141  1.00  0.00     0.041 A 
ATOM     59  F   UNL A   1      44.843  25.337  25.142  1.00  0.00    -0.206 F 
ATOM     60  C   UNL A   1      45.481  22.025  24.005  1.00  0.00     0.022 A 
BRANCH  57  61
ATOM     61  S   UNL A   1      44.593  19.495  24.736  1.00  0.00     0.124 S 
ATOM     62  O   UNL A   1      43.380  19.183  25.483  1.00  0.00    -0.237 OA
ATOM     63  O   UNL A   1      44.565  19.205  23.307  1.00  0.00    -0.237 OA
ATOM     64  O   UNL A   1      45.848  19.185  25.415  1.00  0.00    -0.744 OA
ENDBRANCH  57  61
ENDBRANCH  40  54
BRANCH  41  65
ATOM     65  C   UNL A   1      46.911  31.080  27.546  1.00  0.00     0.023 A 
ATOM     66  C   UNL A   1      46.157  32.131  26.978  1.00  0.00     0.031 A 
ATOM     67  C   UNL A   1      48.316  31.251  27.558  1.00  0.00     0.131 A 
ATOM     68  C   UNL A   1      46.808  33.276  26.454  1.00  0.00     0.055 A 
ATOM     69  C   UNL A   1      48.951  32.380  27.039  1.00  0.00     0.041 A 
ATOM     70  F   UNL A   1      49.121  30.360  28.157  1.00  0.00    -0.206 F 
ATOM     71  C   UNL A   1      48.198  33.403  26.491  1.00  0.00     0.022 A 
BRANCH  68  72
ATOM     72  S   UNL A   1      45.845  34.673  25.782  1.00  0.00     0.124 S 
ATOM     73  O   UNL A   1      44.852  34.897  26.827  1.00  0.00    -0.237 OA
ATOM     74  O   UNL A   1      46.861  35.705  25.617  1.00  0.00    -0.237 OA
ATOM     75  O   UNL A   1      45.304  34.143  24.529  1.00  0.00    -0.744 OA
ENDBRANCH  68  72
ENDBRANCH  41  65
BRANCH  53  76
ATOM     76  C   UNL A   1      46.198  26.217  31.595  1.00  0.00     0.023 A 
ATOM     77  C   UNL A   1      45.177  26.789  32.390  1.00  0.00     0.031 A 
ATOM     78  C   UNL A   1      47.411  25.894  32.230  1.00  0.00     0.131 A 
ATOM     79  C   UNL A   1      45.401  27.024  33.762  1.00  0.00     0.055 A 
ATOM     80  C   UNL A   1      47.619  26.108  33.591  1.00  0.00     0.041 A 
ATOM     81  F   UNL A   1      48.411  25.325  31.536  1.00  0.00    -0.206 F 
ATOM     82  C   UNL A   1      46.615  26.679  34.362  1.00  0.00     0.022 A 
BRANCH  79  83
ATOM     83  S   UNL A   1      44.117  27.802  34.798  1.00  0.00     0.124 S 
ATOM     84  O   UNL A   1      43.999  26.896  35.936  1.00  0.00    -0.237 OA
ATOM     85  O   UNL A   1      44.693  29.113  35.083  1.00  0.00    -0.237 OA
ATOM     86  O   UNL A   1      42.944  27.832  33.921  1.00  0.00    -0.744 OA
ENDBRANCH  79  83
ENDBRANCH  53  76
ENDBRANCH  27  28
ENDBRANCH  20  22
ENDBRANCH  19  20
ENDBRANCH  18  19
ENDBRANCH   1  18
TORSDOF 17
ENDMDL
MODEL 3
REMARK VINA RESULT:     -10.5      2.059      7.579
REMARK SMILES O=C(CCSC1=NC=NC2=[NH+]C=N[C@@H]12)OCCOC(=O)c1ccc(-c2c3nc(c(-c4cc(S(=O)(=O)[O-])ccc4F)c4ccc([nH]4)c(-c4cc(S(=O)(=O)[O-])ccc4F)c4nc(c(-c5cc(S(=O)(=O)[O-])ccc5F)c5ccc2[nH]5)C=C4)C=C3)cc1
REMARK SMILES IDX 16 1 15 2 2 3 1 4 3 5 4 6 5 7 6 8 7 9 14 10 8 11 10 12 13 13
REMARK SMILES IDX 9 14 11 15 12 16 17 18 18 19 19 20 20 21 21 22 22 23 83 24
REMARK SMILES IDX 23 25 82 26 24 27 25 28 26 29 76 30 27 31 81 32 75 33 77 34
REMARK SMILES IDX 28 35 80 36 74 37 73 38 29 40 61 41 41 42 60 43 42 44 45 45
REMARK SMILES IDX 59 46 78 47 43 48 44 49 58 51 79 52 46 53 30 54 31 55 39 56
REMARK SMILES IDX 32 57 38 58 40 59 37 60 33 61 34 62 35 63 36 64 62 65 63 66
REMARK SMILES IDX 71 67 64 68 70 69 72 70 69 71 65 72 66 73 67 74 68 75 47 76
REMARK SMILES IDX 48 77 56 78 49 79 55 80 57 81 54 82 50 83 51 84 52 85 53 86
REMARK H PARENT 11 17 77 39 45 50
REMARK Flexibility Score: inf
ROOT
ATOM      1  C   UNL A   1      38.714  32.960  30.723  1.00  0.00     0.274 C 
ENDROOT
BRANCH   1   2
ATOM      2  O   UNL A   1      37.909  33.845  31.530  1.00  0.00    -0.462 OA
BRANCH   2   3
ATOM      3  C   UNL A   1      37.837  33.870  32.881  1.00  0.00     0.306 C 
ATOM      4  O   UNL A   1      38.461  34.714  33.524  1.00  0.00    -0.252 OA
BRANCH   3   5
ATOM      5  C   UNL A   1      36.951  32.881  33.597  1.00  0.00     0.134 C 
BRANCH   5   6
ATOM      6  C   UNL A   1      35.555  33.435  33.857  1.00  0.00     0.088 C 
BRANCH   6   7
ATOM      7  S   UNL A   1      34.444  33.479  32.404  1.00  0.00    -0.106 SA
BRANCH   7   8
ATOM      8  C   UNL A   1      33.941  35.160  32.364  1.00  0.00     0.128 C 
ATOM      9  N   UNL A   1      34.338  35.969  33.290  1.00  0.00    -0.214 NA
ATOM     10  C   UNL A   1      32.998  35.598  31.288  1.00  0.00     0.340 C 
ATOM     11  C   UNL A   1      33.970  37.292  33.218  1.00  0.00     0.320 C 
ATOM     12  C   UNL A   1      33.180  37.057  31.142  1.00  0.00     0.285 C 
ATOM     13  N   UNL A   1      33.290  35.146  29.904  1.00  0.00    -0.130 NA
ATOM     14  N   UNL A   1      33.372  37.857  32.216  1.00  0.00    -0.092 NA
ATOM     15  N   UNL A   1      33.262  37.439  29.917  1.00  0.00    -0.248 N 
ATOM     16  C   UNL A   1      33.325  36.257  29.221  1.00  0.00     0.362 C 
ATOM     17  H   UNL A   1      33.276  38.357  29.563  1.00  0.00     0.266 HD
ENDBRANCH   7   8
ENDBRANCH   6   7
ENDBRANCH   5   6
ENDBRANCH   3   5
ENDBRANCH   2   3
ENDBRANCH   1   2
BRANCH   1  18
ATOM     18  C   UNL A   1      37.966  32.226  29.638  1.00  0.00     0.275 C 
BRANCH  18  19
ATOM     19  O   UNL A   1      38.303  30.861  29.739  1.00  0.00    -0.458 OA
BRANCH  19  20
ATOM     20  C   UNL A   1      37.355  30.000  29.288  1.00  0.00     0.338 C 
ATOM     21  O   UNL A   1      36.168  30.003  29.532  1.00  0.00    -0.246 OA
BRANCH  20  22
ATOM     22  C   UNL A   1      38.088  28.930  28.598  1.00  0.00     0.060 A 
ATOM     23  C   UNL A   1      38.465  27.938  29.495  1.00  0.00     0.016 A 
ATOM     24  C   UNL A   1      38.887  29.319  27.508  1.00  0.00     0.016 A 
ATOM     25  C   UNL A   1      39.803  27.660  29.560  1.00  0.00     0.010 A 
ATOM     26  C   UNL A   1      40.230  29.079  27.606  1.00  0.00     0.010 A 
ATOM     27  C   UNL A   1      40.677  28.324  28.685  1.00  0.00    -0.014 A 
BRANCH  27  28
ATOM     28  C   UNL A   1      42.067  27.958  28.758  1.00  0.00     0.031 A 
ATOM     29  C   UNL A   1      42.320  26.831  27.845  1.00  0.00     0.074 A 
ATOM     30  C   UNL A   1      43.006  28.576  29.489  1.00  0.00     0.049 A 
ATOM     31  N   UNL A   1      42.317  25.581  28.162  1.00  0.00    -0.248 NA
ATOM     32  C   UNL A   1      42.208  27.090  26.399  1.00  0.00     0.031 C 
ATOM     33  C   UNL A   1      42.942  29.843  30.211  1.00  0.00     0.029 A 
ATOM     34  N   UNL A   1      44.292  28.185  29.660  1.00  0.00    -0.354 N 
ATOM     35  C   UNL A   1      42.487  24.912  26.962  1.00  0.00     0.074 A 
ATOM     36  C   UNL A   1      42.096  25.843  25.944  1.00  0.00     0.031 C 
ATOM     37  C   UNL A   1      44.203  30.219  30.544  1.00  0.00     0.029 A 
ATOM     38  C   UNL A   1      45.133  29.161  30.171  1.00  0.00     0.049 A 
ATOM     39  H   UNL A   1      44.605  27.279  29.438  1.00  0.00     0.167 HD
ATOM     40  C   UNL A   1      43.255  23.793  26.906  1.00  0.00     0.034 A 
ATOM     41  C   UNL A   1      46.492  29.107  30.187  1.00  0.00     0.034 A 
ATOM     42  C   UNL A   1      43.452  23.248  28.240  1.00  0.00     0.049 A 
ATOM     43  C   UNL A   1      46.864  27.665  30.085  1.00  0.00     0.074 A 
ATOM     44  C   UNL A   1      42.600  22.815  29.240  1.00  0.00     0.029 A 
ATOM     45  N   UNL A   1      44.662  23.487  28.867  1.00  0.00    -0.354 N 
ATOM     46  N   UNL A   1      46.587  26.793  31.018  1.00  0.00    -0.248 NA
ATOM     47  C   UNL A   1      47.059  27.094  28.757  1.00  0.00     0.031 C 
ATOM     48  C   UNL A   1      43.185  23.279  30.456  1.00  0.00     0.029 A 
ATOM     49  C   UNL A   1      44.401  23.894  30.153  1.00  0.00     0.049 A 
ATOM     50  H   UNL A   1      45.552  23.383  28.462  1.00  0.00     0.167 HD
ATOM     51  C   UNL A   1      46.151  25.660  30.345  1.00  0.00     0.074 A 
ATOM     52  C   UNL A   1      46.552  25.872  28.954  1.00  0.00     0.031 C 
ATOM     53  C   UNL A   1      45.251  24.798  30.910  1.00  0.00     0.034 A 
BRANCH  40  54
ATOM     54  C   UNL A   1      44.188  23.485  25.752  1.00  0.00     0.023 A 
ATOM     55  C   UNL A   1      44.122  22.176  25.250  1.00  0.00     0.031 A 
ATOM     56  C   UNL A   1      45.308  24.242  25.328  1.00  0.00     0.131 A 
ATOM     57  C   UNL A   1      45.202  21.618  24.553  1.00  0.00     0.055 A 
ATOM     58  C   UNL A   1      46.354  23.699  24.580  1.00  0.00     0.041 A 
ATOM     59  F   UNL A   1      45.506  25.522  25.653  1.00  0.00    -0.206 F 
ATOM     60  C   UNL A   1      46.328  22.364  24.228  1.00  0.00     0.022 A 
BRANCH  57  61
ATOM     61  S   UNL A   1      45.180  19.834  24.272  1.00  0.00     0.124 S 
ATOM     62  O   UNL A   1      44.472  19.758  22.998  1.00  0.00    -0.237 OA
ATOM     63  O   UNL A   1      46.605  19.523  24.239  1.00  0.00    -0.237 OA
ATOM     64  O   UNL A   1      44.451  19.321  25.429  1.00  0.00    -0.744 OA
ENDBRANCH  57  61
ENDBRANCH  40  54
BRANCH  41  65
ATOM     65  C   UNL A   1      47.431  30.229  29.890  1.00  0.00     0.023 A 
ATOM     66  C   UNL A   1      47.567  30.805  28.607  1.00  0.00     0.031 A 
ATOM     67  C   UNL A   1      48.055  30.918  30.957  1.00  0.00     0.131 A 
ATOM     68  C   UNL A   1      48.301  32.005  28.437  1.00  0.00     0.055 A 
ATOM     69  C   UNL A   1      48.780  32.099  30.781  1.00  0.00     0.041 A 
ATOM     70  F   UNL A   1      47.911  30.513  32.228  1.00  0.00    -0.206 F 
ATOM     71  C   UNL A   1      48.899  32.653  29.520  1.00  0.00     0.022 A 
BRANCH  68  72
ATOM     72  S   UNL A   1      48.426  32.799  26.798  1.00  0.00     0.124 S 
ATOM     73  O   UNL A   1      48.434  34.217  27.140  1.00  0.00    -0.237 OA
ATOM     74  O   UNL A   1      49.670  32.248  26.276  1.00  0.00    -0.237 OA
ATOM     75  O   UNL A   1      47.219  32.345  26.105  1.00  0.00    -0.744 OA
ENDBRANCH  68  72
ENDBRANCH  41  65
BRANCH  53  76
ATOM     76  C   UNL A   1      44.971  24.916  32.396  1.00  0.00     0.023 A 
ATOM     77  C   UNL A   1      45.634  24.189  33.412  1.00  0.00     0.031 A 
ATOM     78  C   UNL A   1      44.061  25.911  32.797  1.00  0.00     0.131 A 
ATOM     79  C   UNL A   1      45.364  24.468  34.768  1.00  0.00     0.055 A 
ATOM     80  C   UNL A   1      43.814  26.198  34.138  1.00  0.00     0.041 A 
ATOM     81  F   UNL A   1      43.418  26.654  31.881  1.00  0.00    -0.206 F 
ATOM     82  C   UNL A   1      44.462  25.473  35.130  1.00  0.00     0.022 A 
BRANCH  79  83
ATOM     83  S   UNL A   1      46.171  23.514  36.097  1.00  0.00     0.124 S 
ATOM     84  O   UNL A   1      47.591  23.626  35.785  1.00  0.00    -0.237 OA
ATOM     85  O   UNL A   1      45.724  24.209  37.300  1.00  0.00    -0.237 OA
ATOM     86  O   UNL A   1      45.617  22.167  35.933  1.00  0.00    -0.744 OA
ENDBRANCH  79  83
ENDBRANCH  53  76
ENDBRANCH  27  28
ENDBRANCH  20  22
ENDBRANCH  19  20
ENDBRANCH  18  19
ENDBRANCH   1  18
TORSDOF 17
ENDMDL
