MODEL 1
REMARK VINA RESULT:     -10.9      0.000      0.000
REMARK SMILES COc1ncnc(N2CCSC[C@@H]2CC(=O)OCCOC(=O)c2ccc(-c3c4nc(c(-c5cc(S(=O)(=O)[O-])ccc5F)c5ccc([nH]5)c(-c5cc(S(=O)(=O)[O-])ccc5F)c5nc(c(-c6cc(S(=O)(=O)[O-])ccc6F)c6ccc3[nH]6)C=C5)C=C4)cc2)c1[N+](=O)[O-]
REMARK SMILES IDX 18 1 17 2 15 3 16 4 14 5 13 6 8 7 9 8 10 9 12 10 11 11 7 12
REMARK SMILES IDX 3 13 4 14 86 15 5 16 6 17 2 18 1 19 87 20 88 21 89 22 19 23
REMARK SMILES IDX 20 24 21 25 22 26 23 27 24 28 85 29 25 30 84 31 26 32 27 33
REMARK SMILES IDX 28 34 78 35 29 36 83 37 77 38 79 39 30 40 82 41 76 42 75 43
REMARK SMILES IDX 31 45 63 46 43 47 62 48 44 49 47 50 61 51 80 52 45 53 46 54
REMARK SMILES IDX 60 56 81 57 48 58 32 59 33 60 41 61 34 62 40 63 42 64 39 65
REMARK SMILES IDX 35 66 36 67 37 68 38 69 64 70 65 71 73 72 66 73 72 74 74 75
REMARK SMILES IDX 71 76 67 77 68 78 69 79 70 80 49 81 50 82 58 83 51 84 57 85
REMARK SMILES IDX 59 86 56 87 52 88 53 89 54 90 55 91
REMARK H PARENT 79 44 47 55
REMARK Flexibility Score: inf
ROOT
ATOM      1  C   UNL A   1      35.401  20.627  24.628  1.00  0.00     0.274 C 
ENDROOT
BRANCH   1   2
ATOM      2  O   UNL A   1      34.313  19.848  25.157  1.00  0.00    -0.462 OA
BRANCH   2   3
ATOM      3  C   UNL A   1      33.088  20.086  24.643  1.00  0.00     0.308 C 
ATOM      4  O   UNL A   1      32.161  19.284  24.678  1.00  0.00    -0.252 OA
BRANCH   3   5
ATOM      5  C   UNL A   1      32.996  21.371  23.869  1.00  0.00     0.148 C 
BRANCH   5   6
ATOM      6  C   UNL A   1      32.264  22.618  24.411  1.00  0.00     0.105 C 
ATOM      7  N   UNL A   1      33.081  23.799  24.016  1.00  0.00    -0.345 N 
ATOM      8  C   UNL A   1      34.298  24.110  24.777  1.00  0.00     0.129 C 
ATOM      9  C   UNL A   1      34.003  24.396  26.248  1.00  0.00     0.091 C 
ATOM     10  C   UNL A   1      31.864  22.726  25.897  1.00  0.00     0.095 C 
ATOM     11  S   UNL A   1      33.243  22.972  27.074  1.00  0.00    -0.158 SA
BRANCH   7  12
ATOM     12  C   UNL A   1      32.581  24.695  23.095  1.00  0.00     0.215 A 
ATOM     13  C   UNL A   1      31.218  26.502  22.394  1.00  0.00     0.299 A 
ATOM     14  N   UNL A   1      31.644  26.397  21.124  1.00  0.00    -0.196 NA
ATOM     15  C   UNL A   1      31.640  25.660  23.392  1.00  0.00     0.372 A 
ATOM     16  C   UNL A   1      32.563  25.446  20.910  1.00  0.00     0.228 A 
ATOM     17  N   UNL A   1      33.054  24.598  21.834  1.00  0.00    -0.212 NA
BRANCH  13  18
ATOM     18  O   UNL A   1      30.256  27.454  22.628  1.00  0.00    -0.476 OA
ATOM     19  C   UNL A   1      30.803  28.753  22.404  1.00  0.00     0.280 C 
ENDBRANCH  13  18
BRANCH  15  20
ATOM     20  N   UNL A   1      31.201  25.886  24.727  1.00  0.00     0.072 N 
ATOM     21  O   UNL A   1      30.164  25.314  25.089  1.00  0.00    -0.258 OA
ATOM     22  O   UNL A   1      31.885  26.646  25.430  1.00  0.00    -0.258 OA
ENDBRANCH  15  20
ENDBRANCH   7  12
ENDBRANCH   5   6
ENDBRANCH   3   5
ENDBRANCH   2   3
ENDBRANCH   1   2
BRANCH   1  23
ATOM     23  C   UNL A   1      36.375  21.079  25.719  1.00  0.00     0.275 C 
BRANCH  23  24
ATOM     24  O   UNL A   1      37.560  21.692  25.175  1.00  0.00    -0.458 OA
BRANCH  24  25
ATOM     25  C   UNL A   1      38.704  21.390  25.831  1.00  0.00     0.338 C 
ATOM     26  O   UNL A   1      39.307  20.330  25.805  1.00  0.00    -0.246 OA
BRANCH  25  27
ATOM     27  C   UNL A   1      39.251  22.571  26.511  1.00  0.00     0.060 A 
ATOM     28  C   UNL A   1      38.713  23.815  26.169  1.00  0.00     0.016 A 
ATOM     29  C   UNL A   1      40.362  22.478  27.350  1.00  0.00     0.016 A 
ATOM     30  C   UNL A   1      39.308  24.980  26.633  1.00  0.00     0.010 A 
ATOM     31  C   UNL A   1      40.958  23.653  27.821  1.00  0.00     0.010 A 
ATOM     32  C   UNL A   1      40.451  24.908  27.440  1.00  0.00    -0.014 A 
BRANCH  32  33
ATOM     33  C   UNL A   1      41.154  26.164  27.791  1.00  0.00     0.031 A 
ATOM     34  C   UNL A   1      42.571  26.370  27.337  1.00  0.00     0.074 A 
ATOM     35  C   UNL A   1      40.494  27.135  28.449  1.00  0.00     0.049 A 
ATOM     36  N   UNL A   1      43.374  27.379  27.557  1.00  0.00    -0.248 NA
ATOM     37  C   UNL A   1      43.162  25.294  26.529  1.00  0.00     0.031 C 
ATOM     38  C   UNL A   1      39.099  27.056  28.885  1.00  0.00     0.029 A 
ATOM     39  N   UNL A   1      40.902  28.380  28.850  1.00  0.00    -0.354 N 
ATOM     40  C   UNL A   1      44.573  27.052  26.931  1.00  0.00     0.074 A 
ATOM     41  C   UNL A   1      44.395  25.740  26.345  1.00  0.00     0.031 C 
ATOM     42  C   UNL A   1      38.763  28.211  29.483  1.00  0.00     0.029 A 
ATOM     43  C   UNL A   1      39.929  29.090  29.512  1.00  0.00     0.049 A 
ATOM     44  H   UNL A   1      41.806  28.733  28.680  1.00  0.00     0.167 HD
ATOM     45  C   UNL A   1      45.713  27.784  26.853  1.00  0.00     0.034 A 
ATOM     46  C   UNL A   1      39.981  30.303  30.094  1.00  0.00     0.034 A 
ATOM     47  C   UNL A   1      45.866  29.091  27.447  1.00  0.00     0.049 A 
ATOM     48  C   UNL A   1      41.267  31.083  30.024  1.00  0.00     0.074 A 
ATOM     49  C   UNL A   1      46.981  29.911  27.464  1.00  0.00     0.029 A 
ATOM     50  N   UNL A   1      44.865  29.772  28.131  1.00  0.00    -0.354 N 
ATOM     51  N   UNL A   1      42.409  30.744  29.468  1.00  0.00    -0.248 NA
ATOM     52  C   UNL A   1      41.269  32.410  30.649  1.00  0.00     0.031 C 
ATOM     53  C   UNL A   1      46.669  31.063  28.199  1.00  0.00     0.029 A 
ATOM     54  C   UNL A   1      45.340  30.994  28.584  1.00  0.00     0.049 A 
ATOM     55  H   UNL A   1      43.951  29.436  28.275  1.00  0.00     0.167 HD
ATOM     56  C   UNL A   1      43.259  31.828  29.661  1.00  0.00     0.074 A 
ATOM     57  C   UNL A   1      42.491  32.837  30.363  1.00  0.00     0.031 C 
ATOM     58  C   UNL A   1      44.559  31.979  29.294  1.00  0.00     0.034 A 
BRANCH  45  59
ATOM     59  C   UNL A   1      46.893  27.146  26.158  1.00  0.00     0.023 A 
ATOM     60  C   UNL A   1      47.882  26.441  26.867  1.00  0.00     0.031 A 
ATOM     61  C   UNL A   1      47.058  27.292  24.769  1.00  0.00     0.131 A 
ATOM     62  C   UNL A   1      49.025  25.973  26.198  1.00  0.00     0.055 A 
ATOM     63  C   UNL A   1      48.159  26.757  24.098  1.00  0.00     0.041 A 
ATOM     64  F   UNL A   1      46.160  27.975  24.042  1.00  0.00    -0.206 F 
ATOM     65  C   UNL A   1      49.159  26.106  24.814  1.00  0.00     0.022 A 
BRANCH  62  66
ATOM     66  S   UNL A   1      50.400  25.315  27.182  1.00  0.00     0.124 S 
ATOM     67  O   UNL A   1      50.728  26.457  28.033  1.00  0.00    -0.237 OA
ATOM     68  O   UNL A   1      49.793  24.173  27.852  1.00  0.00    -0.237 OA
ATOM     69  O   UNL A   1      51.412  24.985  26.179  1.00  0.00    -0.744 OA
ENDBRANCH  62  66
ENDBRANCH  45  59
BRANCH  46  70
ATOM     70  C   UNL A   1      38.795  30.839  30.820  1.00  0.00     0.023 A 
ATOM     71  C   UNL A   1      37.837  31.631  30.169  1.00  0.00     0.031 A 
ATOM     72  C   UNL A   1      38.621  30.586  32.193  1.00  0.00     0.131 A 
ATOM     73  C   UNL A   1      36.768  32.174  30.899  1.00  0.00     0.055 A 
ATOM     74  C   UNL A   1      37.530  31.088  32.903  1.00  0.00     0.041 A 
ATOM     75  F   UNL A   1      39.508  29.831  32.862  1.00  0.00    -0.206 F 
ATOM     76  C   UNL A   1      36.601  31.897  32.258  1.00  0.00     0.022 A 
BRANCH  73  77
ATOM     77  S   UNL A   1      35.631  33.311  30.059  1.00  0.00     0.124 S 
ATOM     78  O   UNL A   1      35.270  34.223  31.137  1.00  0.00    -0.237 OA
ATOM     79  O   UNL A   1      36.478  33.864  29.007  1.00  0.00    -0.237 OA
ATOM     80  O   UNL A   1      34.556  32.436  29.594  1.00  0.00    -0.744 OA
ENDBRANCH  73  77
ENDBRANCH  46  70
BRANCH  58  81
ATOM     81  C   UNL A   1      45.198  33.307  29.616  1.00  0.00     0.023 A 
ATOM     82  C   UNL A   1      45.195  34.371  28.697  1.00  0.00     0.031 A 
ATOM     83  C   UNL A   1      45.858  33.491  30.844  1.00  0.00     0.131 A 
ATOM     84  C   UNL A   1      45.898  35.549  28.992  1.00  0.00     0.055 A 
ATOM     85  C   UNL A   1      46.507  34.687  31.154  1.00  0.00     0.041 A 
ATOM     86  F   UNL A   1      45.891  32.507  31.756  1.00  0.00    -0.206 F 
ATOM     87  C   UNL A   1      46.544  35.717  30.219  1.00  0.00     0.022 A 
BRANCH  84  88
ATOM     88  S   UNL A   1      46.054  36.813  27.701  1.00  0.00     0.124 S 
ATOM     89  O   UNL A   1      44.767  37.498  27.785  1.00  0.00    -0.237 OA
ATOM     90  O   UNL A   1      47.212  37.577  28.154  1.00  0.00    -0.237 OA
ATOM     91  O   UNL A   1      46.264  36.035  26.482  1.00  0.00    -0.744 OA
ENDBRANCH  84  88
ENDBRANCH  58  81
ENDBRANCH  32  33
ENDBRANCH  25  27
ENDBRANCH  24  25
ENDBRANCH  23  24
ENDBRANCH   1  23
TORSDOF 18
ENDMDL
MODEL 2
REMARK VINA RESULT:     -10.9      1.821      2.227
REMARK SMILES COc1ncnc(N2CCSC[C@@H]2CC(=O)OCCOC(=O)c2ccc(-c3c4nc(c(-c5cc(S(=O)(=O)[O-])ccc5F)c5ccc([nH]5)c(-c5cc(S(=O)(=O)[O-])ccc5F)c5nc(c(-c6cc(S(=O)(=O)[O-])ccc6F)c6ccc3[nH]6)C=C5)C=C4)cc2)c1[N+](=O)[O-]
REMARK SMILES IDX 18 1 17 2 15 3 16 4 14 5 13 6 8 7 9 8 10 9 12 10 11 11 7 12
REMARK SMILES IDX 3 13 4 14 86 15 5 16 6 17 2 18 1 19 87 20 88 21 89 22 19 23
REMARK SMILES IDX 20 24 21 25 22 26 23 27 24 28 85 29 25 30 84 31 26 32 27 33
REMARK SMILES IDX 28 34 78 35 29 36 83 37 77 38 79 39 30 40 82 41 76 42 75 43
REMARK SMILES IDX 31 45 63 46 43 47 62 48 44 49 47 50 61 51 80 52 45 53 46 54
REMARK SMILES IDX 60 56 81 57 48 58 32 59 33 60 41 61 34 62 40 63 42 64 39 65
REMARK SMILES IDX 35 66 36 67 37 68 38 69 64 70 65 71 73 72 66 73 72 74 74 75
REMARK SMILES IDX 71 76 67 77 68 78 69 79 70 80 49 81 50 82 58 83 51 84 57 85
REMARK SMILES IDX 59 86 56 87 52 88 53 89 54 90 55 91
REMARK H PARENT 79 44 47 55
REMARK Flexibility Score: inf
ROOT
ATOM      1  C   UNL A   1      35.769  21.024  25.160  1.00  0.00     0.274 C 
ENDROOT
BRANCH   1   2
ATOM      2  O   UNL A   1      35.601  22.274  25.851  1.00  0.00    -0.462 OA
BRANCH   2   3
ATOM      3  C   UNL A   1      34.334  22.704  26.030  1.00  0.00     0.308 C 
ATOM      4  O   UNL A   1      33.396  21.972  26.323  1.00  0.00    -0.252 OA
BRANCH   3   5
ATOM      5  C   UNL A   1      34.131  24.151  25.677  1.00  0.00     0.148 C 
BRANCH   5   6
ATOM      6  C   UNL A   1      33.755  24.615  24.252  1.00  0.00     0.105 C 
ATOM      7  N   UNL A   1      32.359  25.130  24.326  1.00  0.00    -0.345 N 
ATOM      8  C   UNL A   1      31.247  24.170  24.372  1.00  0.00     0.129 C 
ATOM      9  C   UNL A   1      31.201  23.280  23.132  1.00  0.00     0.091 C 
ATOM     10  C   UNL A   1      33.908  23.674  23.040  1.00  0.00     0.095 C 
ATOM     11  S   UNL A   1      32.711  22.292  22.952  1.00  0.00    -0.158 SA
BRANCH   7  12
ATOM     12  C   UNL A   1      32.118  26.474  24.137  1.00  0.00     0.215 A 
ATOM     13  C   UNL A   1      31.587  28.671  24.849  1.00  0.00     0.299 A 
ATOM     14  N   UNL A   1      31.620  29.141  23.591  1.00  0.00    -0.196 NA
ATOM     15  C   UNL A   1      31.803  27.351  25.156  1.00  0.00     0.372 A 
ATOM     16  C   UNL A   1      31.941  28.237  22.655  1.00  0.00     0.228 A 
ATOM     17  N   UNL A   1      32.197  26.933  22.870  1.00  0.00    -0.212 NA
BRANCH  13  18
ATOM     18  O   UNL A   1      31.234  29.576  25.819  1.00  0.00    -0.476 OA
ATOM     19  C   UNL A   1      32.176  30.648  25.840  1.00  0.00     0.280 C 
ENDBRANCH  13  18
BRANCH  15  20
ATOM     20  N   UNL A   1      31.828  26.947  26.521  1.00  0.00     0.072 N 
ATOM     21  O   UNL A   1      30.804  26.419  26.976  1.00  0.00    -0.258 OA
ATOM     22  O   UNL A   1      32.871  27.159  27.157  1.00  0.00    -0.258 OA
ENDBRANCH  15  20
ENDBRANCH   7  12
ENDBRANCH   5   6
ENDBRANCH   3   5
ENDBRANCH   2   3
ENDBRANCH   1   2
BRANCH   1  23
ATOM     23  C   UNL A   1      37.245  20.658  24.974  1.00  0.00     0.275 C 
BRANCH  23  24
ATOM     24  O   UNL A   1      38.120  21.776  25.215  1.00  0.00    -0.458 OA
BRANCH  24  25
ATOM     25  C   UNL A   1      39.159  21.512  26.042  1.00  0.00     0.338 C 
ATOM     26  O   UNL A   1      39.760  20.456  26.151  1.00  0.00    -0.246 OA
BRANCH  25  27
ATOM     27  C   UNL A   1      39.601  22.726  26.740  1.00  0.00     0.060 A 
ATOM     28  C   UNL A   1      38.951  23.922  26.422  1.00  0.00     0.016 A 
ATOM     29  C   UNL A   1      40.722  22.720  27.570  1.00  0.00     0.016 A 
ATOM     30  C   UNL A   1      39.441  25.128  26.903  1.00  0.00     0.010 A 
ATOM     31  C   UNL A   1      41.212  23.936  28.058  1.00  0.00     0.010 A 
ATOM     32  C   UNL A   1      40.591  25.146  27.702  1.00  0.00    -0.014 A 
BRANCH  32  33
ATOM     33  C   UNL A   1      41.180  26.455  28.072  1.00  0.00     0.031 A 
ATOM     34  C   UNL A   1      42.595  26.767  27.675  1.00  0.00     0.074 A 
ATOM     35  C   UNL A   1      40.420  27.375  28.692  1.00  0.00     0.049 A 
ATOM     36  N   UNL A   1      43.308  27.836  27.919  1.00  0.00    -0.248 NA
ATOM     37  C   UNL A   1      43.301  25.735  26.902  1.00  0.00     0.031 C 
ATOM     38  C   UNL A   1      39.018  27.191  29.071  1.00  0.00     0.029 A 
ATOM     39  N   UNL A   1      40.714  28.650  29.099  1.00  0.00    -0.354 N 
ATOM     40  C   UNL A   1      44.555  27.599  27.347  1.00  0.00     0.074 A 
ATOM     41  C   UNL A   1      44.503  26.274  26.766  1.00  0.00     0.031 C 
ATOM     42  C   UNL A   1      38.570  28.321  29.644  1.00  0.00     0.029 A 
ATOM     43  C   UNL A   1      39.662  29.287  29.714  1.00  0.00     0.049 A 
ATOM     44  H   UNL A   1      41.594  29.071  28.964  1.00  0.00     0.167 HD
ATOM     45  C   UNL A   1      45.637  28.416  27.311  1.00  0.00     0.034 A 
ATOM     46  C   UNL A   1      39.596  30.504  30.287  1.00  0.00     0.034 A 
ATOM     47  C   UNL A   1      45.664  29.734  27.899  1.00  0.00     0.049 A 
ATOM     48  C   UNL A   1      40.820  31.380  30.263  1.00  0.00     0.074 A 
ATOM     49  C   UNL A   1      46.710  30.638  27.956  1.00  0.00     0.029 A 
ATOM     50  N   UNL A   1      44.586  30.340  28.535  1.00  0.00    -0.354 N 
ATOM     51  N   UNL A   1      42.008  31.127  29.759  1.00  0.00    -0.248 NA
ATOM     52  C   UNL A   1      40.694  32.707  30.876  1.00  0.00     0.031 C 
ATOM     53  C   UNL A   1      46.280  31.767  28.666  1.00  0.00     0.029 A 
ATOM     54  C   UNL A   1      44.946  31.598  28.996  1.00  0.00     0.049 A 
ATOM     55  H   UNL A   1      43.695  29.935  28.643  1.00  0.00     0.167 HD
ATOM     56  C   UNL A   1      42.763  32.275  29.978  1.00  0.00     0.074 A 
ATOM     57  C   UNL A   1      41.890  33.225  30.638  1.00  0.00     0.031 C 
ATOM     58  C   UNL A   1      44.061  32.524  29.664  1.00  0.00     0.034 A 
BRANCH  45  59
ATOM     59  C   UNL A   1      46.891  27.867  26.672  1.00  0.00     0.023 A 
ATOM     60  C   UNL A   1      47.176  28.057  25.308  1.00  0.00     0.031 A 
ATOM     61  C   UNL A   1      47.791  27.097  27.431  1.00  0.00     0.131 A 
ATOM     62  C   UNL A   1      48.288  27.425  24.729  1.00  0.00     0.055 A 
ATOM     63  C   UNL A   1      48.937  26.534  26.865  1.00  0.00     0.041 A 
ATOM     64  F   UNL A   1      47.561  26.860  28.731  1.00  0.00    -0.206 F 
ATOM     65  C   UNL A   1      49.183  26.683  25.504  1.00  0.00     0.022 A 
BRANCH  62  66
ATOM     66  S   UNL A   1      48.471  27.465  22.924  1.00  0.00     0.124 S 
ATOM     67  O   UNL A   1      47.298  28.241  22.526  1.00  0.00    -0.237 OA
ATOM     68  O   UNL A   1      49.760  28.122  22.751  1.00  0.00    -0.237 OA
ATOM     69  O   UNL A   1      48.432  26.054  22.544  1.00  0.00    -0.744 OA
ENDBRANCH  62  66
ENDBRANCH  45  59
BRANCH  46  70
ATOM     70  C   UNL A   1      38.343  30.951  30.957  1.00  0.00     0.023 A 
ATOM     71  C   UNL A   1      37.326  31.603  30.245  1.00  0.00     0.031 A 
ATOM     72  C   UNL A   1      38.161  30.754  32.339  1.00  0.00     0.131 A 
ATOM     73  C   UNL A   1      36.188  32.069  30.921  1.00  0.00     0.055 A 
ATOM     74  C   UNL A   1      37.005  31.177  32.998  1.00  0.00     0.041 A 
ATOM     75  F   UNL A   1      39.102  30.132  33.066  1.00  0.00    -0.206 F 
ATOM     76  C   UNL A   1      36.015  31.849  32.289  1.00  0.00     0.022 A 
BRANCH  73  77
ATOM     77  S   UNL A   1      34.961  33.035  29.997  1.00  0.00     0.124 S 
ATOM     78  O   UNL A   1      34.058  33.464  31.056  1.00  0.00    -0.237 OA
ATOM     79  O   UNL A   1      35.787  34.077  29.396  1.00  0.00    -0.237 OA
ATOM     80  O   UNL A   1      34.405  32.066  29.055  1.00  0.00    -0.744 OA
ENDBRANCH  73  77
ENDBRANCH  46  70
BRANCH  58  81
ATOM     81  C   UNL A   1      44.583  33.898  30.001  1.00  0.00     0.023 A 
ATOM     82  C   UNL A   1      44.487  34.967  29.094  1.00  0.00     0.031 A 
ATOM     83  C   UNL A   1      45.224  34.126  31.231  1.00  0.00     0.131 A 
ATOM     84  C   UNL A   1      45.084  36.199  29.401  1.00  0.00     0.055 A 
ATOM     85  C   UNL A   1      45.766  35.370  31.555  1.00  0.00     0.041 A 
ATOM     86  F   UNL A   1      45.343  33.139  32.134  1.00  0.00    -0.206 F 
ATOM     87  C   UNL A   1      45.714  36.410  30.631  1.00  0.00     0.022 A 
BRANCH  84  88
ATOM     88  S   UNL A   1      45.130  37.486  28.124  1.00  0.00     0.124 S 
ATOM     89  O   UNL A   1      45.143  38.709  28.922  1.00  0.00    -0.237 OA
ATOM     90  O   UNL A   1      46.367  37.176  27.415  1.00  0.00    -0.237 OA
ATOM     91  O   UNL A   1      43.905  37.257  27.362  1.00  0.00    -0.744 OA
ENDBRANCH  84  88
ENDBRANCH  58  81
ENDBRANCH  32  33
ENDBRANCH  25  27
ENDBRANCH  24  25
ENDBRANCH  23  24
ENDBRANCH   1  23
TORSDOF 18
ENDMDL
MODEL 3
REMARK VINA RESULT:     -10.9      5.080      7.599
REMARK SMILES COc1ncnc(N2CCSC[C@@H]2CC(=O)OCCOC(=O)c2ccc(-c3c4nc(c(-c5cc(S(=O)(=O)[O-])ccc5F)c5ccc([nH]5)c(-c5cc(S(=O)(=O)[O-])ccc5F)c5nc(c(-c6cc(S(=O)(=O)[O-])ccc6F)c6ccc3[nH]6)C=C5)C=C4)cc2)c1[N+](=O)[O-]
REMARK SMILES IDX 18 1 17 2 15 3 16 4 14 5 13 6 8 7 9 8 10 9 12 10 11 11 7 12
REMARK SMILES IDX 3 13 4 14 86 15 5 16 6 17 2 18 1 19 87 20 88 21 89 22 19 23
REMARK SMILES IDX 20 24 21 25 22 26 23 27 24 28 85 29 25 30 84 31 26 32 27 33
REMARK SMILES IDX 28 34 78 35 29 36 83 37 77 38 79 39 30 40 82 41 76 42 75 43
REMARK SMILES IDX 31 45 63 46 43 47 62 48 44 49 47 50 61 51 80 52 45 53 46 54
REMARK SMILES IDX 60 56 81 57 48 58 32 59 33 60 41 61 34 62 40 63 42 64 39 65
REMARK SMILES IDX 35 66 36 67 37 68 38 69 64 70 65 71 73 72 66 73 72 74 74 75
REMARK SMILES IDX 71 76 67 77 68 78 69 79 70 80 49 81 50 82 58 83 51 84 57 85
REMARK SMILES IDX 59 86 56 87 52 88 53 89 54 90 55 91
REMARK H PARENT 79 44 47 55
REMARK Flexibility Score: inf
ROOT
ATOM      1  C   UNL A   1      31.301  29.468  24.844  1.00  0.00     0.274 C 
ENDROOT
BRANCH   1   2
ATOM      2  O   UNL A   1      30.371  29.723  23.776  1.00  0.00    -0.462 OA
BRANCH   2   3
ATOM      3  C   UNL A   1      29.977  28.658  23.046  1.00  0.00     0.308 C 
ATOM      4  O   UNL A   1      29.325  28.739  22.011  1.00  0.00    -0.252 OA
BRANCH   3   5
ATOM      5  C   UNL A   1      30.267  27.336  23.700  1.00  0.00     0.148 C 
BRANCH   5   6
ATOM      6  C   UNL A   1      31.287  26.329  23.124  1.00  0.00     0.105 C 
ATOM      7  N   UNL A   1      32.029  25.762  24.284  1.00  0.00    -0.345 N 
ATOM      8  C   UNL A   1      33.086  26.565  24.914  1.00  0.00     0.129 C 
ATOM      9  C   UNL A   1      34.214  26.902  23.940  1.00  0.00     0.091 C 
ATOM     10  C   UNL A   1      32.275  26.741  22.014  1.00  0.00     0.095 C 
ATOM     11  S   UNL A   1      33.619  27.873  22.528  1.00  0.00    -0.158 SA
BRANCH   7  12
ATOM     12  C   UNL A   1      31.867  24.434  24.612  1.00  0.00     0.215 A 
ATOM     13  C   UNL A   1      32.279  22.111  24.385  1.00  0.00     0.299 A 
ATOM     14  N   UNL A   1      31.406  21.809  25.360  1.00  0.00    -0.196 NA
ATOM     15  C   UNL A   1      32.515  23.397  23.969  1.00  0.00     0.372 A 
ATOM     16  C   UNL A   1      30.822  22.863  25.946  1.00  0.00     0.228 A 
ATOM     17  N   UNL A   1      31.016  24.156  25.623  1.00  0.00    -0.212 NA
BRANCH  13  18
ATOM     18  O   UNL A   1      32.868  21.042  23.754  1.00  0.00    -0.476 OA
ATOM     19  C   UNL A   1      33.481  20.192  24.724  1.00  0.00     0.280 C 
ENDBRANCH  13  18
BRANCH  15  20
ATOM     20  N   UNL A   1      33.513  23.640  22.983  1.00  0.00     0.072 N 
ATOM     21  O   UNL A   1      34.660  23.881  23.384  1.00  0.00    -0.258 OA
ATOM     22  O   UNL A   1      33.159  23.600  21.795  1.00  0.00    -0.258 OA
ENDBRANCH  15  20
ENDBRANCH   7  12
ENDBRANCH   5   6
ENDBRANCH   3   5
ENDBRANCH   2   3
ENDBRANCH   1   2
BRANCH   1  23
ATOM     23  C   UNL A   1      31.466  30.677  25.770  1.00  0.00     0.275 C 
BRANCH  23  24
ATOM     24  O   UNL A   1      32.443  30.445  26.802  1.00  0.00    -0.458 OA
BRANCH  24  25
ATOM     25  C   UNL A   1      33.121  31.548  27.197  1.00  0.00     0.338 C 
ATOM     26  O   UNL A   1      32.694  32.690  27.254  1.00  0.00    -0.246 OA
BRANCH  25  27
ATOM     27  C   UNL A   1      34.454  31.198  27.702  1.00  0.00     0.060 A 
ATOM     28  C   UNL A   1      34.688  29.856  28.019  1.00  0.00     0.016 A 
ATOM     29  C   UNL A   1      35.400  32.179  28.001  1.00  0.00     0.016 A 
ATOM     30  C   UNL A   1      35.857  29.491  28.672  1.00  0.00     0.010 A 
ATOM     31  C   UNL A   1      36.580  31.808  28.655  1.00  0.00     0.010 A 
ATOM     32  C   UNL A   1      36.798  30.468  29.019  1.00  0.00    -0.014 A 
BRANCH  32  33
ATOM     33  C   UNL A   1      37.959  30.073  29.851  1.00  0.00     0.031 A 
ATOM     34  C   UNL A   1      38.994  29.144  29.284  1.00  0.00     0.074 A 
ATOM     35  C   UNL A   1      38.113  30.608  31.076  1.00  0.00     0.049 A 
ATOM     36  N   UNL A   1      40.068  28.654  29.847  1.00  0.00    -0.248 NA
ATOM     37  C   UNL A   1      38.789  28.705  27.895  1.00  0.00     0.031 C 
ATOM     38  C   UNL A   1      37.194  31.563  31.697  1.00  0.00     0.029 A 
ATOM     39  N   UNL A   1      39.102  30.437  32.009  1.00  0.00    -0.354 N 
ATOM     40  C   UNL A   1      40.659  27.834  28.890  1.00  0.00     0.074 A 
ATOM     41  C   UNL A   1      39.806  27.876  27.720  1.00  0.00     0.031 C 
ATOM     42  C   UNL A   1      37.671  31.905  32.906  1.00  0.00     0.029 A 
ATOM     43  C   UNL A   1      38.900  31.159  33.161  1.00  0.00     0.049 A 
ATOM     44  H   UNL A   1      39.882  29.853  31.868  1.00  0.00     0.167 HD
ATOM     45  C   UNL A   1      41.806  27.117  28.984  1.00  0.00     0.034 A 
ATOM     46  C   UNL A   1      39.617  31.197  34.301  1.00  0.00     0.034 A 
ATOM     47  C   UNL A   1      42.638  27.091  30.163  1.00  0.00     0.049 A 
ATOM     48  C   UNL A   1      40.870  30.367  34.393  1.00  0.00     0.074 A 
ATOM     49  C   UNL A   1      43.803  26.377  30.388  1.00  0.00     0.029 A 
ATOM     50  N   UNL A   1      42.393  27.818  31.322  1.00  0.00    -0.354 N 
ATOM     51  N   UNL A   1      41.394  29.559  33.499  1.00  0.00    -0.248 NA
ATOM     52  C   UNL A   1      41.632  30.460  35.644  1.00  0.00     0.031 C 
ATOM     53  C   UNL A   1      44.233  26.635  31.696  1.00  0.00     0.029 A 
ATOM     54  C   UNL A   1      43.376  27.561  32.267  1.00  0.00     0.049 A 
ATOM     55  H   UNL A   1      41.632  28.428  31.455  1.00  0.00     0.167 HD
ATOM     56  C   UNL A   1      42.560  29.064  34.073  1.00  0.00     0.074 A 
ATOM     57  C   UNL A   1      42.672  29.681  35.380  1.00  0.00     0.031 C 
ATOM     58  C   UNL A   1      43.459  28.178  33.570  1.00  0.00     0.034 A 
BRANCH  45  59
ATOM     59  C   UNL A   1      42.177  26.255  27.799  1.00  0.00     0.023 A 
ATOM     60  C   UNL A   1      41.733  24.926  27.679  1.00  0.00     0.031 A 
ATOM     61  C   UNL A   1      43.031  26.757  26.801  1.00  0.00     0.131 A 
ATOM     62  C   UNL A   1      42.203  24.124  26.626  1.00  0.00     0.055 A 
ATOM     63  C   UNL A   1      43.433  25.977  25.715  1.00  0.00     0.041 A 
ATOM     64  F   UNL A   1      43.506  28.010  26.875  1.00  0.00    -0.206 F 
ATOM     65  C   UNL A   1      43.032  24.647  25.631  1.00  0.00     0.022 A 
BRANCH  62  66
ATOM     66  S   UNL A   1      41.832  22.348  26.654  1.00  0.00     0.124 S 
ATOM     67  O   UNL A   1      42.387  21.910  25.374  1.00  0.00    -0.237 OA
ATOM     68  O   UNL A   1      42.539  21.895  27.844  1.00  0.00    -0.237 OA
ATOM     69  O   UNL A   1      40.373  22.303  26.738  1.00  0.00    -0.744 OA
ENDBRANCH  62  66
ENDBRANCH  45  59
BRANCH  46  70
ATOM     70  C   UNL A   1      39.152  32.020  35.453  1.00  0.00     0.023 A 
ATOM     71  C   UNL A   1      38.488  31.440  36.544  1.00  0.00     0.031 A 
ATOM     72  C   UNL A   1      39.343  33.414  35.460  1.00  0.00     0.131 A 
ATOM     73  C   UNL A   1      38.006  32.254  37.580  1.00  0.00     0.055 A 
ATOM     74  C   UNL A   1      38.904  34.213  36.516  1.00  0.00     0.041 A 
ATOM     75  F   UNL A   1      39.975  34.018  34.441  1.00  0.00    -0.206 F 
ATOM     76  C   UNL A   1      38.221  33.634  37.580  1.00  0.00     0.022 A 
BRANCH  73  77
ATOM     77  S   UNL A   1      37.026  31.489  38.902  1.00  0.00     0.124 S 
ATOM     78  O   UNL A   1      36.875  30.125  38.411  1.00  0.00    -0.237 OA
ATOM     79  O   UNL A   1      37.896  31.662  40.061  1.00  0.00    -0.237 OA
ATOM     80  O   UNL A   1      35.801  32.286  38.922  1.00  0.00    -0.744 OA
ENDBRANCH  73  77
ENDBRANCH  46  70
BRANCH  58  81
ATOM     81  C   UNL A   1      44.656  27.871  34.434  1.00  0.00     0.023 A 
ATOM     82  C   UNL A   1      44.658  26.793  35.337  1.00  0.00     0.031 A 
ATOM     83  C   UNL A   1      45.792  28.698  34.384  1.00  0.00     0.131 A 
ATOM     84  C   UNL A   1      45.747  26.610  36.203  1.00  0.00     0.055 A 
ATOM     85  C   UNL A   1      46.896  28.476  35.208  1.00  0.00     0.041 A 
ATOM     86  F   UNL A   1      45.842  29.740  33.540  1.00  0.00    -0.206 F 
ATOM     87  C   UNL A   1      46.870  27.439  36.136  1.00  0.00     0.022 A 
BRANCH  84  88
ATOM     88  S   UNL A   1      45.625  25.347  37.498  1.00  0.00     0.124 S 
ATOM     89  O   UNL A   1      46.686  24.418  37.121  1.00  0.00    -0.237 OA
ATOM     90  O   UNL A   1      45.860  26.123  38.711  1.00  0.00    -0.237 OA
ATOM     91  O   UNL A   1      44.266  24.830  37.347  1.00  0.00    -0.744 OA
ENDBRANCH  84  88
ENDBRANCH  58  81
ENDBRANCH  32  33
ENDBRANCH  25  27
ENDBRANCH  24  25
ENDBRANCH  23  24
ENDBRANCH   1  23
TORSDOF 18
ENDMDL
