MODEL 1
REMARK VINA RESULT:     -11.8      0.000      0.000
REMARK SMILES C[C@H](NC(=O)N1CC[C@@H](C(=O)OCCOC(=O)c2ccc(-c3c4nc(c(-c5cc(S(=O)(=O)[O-])ccc5F)c5ccc([nH]5)c(-c5cc(S(=O)(=O)[O-])ccc5F)c5nc(c(-c6cc(S(=O)(=O)[O-])ccc6F)c6ccc3[nH]6)C=C5)C=C4)cc2)[C@H]1C)c1ccc(Cl)cc1
REMARK SMILES IDX 13 1 12 2 10 3 11 4 9 5 6 6 7 7 81 8 8 9 82 10 4 11 3 12
REMARK SMILES IDX 5 14 2 15 1 16 83 17 84 18 89 19 85 20 88 21 86 22 87 23
REMARK SMILES IDX 14 24 15 25 16 26 17 27 18 28 19 29 80 30 20 31 79 32 21 33
REMARK SMILES IDX 22 34 23 35 73 36 24 37 78 38 72 39 74 40 25 41 77 42 71 43
REMARK SMILES IDX 70 44 26 46 58 47 38 48 57 49 39 50 42 51 56 52 75 53 40 54
REMARK SMILES IDX 41 55 55 57 76 58 43 59 27 60 28 61 36 62 29 63 35 64 37 65
REMARK SMILES IDX 34 66 30 67 31 68 32 69 33 70 59 71 60 72 68 73 61 74 67 75
REMARK SMILES IDX 69 76 66 77 62 78 63 79 64 80 65 81 44 82 45 83 53 84 46 85
REMARK SMILES IDX 52 86 54 87 51 88 47 89 48 90 49 91 50 92
REMARK H PARENT 3 13 74 45 42 56
REMARK Flexibility Score: inf
ROOT
ATOM      1  C   UNL A   1      31.829  28.962  27.124  1.00  0.00     0.274 C 
ENDROOT
BRANCH   1   2
ATOM      2  O   UNL A   1      31.531  28.085  26.022  1.00  0.00    -0.462 OA
BRANCH   2   3
ATOM      3  C   UNL A   1      32.568  27.477  25.408  1.00  0.00     0.311 C 
ATOM      4  O   UNL A   1      33.220  27.985  24.503  1.00  0.00    -0.252 OA
BRANCH   3   5
ATOM      5  C   UNL A   1      32.854  26.082  25.919  1.00  0.00     0.123 C 
ATOM      6  N   UNL A   1      32.684  23.731  26.030  1.00  0.00    -0.321 N 
ATOM      7  C   UNL A   1      34.096  24.102  25.935  1.00  0.00     0.122 C 
ATOM      8  C   UNL A   1      31.829  24.925  25.801  1.00  0.00     0.098 C 
ATOM      9  C   UNL A   1      34.117  25.486  25.316  1.00  0.00     0.039 C 
ATOM     10  C   UNL A   1      31.114  24.891  24.451  1.00  0.00     0.032 C 
BRANCH   6  11
ATOM     11  C   UNL A   1      32.407  22.619  26.767  1.00  0.00     0.318 C 
ATOM     12  N   UNL A   1      32.071  21.432  26.252  1.00  0.00    -0.331 N 
ATOM     13  H   UNL A   1      31.625  20.876  26.931  1.00  0.00     0.165 HD
ATOM     14  O   UNL A   1      32.540  22.623  27.996  1.00  0.00    -0.249 OA
BRANCH  12  15
ATOM     15  C   UNL A   1      32.166  20.709  24.988  1.00  0.00     0.111 C 
ATOM     16  C   UNL A   1      32.340  21.602  23.757  1.00  0.00     0.036 C 
BRANCH  15  17
ATOM     17  C   UNL A   1      32.928  19.383  25.015  1.00  0.00    -0.026 A 
ATOM     18  C   UNL A   1      34.270  19.357  24.587  1.00  0.00     0.007 A 
ATOM     19  C   UNL A   1      32.373  18.164  25.432  1.00  0.00     0.007 A 
ATOM     20  C   UNL A   1      35.015  18.171  24.592  1.00  0.00     0.021 A 
ATOM     21  C   UNL A   1      33.119  16.984  25.476  1.00  0.00     0.021 A 
ATOM     22  C   UNL A   1      34.438  16.990  25.049  1.00  0.00     0.041 A 
ATOM     23  Cl  UNL A   1      35.353  15.534  25.079  1.00  0.00    -0.084 Cl
ENDBRANCH  15  17
ENDBRANCH  12  15
ENDBRANCH   6  11
ENDBRANCH   3   5
ENDBRANCH   2   3
ENDBRANCH   1   2
BRANCH   1  24
ATOM     24  C   UNL A   1      31.891  30.416  26.640  1.00  0.00     0.275 C 
BRANCH  24  25
ATOM     25  O   UNL A   1      33.253  30.860  26.487  1.00  0.00    -0.458 OA
BRANCH  25  26
ATOM     26  C   UNL A   1      33.625  31.899  27.274  1.00  0.00     0.338 C 
ATOM     27  O   UNL A   1      32.971  32.892  27.533  1.00  0.00    -0.246 OA
BRANCH  26  28
ATOM     28  C   UNL A   1      34.904  31.571  27.927  1.00  0.00     0.060 A 
ATOM     29  C   UNL A   1      35.039  30.313  28.521  1.00  0.00     0.016 A 
ATOM     30  C   UNL A   1      35.949  32.492  27.976  1.00  0.00     0.016 A 
ATOM     31  C   UNL A   1      36.228  29.952  29.144  1.00  0.00     0.010 A 
ATOM     32  C   UNL A   1      37.143  32.132  28.607  1.00  0.00     0.010 A 
ATOM     33  C   UNL A   1      37.291  30.859  29.186  1.00  0.00    -0.014 A 
BRANCH  33  34
ATOM     34  C   UNL A   1      38.550  30.491  29.870  1.00  0.00     0.031 A 
ATOM     35  C   UNL A   1      39.482  29.516  29.218  1.00  0.00     0.074 A 
ATOM     36  C   UNL A   1      38.839  31.027  31.071  1.00  0.00     0.049 A 
ATOM     37  N   UNL A   1      40.538  28.925  29.707  1.00  0.00    -0.248 NA
ATOM     38  C   UNL A   1      39.172  29.151  27.827  1.00  0.00     0.031 C 
ATOM     39  C   UNL A   1      38.037  32.041  31.756  1.00  0.00     0.029 A 
ATOM     40  N   UNL A   1      39.878  30.782  31.933  1.00  0.00    -0.354 N 
ATOM     41  C   UNL A   1      41.010  28.097  28.696  1.00  0.00     0.074 A 
ATOM     42  C   UNL A   1      40.111  28.252  27.571  1.00  0.00     0.031 C 
ATOM     43  C   UNL A   1      38.603  32.317  32.943  1.00  0.00     0.029 A 
ATOM     44  C   UNL A   1      39.767  31.455  33.128  1.00  0.00     0.049 A 
ATOM     45  H   UNL A   1      40.629  30.183  31.718  1.00  0.00     0.167 HD
ATOM     46  C   UNL A   1      42.092  27.281  28.715  1.00  0.00     0.034 A 
ATOM     47  C   UNL A   1      40.491  31.347  34.260  1.00  0.00     0.034 A 
ATOM     48  C   UNL A   1      42.967  27.148  29.856  1.00  0.00     0.049 A 
ATOM     49  C   UNL A   1      41.634  30.364  34.291  1.00  0.00     0.074 A 
ATOM     50  C   UNL A   1      44.095  26.358  29.991  1.00  0.00     0.029 A 
ATOM     51  N   UNL A   1      42.806  27.820  31.062  1.00  0.00    -0.354 N 
ATOM     52  N   UNL A   1      42.056  29.558  33.342  1.00  0.00    -0.248 NA
ATOM     53  C   UNL A   1      42.395  30.269  35.543  1.00  0.00     0.031 C 
ATOM     54  C   UNL A   1      44.572  26.499  31.299  1.00  0.00     0.029 A 
ATOM     55  C   UNL A   1      43.793  27.436  31.957  1.00  0.00     0.049 A 
ATOM     56  H   UNL A   1      42.094  28.473  31.253  1.00  0.00     0.167 HD
ATOM     57  C   UNL A   1      43.151  28.885  33.875  1.00  0.00     0.074 A 
ATOM     58  C   UNL A   1      43.328  29.383  35.225  1.00  0.00     0.031 C 
ATOM     59  C   UNL A   1      43.944  27.945  33.301  1.00  0.00     0.034 A 
BRANCH  46  60
ATOM     60  C   UNL A   1      42.338  26.423  27.498  1.00  0.00     0.023 A 
ATOM     61  C   UNL A   1      41.908  25.088  27.426  1.00  0.00     0.031 A 
ATOM     62  C   UNL A   1      43.048  26.947  26.402  1.00  0.00     0.131 A 
ATOM     63  C   UNL A   1      42.251  24.302  26.314  1.00  0.00     0.055 A 
ATOM     64  C   UNL A   1      43.319  26.182  25.266  1.00  0.00     0.041 A 
ATOM     65  F   UNL A   1      43.507  28.208  26.425  1.00  0.00    -0.206 F 
ATOM     66  C   UNL A   1      42.931  24.847  25.223  1.00  0.00     0.022 A 
BRANCH  63  67
ATOM     67  S   UNL A   1      41.917  22.519  26.374  1.00  0.00     0.124 S 
ATOM     68  O   UNL A   1      42.512  22.150  27.657  1.00  0.00    -0.237 OA
ATOM     69  O   UNL A   1      40.462  22.468  26.306  1.00  0.00    -0.237 OA
ATOM     70  O   UNL A   1      42.616  22.000  25.200  1.00  0.00    -0.744 OA
ENDBRANCH  63  67
ENDBRANCH  46  60
BRANCH  47  71
ATOM     71  C   UNL A   1      40.118  32.130  35.473  1.00  0.00     0.023 A 
ATOM     72  C   UNL A   1      39.166  31.651  36.384  1.00  0.00     0.031 A 
ATOM     73  C   UNL A   1      40.683  33.396  35.716  1.00  0.00     0.131 A 
ATOM     74  C   UNL A   1      38.775  32.447  37.473  1.00  0.00     0.055 A 
ATOM     75  C   UNL A   1      40.333  34.160  36.830  1.00  0.00     0.041 A 
ATOM     76  F   UNL A   1      41.596  33.906  34.875  1.00  0.00    -0.206 F 
ATOM     77  C   UNL A   1      39.363  33.692  37.710  1.00  0.00     0.022 A 
BRANCH  74  78
ATOM     78  S   UNL A   1      37.418  31.871  38.529  1.00  0.00     0.124 S 
ATOM     79  O   UNL A   1      38.018  31.952  39.856  1.00  0.00    -0.237 OA
ATOM     80  O   UNL A   1      36.372  32.845  38.237  1.00  0.00    -0.237 OA
ATOM     81  O   UNL A   1      37.159  30.517  38.043  1.00  0.00    -0.744 OA
ENDBRANCH  74  78
ENDBRANCH  47  71
BRANCH  59  82
ATOM     82  C   UNL A   1      45.109  27.440  34.116  1.00  0.00     0.023 A 
ATOM     83  C   UNL A   1      44.981  26.355  34.999  1.00  0.00     0.031 A 
ATOM     84  C   UNL A   1      46.368  28.054  33.994  1.00  0.00     0.131 A 
ATOM     85  C   UNL A   1      46.086  25.942  35.758  1.00  0.00     0.055 A 
ATOM     86  C   UNL A   1      47.477  27.604  34.712  1.00  0.00     0.041 A 
ATOM     87  F   UNL A   1      46.543  29.096  33.165  1.00  0.00    -0.206 F 
ATOM     88  C   UNL A   1      47.336  26.548  35.607  1.00  0.00     0.022 A 
BRANCH  85  89
ATOM     89  S   UNL A   1      45.855  24.639  36.999  1.00  0.00     0.124 S 
ATOM     90  O   UNL A   1      46.541  25.199  38.158  1.00  0.00    -0.237 OA
ATOM     91  O   UNL A   1      44.401  24.554  37.098  1.00  0.00    -0.237 OA
ATOM     92  O   UNL A   1      46.503  23.474  36.399  1.00  0.00    -0.744 OA
ENDBRANCH  85  89
ENDBRANCH  59  82
ENDBRANCH  33  34
ENDBRANCH  26  28
ENDBRANCH  25  26
ENDBRANCH  24  25
ENDBRANCH   1  24
TORSDOF 17
ENDMDL
MODEL 2
REMARK VINA RESULT:     -11.5      4.879      9.931
REMARK SMILES C[C@H](NC(=O)N1CC[C@@H](C(=O)OCCOC(=O)c2ccc(-c3c4nc(c(-c5cc(S(=O)(=O)[O-])ccc5F)c5ccc([nH]5)c(-c5cc(S(=O)(=O)[O-])ccc5F)c5nc(c(-c6cc(S(=O)(=O)[O-])ccc6F)c6ccc3[nH]6)C=C5)C=C4)cc2)[C@H]1C)c1ccc(Cl)cc1
REMARK SMILES IDX 13 1 12 2 10 3 11 4 9 5 6 6 7 7 81 8 8 9 82 10 4 11 3 12
REMARK SMILES IDX 5 14 2 15 1 16 83 17 84 18 89 19 85 20 88 21 86 22 87 23
REMARK SMILES IDX 14 24 15 25 16 26 17 27 18 28 19 29 80 30 20 31 79 32 21 33
REMARK SMILES IDX 22 34 23 35 73 36 24 37 78 38 72 39 74 40 25 41 77 42 71 43
REMARK SMILES IDX 70 44 26 46 58 47 38 48 57 49 39 50 42 51 56 52 75 53 40 54
REMARK SMILES IDX 41 55 55 57 76 58 43 59 27 60 28 61 36 62 29 63 35 64 37 65
REMARK SMILES IDX 34 66 30 67 31 68 32 69 33 70 59 71 60 72 68 73 61 74 67 75
REMARK SMILES IDX 69 76 66 77 62 78 63 79 64 80 65 81 44 82 45 83 53 84 46 85
REMARK SMILES IDX 52 86 54 87 51 88 47 89 48 90 49 91 50 92
REMARK H PARENT 3 13 74 45 42 56
REMARK Flexibility Score: inf
ROOT
ATOM      1  C   UNL A   1      35.150  21.283  24.544  1.00  0.00     0.274 C 
ENDROOT
BRANCH   1   2
ATOM      2  O   UNL A   1      34.021  20.740  25.253  1.00  0.00    -0.462 OA
BRANCH   2   3
ATOM      3  C   UNL A   1      33.648  21.352  26.397  1.00  0.00     0.311 C 
ATOM      4  O   UNL A   1      34.190  21.165  27.481  1.00  0.00    -0.252 OA
BRANCH   3   5
ATOM      5  C   UNL A   1      32.470  22.289  26.239  1.00  0.00     0.123 C 
ATOM      6  N   UNL A   1      31.358  24.338  25.879  1.00  0.00    -0.321 N 
ATOM      7  C   UNL A   1      30.823  23.338  24.956  1.00  0.00     0.122 C 
ATOM      8  C   UNL A   1      32.560  23.801  26.569  1.00  0.00     0.098 C 
ATOM      9  C   UNL A   1      31.898  22.277  24.830  1.00  0.00     0.039 C 
ATOM     10  C   UNL A   1      33.858  24.446  26.084  1.00  0.00     0.032 C 
BRANCH   6  11
ATOM     11  C   UNL A   1      30.474  25.275  26.324  1.00  0.00     0.318 C 
ATOM     12  N   UNL A   1      30.612  26.593  26.148  1.00  0.00    -0.331 N 
ATOM     13  H   UNL A   1      30.053  27.086  26.791  1.00  0.00     0.165 HD
ATOM     14  O   UNL A   1      29.411  24.940  26.860  1.00  0.00    -0.249 OA
BRANCH  12  15
ATOM     15  C   UNL A   1      31.340  27.523  25.290  1.00  0.00     0.111 C 
ATOM     16  C   UNL A   1      32.326  28.429  26.030  1.00  0.00     0.036 C 
BRANCH  15  17
ATOM     17  C   UNL A   1      31.753  27.000  23.913  1.00  0.00    -0.026 A 
ATOM     18  C   UNL A   1      30.754  26.733  22.956  1.00  0.00     0.007 A 
ATOM     19  C   UNL A   1      33.080  26.751  23.530  1.00  0.00     0.007 A 
ATOM     20  C   UNL A   1      31.076  26.254  21.680  1.00  0.00     0.021 A 
ATOM     21  C   UNL A   1      33.412  26.310  22.247  1.00  0.00     0.021 A 
ATOM     22  C   UNL A   1      32.407  26.056  21.327  1.00  0.00     0.041 A 
ATOM     23  Cl  UNL A   1      32.811  25.490  19.754  1.00  0.00    -0.084 Cl
ENDBRANCH  15  17
ENDBRANCH  12  15
ENDBRANCH   6  11
ENDBRANCH   3   5
ENDBRANCH   2   3
ENDBRANCH   1   2
BRANCH   1  24
ATOM     24  C   UNL A   1      36.449  20.652  25.057  1.00  0.00     0.275 C 
BRANCH  24  25
ATOM     25  O   UNL A   1      37.267  21.619  25.743  1.00  0.00    -0.458 OA
BRANCH  25  26
ATOM     26  C   UNL A   1      38.550  21.249  25.973  1.00  0.00     0.338 C 
ATOM     27  O   UNL A   1      39.064  20.180  25.700  1.00  0.00    -0.246 OA
BRANCH  26  28
ATOM     28  C   UNL A   1      39.306  22.416  26.460  1.00  0.00     0.060 A 
ATOM     29  C   UNL A   1      38.882  23.688  26.068  1.00  0.00     0.016 A 
ATOM     30  C   UNL A   1      40.428  22.263  27.273  1.00  0.00     0.016 A 
ATOM     31  C   UNL A   1      39.556  24.822  26.507  1.00  0.00     0.010 A 
ATOM     32  C   UNL A   1      41.109  23.402  27.711  1.00  0.00     0.010 A 
ATOM     33  C   UNL A   1      40.672  24.686  27.337  1.00  0.00    -0.014 A 
BRANCH  33  34
ATOM     34  C   UNL A   1      41.410  25.886  27.788  1.00  0.00     0.031 A 
ATOM     35  C   UNL A   1      40.696  26.930  28.591  1.00  0.00     0.074 A 
ATOM     36  C   UNL A   1      42.708  26.034  27.462  1.00  0.00     0.049 A 
ATOM     37  N   UNL A   1      41.091  28.125  28.936  1.00  0.00    -0.248 NA
ATOM     38  C   UNL A   1      39.347  26.576  29.061  1.00  0.00     0.031 C 
ATOM     39  C   UNL A   1      43.515  25.044  26.747  1.00  0.00     0.029 A 
ATOM     40  N   UNL A   1      43.572  27.078  27.676  1.00  0.00    -0.354 N 
ATOM     41  C   UNL A   1      40.032  28.683  29.643  1.00  0.00     0.074 A 
ATOM     42  C   UNL A   1      38.972  27.696  29.662  1.00  0.00     0.031 C 
ATOM     43  C   UNL A   1      44.751  25.537  26.565  1.00  0.00     0.029 A 
ATOM     44  C   UNL A   1      44.803  26.898  27.090  1.00  0.00     0.049 A 
ATOM     45  H   UNL A   1      43.332  27.878  28.197  1.00  0.00     0.167 HD
ATOM     46  C   UNL A   1      39.959  29.909  30.216  1.00  0.00     0.034 A 
ATOM     47  C   UNL A   1      45.834  27.755  26.948  1.00  0.00     0.034 A 
ATOM     48  C   UNL A   1      41.036  30.870  30.176  1.00  0.00     0.049 A 
ATOM     49  C   UNL A   1      45.696  29.147  27.512  1.00  0.00     0.074 A 
ATOM     50  C   UNL A   1      41.079  32.140  30.723  1.00  0.00     0.029 A 
ATOM     51  N   UNL A   1      42.258  30.668  29.546  1.00  0.00    -0.354 N 
ATOM     52  N   UNL A   1      44.680  29.681  28.152  1.00  0.00    -0.248 NA
ATOM     53  C   UNL A   1      46.836  30.054  27.332  1.00  0.00     0.031 C 
ATOM     54  C   UNL A   1      42.297  32.729  30.364  1.00  0.00     0.029 A 
ATOM     55  C   UNL A   1      43.048  31.801  29.661  1.00  0.00     0.049 A 
ATOM     56  H   UNL A   1      42.524  29.839  29.084  1.00  0.00     0.167 HD
ATOM     57  C   UNL A   1      45.073  30.976  28.477  1.00  0.00     0.074 A 
ATOM     58  C   UNL A   1      46.420  31.139  27.968  1.00  0.00     0.031 C 
ATOM     59  C   UNL A   1      44.388  31.941  29.140  1.00  0.00     0.034 A 
BRANCH  46  60
ATOM     60  C   UNL A   1      38.652  30.297  30.863  1.00  0.00     0.023 A 
ATOM     61  C   UNL A   1      37.633  30.953  30.154  1.00  0.00     0.031 A 
ATOM     62  C   UNL A   1      38.440  30.033  32.230  1.00  0.00     0.131 A 
ATOM     63  C   UNL A   1      36.478  31.384  30.827  1.00  0.00     0.055 A 
ATOM     64  C   UNL A   1      37.257  30.396  32.874  1.00  0.00     0.041 A 
ATOM     65  F   UNL A   1      39.389  29.433  32.965  1.00  0.00    -0.206 F 
ATOM     66  C   UNL A   1      36.272  31.087  32.175  1.00  0.00     0.022 A 
BRANCH  63  67
ATOM     67  S   UNL A   1      35.311  32.460  29.947  1.00  0.00     0.124 S 
ATOM     68  O   UNL A   1      34.879  31.595  28.852  1.00  0.00    -0.237 OA
ATOM     69  O   UNL A   1      34.311  32.743  30.970  1.00  0.00    -0.237 OA
ATOM     70  O   UNL A   1      36.133  33.599  29.544  1.00  0.00    -0.744 OA
ENDBRANCH  63  67
ENDBRANCH  46  60
BRANCH  47  71
ATOM     71  C   UNL A   1      47.051  27.353  26.185  1.00  0.00     0.023 A 
ATOM     72  C   UNL A   1      47.228  27.731  24.846  1.00  0.00     0.031 A 
ATOM     73  C   UNL A   1      48.040  26.545  26.777  1.00  0.00     0.131 A 
ATOM     74  C   UNL A   1      48.344  27.269  24.129  1.00  0.00     0.055 A 
ATOM     75  C   UNL A   1      49.175  26.134  26.077  1.00  0.00     0.041 A 
ATOM     76  F   UNL A   1      47.920  26.149  28.054  1.00  0.00    -0.206 F 
ATOM     77  C   UNL A   1      49.326  26.485  24.740  1.00  0.00     0.022 A 
BRANCH  74  78
ATOM     78  S   UNL A   1      48.450  27.633  22.355  1.00  0.00     0.124 S 
ATOM     79  O   UNL A   1      47.179  28.305  22.113  1.00  0.00    -0.237 OA
ATOM     80  O   UNL A   1      49.643  28.471  22.289  1.00  0.00    -0.237 OA
ATOM     81  O   UNL A   1      48.584  26.312  21.744  1.00  0.00    -0.744 OA
ENDBRANCH  74  78
ENDBRANCH  47  71
BRANCH  59  82
ATOM     82  C   UNL A   1      45.112  33.238  29.401  1.00  0.00     0.023 A 
ATOM     83  C   UNL A   1      45.895  33.432  30.551  1.00  0.00     0.031 A 
ATOM     84  C   UNL A   1      45.020  34.291  28.473  1.00  0.00     0.131 A 
ATOM     85  C   UNL A   1      46.525  34.667  30.765  1.00  0.00     0.055 A 
ATOM     86  C   UNL A   1      45.693  35.499  28.665  1.00  0.00     0.041 A 
ATOM     87  F   UNL A   1      44.283  34.158  27.359  1.00  0.00    -0.206 F 
ATOM     88  C   UNL A   1      46.442  35.694  29.821  1.00  0.00     0.022 A 
BRANCH  85  89
ATOM     89  S   UNL A   1      47.404  34.941  32.327  1.00  0.00     0.124 S 
ATOM     90  O   UNL A   1      48.473  35.846  31.919  1.00  0.00    -0.237 OA
ATOM     91  O   UNL A   1      46.366  35.521  33.174  1.00  0.00    -0.237 OA
ATOM     92  O   UNL A   1      47.840  33.601  32.716  1.00  0.00    -0.744 OA
ENDBRANCH  85  89
ENDBRANCH  59  82
ENDBRANCH  33  34
ENDBRANCH  26  28
ENDBRANCH  25  26
ENDBRANCH  24  25
ENDBRANCH   1  24
TORSDOF 17
ENDMDL
MODEL 3
REMARK VINA RESULT:     -11.4      3.054      3.875
REMARK SMILES C[C@H](NC(=O)N1CC[C@@H](C(=O)OCCOC(=O)c2ccc(-c3c4nc(c(-c5cc(S(=O)(=O)[O-])ccc5F)c5ccc([nH]5)c(-c5cc(S(=O)(=O)[O-])ccc5F)c5nc(c(-c6cc(S(=O)(=O)[O-])ccc6F)c6ccc3[nH]6)C=C5)C=C4)cc2)[C@H]1C)c1ccc(Cl)cc1
REMARK SMILES IDX 13 1 12 2 10 3 11 4 9 5 6 6 7 7 81 8 8 9 82 10 4 11 3 12
REMARK SMILES IDX 5 14 2 15 1 16 83 17 84 18 89 19 85 20 88 21 86 22 87 23
REMARK SMILES IDX 14 24 15 25 16 26 17 27 18 28 19 29 80 30 20 31 79 32 21 33
REMARK SMILES IDX 22 34 23 35 73 36 24 37 78 38 72 39 74 40 25 41 77 42 71 43
REMARK SMILES IDX 70 44 26 46 58 47 38 48 57 49 39 50 42 51 56 52 75 53 40 54
REMARK SMILES IDX 41 55 55 57 76 58 43 59 27 60 28 61 36 62 29 63 35 64 37 65
REMARK SMILES IDX 34 66 30 67 31 68 32 69 33 70 59 71 60 72 68 73 61 74 67 75
REMARK SMILES IDX 69 76 66 77 62 78 63 79 64 80 65 81 44 82 45 83 53 84 46 85
REMARK SMILES IDX 52 86 54 87 51 88 47 89 48 90 49 91 50 92
REMARK H PARENT 3 13 74 45 42 56
REMARK Flexibility Score: inf
ROOT
ATOM      1  C   UNL A   1      31.831  31.594  26.854  1.00  0.00     0.274 C 
ENDROOT
BRANCH   1   2
ATOM      2  O   UNL A   1      33.169  31.094  27.034  1.00  0.00    -0.462 OA
BRANCH   2   3
ATOM      3  C   UNL A   1      33.338  29.755  27.060  1.00  0.00     0.311 C 
ATOM      4  O   UNL A   1      34.255  29.193  27.648  1.00  0.00    -0.252 OA
BRANCH   3   5
ATOM      5  C   UNL A   1      32.298  28.987  26.273  1.00  0.00     0.123 C 
ATOM      6  N   UNL A   1      31.462  27.583  24.572  1.00  0.00    -0.321 N 
ATOM      7  C   UNL A   1      31.005  27.083  25.869  1.00  0.00     0.122 C 
ATOM      8  C   UNL A   1      32.470  28.657  24.768  1.00  0.00     0.098 C 
ATOM      9  C   UNL A   1      31.983  27.633  26.889  1.00  0.00     0.039 C 
ATOM     10  C   UNL A   1      33.887  28.213  24.408  1.00  0.00     0.032 C 
BRANCH   6  11
ATOM     11  C   UNL A   1      30.605  27.406  23.527  1.00  0.00     0.318 C 
ATOM     12  N   UNL A   1      30.836  26.602  22.484  1.00  0.00    -0.331 N 
ATOM     13  H   UNL A   1      30.261  26.851  21.725  1.00  0.00     0.165 HD
ATOM     14  O   UNL A   1      29.485  27.931  23.529  1.00  0.00    -0.249 OA
BRANCH  12  15
ATOM     15  C   UNL A   1      31.683  25.468  22.129  1.00  0.00     0.111 C 
ATOM     16  C   UNL A   1      32.768  25.784  21.097  1.00  0.00     0.036 C 
BRANCH  15  17
ATOM     17  C   UNL A   1      32.041  24.503  23.261  1.00  0.00    -0.026 A 
ATOM     18  C   UNL A   1      33.342  24.534  23.800  1.00  0.00     0.007 A 
ATOM     19  C   UNL A   1      31.153  23.561  23.803  1.00  0.00     0.007 A 
ATOM     20  C   UNL A   1      33.723  23.673  24.837  1.00  0.00     0.021 A 
ATOM     21  C   UNL A   1      31.513  22.725  24.863  1.00  0.00     0.021 A 
ATOM     22  C   UNL A   1      32.801  22.780  25.373  1.00  0.00     0.041 A 
ATOM     23  Cl  UNL A   1      33.255  21.736  26.662  1.00  0.00    -0.084 Cl
ENDBRANCH  15  17
ENDBRANCH  12  15
ENDBRANCH   6  11
ENDBRANCH   3   5
ENDBRANCH   2   3
ENDBRANCH   1   2
BRANCH   1  24
ATOM     24  C   UNL A   1      31.784  33.096  27.158  1.00  0.00     0.275 C 
BRANCH  24  25
ATOM     25  O   UNL A   1      33.106  33.633  27.351  1.00  0.00    -0.458 OA
BRANCH  25  26
ATOM     26  C   UNL A   1      33.297  34.333  28.496  1.00  0.00     0.338 C 
ATOM     27  O   UNL A   1      32.556  35.173  28.972  1.00  0.00    -0.246 OA
BRANCH  26  28
ATOM     28  C   UNL A   1      34.477  33.797  29.195  1.00  0.00     0.060 A 
ATOM     29  C   UNL A   1      35.738  34.275  28.825  1.00  0.00     0.016 A 
ATOM     30  C   UNL A   1      34.353  32.823  30.185  1.00  0.00     0.016 A 
ATOM     31  C   UNL A   1      36.883  33.807  29.459  1.00  0.00     0.010 A 
ATOM     32  C   UNL A   1      35.504  32.349  30.820  1.00  0.00     0.010 A 
ATOM     33  C   UNL A   1      36.773  32.844  30.466  1.00  0.00    -0.014 A 
BRANCH  33  34
ATOM     34  C   UNL A   1      37.989  32.323  31.128  1.00  0.00     0.031 A 
ATOM     35  C   UNL A   1      38.727  31.175  30.510  1.00  0.00     0.074 A 
ATOM     36  C   UNL A   1      38.411  32.876  32.281  1.00  0.00     0.049 A 
ATOM     37  N   UNL A   1      39.698  30.454  31.000  1.00  0.00    -0.248 NA
ATOM     38  C   UNL A   1      38.303  30.783  29.157  1.00  0.00     0.031 C 
ATOM     39  C   UNL A   1      37.807  34.042  32.926  1.00  0.00     0.029 A 
ATOM     40  N   UNL A   1      39.435  32.520  33.121  1.00  0.00    -0.354 N 
ATOM     41  C   UNL A   1      39.990  29.504  30.028  1.00  0.00     0.074 A 
ATOM     42  C   UNL A   1      39.077  29.733  28.927  1.00  0.00     0.031 C 
ATOM     43  C   UNL A   1      38.461  34.295  34.072  1.00  0.00     0.029 A 
ATOM     44  C   UNL A   1      39.483  33.272  34.272  1.00  0.00     0.049 A 
ATOM     45  H   UNL A   1      40.073  31.798  32.920  1.00  0.00     0.167 HD
ATOM     46  C   UNL A   1      40.931  28.529  30.064  1.00  0.00     0.034 A 
ATOM     47  C   UNL A   1      40.231  33.117  35.383  1.00  0.00     0.034 A 
ATOM     48  C   UNL A   1      41.824  28.327  31.180  1.00  0.00     0.049 A 
ATOM     49  C   UNL A   1      41.207  31.969  35.439  1.00  0.00     0.074 A 
ATOM     50  C   UNL A   1      42.820  27.377  31.328  1.00  0.00     0.029 A 
ATOM     51  N   UNL A   1      41.824  29.085  32.344  1.00  0.00    -0.354 N 
ATOM     52  N   UNL A   1      41.456  31.052  34.531  1.00  0.00    -0.248 NA
ATOM     53  C   UNL A   1      41.999  31.828  36.668  1.00  0.00     0.031 C 
ATOM     54  C   UNL A   1      43.371  27.517  32.606  1.00  0.00     0.029 A 
ATOM     55  C   UNL A   1      42.777  28.604  33.228  1.00  0.00     0.049 A 
ATOM     56  H   UNL A   1      41.232  29.853  32.517  1.00  0.00     0.167 HD
ATOM     57  C   UNL A   1      42.455  30.246  35.068  1.00  0.00     0.074 A 
ATOM     58  C   UNL A   1      42.766  30.788  36.376  1.00  0.00     0.031 C 
ATOM     59  C   UNL A   1      43.066  29.160  34.530  1.00  0.00     0.034 A 
BRANCH  46  60
ATOM     60  C   UNL A   1      40.986  27.573  28.897  1.00  0.00     0.023 A 
ATOM     61  C   UNL A   1      41.960  27.680  27.890  1.00  0.00     0.031 A 
ATOM     62  C   UNL A   1      40.020  26.557  28.775  1.00  0.00     0.131 A 
ATOM     63  C   UNL A   1      41.905  26.831  26.772  1.00  0.00     0.055 A 
ATOM     64  C   UNL A   1      40.019  25.667  27.701  1.00  0.00     0.041 A 
ATOM     65  F   UNL A   1      39.050  26.424  29.693  1.00  0.00    -0.206 F 
ATOM     66  C   UNL A   1      40.958  25.809  26.684  1.00  0.00     0.022 A 
BRANCH  63  67
ATOM     67  S   UNL A   1      43.005  27.170  25.370  1.00  0.00     0.124 S 
ATOM     68  O   UNL A   1      44.223  27.610  26.048  1.00  0.00    -0.237 OA
ATOM     69  O   UNL A   1      43.077  25.875  24.704  1.00  0.00    -0.237 OA
ATOM     70  O   UNL A   1      42.302  28.215  24.628  1.00  0.00    -0.744 OA
ENDBRANCH  63  67
ENDBRANCH  46  60
BRANCH  47  71
ATOM     71  C   UNL A   1      40.039  34.019  36.555  1.00  0.00     0.023 A 
ATOM     72  C   UNL A   1      40.979  35.011  36.871  1.00  0.00     0.031 A 
ATOM     73  C   UNL A   1      38.926  33.873  37.404  1.00  0.00     0.131 A 
ATOM     74  C   UNL A   1      40.813  35.790  38.028  1.00  0.00     0.055 A 
ATOM     75  C   UNL A   1      38.736  34.687  38.522  1.00  0.00     0.041 A 
ATOM     76  F   UNL A   1      37.997  32.936  37.153  1.00  0.00    -0.206 F 
ATOM     77  C   UNL A   1      39.691  35.645  38.847  1.00  0.00     0.022 A 
BRANCH  74  78
ATOM     78  S   UNL A   1      42.134  36.940  38.499  1.00  0.00     0.124 S 
ATOM     79  O   UNL A   1      42.678  37.317  37.199  1.00  0.00    -0.237 OA
ATOM     80  O   UNL A   1      41.394  37.977  39.210  1.00  0.00    -0.237 OA
ATOM     81  O   UNL A   1      43.016  36.124  39.331  1.00  0.00    -0.744 OA
ENDBRANCH  74  78
ENDBRANCH  47  71
BRANCH  59  82
ATOM     82  C   UNL A   1      44.172  28.526  35.336  1.00  0.00     0.023 A 
ATOM     83  C   UNL A   1      43.926  27.473  36.233  1.00  0.00     0.031 A 
ATOM     84  C   UNL A   1      45.495  28.981  35.190  1.00  0.00     0.131 A 
ATOM     85  C   UNL A   1      44.983  26.937  36.983  1.00  0.00     0.055 A 
ATOM     86  C   UNL A   1      46.551  28.408  35.899  1.00  0.00     0.041 A 
ATOM     87  F   UNL A   1      45.782  29.986  34.347  1.00  0.00    -0.206 F 
ATOM     88  C   UNL A   1      46.296  27.386  36.808  1.00  0.00     0.022 A 
BRANCH  85  89
ATOM     89  S   UNL A   1      44.614  25.685  38.241  1.00  0.00     0.124 S 
ATOM     90  O   UNL A   1      43.546  24.921  37.605  1.00  0.00    -0.237 OA
ATOM     91  O   UNL A   1      45.893  24.995  38.383  1.00  0.00    -0.237 OA
ATOM     92  O   UNL A   1      44.206  26.473  39.402  1.00  0.00    -0.744 OA
ENDBRANCH  85  89
ENDBRANCH  59  82
ENDBRANCH  33  34
ENDBRANCH  26  28
ENDBRANCH  25  26
ENDBRANCH  24  25
ENDBRANCH   1  24
TORSDOF 17
ENDMDL
