MODEL 1
REMARK VINA RESULT:     -11.7      0.000      0.000
REMARK SMILES Cn1ncc(C(=O)OCCOC(=O)c2ccc(-c3c4nc(c(-c5cc(S(=O)(=O)[O-])ccc5F)c5ccc([nH]5)c(-c5cc(S(=O)(=O)[O-])ccc5F)c5nc(c(-c6cc(S(=O)(=O)[O-])ccc6F)c6ccc3[nH]6)C=C5)C=C4)cc2)c1C(=O)Nc1ccccn1
REMARK SMILES IDX 10 1 9 2 8 3 6 4 7 5 5 6 1 7 2 8 3 9 77 10 4 11 78 12 79 13
REMARK SMILES IDX 80 14 81 16 82 17 86 18 83 19 85 20 84 21 11 22 12 23 13 24
REMARK SMILES IDX 14 25 15 26 76 27 16 28 75 29 17 30 18 31 19 32 69 33 20 34
REMARK SMILES IDX 74 35 68 36 70 37 21 38 73 39 67 40 66 41 22 43 54 44 34 45
REMARK SMILES IDX 53 46 35 47 38 48 52 49 71 50 36 51 37 52 51 54 72 55 39 56
REMARK SMILES IDX 23 57 24 58 32 59 25 60 31 61 33 62 30 63 26 64 27 65 28 66
REMARK SMILES IDX 29 67 55 68 56 69 64 70 57 71 63 72 65 73 62 74 58 75 59 76
REMARK SMILES IDX 60 77 61 78 40 79 41 80 49 81 42 82 48 83 50 84 47 85 43 86
REMARK SMILES IDX 44 87 45 88 46 89
REMARK H PARENT 80 15 70 42 38 53
REMARK Flexibility Score: inf
ROOT
ATOM      1  C   UNL A   1      36.390  20.952  25.370  1.00  0.00     0.275 C 
ENDROOT
BRANCH   1   2
ATOM      2  C   UNL A   1      35.425  21.926  26.045  1.00  0.00     0.275 C 
BRANCH   2   3
ATOM      3  O   UNL A   1      34.789  22.779  25.071  1.00  0.00    -0.458 OA
BRANCH   3   4
ATOM      4  C   UNL A   1      33.458  22.566  24.881  1.00  0.00     0.342 C 
ATOM      5  O   UNL A   1      32.997  21.623  24.241  1.00  0.00    -0.246 OA
BRANCH   4   6
ATOM      6  C   UNL A   1      32.585  23.485  25.588  1.00  0.00     0.111 A 
ATOM      7  C   UNL A   1      29.790  25.588  25.828  1.00  0.00     0.174 C 
ATOM      8  N   UNL A   1      31.073  24.970  26.077  1.00  0.00    -0.262 N 
ATOM      9  N   UNL A   1      31.097  24.179  27.159  1.00  0.00    -0.180 NA
ATOM     10  C   UNL A   1      32.151  24.771  25.228  1.00  0.00     0.140 A 
ATOM     11  C   UNL A   1      31.874  23.181  26.766  1.00  0.00     0.151 A 
BRANCH  10  12
ATOM     12  C   UNL A   1      32.577  25.527  24.064  1.00  0.00     0.275 C 
ATOM     13  O   UNL A   1      32.604  25.010  22.942  1.00  0.00    -0.267 OA
ATOM     14  N   UNL A   1      32.872  26.866  24.084  1.00  0.00    -0.305 N 
ATOM     15  H   UNL A   1      33.049  27.244  23.193  1.00  0.00     0.171 HD
BRANCH  14  16
ATOM     16  C   UNL A   1      32.972  27.789  25.109  1.00  0.00     0.132 A 
ATOM     17  C   UNL A   1      34.043  27.851  25.986  1.00  0.00     0.047 A 
ATOM     18  N   UNL A   1      31.875  28.567  25.225  1.00  0.00    -0.239 NA
ATOM     19  C   UNL A   1      33.933  28.691  27.095  1.00  0.00     0.005 A 
ATOM     20  C   UNL A   1      31.770  29.329  26.333  1.00  0.00     0.113 A 
ATOM     21  C   UNL A   1      32.759  29.413  27.296  1.00  0.00     0.020 A 
ENDBRANCH  14  16
ENDBRANCH  10  12
ENDBRANCH   4   6
ENDBRANCH   3   4
ENDBRANCH   2   3
ENDBRANCH   1   2
BRANCH   1  22
ATOM     22  O   UNL A   1      37.623  21.613  25.030  1.00  0.00    -0.458 OA
BRANCH  22  23
ATOM     23  C   UNL A   1      38.697  21.216  25.752  1.00  0.00     0.338 C 
ATOM     24  O   UNL A   1      39.200  20.109  25.779  1.00  0.00    -0.246 OA
BRANCH  23  25
ATOM     25  C   UNL A   1      39.278  22.365  26.463  1.00  0.00     0.060 A 
ATOM     26  C   UNL A   1      38.786  23.627  26.162  1.00  0.00     0.016 A 
ATOM     27  C   UNL A   1      40.413  22.234  27.255  1.00  0.00     0.016 A 
ATOM     28  C   UNL A   1      39.508  24.766  26.507  1.00  0.00     0.010 A 
ATOM     29  C   UNL A   1      41.053  23.387  27.733  1.00  0.00     0.010 A 
ATOM     30  C   UNL A   1      40.639  24.672  27.325  1.00  0.00    -0.014 A 
BRANCH  30  31
ATOM     31  C   UNL A   1      41.388  25.904  27.725  1.00  0.00     0.031 A 
ATOM     32  C   UNL A   1      40.726  26.953  28.587  1.00  0.00     0.074 A 
ATOM     33  C   UNL A   1      42.668  26.087  27.335  1.00  0.00     0.049 A 
ATOM     34  N   UNL A   1      41.122  28.169  28.870  1.00  0.00    -0.248 NA
ATOM     35  C   UNL A   1      39.436  26.591  29.195  1.00  0.00     0.031 C 
ATOM     36  C   UNL A   1      43.464  25.135  26.555  1.00  0.00     0.029 A 
ATOM     37  N   UNL A   1      43.536  27.134  27.544  1.00  0.00    -0.354 N 
ATOM     38  C   UNL A   1      40.108  28.735  29.639  1.00  0.00     0.074 A 
ATOM     39  C   UNL A   1      39.070  27.734  29.758  1.00  0.00     0.031 C 
ATOM     40  C   UNL A   1      44.704  25.617  26.394  1.00  0.00     0.029 A 
ATOM     41  C   UNL A   1      44.763  26.963  26.944  1.00  0.00     0.049 A 
ATOM     42  H   UNL A   1      43.300  27.931  28.073  1.00  0.00     0.167 HD
ATOM     43  C   UNL A   1      40.053  29.974  30.192  1.00  0.00     0.034 A 
ATOM     44  C   UNL A   1      45.802  27.809  26.789  1.00  0.00     0.034 A 
ATOM     45  C   UNL A   1      41.120  30.944  30.098  1.00  0.00     0.049 A 
ATOM     46  C   UNL A   1      45.685  29.207  27.340  1.00  0.00     0.074 A 
ATOM     47  C   UNL A   1      41.174  32.219  30.634  1.00  0.00     0.029 A 
ATOM     48  N   UNL A   1      42.323  30.748  29.430  1.00  0.00    -0.354 N 
ATOM     49  N   UNL A   1      44.694  29.750  28.010  1.00  0.00    -0.248 NA
ATOM     50  C   UNL A   1      46.819  30.108  27.102  1.00  0.00     0.031 C 
ATOM     51  C   UNL A   1      42.370  32.819  30.227  1.00  0.00     0.029 A 
ATOM     52  C   UNL A   1      43.106  31.889  29.510  1.00  0.00     0.049 A 
ATOM     53  H   UNL A   1      42.581  29.918  28.966  1.00  0.00     0.167 HD
ATOM     54  C   UNL A   1      45.099  31.051  28.293  1.00  0.00     0.074 A 
ATOM     55  C   UNL A   1      46.430  31.201  27.742  1.00  0.00     0.031 C 
ATOM     56  C   UNL A   1      44.428  32.033  28.947  1.00  0.00     0.034 A 
BRANCH  43  57
ATOM     57  C   UNL A   1      38.774  30.374  30.894  1.00  0.00     0.023 A 
ATOM     58  C   UNL A   1      37.713  31.007  30.222  1.00  0.00     0.031 A 
ATOM     59  C   UNL A   1      38.623  30.127  32.271  1.00  0.00     0.131 A 
ATOM     60  C   UNL A   1      36.585  31.434  30.941  1.00  0.00     0.055 A 
ATOM     61  C   UNL A   1      37.463  30.479  32.964  1.00  0.00     0.041 A 
ATOM     62  F   UNL A   1      39.608  29.546  32.974  1.00  0.00    -0.206 F 
ATOM     63  C   UNL A   1      36.440  31.151  32.301  1.00  0.00     0.022 A 
BRANCH  60  64
ATOM     64  S   UNL A   1      35.371  32.492  30.106  1.00  0.00     0.124 S 
ATOM     65  O   UNL A   1      36.156  33.698  29.850  1.00  0.00    -0.237 OA
ATOM     66  O   UNL A   1      35.015  31.702  28.933  1.00  0.00    -0.237 OA
ATOM     67  O   UNL A   1      34.310  32.649  31.098  1.00  0.00    -0.744 OA
ENDBRANCH  60  64
ENDBRANCH  43  57
BRANCH  44  68
ATOM     68  C   UNL A   1      47.009  27.396  26.011  1.00  0.00     0.023 A 
ATOM     69  C   UNL A   1      47.175  27.778  24.671  1.00  0.00     0.031 A 
ATOM     70  C   UNL A   1      47.991  26.566  26.583  1.00  0.00     0.131 A 
ATOM     71  C   UNL A   1      48.271  27.298  23.937  1.00  0.00     0.055 A 
ATOM     72  C   UNL A   1      49.116  26.148  25.870  1.00  0.00     0.041 A 
ATOM     73  F   UNL A   1      47.880  26.158  27.858  1.00  0.00    -0.206 F 
ATOM     74  C   UNL A   1      49.252  26.502  24.533  1.00  0.00     0.022 A 
BRANCH  71  75
ATOM     75  S   UNL A   1      48.342  27.641  22.158  1.00  0.00     0.124 S 
ATOM     76  O   UNL A   1      48.545  26.306  21.607  1.00  0.00    -0.237 OA
ATOM     77  O   UNL A   1      47.036  28.245  21.913  1.00  0.00    -0.237 OA
ATOM     78  O   UNL A   1      49.481  28.549  22.031  1.00  0.00    -0.744 OA
ENDBRANCH  71  75
ENDBRANCH  44  68
BRANCH  56  79
ATOM     79  C   UNL A   1      45.155  33.341  29.143  1.00  0.00     0.023 A 
ATOM     80  C   UNL A   1      45.126  34.358  28.173  1.00  0.00     0.031 A 
ATOM     81  C   UNL A   1      45.907  33.564  30.311  1.00  0.00     0.131 A 
ATOM     82  C   UNL A   1      45.882  35.525  28.359  1.00  0.00     0.055 A 
ATOM     83  C   UNL A   1      46.602  34.755  30.521  1.00  0.00     0.041 A 
ATOM     84  F   UNL A   1      45.976  32.626  31.269  1.00  0.00    -0.206 F 
ATOM     85  C   UNL A   1      46.604  35.738  29.536  1.00  0.00     0.022 A 
BRANCH  82  86
ATOM     86  S   UNL A   1      45.994  36.718  26.998  1.00  0.00     0.124 S 
ATOM     87  O   UNL A   1      44.651  37.290  26.985  1.00  0.00    -0.237 OA
ATOM     88  O   UNL A   1      47.061  37.606  27.447  1.00  0.00    -0.237 OA
ATOM     89  O   UNL A   1      46.325  35.889  25.840  1.00  0.00    -0.744 OA
ENDBRANCH  82  86
ENDBRANCH  56  79
ENDBRANCH  30  31
ENDBRANCH  23  25
ENDBRANCH  22  23
ENDBRANCH   1  22
TORSDOF 16
ENDMDL
MODEL 2
REMARK VINA RESULT:     -11.6      2.268      3.630
REMARK SMILES Cn1ncc(C(=O)OCCOC(=O)c2ccc(-c3c4nc(c(-c5cc(S(=O)(=O)[O-])ccc5F)c5ccc([nH]5)c(-c5cc(S(=O)(=O)[O-])ccc5F)c5nc(c(-c6cc(S(=O)(=O)[O-])ccc6F)c6ccc3[nH]6)C=C5)C=C4)cc2)c1C(=O)Nc1ccccn1
REMARK SMILES IDX 10 1 9 2 8 3 6 4 7 5 5 6 1 7 2 8 3 9 77 10 4 11 78 12 79 13
REMARK SMILES IDX 80 14 81 16 82 17 86 18 83 19 85 20 84 21 11 22 12 23 13 24
REMARK SMILES IDX 14 25 15 26 76 27 16 28 75 29 17 30 18 31 19 32 69 33 20 34
REMARK SMILES IDX 74 35 68 36 70 37 21 38 73 39 67 40 66 41 22 43 54 44 34 45
REMARK SMILES IDX 53 46 35 47 38 48 52 49 71 50 36 51 37 52 51 54 72 55 39 56
REMARK SMILES IDX 23 57 24 58 32 59 25 60 31 61 33 62 30 63 26 64 27 65 28 66
REMARK SMILES IDX 29 67 55 68 56 69 64 70 57 71 63 72 65 73 62 74 58 75 59 76
REMARK SMILES IDX 60 77 61 78 40 79 41 80 49 81 42 82 48 83 50 84 47 85 43 86
REMARK SMILES IDX 44 87 45 88 46 89
REMARK H PARENT 80 15 70 42 38 53
REMARK Flexibility Score: inf
ROOT
ATOM      1  C   UNL A   1      37.518  19.956  25.128  1.00  0.00     0.275 C 
ENDROOT
BRANCH   1   2
ATOM      2  C   UNL A   1      36.070  20.407  24.932  1.00  0.00     0.275 C 
BRANCH   2   3
ATOM      3  O   UNL A   1      35.653  21.278  26.003  1.00  0.00    -0.458 OA
BRANCH   3   4
ATOM      4  C   UNL A   1      35.408  22.570  25.651  1.00  0.00     0.342 C 
ATOM      5  O   UNL A   1      35.942  23.541  26.182  1.00  0.00    -0.246 OA
BRANCH   4   6
ATOM      6  C   UNL A   1      34.533  22.734  24.503  1.00  0.00     0.111 A 
ATOM      7  C   UNL A   1      31.639  23.923  22.921  1.00  0.00     0.174 C 
ATOM      8  N   UNL A   1      32.826  23.154  23.223  1.00  0.00    -0.262 N 
ATOM      9  N   UNL A   1      33.879  23.447  22.447  1.00  0.00    -0.180 NA
ATOM     10  C   UNL A   1      33.166  22.445  24.366  1.00  0.00     0.140 A 
ATOM     11  C   UNL A   1      34.891  23.372  23.298  1.00  0.00     0.151 A 
BRANCH  10  12
ATOM     12  C   UNL A   1      32.320  21.803  25.355  1.00  0.00     0.275 C 
ATOM     13  O   UNL A   1      31.698  22.468  26.191  1.00  0.00    -0.267 OA
ATOM     14  N   UNL A   1      32.056  20.458  25.383  1.00  0.00    -0.305 N 
ATOM     15  H   UNL A   1      31.387  20.201  26.057  1.00  0.00     0.171 HD
BRANCH  14  16
ATOM     16  C   UNL A   1      32.545  19.391  24.652  1.00  0.00     0.132 A 
ATOM     17  C   UNL A   1      32.382  19.259  23.281  1.00  0.00     0.047 A 
ATOM     18  N   UNL A   1      33.119  18.444  25.422  1.00  0.00    -0.239 NA
ATOM     19  C   UNL A   1      32.742  18.045  22.694  1.00  0.00     0.005 A 
ATOM     20  C   UNL A   1      33.408  17.262  24.840  1.00  0.00     0.113 A 
ATOM     21  C   UNL A   1      33.225  17.012  23.492  1.00  0.00     0.020 A 
ENDBRANCH  14  16
ENDBRANCH  10  12
ENDBRANCH   4   6
ENDBRANCH   3   4
ENDBRANCH   2   3
ENDBRANCH   1   2
BRANCH   1  22
ATOM     22  O   UNL A   1      38.379  21.091  25.333  1.00  0.00    -0.458 OA
BRANCH  22  23
ATOM     23  C   UNL A   1      39.459  20.850  26.114  1.00  0.00     0.338 C 
ATOM     24  O   UNL A   1      40.069  19.803  26.226  1.00  0.00    -0.246 OA
BRANCH  23  25
ATOM     25  C   UNL A   1      39.894  22.092  26.770  1.00  0.00     0.060 A 
ATOM     26  C   UNL A   1      39.421  23.293  26.259  1.00  0.00     0.016 A 
ATOM     27  C   UNL A   1      40.898  22.095  27.731  1.00  0.00     0.016 A 
ATOM     28  C   UNL A   1      40.051  24.491  26.578  1.00  0.00     0.010 A 
ATOM     29  C   UNL A   1      41.426  23.320  28.167  1.00  0.00     0.010 A 
ATOM     30  C   UNL A   1      41.046  24.535  27.560  1.00  0.00    -0.014 A 
BRANCH  30  31
ATOM     31  C   UNL A   1      41.692  25.834  27.926  1.00  0.00     0.031 A 
ATOM     32  C   UNL A   1      40.926  26.872  28.712  1.00  0.00     0.074 A 
ATOM     33  C   UNL A   1      42.971  26.088  27.575  1.00  0.00     0.049 A 
ATOM     34  N   UNL A   1      41.227  28.124  28.949  1.00  0.00    -0.248 NA
ATOM     35  C   UNL A   1      39.641  26.448  29.290  1.00  0.00     0.031 C 
ATOM     36  C   UNL A   1      43.861  25.159  26.872  1.00  0.00     0.029 A 
ATOM     37  N   UNL A   1      43.756  27.202  27.764  1.00  0.00    -0.354 N 
ATOM     38  C   UNL A   1      40.147  28.652  29.653  1.00  0.00     0.074 A 
ATOM     39  C   UNL A   1      39.176  27.587  29.783  1.00  0.00     0.031 C 
ATOM     40  C   UNL A   1      45.070  25.720  26.732  1.00  0.00     0.029 A 
ATOM     41  C   UNL A   1      45.015  27.091  27.217  1.00  0.00     0.049 A 
ATOM     42  H   UNL A   1      43.445  28.004  28.244  1.00  0.00     0.167 HD
ATOM     43  C   UNL A   1      39.985  29.908  30.143  1.00  0.00     0.034 A 
ATOM     44  C   UNL A   1      45.998  28.000  27.059  1.00  0.00     0.034 A 
ATOM     45  C   UNL A   1      40.986  30.946  30.041  1.00  0.00     0.049 A 
ATOM     46  C   UNL A   1      45.764  29.409  27.537  1.00  0.00     0.074 A 
ATOM     47  C   UNL A   1      40.931  32.245  30.515  1.00  0.00     0.029 A 
ATOM     48  N   UNL A   1      42.224  30.804  29.426  1.00  0.00    -0.354 N 
ATOM     49  N   UNL A   1      44.713  29.911  28.143  1.00  0.00    -0.248 NA
ATOM     50  C   UNL A   1      46.842  30.376  27.297  1.00  0.00     0.031 C 
ATOM     51  C   UNL A   1      42.098  32.908  30.123  1.00  0.00     0.029 A 
ATOM     52  C   UNL A   1      42.924  32.000  29.479  1.00  0.00     0.049 A 
ATOM     53  H   UNL A   1      42.557  29.974  29.013  1.00  0.00     0.167 HD
ATOM     54  C   UNL A   1      45.015  31.249  28.376  1.00  0.00     0.074 A 
ATOM     55  C   UNL A   1      46.354  31.467  27.868  1.00  0.00     0.031 C 
ATOM     56  C   UNL A   1      44.254  32.211  28.958  1.00  0.00     0.034 A 
BRANCH  43  57
ATOM     57  C   UNL A   1      38.655  30.249  30.777  1.00  0.00     0.023 A 
ATOM     58  C   UNL A   1      37.629  30.903  30.072  1.00  0.00     0.031 A 
ATOM     59  C   UNL A   1      38.417  29.923  32.126  1.00  0.00     0.131 A 
ATOM     60  C   UNL A   1      36.448  31.272  30.735  1.00  0.00     0.055 A 
ATOM     61  C   UNL A   1      37.206  30.218  32.757  1.00  0.00     0.041 A 
ATOM     62  F   UNL A   1      39.363  29.317  32.861  1.00  0.00    -0.206 F 
ATOM     63  C   UNL A   1      36.218  30.911  32.065  1.00  0.00     0.022 A 
BRANCH  60  64
ATOM     64  S   UNL A   1      35.273  32.358  29.880  1.00  0.00     0.124 S 
ATOM     65  O   UNL A   1      36.154  33.412  29.380  1.00  0.00    -0.237 OA
ATOM     66  O   UNL A   1      34.700  31.474  28.872  1.00  0.00    -0.237 OA
ATOM     67  O   UNL A   1      34.356  32.775  30.938  1.00  0.00    -0.744 OA
ENDBRANCH  60  64
ENDBRANCH  43  57
BRANCH  44  68
ATOM     68  C   UNL A   1      47.260  27.637  26.346  1.00  0.00     0.023 A 
ATOM     69  C   UNL A   1      47.408  27.865  24.970  1.00  0.00     0.031 A 
ATOM     70  C   UNL A   1      48.321  27.006  27.024  1.00  0.00     0.131 A 
ATOM     71  C   UNL A   1      48.567  27.429  24.308  1.00  0.00     0.055 A 
ATOM     72  C   UNL A   1      49.501  26.637  26.376  1.00  0.00     0.041 A 
ATOM     73  F   UNL A   1      48.232  26.752  28.340  1.00  0.00    -0.206 F 
ATOM     74  C   UNL A   1      49.622  26.835  25.005  1.00  0.00     0.022 A 
BRANCH  71  75
ATOM     75  S   UNL A   1      48.634  27.552  22.500  1.00  0.00     0.124 S 
ATOM     76  O   UNL A   1      47.385  28.245  22.204  1.00  0.00    -0.237 OA
ATOM     77  O   UNL A   1      49.858  28.318  22.293  1.00  0.00    -0.237 OA
ATOM     78  O   UNL A   1      48.692  26.157  22.066  1.00  0.00    -0.744 OA
ENDBRANCH  71  75
ENDBRANCH  44  68
BRANCH  56  79
ATOM     79  C   UNL A   1      44.881  33.575  29.116  1.00  0.00     0.023 A 
ATOM     80  C   UNL A   1      45.626  33.921  30.257  1.00  0.00     0.031 A 
ATOM     81  C   UNL A   1      44.710  34.551  28.118  1.00  0.00     0.131 A 
ATOM     82  C   UNL A   1      46.121  35.226  30.401  1.00  0.00     0.055 A 
ATOM     83  C   UNL A   1      45.263  35.827  28.234  1.00  0.00     0.041 A 
ATOM     84  F   UNL A   1      44.003  34.279  27.010  1.00  0.00    -0.206 F 
ATOM     85  C   UNL A   1      45.961  36.174  29.387  1.00  0.00     0.022 A 
BRANCH  82  86
ATOM     86  S   UNL A   1      46.889  35.699  31.973  1.00  0.00     0.124 S 
ATOM     87  O   UNL A   1      48.163  36.258  31.532  1.00  0.00    -0.237 OA
ATOM     88  O   UNL A   1      45.929  36.653  32.517  1.00  0.00    -0.237 OA
ATOM     89  O   UNL A   1      46.987  34.436  32.702  1.00  0.00    -0.744 OA
ENDBRANCH  82  86
ENDBRANCH  56  79
ENDBRANCH  30  31
ENDBRANCH  23  25
ENDBRANCH  22  23
ENDBRANCH   1  22
TORSDOF 16
ENDMDL
MODEL 3
REMARK VINA RESULT:     -11.6      1.406      1.694
REMARK SMILES Cn1ncc(C(=O)OCCOC(=O)c2ccc(-c3c4nc(c(-c5cc(S(=O)(=O)[O-])ccc5F)c5ccc([nH]5)c(-c5cc(S(=O)(=O)[O-])ccc5F)c5nc(c(-c6cc(S(=O)(=O)[O-])ccc6F)c6ccc3[nH]6)C=C5)C=C4)cc2)c1C(=O)Nc1ccccn1
REMARK SMILES IDX 10 1 9 2 8 3 6 4 7 5 5 6 1 7 2 8 3 9 77 10 4 11 78 12 79 13
REMARK SMILES IDX 80 14 81 16 82 17 86 18 83 19 85 20 84 21 11 22 12 23 13 24
REMARK SMILES IDX 14 25 15 26 76 27 16 28 75 29 17 30 18 31 19 32 69 33 20 34
REMARK SMILES IDX 74 35 68 36 70 37 21 38 73 39 67 40 66 41 22 43 54 44 34 45
REMARK SMILES IDX 53 46 35 47 38 48 52 49 71 50 36 51 37 52 51 54 72 55 39 56
REMARK SMILES IDX 23 57 24 58 32 59 25 60 31 61 33 62 30 63 26 64 27 65 28 66
REMARK SMILES IDX 29 67 55 68 56 69 64 70 57 71 63 72 65 73 62 74 58 75 59 76
REMARK SMILES IDX 60 77 61 78 40 79 41 80 49 81 42 82 48 83 50 84 47 85 43 86
REMARK SMILES IDX 44 87 45 88 46 89
REMARK H PARENT 80 15 70 42 38 53
REMARK Flexibility Score: inf
ROOT
ATOM      1  C   UNL A   1      36.360  20.722  25.041  1.00  0.00     0.275 C 
ENDROOT
BRANCH   1   2
ATOM      2  C   UNL A   1      35.394  21.515  25.921  1.00  0.00     0.275 C 
BRANCH   2   3
ATOM      3  O   UNL A   1      34.922  22.692  25.237  1.00  0.00    -0.458 OA
BRANCH   3   4
ATOM      4  C   UNL A   1      33.621  22.661  24.839  1.00  0.00     0.342 C 
ATOM      5  O   UNL A   1      33.177  21.884  23.997  1.00  0.00    -0.246 OA
BRANCH   4   6
ATOM      6  C   UNL A   1      32.739  23.556  25.567  1.00  0.00     0.111 A 
ATOM      7  C   UNL A   1      29.890  25.576  25.873  1.00  0.00     0.174 C 
ATOM      8  N   UNL A   1      31.196  24.997  26.091  1.00  0.00    -0.262 N 
ATOM      9  N   UNL A   1      31.270  24.208  27.173  1.00  0.00    -0.180 NA
ATOM     10  C   UNL A   1      32.258  24.828  25.216  1.00  0.00     0.140 A 
ATOM     11  C   UNL A   1      32.066  23.233  26.762  1.00  0.00     0.151 A 
BRANCH  10  12
ATOM     12  C   UNL A   1      32.633  25.594  24.041  1.00  0.00     0.275 C 
ATOM     13  O   UNL A   1      32.663  25.072  22.921  1.00  0.00    -0.267 OA
ATOM     14  N   UNL A   1      32.871  26.944  24.049  1.00  0.00    -0.305 N 
ATOM     15  H   UNL A   1      33.018  27.324  23.153  1.00  0.00     0.171 HD
BRANCH  14  16
ATOM     16  C   UNL A   1      32.949  27.877  25.066  1.00  0.00     0.132 A 
ATOM     17  C   UNL A   1      34.068  28.053  25.865  1.00  0.00     0.047 A 
ATOM     18  N   UNL A   1      31.789  28.538  25.264  1.00  0.00    -0.239 NA
ATOM     19  C   UNL A   1      33.951  28.882  26.982  1.00  0.00     0.005 A 
ATOM     20  C   UNL A   1      31.686  29.289  26.379  1.00  0.00     0.113 A 
ATOM     21  C   UNL A   1      32.727  29.479  27.269  1.00  0.00     0.020 A 
ENDBRANCH  14  16
ENDBRANCH  10  12
ENDBRANCH   4   6
ENDBRANCH   3   4
ENDBRANCH   2   3
ENDBRANCH   1   2
BRANCH   1  22
ATOM     22  O   UNL A   1      37.591  21.446  24.860  1.00  0.00    -0.458 OA
BRANCH  22  23
ATOM     23  C   UNL A   1      38.613  21.034  25.648  1.00  0.00     0.338 C 
ATOM     24  O   UNL A   1      39.082  19.914  25.722  1.00  0.00    -0.246 OA
BRANCH  23  25
ATOM     25  C   UNL A   1      39.186  22.180  26.370  1.00  0.00     0.060 A 
ATOM     26  C   UNL A   1      38.731  23.448  26.035  1.00  0.00     0.016 A 
ATOM     27  C   UNL A   1      40.284  22.037  27.210  1.00  0.00     0.016 A 
ATOM     28  C   UNL A   1      39.460  24.576  26.398  1.00  0.00     0.010 A 
ATOM     29  C   UNL A   1      40.925  23.184  27.702  1.00  0.00     0.010 A 
ATOM     30  C   UNL A   1      40.554  24.471  27.264  1.00  0.00    -0.014 A 
BRANCH  30  31
ATOM     31  C   UNL A   1      41.308  25.694  27.681  1.00  0.00     0.031 A 
ATOM     32  C   UNL A   1      40.639  26.752  28.526  1.00  0.00     0.074 A 
ATOM     33  C   UNL A   1      42.601  25.859  27.324  1.00  0.00     0.049 A 
ATOM     34  N   UNL A   1      41.044  27.963  28.817  1.00  0.00    -0.248 NA
ATOM     35  C   UNL A   1      39.329  26.408  29.102  1.00  0.00     0.031 C 
ATOM     36  C   UNL A   1      43.403  24.896  26.565  1.00  0.00     0.029 A 
ATOM     37  N   UNL A   1      43.476  26.895  27.553  1.00  0.00    -0.354 N 
ATOM     38  C   UNL A   1      40.019  28.543  29.561  1.00  0.00     0.074 A 
ATOM     39  C   UNL A   1      38.965  27.556  29.654  1.00  0.00     0.031 C 
ATOM     40  C   UNL A   1      44.653  25.361  26.435  1.00  0.00     0.029 A 
ATOM     41  C   UNL A   1      44.716  26.707  26.984  1.00  0.00     0.049 A 
ATOM     42  H   UNL A   1      43.238  27.695  28.076  1.00  0.00     0.167 HD
ATOM     43  C   UNL A   1      39.967  29.783  30.111  1.00  0.00     0.034 A 
ATOM     44  C   UNL A   1      45.770  27.539  26.855  1.00  0.00     0.034 A 
ATOM     45  C   UNL A   1      41.049  30.739  30.044  1.00  0.00     0.049 A 
ATOM     46  C   UNL A   1      45.657  28.938  27.402  1.00  0.00     0.074 A 
ATOM     47  C   UNL A   1      41.106  32.014  30.580  1.00  0.00     0.029 A 
ATOM     48  N   UNL A   1      42.265  30.526  29.406  1.00  0.00    -0.354 N 
ATOM     49  N   UNL A   1      44.657  29.495  28.046  1.00  0.00    -0.248 NA
ATOM     50  C   UNL A   1      46.809  29.824  27.192  1.00  0.00     0.031 C 
ATOM     51  C   UNL A   1      42.320  32.597  30.202  1.00  0.00     0.029 A 
ATOM     52  C   UNL A   1      43.061  31.657  29.505  1.00  0.00     0.049 A 
ATOM     53  H   UNL A   1      42.523  29.692  28.949  1.00  0.00     0.167 HD
ATOM     54  C   UNL A   1      45.072  30.791  28.338  1.00  0.00     0.074 A 
ATOM     55  C   UNL A   1      46.419  30.922  27.821  1.00  0.00     0.031 C 
ATOM     56  C   UNL A   1      44.399  31.782  28.975  1.00  0.00     0.034 A 
BRANCH  43  57
ATOM     57  C   UNL A   1      38.676  30.201  30.780  1.00  0.00     0.023 A 
ATOM     58  C   UNL A   1      37.666  30.902  30.098  1.00  0.00     0.031 A 
ATOM     59  C   UNL A   1      38.461  29.901  32.139  1.00  0.00     0.131 A 
ATOM     60  C   UNL A   1      36.527  31.340  30.791  1.00  0.00     0.055 A 
ATOM     61  C   UNL A   1      37.287  30.266  32.801  1.00  0.00     0.041 A 
ATOM     62  F   UNL A   1      39.394  29.252  32.852  1.00  0.00    -0.206 F 
ATOM     63  C   UNL A   1      36.317  31.005  32.130  1.00  0.00     0.022 A 
BRANCH  60  64
ATOM     64  S   UNL A   1      35.386  32.480  29.958  1.00  0.00     0.124 S 
ATOM     65  O   UNL A   1      35.002  31.705  28.780  1.00  0.00    -0.237 OA
ATOM     66  O   UNL A   1      34.345  32.676  30.960  1.00  0.00    -0.237 OA
ATOM     67  O   UNL A   1      36.213  33.652  29.679  1.00  0.00    -0.744 OA
ENDBRANCH  60  64
ENDBRANCH  43  57
BRANCH  44  68
ATOM     68  C   UNL A   1      46.990  27.108  26.108  1.00  0.00     0.023 A 
ATOM     69  C   UNL A   1      48.049  26.458  26.759  1.00  0.00     0.031 A 
ATOM     70  C   UNL A   1      47.136  27.387  24.735  1.00  0.00     0.131 A 
ATOM     71  C   UNL A   1      49.221  26.149  26.051  1.00  0.00     0.055 A 
ATOM     72  C   UNL A   1      48.275  27.015  24.020  1.00  0.00     0.041 A 
ATOM     73  F   UNL A   1      46.159  28.017  24.061  1.00  0.00    -0.206 F 
ATOM     74  C   UNL A   1      49.333  26.405  24.683  1.00  0.00     0.022 A 
BRANCH  71  75
ATOM     75  S   UNL A   1      50.645  25.502  26.970  1.00  0.00     0.124 S 
ATOM     76  O   UNL A   1      50.059  24.357  27.657  1.00  0.00    -0.237 OA
ATOM     77  O   UNL A   1      51.585  25.195  25.896  1.00  0.00    -0.237 OA
ATOM     78  O   UNL A   1      51.029  26.618  27.832  1.00  0.00    -0.744 OA
ENDBRANCH  71  75
ENDBRANCH  44  68
BRANCH  56  79
ATOM     79  C   UNL A   1      45.138  33.081  29.189  1.00  0.00     0.023 A 
ATOM     80  C   UNL A   1      45.072  34.133  28.258  1.00  0.00     0.031 A 
ATOM     81  C   UNL A   1      45.938  33.259  30.331  1.00  0.00     0.131 A 
ATOM     82  C   UNL A   1      45.839  35.291  28.455  1.00  0.00     0.055 A 
ATOM     83  C   UNL A   1      46.647  34.440  30.556  1.00  0.00     0.041 A 
ATOM     84  F   UNL A   1      46.044  32.287  31.250  1.00  0.00    -0.206 F 
ATOM     85  C   UNL A   1      46.611  35.459  29.608  1.00  0.00     0.022 A 
BRANCH  82  86
ATOM     86  S   UNL A   1      45.898  36.533  27.135  1.00  0.00     0.124 S 
ATOM     87  O   UNL A   1      46.243  35.723  25.971  1.00  0.00    -0.237 OA
ATOM     88  O   UNL A   1      44.544  37.075  27.155  1.00  0.00    -0.237 OA
ATOM     89  O   UNL A   1      46.941  37.457  27.579  1.00  0.00    -0.744 OA
ENDBRANCH  82  86
ENDBRANCH  56  79
ENDBRANCH  30  31
ENDBRANCH  23  25
ENDBRANCH  22  23
ENDBRANCH   1  22
TORSDOF 16
ENDMDL
