MODEL 1
REMARK VINA RESULT:     -11.4      0.000      0.000
REMARK SMILES O=CN[C@@H](CCS[C@@H]1CCO[C@]2(CCOC2)C1)C(=O)OCCOC(=O)c1ccc(-c2c3nc(c(-c4cc(S(=O)(=O)[O-])ccc4F)c4ccc([nH]4)c(-c4cc(S(=O)(=O)[O-])ccc4F)c4nc(c(-c5cc(S(=O)(=O)[O-])ccc5F)c5ccc2[nH]5)C=C4)C=C3)cc1
REMARK SMILES IDX 21 1 20 2 18 3 19 4 4 5 3 6 1 7 2 8 5 10 6 11 7 12 8 13 9 14
REMARK SMILES IDX 17 15 10 16 12 17 11 18 13 19 16 20 14 21 15 22 22 23 23 24
REMARK SMILES IDX 24 25 25 26 26 27 27 28 88 29 28 30 87 31 29 32 30 33 31 34
REMARK SMILES IDX 81 35 32 36 86 37 80 38 82 39 33 40 85 41 79 42 78 43 34 45
REMARK SMILES IDX 66 46 46 47 65 48 47 49 50 50 64 51 83 52 48 53 49 54 63 56
REMARK SMILES IDX 84 57 51 58 35 59 36 60 44 61 37 62 43 63 45 64 42 65 38 66
REMARK SMILES IDX 39 67 40 68 41 69 67 70 68 71 76 72 69 73 75 74 77 75 74 76
REMARK SMILES IDX 70 77 71 78 72 79 73 80 52 81 53 82 61 83 54 84 60 85 62 86
REMARK SMILES IDX 59 87 55 88 56 89 57 90 58 91
REMARK H PARENT 3 9 82 44 50 55
REMARK Flexibility Score: inf
ROOT
ATOM      1  C   UNL A   1      35.864  20.712  24.950  1.00  0.00     0.274 C 
ENDROOT
BRANCH   1   2
ATOM      2  O   UNL A   1      35.601  21.434  26.169  1.00  0.00    -0.461 OA
BRANCH   2   3
ATOM      3  C   UNL A   1      34.350  21.384  26.679  1.00  0.00     0.328 C 
ATOM      4  O   UNL A   1      34.050  21.737  27.812  1.00  0.00    -0.250 OA
BRANCH   3   5
ATOM      5  C   UNL A   1      33.360  20.685  25.722  1.00  0.00     0.192 C 
BRANCH   5   6
ATOM      6  N   UNL A   1      32.859  19.369  26.112  1.00  0.00    -0.345 N 
ATOM      7  O   UNL A   1      32.086  17.293  25.637  1.00  0.00    -0.279 OA
ATOM      8  C   UNL A   1      32.624  18.326  25.267  1.00  0.00     0.337 C 
ATOM      9  H   UNL A   1      32.677  19.223  27.068  1.00  0.00     0.164 HD
ENDBRANCH   5   6
BRANCH   5  10
ATOM     10  C   UNL A   1      32.207  21.651  25.402  1.00  0.00     0.048 C 
BRANCH  10  11
ATOM     11  C   UNL A   1      32.577  23.103  25.064  1.00  0.00     0.072 C 
BRANCH  11  12
ATOM     12  S   UNL A   1      31.690  24.395  26.004  1.00  0.00    -0.158 SA
BRANCH  12  13
ATOM     13  C   UNL A   1      32.864  25.822  25.993  1.00  0.00     0.052 C 
ATOM     14  C   UNL A   1      32.278  27.157  26.440  1.00  0.00     0.043 C 
ATOM     15  C   UNL A   1      33.532  25.974  24.618  1.00  0.00     0.052 C 
ATOM     16  C   UNL A   1      31.433  27.784  25.349  1.00  0.00     0.162 C 
ATOM     17  C   UNL A   1      32.722  26.779  23.587  1.00  0.00     0.095 C 
ATOM     18  O   UNL A   1      32.200  27.978  24.165  1.00  0.00    -0.372 OA
ATOM     19  C   UNL A   1      31.654  25.967  22.862  1.00  0.00     0.066 C 
ATOM     20  C   UNL A   1      33.627  27.175  22.414  1.00  0.00     0.195 C 
ATOM     21  C   UNL A   1      32.307  25.502  21.571  1.00  0.00     0.163 C 
ATOM     22  O   UNL A   1      33.619  26.066  21.510  1.00  0.00    -0.378 OA
ENDBRANCH  12  13
ENDBRANCH  11  12
ENDBRANCH  10  11
ENDBRANCH   5  10
ENDBRANCH   3   5
ENDBRANCH   2   3
ENDBRANCH   1   2
BRANCH   1  23
ATOM     23  C   UNL A   1      37.373  20.476  24.840  1.00  0.00     0.275 C 
BRANCH  23  24
ATOM     24  O   UNL A   1      38.077  21.588  25.411  1.00  0.00    -0.458 OA
BRANCH  24  25
ATOM     25  C   UNL A   1      39.154  21.259  26.180  1.00  0.00     0.338 C 
ATOM     26  O   UNL A   1      39.723  20.196  26.240  1.00  0.00    -0.246 OA
BRANCH  25  27
ATOM     27  C   UNL A   1      39.682  22.546  26.671  1.00  0.00     0.060 A 
ATOM     28  C   UNL A   1      40.764  22.507  27.555  1.00  0.00     0.016 A 
ATOM     29  C   UNL A   1      39.216  23.756  26.166  1.00  0.00     0.016 A 
ATOM     30  C   UNL A   1      41.424  23.673  27.905  1.00  0.00     0.010 A 
ATOM     31  C   UNL A   1      39.875  24.931  26.518  1.00  0.00     0.010 A 
ATOM     32  C   UNL A   1      40.990  24.885  27.372  1.00  0.00    -0.014 A 
BRANCH  32  33
ATOM     33  C   UNL A   1      41.685  26.130  27.741  1.00  0.00     0.031 A 
ATOM     34  C   UNL A   1      40.946  27.143  28.553  1.00  0.00     0.074 A 
ATOM     35  C   UNL A   1      42.954  26.320  27.338  1.00  0.00     0.049 A 
ATOM     36  N   UNL A   1      41.301  28.351  28.889  1.00  0.00    -0.248 NA
ATOM     37  C   UNL A   1      39.619  26.737  29.042  1.00  0.00     0.031 C 
ATOM     38  C   UNL A   1      43.757  25.344  26.596  1.00  0.00     0.029 A 
ATOM     39  N   UNL A   1      43.786  27.396  27.484  1.00  0.00    -0.354 N 
ATOM     40  C   UNL A   1      40.235  28.862  29.620  1.00  0.00     0.074 A 
ATOM     41  C   UNL A   1      39.212  27.838  29.652  1.00  0.00     0.031 C 
ATOM     42  C   UNL A   1      44.963  25.875  26.340  1.00  0.00     0.029 A 
ATOM     43  C   UNL A   1      44.998  27.241  26.853  1.00  0.00     0.049 A 
ATOM     44  H   UNL A   1      43.542  28.203  27.994  1.00  0.00     0.167 HD
ATOM     45  C   UNL A   1      40.133  30.080  30.203  1.00  0.00     0.034 A 
ATOM     46  C   UNL A   1      46.000  28.124  26.682  1.00  0.00     0.034 A 
ATOM     47  C   UNL A   1      41.170  31.078  30.116  1.00  0.00     0.049 A 
ATOM     48  C   UNL A   1      45.829  29.502  27.271  1.00  0.00     0.074 A 
ATOM     49  C   UNL A   1      41.186  32.360  30.633  1.00  0.00     0.029 A 
ATOM     50  N   UNL A   1      42.381  30.902  29.452  1.00  0.00    -0.354 N 
ATOM     51  N   UNL A   1      44.810  29.991  27.945  1.00  0.00    -0.248 NA
ATOM     52  C   UNL A   1      46.936  30.446  27.083  1.00  0.00     0.031 C 
ATOM     53  C   UNL A   1      42.376  32.977  30.229  1.00  0.00     0.029 A 
ATOM     54  C   UNL A   1      43.139  32.058  29.523  1.00  0.00     0.049 A 
ATOM     55  H   UNL A   1      42.658  30.074  28.997  1.00  0.00     0.167 HD
ATOM     56  C   UNL A   1      45.166  31.292  28.283  1.00  0.00     0.074 A 
ATOM     57  C   UNL A   1      46.500  31.504  27.752  1.00  0.00     0.031 C 
ATOM     58  C   UNL A   1      44.463  32.230  28.969  1.00  0.00     0.034 A 
BRANCH  45  59
ATOM     59  C   UNL A   1      38.831  30.398  30.897  1.00  0.00     0.023 A 
ATOM     60  C   UNL A   1      37.783  31.063  30.237  1.00  0.00     0.031 A 
ATOM     61  C   UNL A   1      38.667  30.105  32.263  1.00  0.00     0.131 A 
ATOM     62  C   UNL A   1      36.658  31.490  30.961  1.00  0.00     0.055 A 
ATOM     63  C   UNL A   1      37.509  30.459  32.958  1.00  0.00     0.041 A 
ATOM     64  F   UNL A   1      39.644  29.498  32.954  1.00  0.00    -0.206 F 
ATOM     65  C   UNL A   1      36.503  31.172  32.312  1.00  0.00     0.022 A 
BRANCH  62  66
ATOM     66  S   UNL A   1      35.476  32.604  30.151  1.00  0.00     0.124 S 
ATOM     67  O   UNL A   1      35.305  31.955  28.852  1.00  0.00    -0.237 OA
ATOM     68  O   UNL A   1      34.328  32.551  31.047  1.00  0.00    -0.237 OA
ATOM     69  O   UNL A   1      36.181  33.883  30.113  1.00  0.00    -0.744 OA
ENDBRANCH  62  66
ENDBRANCH  45  59
BRANCH  46  70
ATOM     70  C   UNL A   1      47.212  27.760  25.892  1.00  0.00     0.023 A 
ATOM     71  C   UNL A   1      47.274  27.988  24.508  1.00  0.00     0.031 A 
ATOM     72  C   UNL A   1      48.319  27.150  26.507  1.00  0.00     0.131 A 
ATOM     73  C   UNL A   1      48.402  27.574  23.779  1.00  0.00     0.055 A 
ATOM     74  C   UNL A   1      49.460  26.786  25.787  1.00  0.00     0.041 A 
ATOM     75  F   UNL A   1      48.316  26.909  27.828  1.00  0.00    -0.206 F 
ATOM     76  C   UNL A   1      49.500  26.986  24.411  1.00  0.00     0.022 A 
BRANCH  73  77
ATOM     77  S   UNL A   1      48.382  27.746  21.974  1.00  0.00     0.124 S 
ATOM     78  O   UNL A   1      48.601  26.372  21.540  1.00  0.00    -0.237 OA
ATOM     79  O   UNL A   1      47.049  28.291  21.736  1.00  0.00    -0.237 OA
ATOM     80  O   UNL A   1      49.486  28.668  21.708  1.00  0.00    -0.744 OA
ENDBRANCH  73  77
ENDBRANCH  46  70
BRANCH  58  81
ATOM     81  C   UNL A   1      45.157  33.546  29.213  1.00  0.00     0.023 A 
ATOM     82  C   UNL A   1      44.966  34.648  28.362  1.00  0.00     0.031 A 
ATOM     83  C   UNL A   1      46.024  33.692  30.309  1.00  0.00     0.131 A 
ATOM     84  C   UNL A   1      45.679  35.833  28.590  1.00  0.00     0.055 A 
ATOM     85  C   UNL A   1      46.683  34.893  30.567  1.00  0.00     0.041 A 
ATOM     86  F   UNL A   1      46.241  32.668  31.150  1.00  0.00    -0.206 F 
ATOM     87  C   UNL A   1      46.522  35.969  29.697  1.00  0.00     0.022 A 
BRANCH  84  88
ATOM     88  S   UNL A   1      45.559  37.168  27.369  1.00  0.00     0.124 S 
ATOM     89  O   UNL A   1      44.180  37.034  26.909  1.00  0.00    -0.237 OA
ATOM     90  O   UNL A   1      45.851  38.352  28.171  1.00  0.00    -0.237 OA
ATOM     91  O   UNL A   1      46.580  36.822  26.382  1.00  0.00    -0.744 OA
ENDBRANCH  84  88
ENDBRANCH  58  81
ENDBRANCH  32  33
ENDBRANCH  25  27
ENDBRANCH  24  25
ENDBRANCH  23  24
ENDBRANCH   1  23
TORSDOF 19
ENDMDL
MODEL 2
REMARK VINA RESULT:     -10.8      1.437      2.445
REMARK SMILES O=CN[C@@H](CCS[C@@H]1CCO[C@]2(CCOC2)C1)C(=O)OCCOC(=O)c1ccc(-c2c3nc(c(-c4cc(S(=O)(=O)[O-])ccc4F)c4ccc([nH]4)c(-c4cc(S(=O)(=O)[O-])ccc4F)c4nc(c(-c5cc(S(=O)(=O)[O-])ccc5F)c5ccc2[nH]5)C=C4)C=C3)cc1
REMARK SMILES IDX 21 1 20 2 18 3 19 4 4 5 3 6 1 7 2 8 5 10 6 11 7 12 8 13 9 14
REMARK SMILES IDX 17 15 10 16 12 17 11 18 13 19 16 20 14 21 15 22 22 23 23 24
REMARK SMILES IDX 24 25 25 26 26 27 27 28 88 29 28 30 87 31 29 32 30 33 31 34
REMARK SMILES IDX 81 35 32 36 86 37 80 38 82 39 33 40 85 41 79 42 78 43 34 45
REMARK SMILES IDX 66 46 46 47 65 48 47 49 50 50 64 51 83 52 48 53 49 54 63 56
REMARK SMILES IDX 84 57 51 58 35 59 36 60 44 61 37 62 43 63 45 64 42 65 38 66
REMARK SMILES IDX 39 67 40 68 41 69 67 70 68 71 76 72 69 73 75 74 77 75 74 76
REMARK SMILES IDX 70 77 71 78 72 79 73 80 52 81 53 82 61 83 54 84 60 85 62 86
REMARK SMILES IDX 59 87 55 88 56 89 57 90 58 91
REMARK H PARENT 3 9 82 44 50 55
REMARK Flexibility Score: inf
ROOT
ATOM      1  C   UNL A   1      35.576  21.462  25.306  1.00  0.00     0.274 C 
ENDROOT
BRANCH   1   2
ATOM      2  O   UNL A   1      35.709  22.863  24.996  1.00  0.00    -0.461 OA
BRANCH   2   3
ATOM      3  C   UNL A   1      35.282  23.288  23.785  1.00  0.00     0.328 C 
ATOM      4  O   UNL A   1      35.809  22.987  22.722  1.00  0.00    -0.250 OA
BRANCH   3   5
ATOM      5  C   UNL A   1      34.143  24.323  23.900  1.00  0.00     0.192 C 
BRANCH   5   6
ATOM      6  N   UNL A   1      34.027  25.320  22.838  1.00  0.00    -0.345 N 
ATOM      7  O   UNL A   1      33.151  26.095  20.898  1.00  0.00    -0.279 OA
ATOM      8  C   UNL A   1      33.115  25.300  21.826  1.00  0.00     0.337 C 
ATOM      9  H   UNL A   1      34.662  26.072  22.856  1.00  0.00     0.164 HD
ENDBRANCH   5   6
BRANCH   5  10
ATOM     10  C   UNL A   1      32.814  23.582  24.121  1.00  0.00     0.048 C 
BRANCH  10  11
ATOM     11  C   UNL A   1      31.934  24.045  25.291  1.00  0.00     0.072 C 
BRANCH  11  12
ATOM     12  S   UNL A   1      32.550  25.481  26.237  1.00  0.00    -0.158 SA
BRANCH  12  13
ATOM     13  C   UNL A   1      31.170  26.705  26.116  1.00  0.00     0.052 C 
ATOM     14  C   UNL A   1      30.682  27.006  24.704  1.00  0.00     0.043 C 
ATOM     15  C   UNL A   1      31.530  28.012  26.840  1.00  0.00     0.052 C 
ATOM     16  C   UNL A   1      31.633  27.936  23.976  1.00  0.00     0.162 C 
ATOM     17  C   UNL A   1      32.341  29.015  26.003  1.00  0.00     0.095 C 
ATOM     18  O   UNL A   1      31.791  29.158  24.692  1.00  0.00    -0.372 OA
ATOM     19  C   UNL A   1      33.841  28.738  25.980  1.00  0.00     0.066 C 
ATOM     20  C   UNL A   1      32.315  30.392  26.679  1.00  0.00     0.195 C 
ATOM     21  C   UNL A   1      34.430  29.606  27.081  1.00  0.00     0.163 C 
ATOM     22  O   UNL A   1      33.371  30.386  27.643  1.00  0.00    -0.378 OA
ENDBRANCH  12  13
ENDBRANCH  11  12
ENDBRANCH  10  11
ENDBRANCH   5  10
ENDBRANCH   3   5
ENDBRANCH   2   3
ENDBRANCH   1   2
BRANCH   1  23
ATOM     23  C   UNL A   1      36.903  20.765  24.990  1.00  0.00     0.275 C 
BRANCH  23  24
ATOM     24  O   UNL A   1      37.984  21.697  25.145  1.00  0.00    -0.458 OA
BRANCH  24  25
ATOM     25  C   UNL A   1      38.976  21.297  25.990  1.00  0.00     0.338 C 
ATOM     26  O   UNL A   1      39.484  20.204  26.071  1.00  0.00    -0.246 OA
BRANCH  25  27
ATOM     27  C   UNL A   1      39.527  22.544  26.553  1.00  0.00     0.060 A 
ATOM     28  C   UNL A   1      40.618  22.438  27.418  1.00  0.00     0.016 A 
ATOM     29  C   UNL A   1      39.071  23.789  26.129  1.00  0.00     0.016 A 
ATOM     30  C   UNL A   1      41.298  23.572  27.831  1.00  0.00     0.010 A 
ATOM     31  C   UNL A   1      39.749  24.932  26.544  1.00  0.00     0.010 A 
ATOM     32  C   UNL A   1      40.874  24.820  27.379  1.00  0.00    -0.014 A 
BRANCH  32  33
ATOM     33  C   UNL A   1      41.589  26.031  27.815  1.00  0.00     0.031 A 
ATOM     34  C   UNL A   1      40.847  27.041  28.627  1.00  0.00     0.074 A 
ATOM     35  C   UNL A   1      42.878  26.193  27.471  1.00  0.00     0.049 A 
ATOM     36  N   UNL A   1      41.224  28.227  29.015  1.00  0.00    -0.248 NA
ATOM     37  C   UNL A   1      39.489  26.662  29.049  1.00  0.00     0.031 C 
ATOM     38  C   UNL A   1      43.682  25.217  26.732  1.00  0.00     0.029 A 
ATOM     39  N   UNL A   1      43.736  27.238  27.685  1.00  0.00    -0.354 N 
ATOM     40  C   UNL A   1      40.144  28.749  29.718  1.00  0.00     0.074 A 
ATOM     41  C   UNL A   1      39.090  27.757  29.675  1.00  0.00     0.031 C 
ATOM     42  C   UNL A   1      44.914  25.717  26.543  1.00  0.00     0.029 A 
ATOM     43  C   UNL A   1      44.968  27.065  27.099  1.00  0.00     0.049 A 
ATOM     44  H   UNL A   1      43.494  28.037  28.208  1.00  0.00     0.167 HD
ATOM     45  C   UNL A   1      40.052  29.952  30.334  1.00  0.00     0.034 A 
ATOM     46  C   UNL A   1      46.002  27.922  26.996  1.00  0.00     0.034 A 
ATOM     47  C   UNL A   1      41.122  30.920  30.320  1.00  0.00     0.049 A 
ATOM     48  C   UNL A   1      45.848  29.286  27.621  1.00  0.00     0.074 A 
ATOM     49  C   UNL A   1      41.154  32.184  30.878  1.00  0.00     0.029 A 
ATOM     50  N   UNL A   1      42.353  30.725  29.701  1.00  0.00    -0.354 N 
ATOM     51  N   UNL A   1      44.816  29.786  28.268  1.00  0.00    -0.248 NA
ATOM     52  C   UNL A   1      46.989  30.200  27.508  1.00  0.00     0.031 C 
ATOM     53  C   UNL A   1      42.377  32.776  30.542  1.00  0.00     0.029 A 
ATOM     54  C   UNL A   1      43.142  31.855  29.840  1.00  0.00     0.049 A 
ATOM     55  H   UNL A   1      42.625  29.903  29.232  1.00  0.00     0.167 HD
ATOM     56  C   UNL A   1      45.196  31.065  28.661  1.00  0.00     0.074 A 
ATOM     57  C   UNL A   1      46.556  31.251  28.191  1.00  0.00     0.031 C 
ATOM     58  C   UNL A   1      44.493  32.003  29.346  1.00  0.00     0.034 A 
BRANCH  45  59
ATOM     59  C   UNL A   1      38.733  30.288  30.983  1.00  0.00     0.023 A 
ATOM     60  C   UNL A   1      37.775  31.092  30.341  1.00  0.00     0.031 A 
ATOM     61  C   UNL A   1      38.464  29.869  32.298  1.00  0.00     0.131 A 
ATOM     62  C   UNL A   1      36.636  31.521  31.041  1.00  0.00     0.055 A 
ATOM     63  C   UNL A   1      37.289  30.232  32.961  1.00  0.00     0.041 A 
ATOM     64  F   UNL A   1      39.353  29.125  32.974  1.00  0.00    -0.206 F 
ATOM     65  C   UNL A   1      36.375  31.078  32.339  1.00  0.00     0.022 A 
BRANCH  62  66
ATOM     66  S   UNL A   1      35.584  32.795  30.290  1.00  0.00     0.124 S 
ATOM     67  O   UNL A   1      36.210  34.020  30.782  1.00  0.00    -0.237 OA
ATOM     68  O   UNL A   1      35.733  32.528  28.865  1.00  0.00    -0.237 OA
ATOM     69  O   UNL A   1      34.260  32.514  30.842  1.00  0.00    -0.744 OA
ENDBRANCH  62  66
ENDBRANCH  45  59
BRANCH  46  70
ATOM     70  C   UNL A   1      47.234  27.544  26.246  1.00  0.00     0.023 A 
ATOM     71  C   UNL A   1      47.347  27.779  24.866  1.00  0.00     0.031 A 
ATOM     72  C   UNL A   1      48.311  26.915  26.894  1.00  0.00     0.131 A 
ATOM     73  C   UNL A   1      48.493  27.352  24.174  1.00  0.00     0.055 A 
ATOM     74  C   UNL A   1      49.470  26.538  26.211  1.00  0.00     0.041 A 
ATOM     75  F   UNL A   1      48.260  26.666  28.213  1.00  0.00    -0.206 F 
ATOM     76  C   UNL A   1      49.560  26.745  24.839  1.00  0.00     0.022 A 
BRANCH  73  77
ATOM     77  S   UNL A   1      48.537  27.535  22.370  1.00  0.00     0.124 S 
ATOM     78  O   UNL A   1      48.522  26.145  21.928  1.00  0.00    -0.237 OA
ATOM     79  O   UNL A   1      47.323  28.304  22.113  1.00  0.00    -0.237 OA
ATOM     80  O   UNL A   1      49.788  28.253  22.130  1.00  0.00    -0.744 OA
ENDBRANCH  73  77
ENDBRANCH  46  70
BRANCH  58  81
ATOM     81  C   UNL A   1      45.214  33.289  29.659  1.00  0.00     0.023 A 
ATOM     82  C   UNL A   1      45.142  34.401  28.803  1.00  0.00     0.031 A 
ATOM     83  C   UNL A   1      45.988  33.395  30.828  1.00  0.00     0.131 A 
ATOM     84  C   UNL A   1      45.880  35.556  29.101  1.00  0.00     0.055 A 
ATOM     85  C   UNL A   1      46.669  34.568  31.150  1.00  0.00     0.041 A 
ATOM     86  F   UNL A   1      46.090  32.360  31.677  1.00  0.00    -0.206 F 
ATOM     87  C   UNL A   1      46.627  35.653  30.278  1.00  0.00     0.022 A 
BRANCH  84  88
ATOM     88  S   UNL A   1      45.919  36.899  27.884  1.00  0.00     0.124 S 
ATOM     89  O   UNL A   1      45.595  38.061  28.707  1.00  0.00    -0.237 OA
ATOM     90  O   UNL A   1      47.291  36.832  27.389  1.00  0.00    -0.237 OA
ATOM     91  O   UNL A   1      44.892  36.516  26.917  1.00  0.00    -0.744 OA
ENDBRANCH  84  88
ENDBRANCH  58  81
ENDBRANCH  32  33
ENDBRANCH  25  27
ENDBRANCH  24  25
ENDBRANCH  23  24
ENDBRANCH   1  23
TORSDOF 19
ENDMDL
MODEL 3
REMARK VINA RESULT:     -10.6      1.492      1.704
REMARK SMILES O=CN[C@@H](CCS[C@@H]1CCO[C@]2(CCOC2)C1)C(=O)OCCOC(=O)c1ccc(-c2c3nc(c(-c4cc(S(=O)(=O)[O-])ccc4F)c4ccc([nH]4)c(-c4cc(S(=O)(=O)[O-])ccc4F)c4nc(c(-c5cc(S(=O)(=O)[O-])ccc5F)c5ccc2[nH]5)C=C4)C=C3)cc1
REMARK SMILES IDX 21 1 20 2 18 3 19 4 4 5 3 6 1 7 2 8 5 10 6 11 7 12 8 13 9 14
REMARK SMILES IDX 17 15 10 16 12 17 11 18 13 19 16 20 14 21 15 22 22 23 23 24
REMARK SMILES IDX 24 25 25 26 26 27 27 28 88 29 28 30 87 31 29 32 30 33 31 34
REMARK SMILES IDX 81 35 32 36 86 37 80 38 82 39 33 40 85 41 79 42 78 43 34 45
REMARK SMILES IDX 66 46 46 47 65 48 47 49 50 50 64 51 83 52 48 53 49 54 63 56
REMARK SMILES IDX 84 57 51 58 35 59 36 60 44 61 37 62 43 63 45 64 42 65 38 66
REMARK SMILES IDX 39 67 40 68 41 69 67 70 68 71 76 72 69 73 75 74 77 75 74 76
REMARK SMILES IDX 70 77 71 78 72 79 73 80 52 81 53 82 61 83 54 84 60 85 62 86
REMARK SMILES IDX 59 87 55 88 56 89 57 90 58 91
REMARK H PARENT 3 9 82 44 50 55
REMARK Flexibility Score: inf
ROOT
ATOM      1  C   UNL A   1      35.999  20.678  25.040  1.00  0.00     0.274 C 
ENDROOT
BRANCH   1   2
ATOM      2  O   UNL A   1      35.574  21.609  26.054  1.00  0.00    -0.461 OA
BRANCH   2   3
ATOM      3  C   UNL A   1      34.333  21.461  26.571  1.00  0.00     0.328 C 
ATOM      4  O   UNL A   1      33.994  21.854  27.680  1.00  0.00    -0.250 OA
BRANCH   3   5
ATOM      5  C   UNL A   1      33.426  20.599  25.667  1.00  0.00     0.192 C 
BRANCH   5   6
ATOM      6  N   UNL A   1      33.240  19.197  26.038  1.00  0.00    -0.345 N 
ATOM      7  O   UNL A   1      32.302  17.154  25.758  1.00  0.00    -0.279 OA
ATOM      8  C   UNL A   1      32.526  18.277  25.331  1.00  0.00     0.337 C 
ATOM      9  H   UNL A   1      33.667  18.892  26.870  1.00  0.00     0.164 HD
ENDBRANCH   5   6
BRANCH   5  10
ATOM     10  C   UNL A   1      32.077  21.315  25.484  1.00  0.00     0.048 C 
BRANCH  10  11
ATOM     11  C   UNL A   1      32.058  22.567  24.595  1.00  0.00     0.072 C 
BRANCH  11  12
ATOM     12  S   UNL A   1      31.084  23.979  25.222  1.00  0.00    -0.158 SA
BRANCH  12  13
ATOM     13  C   UNL A   1      32.368  25.248  25.621  1.00  0.00     0.052 C 
ATOM     14  C   UNL A   1      31.850  26.522  26.279  1.00  0.00     0.043 C 
ATOM     15  C   UNL A   1      33.200  25.598  24.377  1.00  0.00     0.052 C 
ATOM     16  C   UNL A   1      31.190  27.439  25.268  1.00  0.00     0.162 C 
ATOM     17  C   UNL A   1      32.584  26.674  23.465  1.00  0.00     0.095 C 
ATOM     18  O   UNL A   1      32.102  27.782  24.228  1.00  0.00    -0.372 OA
ATOM     19  C   UNL A   1      31.541  26.140  22.489  1.00  0.00     0.066 C 
ATOM     20  C   UNL A   1      33.646  27.197  22.492  1.00  0.00     0.195 C 
ATOM     21  C   UNL A   1      32.296  25.874  21.196  1.00  0.00     0.163 C 
ATOM     22  O   UNL A   1      33.649  26.297  21.380  1.00  0.00    -0.378 OA
ENDBRANCH  12  13
ENDBRANCH  11  12
ENDBRANCH  10  11
ENDBRANCH   5  10
ENDBRANCH   3   5
ENDBRANCH   2   3
ENDBRANCH   1   2
BRANCH   1  23
ATOM     23  C   UNL A   1      37.527  20.724  24.947  1.00  0.00     0.275 C 
BRANCH  23  24
ATOM     24  O   UNL A   1      38.033  21.735  25.831  1.00  0.00    -0.458 OA
BRANCH  24  25
ATOM     25  C   UNL A   1      39.289  21.508  26.310  1.00  0.00     0.338 C 
ATOM     26  O   UNL A   1      39.986  20.539  26.133  1.00  0.00    -0.246 OA
BRANCH  25  27
ATOM     27  C   UNL A   1      39.749  22.818  26.812  1.00  0.00     0.060 A 
ATOM     28  C   UNL A   1      40.749  22.822  27.788  1.00  0.00     0.016 A 
ATOM     29  C   UNL A   1      39.309  24.006  26.234  1.00  0.00     0.016 A 
ATOM     30  C   UNL A   1      41.355  24.010  28.164  1.00  0.00     0.010 A 
ATOM     31  C   UNL A   1      39.914  25.201  26.611  1.00  0.00     0.010 A 
ATOM     32  C   UNL A   1      40.950  25.200  27.561  1.00  0.00    -0.014 A 
BRANCH  32  33
ATOM     33  C   UNL A   1      41.588  26.467  27.956  1.00  0.00     0.031 A 
ATOM     34  C   UNL A   1      40.755  27.496  28.649  1.00  0.00     0.074 A 
ATOM     35  C   UNL A   1      42.889  26.661  27.683  1.00  0.00     0.049 A 
ATOM     36  N   UNL A   1      41.060  28.720  28.976  1.00  0.00    -0.248 NA
ATOM     37  C   UNL A   1      39.389  27.087  29.010  1.00  0.00     0.031 C 
ATOM     38  C   UNL A   1      43.777  25.673  27.065  1.00  0.00     0.029 A 
ATOM     39  N   UNL A   1      43.690  27.754  27.877  1.00  0.00    -0.354 N 
ATOM     40  C   UNL A   1      39.917  29.240  29.572  1.00  0.00     0.074 A 
ATOM     41  C   UNL A   1      38.908  28.203  29.533  1.00  0.00     0.031 C 
ATOM     42  C   UNL A   1      44.998  26.212  26.919  1.00  0.00     0.029 A 
ATOM     43  C   UNL A   1      44.963  27.595  27.383  1.00  0.00     0.049 A 
ATOM     44  H   UNL A   1      43.384  28.574  28.328  1.00  0.00     0.167 HD
ATOM     45  C   UNL A   1      39.739  30.476  30.097  1.00  0.00     0.034 A 
ATOM     46  C   UNL A   1      45.968  28.487  27.286  1.00  0.00     0.034 A 
ATOM     47  C   UNL A   1      40.769  31.486  30.083  1.00  0.00     0.049 A 
ATOM     48  C   UNL A   1      45.721  29.882  27.804  1.00  0.00     0.074 A 
ATOM     49  C   UNL A   1      40.716  32.785  30.553  1.00  0.00     0.029 A 
ATOM     50  N   UNL A   1      42.045  31.304  29.557  1.00  0.00    -0.354 N 
ATOM     51  N   UNL A   1      44.630  30.378  28.349  1.00  0.00    -0.248 NA
ATOM     52  C   UNL A   1      46.831  30.834  27.700  1.00  0.00     0.031 C 
ATOM     53  C   UNL A   1      41.935  33.405  30.254  1.00  0.00     0.029 A 
ATOM     54  C   UNL A   1      42.778  32.474  29.666  1.00  0.00     0.049 A 
ATOM     55  H   UNL A   1      42.378  30.466  29.164  1.00  0.00     0.167 HD
ATOM     56  C   UNL A   1      44.934  31.696  28.675  1.00  0.00     0.074 A 
ATOM     57  C   UNL A   1      46.314  31.909  28.280  1.00  0.00     0.031 C 
ATOM     58  C   UNL A   1      44.152  32.647  29.249  1.00  0.00     0.034 A 
BRANCH  45  59
ATOM     59  C   UNL A   1      38.368  30.798  30.638  1.00  0.00     0.023 A 
ATOM     60  C   UNL A   1      37.429  31.530  29.889  1.00  0.00     0.031 A 
ATOM     61  C   UNL A   1      38.025  30.441  31.954  1.00  0.00     0.131 A 
ATOM     62  C   UNL A   1      36.232  31.953  30.487  1.00  0.00     0.055 A 
ATOM     63  C   UNL A   1      36.796  30.795  32.516  1.00  0.00     0.041 A 
ATOM     64  F   UNL A   1      38.891  29.769  32.728  1.00  0.00    -0.206 F 
ATOM     65  C   UNL A   1      35.899  31.572  31.788  1.00  0.00     0.022 A 
BRANCH  62  66
ATOM     66  S   UNL A   1      35.191  33.144  29.597  1.00  0.00     0.124 S 
ATOM     67  O   UNL A   1      36.076  33.550  28.507  1.00  0.00    -0.237 OA
ATOM     68  O   UNL A   1      34.039  32.334  29.218  1.00  0.00    -0.237 OA
ATOM     69  O   UNL A   1      34.925  34.179  30.594  1.00  0.00    -0.744 OA
ENDBRANCH  62  66
ENDBRANCH  45  59
BRANCH  46  70
ATOM     70  C   UNL A   1      47.260  28.113  26.642  1.00  0.00     0.023 A 
ATOM     71  C   UNL A   1      47.373  28.003  25.247  1.00  0.00     0.031 A 
ATOM     72  C   UNL A   1      48.400  27.833  27.417  1.00  0.00     0.131 A 
ATOM     73  C   UNL A   1      48.586  27.585  24.672  1.00  0.00     0.055 A 
ATOM     74  C   UNL A   1      49.618  27.467  26.838  1.00  0.00     0.041 A 
ATOM     75  F   UNL A   1      48.351  27.923  28.756  1.00  0.00    -0.206 F 
ATOM     76  C   UNL A   1      49.712  27.329  25.457  1.00  0.00     0.022 A 
BRANCH  73  77
ATOM     77  S   UNL A   1      48.649  27.308  22.881  1.00  0.00     0.124 S 
ATOM     78  O   UNL A   1      50.037  27.632  22.577  1.00  0.00    -0.237 OA
ATOM     79  O   UNL A   1      48.281  25.899  22.779  1.00  0.00    -0.237 OA
ATOM     80  O   UNL A   1      47.659  28.247  22.355  1.00  0.00    -0.744 OA
ENDBRANCH  73  77
ENDBRANCH  46  70
BRANCH  58  81
ATOM     81  C   UNL A   1      44.801  33.980  29.516  1.00  0.00     0.023 A 
ATOM     82  C   UNL A   1      45.480  34.241  30.719  1.00  0.00     0.031 A 
ATOM     83  C   UNL A   1      44.731  35.003  28.555  1.00  0.00     0.131 A 
ATOM     84  C   UNL A   1      46.015  35.516  30.952  1.00  0.00     0.055 A 
ATOM     85  C   UNL A   1      45.318  36.249  28.767  1.00  0.00     0.041 A 
ATOM     86  F   UNL A   1      44.091  34.804  27.391  1.00  0.00    -0.206 F 
ATOM     87  C   UNL A   1      45.954  36.516  29.978  1.00  0.00     0.022 A 
BRANCH  84  88
ATOM     88  S   UNL A   1      46.714  35.879  32.585  1.00  0.00     0.124 S 
ATOM     89  O   UNL A   1      45.748  35.244  33.476  1.00  0.00    -0.237 OA
ATOM     90  O   UNL A   1      48.027  35.244  32.511  1.00  0.00    -0.237 OA
ATOM     91  O   UNL A   1      46.735  37.339  32.632  1.00  0.00    -0.744 OA
ENDBRANCH  84  88
ENDBRANCH  58  81
ENDBRANCH  32  33
ENDBRANCH  25  27
ENDBRANCH  24  25
ENDBRANCH  23  24
ENDBRANCH   1  23
TORSDOF 19
ENDMDL
