MODEL 1
REMARK VINA RESULT:      -9.6      0.000      0.000
REMARK SMILES CCc1cc(OC(F)(F)F)cc2c1O[C@@H](C(F)(F)F)C(C(=O)OCCOC(=O)c1ccc(-c3c4nc(c(-c5cc(S(=O)(=O)[O-])ccc5F)c5ccc([nH]5)c(-c5cc(S(=O)(=O)[O-])ccc5F)c5nc(c(-c6cc(S(=O)(=O)[O-])ccc6F)c6ccc3[nH]6)C=C5)C=C4)cc1)=C2
REMARK SMILES IDX 25 1 24 2 23 3 21 4 22 5 20 6 3 7 4 8 13 9 5 10 12 11 14 12
REMARK SMILES IDX 11 13 92 14 15 15 2 16 1 17 6 18 7 19 8 20 9 21 10 22 16 23
REMARK SMILES IDX 17 24 18 25 19 26 26 27 27 28 28 29 29 30 30 31 91 32 31 33
REMARK SMILES IDX 90 34 32 35 33 36 34 37 84 38 35 39 89 40 83 41 85 42 36 43
REMARK SMILES IDX 88 44 82 45 81 46 37 48 69 49 49 50 68 51 50 52 53 53 67 54
REMARK SMILES IDX 86 55 51 56 52 57 66 59 87 60 54 61 38 62 39 63 47 64 40 65
REMARK SMILES IDX 46 66 48 67 45 68 41 69 42 70 43 71 44 72 70 73 71 74 79 75
REMARK SMILES IDX 72 76 78 77 80 78 77 79 73 80 74 81 75 82 76 83 55 84 56 85
REMARK SMILES IDX 64 86 57 87 63 88 65 89 62 90 58 91 59 92 60 93 61 94
REMARK H PARENT 85 47 53 58
REMARK Flexibility Score: inf
ROOT
ATOM      1  C   UNL A   1      34.234  34.160  27.841  1.00  0.00     0.275 C 
ENDROOT
BRANCH   1   2
ATOM      2  C   UNL A   1      33.611  34.106  29.240  1.00  0.00     0.275 C 
BRANCH   2   3
ATOM      3  O   UNL A   1      34.537  34.525  30.265  1.00  0.00    -0.459 OA
BRANCH   3   4
ATOM      4  C   UNL A   1      34.899  33.567  31.160  1.00  0.00     0.338 C 
ATOM      5  O   UNL A   1      34.238  32.586  31.436  1.00  0.00    -0.246 OA
BRANCH   4   6
ATOM      6  C   UNL A   1      36.229  33.838  31.757  1.00  0.00     0.087 C 
ATOM      7  C   UNL A   1      39.854  34.676  33.675  1.00  0.00    -0.002 A 
ATOM      8  C   UNL A   1      41.041  34.680  32.931  1.00  0.00     0.054 A 
ATOM      9  C   UNL A   1      38.642  34.507  32.986  1.00  0.00     0.131 A 
ATOM     10  C   UNL A   1      41.018  34.501  31.543  1.00  0.00     0.130 A 
ATOM     11  C   UNL A   1      38.602  34.237  31.615  1.00  0.00     0.021 A 
ATOM     12  O   UNL A   1      37.491  34.708  33.697  1.00  0.00    -0.475 OA
ATOM     13  C   UNL A   1      39.801  34.239  30.897  1.00  0.00     0.058 A 
ATOM     14  C   UNL A   1      37.310  33.989  30.971  1.00  0.00     0.027 C 
ATOM     15  C   UNL A   1      36.341  33.935  33.271  1.00  0.00     0.316 C 
BRANCH   7  16
ATOM     16  C   UNL A   1      39.819  34.812  35.185  1.00  0.00     0.036 C 
ATOM     17  C   UNL A   1      39.299  33.623  35.981  1.00  0.00     0.009 C 
ENDBRANCH   7  16
BRANCH  10  18
ATOM     18  O   UNL A   1      42.109  34.543  30.718  1.00  0.00    -0.406 OA
BRANCH  18  19
ATOM     19  C   UNL A   1      42.791  33.320  30.482  1.00  0.00     0.573 C 
ATOM     20  F   UNL A   1      43.775  33.466  29.567  1.00  0.00    -0.132 F 
ATOM     21  F   UNL A   1      43.306  32.821  31.624  1.00  0.00    -0.132 F 
ATOM     22  F   UNL A   1      41.906  32.419  29.994  1.00  0.00    -0.132 F 
ENDBRANCH  18  19
ENDBRANCH  10  18
BRANCH  15  23
ATOM     23  C   UNL A   1      35.133  34.452  34.076  1.00  0.00     0.430 C 
ATOM     24  F   UNL A   1      35.424  34.611  35.385  1.00  0.00    -0.167 F 
ATOM     25  F   UNL A   1      34.764  35.682  33.630  1.00  0.00    -0.167 F 
ATOM     26  F   UNL A   1      34.053  33.650  33.959  1.00  0.00    -0.167 F 
ENDBRANCH  15  23
ENDBRANCH   4   6
ENDBRANCH   3   4
ENDBRANCH   2   3
ENDBRANCH   1   2
BRANCH   1  27
ATOM     27  O   UNL A   1      35.274  33.178  27.676  1.00  0.00    -0.458 OA
BRANCH  27  28
ATOM     28  C   UNL A   1      34.920  31.918  28.033  1.00  0.00     0.338 C 
ATOM     29  O   UNL A   1      33.868  31.359  27.762  1.00  0.00    -0.246 OA
BRANCH  28  30
ATOM     30  C   UNL A   1      36.068  31.212  28.638  1.00  0.00     0.060 A 
ATOM     31  C   UNL A   1      37.336  31.701  28.316  1.00  0.00     0.016 A 
ATOM     32  C   UNL A   1      35.942  30.099  29.472  1.00  0.00     0.016 A 
ATOM     33  C   UNL A   1      38.479  31.147  28.885  1.00  0.00     0.010 A 
ATOM     34  C   UNL A   1      37.096  29.495  29.993  1.00  0.00     0.010 A 
ATOM     35  C   UNL A   1      38.370  30.025  29.713  1.00  0.00    -0.014 A 
BRANCH  35  36
ATOM     36  C   UNL A   1      39.610  29.328  30.136  1.00  0.00     0.031 A 
ATOM     37  C   UNL A   1      40.326  29.817  31.363  1.00  0.00     0.074 A 
ATOM     38  C   UNL A   1      40.053  28.234  29.487  1.00  0.00     0.049 A 
ATOM     39  N   UNL A   1      41.429  29.380  31.914  1.00  0.00    -0.248 NA
ATOM     40  C   UNL A   1      39.701  30.944  32.071  1.00  0.00     0.031 C 
ATOM     41  C   UNL A   1      39.390  27.604  28.347  1.00  0.00     0.029 A 
ATOM     42  N   UNL A   1      41.166  27.458  29.701  1.00  0.00    -0.354 N 
ATOM     43  C   UNL A   1      41.629  30.174  33.038  1.00  0.00     0.074 A 
ATOM     44  C   UNL A   1      40.545  31.135  33.072  1.00  0.00     0.031 C 
ATOM     45  C   UNL A   1      40.121  26.545  27.950  1.00  0.00     0.029 A 
ATOM     46  C   UNL A   1      41.322  26.447  28.779  1.00  0.00     0.049 A 
ATOM     47  H   UNL A   1      41.794  27.609  30.443  1.00  0.00     0.167 HD
ATOM     48  C   UNL A   1      42.624  30.107  33.956  1.00  0.00     0.034 A 
ATOM     49  C   UNL A   1      42.332  25.568  28.608  1.00  0.00     0.034 A 
ATOM     50  C   UNL A   1      43.720  29.173  33.885  1.00  0.00     0.049 A 
ATOM     51  C   UNL A   1      43.509  25.610  29.560  1.00  0.00     0.074 A 
ATOM     52  C   UNL A   1      44.798  29.043  34.743  1.00  0.00     0.029 A 
ATOM     53  N   UNL A   1      43.893  28.221  32.887  1.00  0.00    -0.354 N 
ATOM     54  N   UNL A   1      43.700  26.378  30.609  1.00  0.00    -0.248 NA
ATOM     55  C   UNL A   1      44.603  24.662  29.307  1.00  0.00     0.031 C 
ATOM     56  C   UNL A   1      45.662  28.075  34.220  1.00  0.00     0.029 A 
ATOM     57  C   UNL A   1      45.077  27.529  33.088  1.00  0.00     0.049 A 
ATOM     58  H   UNL A   1      43.266  28.062  32.144  1.00  0.00     0.167 HD
ATOM     59  C   UNL A   1      44.916  25.974  31.161  1.00  0.00     0.074 A 
ATOM     60  C   UNL A   1      45.407  24.891  30.336  1.00  0.00     0.031 C 
ATOM     61  C   UNL A   1      45.562  26.450  32.257  1.00  0.00     0.034 A 
BRANCH  48  62
ATOM     62  C   UNL A   1      42.605  31.131  35.064  1.00  0.00     0.023 A 
ATOM     63  C   UNL A   1      43.169  32.409  34.903  1.00  0.00     0.031 A 
ATOM     64  C   UNL A   1      42.056  30.805  36.318  1.00  0.00     0.131 A 
ATOM     65  C   UNL A   1      43.238  33.284  35.998  1.00  0.00     0.055 A 
ATOM     66  C   UNL A   1      42.052  31.713  37.378  1.00  0.00     0.041 A 
ATOM     67  F   UNL A   1      41.530  29.590  36.539  1.00  0.00    -0.206 F 
ATOM     68  C   UNL A   1      42.660  32.955  37.227  1.00  0.00     0.022 A 
BRANCH  65  69
ATOM     69  S   UNL A   1      44.236  34.791  35.840  1.00  0.00     0.124 S 
ATOM     70  O   UNL A   1      44.775  34.931  37.190  1.00  0.00    -0.237 OA
ATOM     71  O   UNL A   1      45.195  34.428  34.803  1.00  0.00    -0.237 OA
ATOM     72  O   UNL A   1      43.259  35.810  35.459  1.00  0.00    -0.744 OA
ENDBRANCH  65  69
ENDBRANCH  48  62
BRANCH  49  73
ATOM     73  C   UNL A   1      42.330  24.612  27.458  1.00  0.00     0.023 A 
ATOM     74  C   UNL A   1      41.588  23.421  27.496  1.00  0.00     0.031 A 
ATOM     75  C   UNL A   1      43.151  24.837  26.337  1.00  0.00     0.131 A 
ATOM     76  C   UNL A   1      41.724  22.476  26.465  1.00  0.00     0.055 A 
ATOM     77  C   UNL A   1      43.234  23.924  25.285  1.00  0.00     0.041 A 
ATOM     78  F   UNL A   1      43.897  25.951  26.253  1.00  0.00    -0.206 F 
ATOM     79  C   UNL A   1      42.529  22.727  25.352  1.00  0.00     0.022 A 
BRANCH  76  80
ATOM     80  S   UNL A   1      40.922  20.858  26.653  1.00  0.00     0.124 S 
ATOM     81  O   UNL A   1      39.624  21.098  26.035  1.00  0.00    -0.237 OA
ATOM     82  O   UNL A   1      41.831  19.982  25.920  1.00  0.00    -0.237 OA
ATOM     83  O   UNL A   1      40.898  20.656  28.101  1.00  0.00    -0.744 OA
ENDBRANCH  76  80
ENDBRANCH  49  73
BRANCH  61  84
ATOM     84  C   UNL A   1      46.843  25.756  32.668  1.00  0.00     0.023 A 
ATOM     85  C   UNL A   1      46.867  24.736  33.635  1.00  0.00     0.031 A 
ATOM     86  C   UNL A   1      48.063  26.124  32.070  1.00  0.00     0.131 A 
ATOM     87  C   UNL A   1      48.090  24.159  34.013  1.00  0.00     0.055 A 
ATOM     88  C   UNL A   1      49.266  25.501  32.402  1.00  0.00     0.041 A 
ATOM     89  F   UNL A   1      48.105  27.095  31.144  1.00  0.00    -0.206 F 
ATOM     90  C   UNL A   1      49.286  24.521  33.389  1.00  0.00     0.022 A 
BRANCH  87  91
ATOM     91  S   UNL A   1      48.114  22.994  35.405  1.00  0.00     0.124 S 
ATOM     92  O   UNL A   1      46.932  22.181  35.141  1.00  0.00    -0.237 OA
ATOM     93  O   UNL A   1      49.400  22.326  35.231  1.00  0.00    -0.237 OA
ATOM     94  O   UNL A   1      48.022  23.860  36.579  1.00  0.00    -0.744 OA
ENDBRANCH  87  91
ENDBRANCH  61  84
ENDBRANCH  35  36
ENDBRANCH  28  30
ENDBRANCH  27  28
ENDBRANCH   1  27
TORSDOF 18
ENDMDL
MODEL 2
REMARK VINA RESULT:      -9.6      5.457     10.038
REMARK SMILES CCc1cc(OC(F)(F)F)cc2c1O[C@@H](C(F)(F)F)C(C(=O)OCCOC(=O)c1ccc(-c3c4nc(c(-c5cc(S(=O)(=O)[O-])ccc5F)c5ccc([nH]5)c(-c5cc(S(=O)(=O)[O-])ccc5F)c5nc(c(-c6cc(S(=O)(=O)[O-])ccc6F)c6ccc3[nH]6)C=C5)C=C4)cc1)=C2
REMARK SMILES IDX 25 1 24 2 23 3 21 4 22 5 20 6 3 7 4 8 13 9 5 10 12 11 14 12
REMARK SMILES IDX 11 13 92 14 15 15 2 16 1 17 6 18 7 19 8 20 9 21 10 22 16 23
REMARK SMILES IDX 17 24 18 25 19 26 26 27 27 28 28 29 29 30 30 31 91 32 31 33
REMARK SMILES IDX 90 34 32 35 33 36 34 37 84 38 35 39 89 40 83 41 85 42 36 43
REMARK SMILES IDX 88 44 82 45 81 46 37 48 69 49 49 50 68 51 50 52 53 53 67 54
REMARK SMILES IDX 86 55 51 56 52 57 66 59 87 60 54 61 38 62 39 63 47 64 40 65
REMARK SMILES IDX 46 66 48 67 45 68 41 69 42 70 43 71 44 72 70 73 71 74 79 75
REMARK SMILES IDX 72 76 78 77 80 78 77 79 73 80 74 81 75 82 76 83 55 84 56 85
REMARK SMILES IDX 64 86 57 87 63 88 65 89 62 90 58 91 59 92 60 93 61 94
REMARK H PARENT 85 47 53 58
REMARK Flexibility Score: inf
ROOT
ATOM      1  C   UNL A   1      36.654  20.633  25.081  1.00  0.00     0.275 C 
ENDROOT
BRANCH   1   2
ATOM      2  C   UNL A   1      35.158  20.957  25.007  1.00  0.00     0.275 C 
BRANCH   2   3
ATOM      3  O   UNL A   1      34.912  22.374  24.891  1.00  0.00    -0.459 OA
BRANCH   3   4
ATOM      4  C   UNL A   1      33.627  22.768  25.096  1.00  0.00     0.338 C 
ATOM      5  O   UNL A   1      32.719  22.035  25.432  1.00  0.00    -0.246 OA
BRANCH   4   6
ATOM      6  C   UNL A   1      33.451  24.226  24.886  1.00  0.00     0.087 C 
ATOM      7  C   UNL A   1      32.934  28.290  24.025  1.00  0.00    -0.002 A 
ATOM      8  C   UNL A   1      33.130  29.238  25.039  1.00  0.00     0.054 A 
ATOM      9  C   UNL A   1      33.227  26.946  24.312  1.00  0.00     0.131 A 
ATOM     10  C   UNL A   1      33.587  28.851  26.304  1.00  0.00     0.130 A 
ATOM     11  C   UNL A   1      33.597  26.526  25.593  1.00  0.00     0.021 A 
ATOM     12  O   UNL A   1      33.224  26.073  23.259  1.00  0.00    -0.475 OA
ATOM     13  C   UNL A   1      33.779  27.491  26.587  1.00  0.00     0.058 A 
ATOM     14  C   UNL A   1      33.810  25.099  25.845  1.00  0.00     0.027 C 
ATOM     15  C   UNL A   1      32.857  24.706  23.571  1.00  0.00     0.316 C 
BRANCH   7  16
ATOM     16  C   UNL A   1      32.393  28.639  22.653  1.00  0.00     0.036 C 
ATOM     17  C   UNL A   1      30.881  28.743  22.505  1.00  0.00     0.009 C 
ENDBRANCH   7  16
BRANCH  10  18
ATOM     18  O   UNL A   1      33.864  29.699  27.342  1.00  0.00    -0.406 OA
BRANCH  18  19
ATOM     19  C   UNL A   1      35.231  29.990  27.595  1.00  0.00     0.573 C 
ATOM     20  F   UNL A   1      35.489  31.311  27.483  1.00  0.00    -0.132 F 
ATOM     21  F   UNL A   1      35.603  29.558  28.817  1.00  0.00    -0.132 F 
ATOM     22  F   UNL A   1      35.987  29.344  26.677  1.00  0.00    -0.132 F 
ENDBRANCH  18  19
ENDBRANCH  10  18
BRANCH  15  23
ATOM     23  C   UNL A   1      33.099  23.876  22.297  1.00  0.00     0.430 C 
ATOM     24  F   UNL A   1      32.886  24.595  21.173  1.00  0.00    -0.167 F 
ATOM     25  F   UNL A   1      34.398  23.478  22.236  1.00  0.00    -0.167 F 
ATOM     26  F   UNL A   1      32.342  22.758  22.255  1.00  0.00    -0.167 F 
ENDBRANCH  15  23
ENDBRANCH   4   6
ENDBRANCH   3   4
ENDBRANCH   2   3
ENDBRANCH   1   2
BRANCH   1  27
ATOM     27  O   UNL A   1      37.392  21.654  25.780  1.00  0.00    -0.458 OA
BRANCH  27  28
ATOM     28  C   UNL A   1      38.676  21.324  26.066  1.00  0.00     0.338 C 
ATOM     29  O   UNL A   1      39.221  20.259  25.817  1.00  0.00    -0.246 OA
BRANCH  28  30
ATOM     30  C   UNL A   1      39.416  22.508  26.550  1.00  0.00     0.060 A 
ATOM     31  C   UNL A   1      38.998  23.745  26.055  1.00  0.00     0.016 A 
ATOM     32  C   UNL A   1      40.494  22.439  27.434  1.00  0.00     0.016 A 
ATOM     33  C   UNL A   1      39.588  24.925  26.498  1.00  0.00     0.010 A 
ATOM     34  C   UNL A   1      41.135  23.623  27.830  1.00  0.00     0.010 A 
ATOM     35  C   UNL A   1      40.676  24.873  27.375  1.00  0.00    -0.014 A 
BRANCH  35  36
ATOM     36  C   UNL A   1      41.417  26.125  27.667  1.00  0.00     0.031 A 
ATOM     37  C   UNL A   1      40.724  27.205  28.448  1.00  0.00     0.074 A 
ATOM     38  C   UNL A   1      42.707  26.272  27.311  1.00  0.00     0.049 A 
ATOM     39  N   UNL A   1      41.161  28.383  28.809  1.00  0.00    -0.248 NA
ATOM     40  C   UNL A   1      39.355  26.903  28.894  1.00  0.00     0.031 C 
ATOM     41  C   UNL A   1      43.518  25.258  26.640  1.00  0.00     0.029 A 
ATOM     42  N   UNL A   1      43.562  27.336  27.469  1.00  0.00    -0.354 N 
ATOM     43  C   UNL A   1      40.124  28.965  29.531  1.00  0.00     0.074 A 
ATOM     44  C   UNL A   1      39.029  28.016  29.532  1.00  0.00     0.031 C 
ATOM     45  C   UNL A   1      44.751  25.756  26.430  1.00  0.00     0.029 A 
ATOM     46  C   UNL A   1      44.805  27.136  26.911  1.00  0.00     0.049 A 
ATOM     47  H   UNL A   1      43.311  28.164  27.939  1.00  0.00     0.167 HD
ATOM     48  C   UNL A   1      40.089  30.177  30.136  1.00  0.00     0.034 A 
ATOM     49  C   UNL A   1      45.849  27.982  26.778  1.00  0.00     0.034 A 
ATOM     50  C   UNL A   1      41.171  31.129  30.090  1.00  0.00     0.049 A 
ATOM     51  C   UNL A   1      45.732  29.385  27.333  1.00  0.00     0.074 A 
ATOM     52  C   UNL A   1      41.226  32.398  30.640  1.00  0.00     0.029 A 
ATOM     53  N   UNL A   1      42.382  30.927  29.438  1.00  0.00    -0.354 N 
ATOM     54  N   UNL A   1      44.739  29.934  27.996  1.00  0.00    -0.248 NA
ATOM     55  C   UNL A   1      46.879  30.281  27.125  1.00  0.00     0.031 C 
ATOM     56  C   UNL A   1      42.431  32.993  30.250  1.00  0.00     0.029 A 
ATOM     57  C   UNL A   1      43.173  32.062  29.540  1.00  0.00     0.049 A 
ATOM     58  H   UNL A   1      42.641  30.100  28.972  1.00  0.00     0.167 HD
ATOM     59  C   UNL A   1      45.163  31.224  28.319  1.00  0.00     0.074 A 
ATOM     60  C   UNL A   1      46.501  31.366  27.786  1.00  0.00     0.031 C 
ATOM     61  C   UNL A   1      44.507  32.197  29.003  1.00  0.00     0.034 A 
BRANCH  48  62
ATOM     62  C   UNL A   1      38.804  30.563  30.826  1.00  0.00     0.023 A 
ATOM     63  C   UNL A   1      37.892  31.464  30.247  1.00  0.00     0.031 A 
ATOM     64  C   UNL A   1      38.508  30.058  32.105  1.00  0.00     0.131 A 
ATOM     65  C   UNL A   1      36.771  31.888  30.976  1.00  0.00     0.055 A 
ATOM     66  C   UNL A   1      37.348  30.419  32.790  1.00  0.00     0.041 A 
ATOM     67  F   UNL A   1      39.356  29.217  32.720  1.00  0.00    -0.206 F 
ATOM     68  C   UNL A   1      36.478  31.352  32.233  1.00  0.00     0.022 A 
BRANCH  65  69
ATOM     69  S   UNL A   1      35.789  33.270  30.329  1.00  0.00     0.124 S 
ATOM     70  O   UNL A   1      35.818  34.203  31.452  1.00  0.00    -0.237 OA
ATOM     71  O   UNL A   1      36.545  33.668  29.147  1.00  0.00    -0.237 OA
ATOM     72  O   UNL A   1      34.484  32.667  30.063  1.00  0.00    -0.744 OA
ENDBRANCH  65  69
ENDBRANCH  48  62
BRANCH  49  73
ATOM     73  C   UNL A   1      47.079  27.569  26.034  1.00  0.00     0.023 A 
ATOM     74  C   UNL A   1      47.253  27.878  24.675  1.00  0.00     0.031 A 
ATOM     75  C   UNL A   1      48.059  26.772  26.655  1.00  0.00     0.131 A 
ATOM     76  C   UNL A   1      48.346  27.349  23.969  1.00  0.00     0.055 A 
ATOM     77  C   UNL A   1      49.178  26.302  25.964  1.00  0.00     0.041 A 
ATOM     78  F   UNL A   1      47.939  26.430  27.948  1.00  0.00    -0.206 F 
ATOM     79  C   UNL A   1      49.318  26.577  24.609  1.00  0.00     0.022 A 
BRANCH  76  80
ATOM     80  S   UNL A   1      48.421  27.586  22.171  1.00  0.00     0.124 S 
ATOM     81  O   UNL A   1      47.124  28.190  21.898  1.00  0.00    -0.237 OA
ATOM     82  O   UNL A   1      49.581  28.461  22.027  1.00  0.00    -0.237 OA
ATOM     83  O   UNL A   1      48.600  26.230  21.655  1.00  0.00    -0.744 OA
ENDBRANCH  76  80
ENDBRANCH  49  73
BRANCH  61  84
ATOM     84  C   UNL A   1      45.256  33.485  29.272  1.00  0.00     0.023 A 
ATOM     85  C   UNL A   1      45.189  34.588  28.404  1.00  0.00     0.031 A 
ATOM     86  C   UNL A   1      46.048  33.606  30.430  1.00  0.00     0.131 A 
ATOM     87  C   UNL A   1      45.942  35.741  28.678  1.00  0.00     0.055 A 
ATOM     88  C   UNL A   1      46.741  34.779  30.731  1.00  0.00     0.041 A 
ATOM     89  F   UNL A   1      46.155  32.585  31.295  1.00  0.00    -0.206 F 
ATOM     90  C   UNL A   1      46.701  35.851  29.846  1.00  0.00     0.022 A 
BRANCH  87  91
ATOM     91  S   UNL A   1      45.996  37.066  27.438  1.00  0.00     0.124 S 
ATOM     92  O   UNL A   1      46.656  36.405  26.317  1.00  0.00    -0.237 OA
ATOM     93  O   UNL A   1      44.582  37.378  27.253  1.00  0.00    -0.237 OA
ATOM     94  O   UNL A   1      46.780  38.113  28.088  1.00  0.00    -0.744 OA
ENDBRANCH  87  91
ENDBRANCH  61  84
ENDBRANCH  35  36
ENDBRANCH  28  30
ENDBRANCH  27  28
ENDBRANCH   1  27
TORSDOF 18
ENDMDL
MODEL 3
REMARK VINA RESULT:      -9.5      5.488     11.597
REMARK SMILES CCc1cc(OC(F)(F)F)cc2c1O[C@@H](C(F)(F)F)C(C(=O)OCCOC(=O)c1ccc(-c3c4nc(c(-c5cc(S(=O)(=O)[O-])ccc5F)c5ccc([nH]5)c(-c5cc(S(=O)(=O)[O-])ccc5F)c5nc(c(-c6cc(S(=O)(=O)[O-])ccc6F)c6ccc3[nH]6)C=C5)C=C4)cc1)=C2
REMARK SMILES IDX 25 1 24 2 23 3 21 4 22 5 20 6 3 7 4 8 13 9 5 10 12 11 14 12
REMARK SMILES IDX 11 13 92 14 15 15 2 16 1 17 6 18 7 19 8 20 9 21 10 22 16 23
REMARK SMILES IDX 17 24 18 25 19 26 26 27 27 28 28 29 29 30 30 31 91 32 31 33
REMARK SMILES IDX 90 34 32 35 33 36 34 37 84 38 35 39 89 40 83 41 85 42 36 43
REMARK SMILES IDX 88 44 82 45 81 46 37 48 69 49 49 50 68 51 50 52 53 53 67 54
REMARK SMILES IDX 86 55 51 56 52 57 66 59 87 60 54 61 38 62 39 63 47 64 40 65
REMARK SMILES IDX 46 66 48 67 45 68 41 69 42 70 43 71 44 72 70 73 71 74 79 75
REMARK SMILES IDX 72 76 78 77 80 78 77 79 73 80 74 81 75 82 76 83 55 84 56 85
REMARK SMILES IDX 64 86 57 87 63 88 65 89 62 90 58 91 59 92 60 93 61 94
REMARK H PARENT 85 47 53 58
REMARK Flexibility Score: inf
ROOT
ATOM      1  C   UNL A   1      37.267  20.604  25.179  1.00  0.00     0.275 C 
ENDROOT
BRANCH   1   2
ATOM      2  C   UNL A   1      35.829  21.055  24.907  1.00  0.00     0.275 C 
BRANCH   2   3
ATOM      3  O   UNL A   1      35.660  22.477  25.087  1.00  0.00    -0.459 OA
BRANCH   3   4
ATOM      4  C   UNL A   1      35.417  23.190  23.954  1.00  0.00     0.338 C 
ATOM      5  O   UNL A   1      36.018  23.060  22.907  1.00  0.00    -0.246 OA
BRANCH   4   6
ATOM      6  C   UNL A   1      34.296  24.146  24.128  1.00  0.00     0.087 C 
ATOM      7  C   UNL A   1      30.973  26.665  24.488  1.00  0.00    -0.002 A 
ATOM      8  C   UNL A   1      31.150  27.976  24.951  1.00  0.00     0.054 A 
ATOM      9  C   UNL A   1      32.117  25.881  24.267  1.00  0.00     0.131 A 
ATOM     10  C   UNL A   1      32.431  28.480  25.203  1.00  0.00     0.130 A 
ATOM     11  C   UNL A   1      33.398  26.333  24.597  1.00  0.00     0.021 A 
ATOM     12  O   UNL A   1      31.936  24.686  23.628  1.00  0.00    -0.475 OA
ATOM     13  C   UNL A   1      33.547  27.642  25.064  1.00  0.00     0.058 A 
ATOM     14  C   UNL A   1      34.542  25.436  24.419  1.00  0.00     0.027 C 
ATOM     15  C   UNL A   1      32.872  23.635  23.974  1.00  0.00     0.316 C 
BRANCH   7  16
ATOM     16  C   UNL A   1      29.610  26.046  24.246  1.00  0.00     0.036 C 
ATOM     17  C   UNL A   1      28.519  26.953  23.694  1.00  0.00     0.009 C 
ENDBRANCH   7  16
BRANCH  10  18
ATOM     18  O   UNL A   1      32.718  29.758  25.602  1.00  0.00    -0.406 OA
BRANCH  18  19
ATOM     19  C   UNL A   1      32.514  30.070  26.973  1.00  0.00     0.573 C 
ATOM     20  F   UNL A   1      31.741  29.147  27.585  1.00  0.00    -0.132 F 
ATOM     21  F   UNL A   1      33.689  30.182  27.626  1.00  0.00    -0.132 F 
ATOM     22  F   UNL A   1      31.876  31.261  27.054  1.00  0.00    -0.132 F 
ENDBRANCH  18  19
ENDBRANCH  10  18
BRANCH  15  23
ATOM     23  C   UNL A   1      32.601  22.461  23.014  1.00  0.00     0.430 C 
ATOM     24  F   UNL A   1      32.998  21.278  23.532  1.00  0.00    -0.167 F 
ATOM     25  F   UNL A   1      31.266  22.335  22.792  1.00  0.00    -0.167 F 
ATOM     26  F   UNL A   1      33.187  22.633  21.809  1.00  0.00    -0.167 F 
ENDBRANCH  15  23
ENDBRANCH   4   6
ENDBRANCH   3   4
ENDBRANCH   2   3
ENDBRANCH   1   2
BRANCH   1  27
ATOM     27  O   UNL A   1      38.164  21.722  25.325  1.00  0.00    -0.458 OA
BRANCH  27  28
ATOM     28  C   UNL A   1      39.248  21.477  26.102  1.00  0.00     0.338 C 
ATOM     29  O   UNL A   1      39.838  20.412  26.203  1.00  0.00    -0.246 OA
BRANCH  28  30
ATOM     30  C   UNL A   1      39.763  22.735  26.679  1.00  0.00     0.060 A 
ATOM     31  C   UNL A   1      39.214  23.918  26.178  1.00  0.00     0.016 A 
ATOM     32  C   UNL A   1      40.759  22.789  27.656  1.00  0.00     0.016 A 
ATOM     33  C   UNL A   1      39.586  25.153  26.700  1.00  0.00     0.010 A 
ATOM     34  C   UNL A   1      41.185  24.037  28.136  1.00  0.00     0.010 A 
ATOM     35  C   UNL A   1      40.591  25.224  27.671  1.00  0.00    -0.014 A 
BRANCH  35  36
ATOM     36  C   UNL A   1      41.114  26.558  28.058  1.00  0.00     0.031 A 
ATOM     37  C   UNL A   1      42.545  26.888  27.742  1.00  0.00     0.074 A 
ATOM     38  C   UNL A   1      40.314  27.488  28.614  1.00  0.00     0.049 A 
ATOM     39  N   UNL A   1      43.225  27.976  27.994  1.00  0.00    -0.248 NA
ATOM     40  C   UNL A   1      43.305  25.851  27.029  1.00  0.00     0.031 C 
ATOM     41  C   UNL A   1      38.885  27.323  28.876  1.00  0.00     0.029 A 
ATOM     42  N   UNL A   1      40.593  28.760  29.053  1.00  0.00    -0.354 N 
ATOM     43  C   UNL A   1      44.493  27.760  27.467  1.00  0.00     0.074 A 
ATOM     44  C   UNL A   1      44.491  26.424  26.904  1.00  0.00     0.031 C 
ATOM     45  C   UNL A   1      38.416  28.449  29.447  1.00  0.00     0.029 A 
ATOM     46  C   UNL A   1      39.516  29.396  29.629  1.00  0.00     0.049 A 
ATOM     47  H   UNL A   1      41.479  29.179  28.963  1.00  0.00     0.167 HD
ATOM     48  C   UNL A   1      45.559  28.596  27.454  1.00  0.00     0.034 A 
ATOM     49  C   UNL A   1      39.440  30.588  30.258  1.00  0.00     0.034 A 
ATOM     50  C   UNL A   1      45.559  29.906  28.056  1.00  0.00     0.049 A 
ATOM     51  C   UNL A   1      40.684  31.443  30.361  1.00  0.00     0.074 A 
ATOM     52  C   UNL A   1      46.595  30.821  28.129  1.00  0.00     0.029 A 
ATOM     53  N   UNL A   1      44.477  30.482  28.711  1.00  0.00    -0.354 N 
ATOM     54  N   UNL A   1      41.886  31.222  29.878  1.00  0.00    -0.248 NA
ATOM     55  C   UNL A   1      40.560  32.713  31.092  1.00  0.00     0.031 C 
ATOM     56  C   UNL A   1      46.167  31.908  28.898  1.00  0.00     0.029 A 
ATOM     57  C   UNL A   1      44.833  31.720  29.223  1.00  0.00     0.049 A 
ATOM     58  H   UNL A   1      43.587  30.070  28.800  1.00  0.00     0.167 HD
ATOM     59  C   UNL A   1      42.644  32.344  30.211  1.00  0.00     0.074 A 
ATOM     60  C   UNL A   1      41.764  33.242  30.927  1.00  0.00     0.031 C 
ATOM     61  C   UNL A   1      43.949  32.611  29.940  1.00  0.00     0.034 A 
BRANCH  48  62
ATOM     62  C   UNL A   1      46.833  28.075  26.835  1.00  0.00     0.023 A 
ATOM     63  C   UNL A   1      47.083  28.177  25.455  1.00  0.00     0.031 A 
ATOM     64  C   UNL A   1      47.791  27.423  27.632  1.00  0.00     0.131 A 
ATOM     65  C   UNL A   1      48.223  27.571  24.905  1.00  0.00     0.055 A 
ATOM     66  C   UNL A   1      48.965  26.897  27.091  1.00  0.00     0.041 A 
ATOM     67  F   UNL A   1      47.592  27.270  28.951  1.00  0.00    -0.206 F 
ATOM     68  C   UNL A   1      49.179  26.955  25.717  1.00  0.00     0.022 A 
BRANCH  65  69
ATOM     69  S   UNL A   1      48.359  27.458  23.100  1.00  0.00     0.124 S 
ATOM     70  O   UNL A   1      49.639  28.118  22.858  1.00  0.00    -0.237 OA
ATOM     71  O   UNL A   1      48.328  26.018  22.870  1.00  0.00    -0.237 OA
ATOM     72  O   UNL A   1      47.188  28.192  22.622  1.00  0.00    -0.744 OA
ENDBRANCH  65  69
ENDBRANCH  48  62
BRANCH  49  73
ATOM     73  C   UNL A   1      38.167  31.032  30.905  1.00  0.00     0.023 A 
ATOM     74  C   UNL A   1      37.237  31.832  30.222  1.00  0.00     0.031 A 
ATOM     75  C   UNL A   1      37.908  30.736  32.257  1.00  0.00     0.131 A 
ATOM     76  C   UNL A   1      36.125  32.354  30.904  1.00  0.00     0.055 A 
ATOM     77  C   UNL A   1      36.769  31.206  32.913  1.00  0.00     0.041 A 
ATOM     78  F   UNL A   1      38.770  29.990  32.967  1.00  0.00    -0.206 F 
ATOM     79  C   UNL A   1      35.877  32.033  32.240  1.00  0.00     0.022 A 
BRANCH  76  80
ATOM     80  S   UNL A   1      35.066  33.558  30.053  1.00  0.00     0.124 S 
ATOM     81  O   UNL A   1      34.614  34.390  31.162  1.00  0.00    -0.237 OA
ATOM     82  O   UNL A   1      35.999  34.180  29.121  1.00  0.00    -0.237 OA
ATOM     83  O   UNL A   1      34.033  32.727  29.435  1.00  0.00    -0.744 OA
ENDBRANCH  76  80
ENDBRANCH  49  73
BRANCH  61  84
ATOM     84  C   UNL A   1      44.487  33.960  30.363  1.00  0.00     0.023 A 
ATOM     85  C   UNL A   1      44.351  35.108  29.562  1.00  0.00     0.031 A 
ATOM     86  C   UNL A   1      45.145  34.096  31.600  1.00  0.00     0.131 A 
ATOM     87  C   UNL A   1      44.912  36.325  29.982  1.00  0.00     0.055 A 
ATOM     88  C   UNL A   1      45.641  35.323  32.042  1.00  0.00     0.041 A 
ATOM     89  F   UNL A   1      45.310  33.035  32.406  1.00  0.00    -0.206 F 
ATOM     90  C   UNL A   1      45.538  36.443  31.225  1.00  0.00     0.022 A 
BRANCH  87  91
ATOM     91  S   UNL A   1      44.899  37.734  28.839  1.00  0.00     0.124 S 
ATOM     92  O   UNL A   1      44.147  38.731  29.593  1.00  0.00    -0.237 OA
ATOM     93  O   UNL A   1      46.322  38.006  28.662  1.00  0.00    -0.237 OA
ATOM     94  O   UNL A   1      44.219  37.210  27.656  1.00  0.00    -0.744 OA
ENDBRANCH  87  91
ENDBRANCH  61  84
ENDBRANCH  35  36
ENDBRANCH  28  30
ENDBRANCH  27  28
ENDBRANCH   1  27
TORSDOF 18
ENDMDL
