MODEL 1
REMARK VINA RESULT:     -13.8      0.000      0.000
REMARK SMILES Cc1ccc(C(=O)OCCOC(=O)c2ccc(-c3c4nc(c(-c5cc(S(=O)(=O)[O-])ccc5F)c5ccc([nH]5)c(-c5cc(S(=O)(=O)[O-])ccc5F)c5nc(c(-c6cc(S(=O)(=O)[O-])ccc6F)c6ccc3[nH]6)C=C5)C=C4)cc2)cc1NC(=O)c1nn(C)c(=O)c2ccccc12
REMARK SMILES IDX 10 1 9 2 8 3 6 4 7 5 5 6 1 7 2 8 3 9 78 10 4 11 77 12 79 13
REMARK SMILES IDX 80 14 81 16 82 17 83 18 93 19 84 20 88 21 92 22 85 23 86 24
REMARK SMILES IDX 89 25 91 26 87 27 90 28 11 29 12 30 13 31 14 32 15 33 76 34
REMARK SMILES IDX 16 35 75 36 17 37 18 38 19 39 69 40 20 41 74 42 68 43 70 44
REMARK SMILES IDX 21 45 73 46 67 47 66 48 22 50 54 51 34 52 53 53 35 54 38 55
REMARK SMILES IDX 52 56 71 57 36 58 37 59 51 61 72 62 39 63 23 64 24 65 32 66
REMARK SMILES IDX 25 67 31 68 33 69 30 70 26 71 27 72 28 73 29 74 55 75 56 76
REMARK SMILES IDX 64 77 57 78 63 79 65 80 62 81 58 82 59 83 60 84 61 85 40 86
REMARK SMILES IDX 41 87 49 88 42 89 48 90 50 91 47 92 43 93 44 94 45 95 46 96
REMARK H PARENT 79 15 70 49 38 60
REMARK Flexibility Score: inf
ROOT
ATOM      1  C   UNL A   1      38.270  21.774  25.503  1.00  0.00     0.275 C 
ENDROOT
BRANCH   1   2
ATOM      2  C   UNL A   1      36.949  21.744  24.726  1.00  0.00     0.275 C 
BRANCH   2   3
ATOM      3  O   UNL A   1      36.060  22.817  25.095  1.00  0.00    -0.458 OA
BRANCH   3   4
ATOM      4  C   UNL A   1      35.078  22.394  25.914  1.00  0.00     0.338 C 
ATOM      5  O   UNL A   1      35.190  21.493  26.745  1.00  0.00    -0.246 OA
BRANCH   4   6
ATOM      6  C   UNL A   1      33.724  22.885  25.613  1.00  0.00     0.062 A 
ATOM      7  C   UNL A   1      30.338  24.034  23.227  1.00  0.00     0.046 C 
ATOM      8  C   UNL A   1      31.555  23.702  24.048  1.00  0.00    -0.027 A 
ATOM      9  C   UNL A   1      31.410  22.712  25.063  1.00  0.00     0.006 A 
ATOM     10  C   UNL A   1      32.827  24.260  23.818  1.00  0.00     0.045 A 
ATOM     11  C   UNL A   1      32.504  22.271  25.827  1.00  0.00     0.016 A 
ATOM     12  C   UNL A   1      33.823  23.923  24.699  1.00  0.00     0.042 A 
BRANCH  10  13
ATOM     13  N   UNL A   1      33.184  24.955  22.635  1.00  0.00    -0.320 N 
ATOM     14  C   UNL A   1      33.005  26.293  22.249  1.00  0.00     0.276 C 
ATOM     15  H   UNL A   1      33.640  24.398  21.963  1.00  0.00     0.170 HD
ATOM     16  O   UNL A   1      33.713  26.757  21.356  1.00  0.00    -0.267 OA
BRANCH  14  17
ATOM     17  C   UNL A   1      31.899  27.215  22.793  1.00  0.00     0.157 A 
ATOM     18  N   UNL A   1      30.804  27.334  22.083  1.00  0.00    -0.164 NA
ATOM     19  C   UNL A   1      32.060  28.008  24.059  1.00  0.00     0.020 A 
ATOM     20  N   UNL A   1      29.833  28.182  22.612  1.00  0.00    -0.232 N 
ATOM     21  C   UNL A   1      31.313  29.188  24.150  1.00  0.00     0.051 A 
ATOM     22  C   UNL A   1      32.738  27.592  25.197  1.00  0.00     0.011 A 
ATOM     23  C   UNL A   1      28.789  27.525  23.400  1.00  0.00     0.178 C 
ATOM     24  C   UNL A   1      30.262  29.396  23.142  1.00  0.00     0.274 A 
ATOM     25  C   UNL A   1      31.302  29.983  25.302  1.00  0.00     0.014 A 
ATOM     26  C   UNL A   1      32.687  28.345  26.383  1.00  0.00     0.001 A 
ATOM     27  O   UNL A   1      29.685  30.475  23.011  1.00  0.00    -0.267 OA
ATOM     28  C   UNL A   1      31.990  29.551  26.429  1.00  0.00     0.001 A 
ENDBRANCH  14  17
ENDBRANCH  10  13
ENDBRANCH   4   6
ENDBRANCH   3   4
ENDBRANCH   2   3
ENDBRANCH   1   2
BRANCH   1  29
ATOM     29  O   UNL A   1      38.662  23.036  26.078  1.00  0.00    -0.458 OA
BRANCH  29  30
ATOM     30  C   UNL A   1      39.921  23.141  26.579  1.00  0.00     0.338 C 
ATOM     31  O   UNL A   1      40.850  22.396  26.308  1.00  0.00    -0.246 OA
BRANCH  30  32
ATOM     32  C   UNL A   1      40.086  24.496  27.178  1.00  0.00     0.060 A 
ATOM     33  C   UNL A   1      40.550  25.562  26.391  1.00  0.00     0.016 A 
ATOM     34  C   UNL A   1      39.494  24.746  28.419  1.00  0.00     0.016 A 
ATOM     35  C   UNL A   1      40.383  26.879  26.827  1.00  0.00     0.010 A 
ATOM     36  C   UNL A   1      39.187  26.033  28.775  1.00  0.00     0.010 A 
ATOM     37  C   UNL A   1      39.693  27.101  28.020  1.00  0.00    -0.014 A 
BRANCH  37  38
ATOM     38  C   UNL A   1      39.775  28.330  28.792  1.00  0.00     0.031 A 
ATOM     39  C   UNL A   1      38.845  29.468  28.654  1.00  0.00     0.074 A 
ATOM     40  C   UNL A   1      40.724  28.247  29.754  1.00  0.00     0.049 A 
ATOM     41  N   UNL A   1      39.036  30.617  29.199  1.00  0.00    -0.248 NA
ATOM     42  C   UNL A   1      37.605  29.424  27.890  1.00  0.00     0.031 C 
ATOM     43  C   UNL A   1      40.990  29.102  30.895  1.00  0.00     0.029 A 
ATOM     44  N   UNL A   1      41.795  27.349  29.812  1.00  0.00    -0.354 N 
ATOM     45  C   UNL A   1      37.847  31.320  29.167  1.00  0.00     0.074 A 
ATOM     46  C   UNL A   1      37.018  30.578  28.255  1.00  0.00     0.031 C 
ATOM     47  C   UNL A   1      42.282  28.932  31.247  1.00  0.00     0.029 A 
ATOM     48  C   UNL A   1      42.890  28.092  30.218  1.00  0.00     0.049 A 
ATOM     49  H   UNL A   1      41.775  26.386  29.607  1.00  0.00     0.167 HD
ATOM     50  C   UNL A   1      37.688  32.340  30.063  1.00  0.00     0.034 A 
ATOM     51  C   UNL A   1      43.837  28.512  29.320  1.00  0.00     0.034 A 
ATOM     52  C   UNL A   1      38.965  32.625  30.718  1.00  0.00     0.049 A 
ATOM     53  C   UNL A   1      43.907  30.027  29.299  1.00  0.00     0.074 A 
ATOM     54  C   UNL A   1      39.482  32.263  31.950  1.00  0.00     0.029 A 
ATOM     55  N   UNL A   1      40.037  33.057  29.944  1.00  0.00    -0.354 N 
ATOM     56  N   UNL A   1      42.874  30.811  29.465  1.00  0.00    -0.248 NA
ATOM     57  C   UNL A   1      45.163  30.758  29.183  1.00  0.00     0.031 C 
ATOM     58  C   UNL A   1      40.898  32.350  31.860  1.00  0.00     0.029 A 
ATOM     59  C   UNL A   1      41.228  32.798  30.591  1.00  0.00     0.049 A 
ATOM     60  H   UNL A   1      39.958  33.486  29.063  1.00  0.00     0.167 HD
ATOM     61  C   UNL A   1      43.313  32.101  29.616  1.00  0.00     0.074 A 
ATOM     62  C   UNL A   1      44.749  32.020  29.391  1.00  0.00     0.031 C 
ATOM     63  C   UNL A   1      42.495  33.140  29.969  1.00  0.00     0.034 A 
BRANCH  50  64
ATOM     64  C   UNL A   1      36.369  32.869  30.602  1.00  0.00     0.023 A 
ATOM     65  C   UNL A   1      35.577  33.683  29.754  1.00  0.00     0.031 A 
ATOM     66  C   UNL A   1      35.864  32.708  31.904  1.00  0.00     0.131 A 
ATOM     67  C   UNL A   1      34.431  34.360  30.213  1.00  0.00     0.055 A 
ATOM     68  C   UNL A   1      34.724  33.388  32.371  1.00  0.00     0.041 A 
ATOM     69  F   UNL A   1      36.427  31.863  32.775  1.00  0.00    -0.206 F 
ATOM     70  C   UNL A   1      34.010  34.234  31.530  1.00  0.00     0.022 A 
BRANCH  67  71
ATOM     71  S   UNL A   1      33.528  35.435  29.062  1.00  0.00     0.124 S 
ATOM     72  O   UNL A   1      34.591  35.892  28.171  1.00  0.00    -0.237 OA
ATOM     73  O   UNL A   1      32.550  34.521  28.482  1.00  0.00    -0.237 OA
ATOM     74  O   UNL A   1      32.965  36.467  29.930  1.00  0.00    -0.744 OA
ENDBRANCH  67  71
ENDBRANCH  50  64
BRANCH  51  75
ATOM     75  C   UNL A   1      44.078  27.631  28.125  1.00  0.00     0.023 A 
ATOM     76  C   UNL A   1      44.351  26.261  28.342  1.00  0.00     0.031 A 
ATOM     77  C   UNL A   1      43.822  28.021  26.801  1.00  0.00     0.131 A 
ATOM     78  C   UNL A   1      44.225  25.321  27.306  1.00  0.00     0.055 A 
ATOM     79  C   UNL A   1      43.758  27.086  25.752  1.00  0.00     0.041 A 
ATOM     80  F   UNL A   1      43.547  29.298  26.502  1.00  0.00    -0.206 F 
ATOM     81  C   UNL A   1      43.933  25.726  26.005  1.00  0.00     0.022 A 
BRANCH  78  82
ATOM     82  S   UNL A   1      44.198  23.556  27.744  1.00  0.00     0.124 S 
ATOM     83  O   UNL A   1      44.033  22.921  26.442  1.00  0.00    -0.237 OA
ATOM     84  O   UNL A   1      45.500  23.382  28.384  1.00  0.00    -0.237 OA
ATOM     85  O   UNL A   1      43.057  23.451  28.648  1.00  0.00    -0.744 OA
ENDBRANCH  78  82
ENDBRANCH  51  75
BRANCH  63  86
ATOM     86  C   UNL A   1      42.871  34.596  29.876  1.00  0.00     0.023 A 
ATOM     87  C   UNL A   1      42.632  35.354  28.726  1.00  0.00     0.031 A 
ATOM     88  C   UNL A   1      43.390  35.303  30.987  1.00  0.00     0.131 A 
ATOM     89  C   UNL A   1      43.010  36.701  28.658  1.00  0.00     0.055 A 
ATOM     90  C   UNL A   1      43.665  36.671  30.952  1.00  0.00     0.041 A 
ATOM     91  F   UNL A   1      43.641  34.701  32.160  1.00  0.00    -0.206 F 
ATOM     92  C   UNL A   1      43.499  37.376  29.772  1.00  0.00     0.022 A 
BRANCH  89  93
ATOM     93  S   UNL A   1      42.941  37.508  27.042  1.00  0.00     0.124 S 
ATOM     94  O   UNL A   1      44.282  38.078  26.937  1.00  0.00    -0.237 OA
ATOM     95  O   UNL A   1      42.658  36.391  26.145  1.00  0.00    -0.237 OA
ATOM     96  O   UNL A   1      41.862  38.481  27.189  1.00  0.00    -0.744 OA
ENDBRANCH  89  93
ENDBRANCH  63  86
ENDBRANCH  37  38
ENDBRANCH  30  32
ENDBRANCH  29  30
ENDBRANCH   1  29
TORSDOF 16
ENDMDL
MODEL 2
REMARK VINA RESULT:     -13.7      3.944     10.179
REMARK SMILES Cc1ccc(C(=O)OCCOC(=O)c2ccc(-c3c4nc(c(-c5cc(S(=O)(=O)[O-])ccc5F)c5ccc([nH]5)c(-c5cc(S(=O)(=O)[O-])ccc5F)c5nc(c(-c6cc(S(=O)(=O)[O-])ccc6F)c6ccc3[nH]6)C=C5)C=C4)cc2)cc1NC(=O)c1nn(C)c(=O)c2ccccc12
REMARK SMILES IDX 10 1 9 2 8 3 6 4 7 5 5 6 1 7 2 8 3 9 78 10 4 11 77 12 79 13
REMARK SMILES IDX 80 14 81 16 82 17 83 18 93 19 84 20 88 21 92 22 85 23 86 24
REMARK SMILES IDX 89 25 91 26 87 27 90 28 11 29 12 30 13 31 14 32 15 33 76 34
REMARK SMILES IDX 16 35 75 36 17 37 18 38 19 39 69 40 20 41 74 42 68 43 70 44
REMARK SMILES IDX 21 45 73 46 67 47 66 48 22 50 54 51 34 52 53 53 35 54 38 55
REMARK SMILES IDX 52 56 71 57 36 58 37 59 51 61 72 62 39 63 23 64 24 65 32 66
REMARK SMILES IDX 25 67 31 68 33 69 30 70 26 71 27 72 28 73 29 74 55 75 56 76
REMARK SMILES IDX 64 77 57 78 63 79 65 80 62 81 58 82 59 83 60 84 61 85 40 86
REMARK SMILES IDX 41 87 49 88 42 89 48 90 50 91 47 92 43 93 44 94 45 95 46 96
REMARK H PARENT 79 15 70 49 38 60
REMARK Flexibility Score: inf
ROOT
ATOM      1  C   UNL A   1      34.506  29.920  27.221  1.00  0.00     0.275 C 
ENDROOT
BRANCH   1   2
ATOM      2  C   UNL A   1      33.203  30.724  27.152  1.00  0.00     0.275 C 
BRANCH   2   3
ATOM      3  O   UNL A   1      32.293  30.226  26.152  1.00  0.00    -0.458 OA
BRANCH   3   4
ATOM      4  C   UNL A   1      31.745  29.050  26.516  1.00  0.00     0.338 C 
ATOM      5  O   UNL A   1      31.441  28.740  27.667  1.00  0.00    -0.246 OA
BRANCH   4   6
ATOM      6  C   UNL A   1      31.742  27.991  25.495  1.00  0.00     0.062 A 
ATOM      7  C   UNL A   1      30.323  24.587  23.286  1.00  0.00     0.046 C 
ATOM      8  C   UNL A   1      30.846  25.729  24.114  1.00  0.00    -0.027 A 
ATOM      9  C   UNL A   1      31.149  26.945  23.435  1.00  0.00     0.006 A 
ATOM     10  C   UNL A   1      30.980  25.680  25.515  1.00  0.00     0.045 A 
ATOM     11  C   UNL A   1      31.563  28.096  24.128  1.00  0.00     0.016 A 
ATOM     12  C   UNL A   1      31.549  26.770  26.124  1.00  0.00     0.042 A 
BRANCH  10  13
ATOM     13  N   UNL A   1      30.378  24.692  26.333  1.00  0.00    -0.320 N 
ATOM     14  C   UNL A   1      30.800  23.404  26.703  1.00  0.00     0.276 C 
ATOM     15  H   UNL A   1      29.508  24.956  26.709  1.00  0.00     0.170 HD
ATOM     16  O   UNL A   1      30.309  22.879  27.702  1.00  0.00    -0.267 OA
BRANCH  14  17
ATOM     17  C   UNL A   1      31.770  22.536  25.882  1.00  0.00     0.157 A 
ATOM     18  N   UNL A   1      31.260  21.558  25.174  1.00  0.00    -0.164 NA
ATOM     19  C   UNL A   1      33.258  22.739  25.913  1.00  0.00     0.020 A 
ATOM     20  N   UNL A   1      32.175  20.797  24.451  1.00  0.00    -0.232 N 
ATOM     21  C   UNL A   1      34.043  21.614  25.639  1.00  0.00     0.051 A 
ATOM     22  C   UNL A   1      33.909  23.961  26.016  1.00  0.00     0.011 A 
ATOM     23  C   UNL A   1      32.357  21.196  23.054  1.00  0.00     0.178 C 
ATOM     24  C   UNL A   1      33.355  20.433  25.093  1.00  0.00     0.274 A 
ATOM     25  C   UNL A   1      35.439  21.673  25.554  1.00  0.00     0.014 A 
ATOM     26  C   UNL A   1      35.304  24.050  25.870  1.00  0.00     0.001 A 
ATOM     27  O   UNL A   1      33.908  19.337  25.003  1.00  0.00    -0.267 OA
ATOM     28  C   UNL A   1      36.071  22.905  25.663  1.00  0.00     0.001 A 
ENDBRANCH  14  17
ENDBRANCH  10  13
ENDBRANCH   4   6
ENDBRANCH   3   4
ENDBRANCH   2   3
ENDBRANCH   1   2
BRANCH   1  29
ATOM     29  O   UNL A   1      35.711  30.651  27.521  1.00  0.00    -0.458 OA
BRANCH  29  30
ATOM     30  C   UNL A   1      36.213  30.560  28.780  1.00  0.00     0.338 C 
ATOM     31  O   UNL A   1      35.605  30.841  29.802  1.00  0.00    -0.246 OA
BRANCH  30  32
ATOM     32  C   UNL A   1      37.440  29.715  28.747  1.00  0.00     0.060 A 
ATOM     33  C   UNL A   1      38.288  29.749  27.628  1.00  0.00     0.016 A 
ATOM     34  C   UNL A   1      37.879  29.141  29.943  1.00  0.00     0.016 A 
ATOM     35  C   UNL A   1      39.589  29.247  27.720  1.00  0.00     0.010 A 
ATOM     36  C   UNL A   1      39.198  28.794  30.082  1.00  0.00     0.010 A 
ATOM     37  C   UNL A   1      40.033  28.778  28.957  1.00  0.00    -0.014 A 
BRANCH  37  38
ATOM     38  C   UNL A   1      41.171  27.889  29.130  1.00  0.00     0.031 A 
ATOM     39  C   UNL A   1      41.182  26.461  28.760  1.00  0.00     0.074 A 
ATOM     40  C   UNL A   1      42.269  28.567  29.543  1.00  0.00     0.049 A 
ATOM     41  N   UNL A   1      42.118  25.643  29.089  1.00  0.00    -0.248 NA
ATOM     42  C   UNL A   1      40.138  25.810  27.979  1.00  0.00     0.031 C 
ATOM     43  C   UNL A   1      43.660  28.162  29.607  1.00  0.00     0.029 A 
ATOM     44  N   UNL A   1      42.308  29.829  30.145  1.00  0.00    -0.354 N 
ATOM     45  C   UNL A   1      42.002  24.507  28.312  1.00  0.00     0.074 A 
ATOM     46  C   UNL A   1      40.699  24.617  27.712  1.00  0.00     0.031 C 
ATOM     47  C   UNL A   1      44.275  28.939  30.523  1.00  0.00     0.029 A 
ATOM     48  C   UNL A   1      43.231  29.729  31.172  1.00  0.00     0.049 A 
ATOM     49  H   UNL A   1      41.787  30.625  29.891  1.00  0.00     0.167 HD
ATOM     50  C   UNL A   1      43.113  23.725  28.160  1.00  0.00     0.034 A 
ATOM     51  C   UNL A   1      42.831  29.584  32.475  1.00  0.00     0.034 A 
ATOM     52  C   UNL A   1      44.151  24.158  29.096  1.00  0.00     0.049 A 
ATOM     53  C   UNL A   1      43.353  28.277  33.042  1.00  0.00     0.074 A 
ATOM     54  C   UNL A   1      45.276  24.950  28.939  1.00  0.00     0.029 A 
ATOM     55  N   UNL A   1      43.903  24.081  30.462  1.00  0.00    -0.354 N 
ATOM     56  N   UNL A   1      43.485  27.177  32.348  1.00  0.00    -0.248 NA
ATOM     57  C   UNL A   1      43.847  28.150  34.408  1.00  0.00     0.031 C 
ATOM     58  C   UNL A   1      45.616  25.464  30.220  1.00  0.00     0.029 A 
ATOM     59  C   UNL A   1      44.724  24.953  31.147  1.00  0.00     0.049 A 
ATOM     60  H   UNL A   1      43.237  23.489  30.880  1.00  0.00     0.167 HD
ATOM     61  C   UNL A   1      44.186  26.262  33.091  1.00  0.00     0.074 A 
ATOM     62  C   UNL A   1      44.353  26.905  34.386  1.00  0.00     0.031 C 
ATOM     63  C   UNL A   1      44.633  25.069  32.592  1.00  0.00     0.034 A 
BRANCH  50  64
ATOM     64  C   UNL A   1      43.414  22.803  26.990  1.00  0.00     0.023 A 
ATOM     65  C   UNL A   1      42.842  21.506  26.995  1.00  0.00     0.031 A 
ATOM     66  C   UNL A   1      44.278  23.062  25.912  1.00  0.00     0.131 A 
ATOM     67  C   UNL A   1      43.195  20.522  26.052  1.00  0.00     0.055 A 
ATOM     68  C   UNL A   1      44.641  22.080  24.972  1.00  0.00     0.041 A 
ATOM     69  F   UNL A   1      44.787  24.280  25.698  1.00  0.00    -0.206 F 
ATOM     70  C   UNL A   1      44.113  20.796  25.048  1.00  0.00     0.022 A 
BRANCH  67  71
ATOM     71  S   UNL A   1      42.457  18.869  26.192  1.00  0.00     0.124 S 
ATOM     72  O   UNL A   1      41.082  19.110  25.764  1.00  0.00    -0.237 OA
ATOM     73  O   UNL A   1      43.284  18.080  25.287  1.00  0.00    -0.237 OA
ATOM     74  O   UNL A   1      42.613  18.545  27.609  1.00  0.00    -0.744 OA
ENDBRANCH  67  71
ENDBRANCH  50  64
BRANCH  51  75
ATOM     75  C   UNL A   1      41.522  30.218  32.859  1.00  0.00     0.023 A 
ATOM     76  C   UNL A   1      41.323  31.584  32.558  1.00  0.00     0.031 A 
ATOM     77  C   UNL A   1      40.398  29.494  33.285  1.00  0.00     0.131 A 
ATOM     78  C   UNL A   1      40.035  32.145  32.546  1.00  0.00     0.055 A 
ATOM     79  C   UNL A   1      39.117  30.075  33.333  1.00  0.00     0.041 A 
ATOM     80  F   UNL A   1      40.492  28.192  33.587  1.00  0.00    -0.206 F 
ATOM     81  C   UNL A   1      38.926  31.398  32.936  1.00  0.00     0.022 A 
BRANCH  78  82
ATOM     82  S   UNL A   1      39.813  33.775  31.770  1.00  0.00     0.124 S 
ATOM     83  O   UNL A   1      41.185  34.153  31.454  1.00  0.00    -0.237 OA
ATOM     84  O   UNL A   1      38.956  33.455  30.631  1.00  0.00    -0.237 OA
ATOM     85  O   UNL A   1      39.166  34.561  32.816  1.00  0.00    -0.744 OA
ENDBRANCH  78  82
ENDBRANCH  51  75
BRANCH  63  86
ATOM     86  C   UNL A   1      45.154  23.931  33.431  1.00  0.00     0.023 A 
ATOM     87  C   UNL A   1      46.467  23.899  33.909  1.00  0.00     0.031 A 
ATOM     88  C   UNL A   1      44.308  22.884  33.872  1.00  0.00     0.131 A 
ATOM     89  C   UNL A   1      46.931  22.818  34.670  1.00  0.00     0.055 A 
ATOM     90  C   UNL A   1      44.744  21.866  34.720  1.00  0.00     0.041 A 
ATOM     91  F   UNL A   1      43.018  22.810  33.509  1.00  0.00    -0.206 F 
ATOM     92  C   UNL A   1      46.073  21.814  35.106  1.00  0.00     0.022 A 
BRANCH  89  93
ATOM     93  S   UNL A   1      48.710  22.718  34.980  1.00  0.00     0.124 S 
ATOM     94  O   UNL A   1      48.796  23.183  36.363  1.00  0.00    -0.237 OA
ATOM     95  O   UNL A   1      48.985  21.300  34.772  1.00  0.00    -0.237 OA
ATOM     96  O   UNL A   1      49.284  23.619  33.985  1.00  0.00    -0.744 OA
ENDBRANCH  89  93
ENDBRANCH  63  86
ENDBRANCH  37  38
ENDBRANCH  30  32
ENDBRANCH  29  30
ENDBRANCH   1  29
TORSDOF 16
ENDMDL
MODEL 3
REMARK VINA RESULT:     -13.4      3.442      9.746
REMARK SMILES Cc1ccc(C(=O)OCCOC(=O)c2ccc(-c3c4nc(c(-c5cc(S(=O)(=O)[O-])ccc5F)c5ccc([nH]5)c(-c5cc(S(=O)(=O)[O-])ccc5F)c5nc(c(-c6cc(S(=O)(=O)[O-])ccc6F)c6ccc3[nH]6)C=C5)C=C4)cc2)cc1NC(=O)c1nn(C)c(=O)c2ccccc12
REMARK SMILES IDX 10 1 9 2 8 3 6 4 7 5 5 6 1 7 2 8 3 9 78 10 4 11 77 12 79 13
REMARK SMILES IDX 80 14 81 16 82 17 83 18 93 19 84 20 88 21 92 22 85 23 86 24
REMARK SMILES IDX 89 25 91 26 87 27 90 28 11 29 12 30 13 31 14 32 15 33 76 34
REMARK SMILES IDX 16 35 75 36 17 37 18 38 19 39 69 40 20 41 74 42 68 43 70 44
REMARK SMILES IDX 21 45 73 46 67 47 66 48 22 50 54 51 34 52 53 53 35 54 38 55
REMARK SMILES IDX 52 56 71 57 36 58 37 59 51 61 72 62 39 63 23 64 24 65 32 66
REMARK SMILES IDX 25 67 31 68 33 69 30 70 26 71 27 72 28 73 29 74 55 75 56 76
REMARK SMILES IDX 64 77 57 78 63 79 65 80 62 81 58 82 59 83 60 84 61 85 40 86
REMARK SMILES IDX 41 87 49 88 42 89 48 90 50 91 47 92 43 93 44 94 45 95 46 96
REMARK H PARENT 79 15 70 49 38 60
REMARK Flexibility Score: inf
ROOT
ATOM      1  C   UNL A   1      32.099  30.791  26.588  1.00  0.00     0.275 C 
ENDROOT
BRANCH   1   2
ATOM      2  C   UNL A   1      31.861  29.299  26.844  1.00  0.00     0.275 C 
BRANCH   2   3
ATOM      3  O   UNL A   1      33.002  28.646  27.435  1.00  0.00    -0.458 OA
BRANCH   3   4
ATOM      4  C   UNL A   1      33.975  28.424  26.529  1.00  0.00     0.338 C 
ATOM      5  O   UNL A   1      34.970  29.131  26.374  1.00  0.00    -0.246 OA
BRANCH   4   6
ATOM      6  C   UNL A   1      33.691  27.404  25.508  1.00  0.00     0.062 A 
ATOM      7  C   UNL A   1      31.450  24.438  23.350  1.00  0.00     0.046 C 
ATOM      8  C   UNL A   1      32.251  25.422  24.159  1.00  0.00    -0.027 A 
ATOM      9  C   UNL A   1      32.799  26.543  23.470  1.00  0.00     0.006 A 
ATOM     10  C   UNL A   1      32.423  25.328  25.553  1.00  0.00     0.045 A 
ATOM     11  C   UNL A   1      33.491  27.561  24.148  1.00  0.00     0.016 A 
ATOM     12  C   UNL A   1      33.248  26.253  26.141  1.00  0.00     0.042 A 
BRANCH  10  13
ATOM     13  N   UNL A   1      31.642  24.495  26.392  1.00  0.00    -0.320 N 
ATOM     14  C   UNL A   1      31.739  23.129  26.701  1.00  0.00     0.276 C 
ATOM     15  H   UNL A   1      30.897  24.959  26.839  1.00  0.00     0.170 HD
ATOM     16  O   UNL A   1      31.197  22.708  27.723  1.00  0.00    -0.267 OA
BRANCH  14  17
ATOM     17  C   UNL A   1      32.393  22.075  25.790  1.00  0.00     0.157 A 
ATOM     18  N   UNL A   1      31.606  21.212  25.195  1.00  0.00    -0.164 NA
ATOM     19  C   UNL A   1      33.882  21.975  25.612  1.00  0.00     0.020 A 
ATOM     20  N   UNL A   1      32.242  20.276  24.384  1.00  0.00    -0.232 N 
ATOM     21  C   UNL A   1      34.382  20.712  25.278  1.00  0.00     0.051 A 
ATOM     22  C   UNL A   1      34.769  23.042  25.579  1.00  0.00     0.011 A 
ATOM     23  C   UNL A   1      32.302  20.615  22.962  1.00  0.00     0.178 C 
ATOM     24  C   UNL A   1      33.405  19.688  24.875  1.00  0.00     0.274 A 
ATOM     25  C   UNL A   1      35.737  20.488  25.002  1.00  0.00     0.014 A 
ATOM     26  C   UNL A   1      36.120  22.847  25.243  1.00  0.00     0.001 A 
ATOM     27  O   UNL A   1      33.712  18.502  24.752  1.00  0.00    -0.267 OA
ATOM     28  C   UNL A   1      36.609  21.569  24.978  1.00  0.00     0.001 A 
ENDBRANCH  14  17
ENDBRANCH  10  13
ENDBRANCH   4   6
ENDBRANCH   3   4
ENDBRANCH   2   3
ENDBRANCH   1   2
BRANCH   1  29
ATOM     29  O   UNL A   1      32.055  31.666  27.732  1.00  0.00    -0.458 OA
BRANCH  29  30
ATOM     30  C   UNL A   1      32.679  32.869  27.636  1.00  0.00     0.338 C 
ATOM     31  O   UNL A   1      32.114  33.950  27.554  1.00  0.00    -0.246 OA
BRANCH  30  32
ATOM     32  C   UNL A   1      34.106  32.703  28.034  1.00  0.00     0.060 A 
ATOM     33  C   UNL A   1      35.060  33.656  27.644  1.00  0.00     0.016 A 
ATOM     34  C   UNL A   1      34.409  31.773  29.031  1.00  0.00     0.016 A 
ATOM     35  C   UNL A   1      36.302  33.704  28.283  1.00  0.00     0.010 A 
ATOM     36  C   UNL A   1      35.558  31.917  29.764  1.00  0.00     0.010 A 
ATOM     37  C   UNL A   1      36.536  32.831  29.347  1.00  0.00    -0.014 A 
BRANCH  37  38
ATOM     38  C   UNL A   1      37.858  32.486  29.842  1.00  0.00     0.031 A 
ATOM     39  C   UNL A   1      38.591  31.256  29.484  1.00  0.00     0.074 A 
ATOM     40  C   UNL A   1      38.397  33.498  30.563  1.00  0.00     0.049 A 
ATOM     41  N   UNL A   1      39.668  30.868  30.069  1.00  0.00    -0.248 NA
ATOM     42  C   UNL A   1      38.183  30.339  28.427  1.00  0.00     0.031 C 
ATOM     43  C   UNL A   1      39.753  33.707  31.030  1.00  0.00     0.029 A 
ATOM     44  N   UNL A   1      37.719  34.569  31.156  1.00  0.00    -0.354 N 
ATOM     45  C   UNL A   1      40.271  29.903  29.286  1.00  0.00     0.074 A 
ATOM     46  C   UNL A   1      39.259  29.537  28.331  1.00  0.00     0.031 C 
ATOM     47  C   UNL A   1      39.701  34.540  32.091  1.00  0.00     0.029 A 
ATOM     48  C   UNL A   1      38.288  34.727  32.408  1.00  0.00     0.049 A 
ATOM     49  H   UNL A   1      36.989  35.100  30.764  1.00  0.00     0.167 HD
ATOM     50  C   UNL A   1      41.608  29.684  29.463  1.00  0.00     0.034 A 
ATOM     51  C   UNL A   1      37.666  34.256  33.536  1.00  0.00     0.034 A 
ATOM     52  C   UNL A   1      42.066  30.382  30.665  1.00  0.00     0.049 A 
ATOM     53  C   UNL A   1      38.540  33.224  34.225  1.00  0.00     0.074 A 
ATOM     54  C   UNL A   1      42.726  31.586  30.850  1.00  0.00     0.029 A 
ATOM     55  N   UNL A   1      41.529  30.027  31.897  1.00  0.00    -0.354 N 
ATOM     56  N   UNL A   1      39.317  32.384  33.594  1.00  0.00    -0.248 NA
ATOM     57  C   UNL A   1      38.663  33.135  35.674  1.00  0.00     0.031 C 
ATOM     58  C   UNL A   1      42.459  32.018  32.176  1.00  0.00     0.029 A 
ATOM     59  C   UNL A   1      41.672  31.062  32.798  1.00  0.00     0.049 A 
ATOM     60  H   UNL A   1      41.107  29.161  32.098  1.00  0.00     0.167 HD
ATOM     61  C   UNL A   1      40.127  31.755  34.505  1.00  0.00     0.074 A 
ATOM     62  C   UNL A   1      39.650  32.230  35.795  1.00  0.00     0.031 C 
ATOM     63  C   UNL A   1      41.165  30.937  34.153  1.00  0.00     0.034 A 
BRANCH  50  64
ATOM     64  C   UNL A   1      42.578  29.137  28.429  1.00  0.00     0.023 A 
ATOM     65  C   UNL A   1      42.654  27.733  28.259  1.00  0.00     0.031 A 
ATOM     66  C   UNL A   1      43.488  29.876  27.653  1.00  0.00     0.131 A 
ATOM     67  C   UNL A   1      43.637  27.122  27.457  1.00  0.00     0.055 A 
ATOM     68  C   UNL A   1      44.478  29.270  26.855  1.00  0.00     0.041 A 
ATOM     69  F   UNL A   1      43.446  31.212  27.603  1.00  0.00    -0.206 F 
ATOM     70  C   UNL A   1      44.568  27.886  26.767  1.00  0.00     0.022 A 
BRANCH  67  71
ATOM     71  S   UNL A   1      43.692  25.309  27.366  1.00  0.00     0.124 S 
ATOM     72  O   UNL A   1      43.757  24.933  28.775  1.00  0.00    -0.237 OA
ATOM     73  O   UNL A   1      42.449  24.993  26.671  1.00  0.00    -0.237 OA
ATOM     74  O   UNL A   1      44.909  25.043  26.601  1.00  0.00    -0.744 OA
ENDBRANCH  67  71
ENDBRANCH  50  64
BRANCH  51  75
ATOM     75  C   UNL A   1      36.162  34.228  33.522  1.00  0.00     0.023 A 
ATOM     76  C   UNL A   1      35.467  35.452  33.401  1.00  0.00     0.031 A 
ATOM     77  C   UNL A   1      35.403  33.055  33.387  1.00  0.00     0.131 A 
ATOM     78  C   UNL A   1      34.116  35.486  33.019  1.00  0.00     0.055 A 
ATOM     79  C   UNL A   1      34.034  33.091  33.066  1.00  0.00     0.041 A 
ATOM     80  F   UNL A   1      35.979  31.848  33.480  1.00  0.00    -0.206 F 
ATOM     81  C   UNL A   1      33.390  34.309  32.852  1.00  0.00     0.022 A 
BRANCH  78  82
ATOM     82  S   UNL A   1      33.409  37.079  32.498  1.00  0.00     0.124 S 
ATOM     83  O   UNL A   1      33.547  37.016  31.049  1.00  0.00    -0.237 OA
ATOM     84  O   UNL A   1      32.047  36.991  33.019  1.00  0.00    -0.237 OA
ATOM     85  O   UNL A   1      34.255  38.060  33.172  1.00  0.00    -0.744 OA
ENDBRANCH  78  82
ENDBRANCH  51  75
BRANCH  63  86
ATOM     86  C   UNL A   1      41.892  30.020  35.102  1.00  0.00     0.023 A 
ATOM     87  C   UNL A   1      41.532  28.679  35.265  1.00  0.00     0.031 A 
ATOM     88  C   UNL A   1      43.050  30.439  35.802  1.00  0.00     0.131 A 
ATOM     89  C   UNL A   1      42.212  27.853  36.170  1.00  0.00     0.055 A 
ATOM     90  C   UNL A   1      43.791  29.585  36.619  1.00  0.00     0.041 A 
ATOM     91  F   UNL A   1      43.521  31.693  35.713  1.00  0.00    -0.206 F 
ATOM     92  C   UNL A   1      43.358  28.285  36.828  1.00  0.00     0.022 A 
BRANCH  89  93
ATOM     93  S   UNL A   1      41.486  26.238  36.534  1.00  0.00     0.124 S 
ATOM     94  O   UNL A   1      40.570  26.563  37.625  1.00  0.00    -0.237 OA
ATOM     95  O   UNL A   1      40.857  25.883  35.266  1.00  0.00    -0.237 OA
ATOM     96  O   UNL A   1      42.637  25.422  36.911  1.00  0.00    -0.744 OA
ENDBRANCH  89  93
ENDBRANCH  63  86
ENDBRANCH  37  38
ENDBRANCH  30  32
ENDBRANCH  29  30
ENDBRANCH   1  29
TORSDOF 16
ENDMDL
