MODEL 1
REMARK VINA RESULT:     -13.0      0.000      0.000
REMARK SMILES Nc1ccc(C(=O)N2Cc3nc[nH]c3C[C@H]2C(=O)OCCOC(=O)c2ccc(-c3c4nc(c(-c5cc(S(=O)(=O)[O-])ccc5F)c5ccc([nH]5)c(-c5cc(S(=O)(=O)[O-])ccc5F)c5nc(c(-c6cc(S(=O)(=O)[O-])ccc6F)c6ccc3[nH]6)C=C5)C=C4)cc2)cc1
REMARK SMILES IDX 20 1 19 2 17 3 18 4 16 5 8 6 9 7 10 8 15 9 11 10 14 11 12 12
REMARK SMILES IDX 13 13 6 15 7 16 5 17 2 18 3 19 89 20 4 21 88 22 1 23 21 26
REMARK SMILES IDX 22 27 23 28 24 29 25 30 26 31 87 32 27 33 86 34 28 35 29 36
REMARK SMILES IDX 30 37 80 38 31 39 85 40 79 41 81 42 32 43 84 44 78 45 77 46
REMARK SMILES IDX 33 48 65 49 45 50 64 51 46 52 49 53 63 54 82 55 47 56 48 57
REMARK SMILES IDX 62 59 83 60 50 61 34 62 35 63 43 64 36 65 42 66 44 67 41 68
REMARK SMILES IDX 37 69 38 70 39 71 40 72 66 73 67 74 75 75 68 76 74 77 76 78
REMARK SMILES IDX 73 79 69 80 70 81 71 82 72 83 51 84 52 85 60 86 53 87 59 88
REMARK SMILES IDX 61 89 58 90 54 91 55 92 56 93 57 94
REMARK H PARENT 13 14 1 24 1 25 81 47 49 58
REMARK Flexibility Score: inf
ROOT
ATOM      1  C   UNL A   1      36.969  21.972  25.281  1.00  0.00     0.274 C 
ENDROOT
BRANCH   1   2
ATOM      2  O   UNL A   1      35.964  22.509  26.165  1.00  0.00    -0.461 OA
BRANCH   2   3
ATOM      3  C   UNL A   1      35.005  23.294  25.594  1.00  0.00     0.329 C 
ATOM      4  O   UNL A   1      35.188  23.961  24.574  1.00  0.00    -0.250 OA
BRANCH   3   5
ATOM      5  C   UNL A   1      33.706  23.412  26.425  1.00  0.00     0.201 C 
ATOM      6  N   UNL A   1      32.403  23.659  25.735  1.00  0.00    -0.318 N 
ATOM      7  C   UNL A   1      31.824  22.611  24.874  1.00  0.00     0.179 C 
ATOM      8  C   UNL A   1      32.293  21.262  25.313  1.00  0.00     0.081 A 
ATOM      9  C   UNL A   1      33.648  22.112  27.278  1.00  0.00     0.093 C 
ATOM     10  N   UNL A   1      32.089  20.093  24.627  1.00  0.00    -0.240 NA
ATOM     11  C   UNL A   1      33.117  21.042  26.395  1.00  0.00     0.042 A 
ATOM     12  C   UNL A   1      32.785  19.187  25.282  1.00  0.00     0.197 A 
ATOM     13  N   UNL A   1      33.427  19.718  26.370  1.00  0.00    -0.348 N 
ATOM     14  H   UNL A   1      34.001  19.235  27.008  1.00  0.00     0.167 HD
BRANCH   6  15
ATOM     15  C   UNL A   1      31.519  24.547  26.343  1.00  0.00     0.254 C 
ATOM     16  O   UNL A   1      30.791  24.211  27.272  1.00  0.00    -0.269 OA
BRANCH  15  17
ATOM     17  C   UNL A   1      31.585  25.968  25.877  1.00  0.00     0.040 A 
ATOM     18  C   UNL A   1      31.515  28.670  25.049  1.00  0.00     0.031 A 
ATOM     19  C   UNL A   1      31.130  27.648  24.179  1.00  0.00     0.026 A 
ATOM     20  C   UNL A   1      31.946  28.324  26.328  1.00  0.00     0.026 A 
ATOM     21  C   UNL A   1      31.176  26.303  24.580  1.00  0.00     0.016 A 
ATOM     22  C   UNL A   1      31.994  26.988  26.736  1.00  0.00     0.016 A 
BRANCH  18  23
ATOM     23  N   UNL A   1      31.334  29.998  24.717  1.00  0.00    -0.399 N 
ATOM     24  H   UNL A   1      30.605  30.514  25.131  1.00  0.00     0.156 HD
ATOM     25  H   UNL A   1      31.934  30.429  24.066  1.00  0.00     0.156 HD
ENDBRANCH  18  23
ENDBRANCH  15  17
ENDBRANCH   6  15
ENDBRANCH   3   5
ENDBRANCH   2   3
ENDBRANCH   1   2
BRANCH   1  26
ATOM     26  C   UNL A   1      38.404  22.231  25.761  1.00  0.00     0.275 C 
BRANCH  26  27
ATOM     27  O   UNL A   1      38.631  23.480  26.438  1.00  0.00    -0.458 OA
BRANCH  27  28
ATOM     28  C   UNL A   1      39.840  23.538  27.031  1.00  0.00     0.338 C 
ATOM     29  O   UNL A   1      40.444  22.601  27.523  1.00  0.00    -0.246 OA
BRANCH  28  30
ATOM     30  C   UNL A   1      40.329  24.888  27.292  1.00  0.00     0.060 A 
ATOM     31  C   UNL A   1      40.612  25.152  28.631  1.00  0.00     0.016 A 
ATOM     32  C   UNL A   1      40.122  25.918  26.370  1.00  0.00     0.016 A 
ATOM     33  C   UNL A   1      40.502  26.446  29.083  1.00  0.00     0.010 A 
ATOM     34  C   UNL A   1      40.046  27.228  26.830  1.00  0.00     0.010 A 
ATOM     35  C   UNL A   1      40.158  27.482  28.199  1.00  0.00    -0.014 A 
BRANCH  35  36
ATOM     36  C   UNL A   1      40.206  28.847  28.746  1.00  0.00     0.031 A 
ATOM     37  C   UNL A   1      41.529  29.466  28.460  1.00  0.00     0.074 A 
ATOM     38  C   UNL A   1      39.184  29.495  29.354  1.00  0.00     0.049 A 
ATOM     39  N   UNL A   1      42.386  29.923  29.310  1.00  0.00    -0.248 NA
ATOM     40  C   UNL A   1      42.067  29.335  27.087  1.00  0.00     0.031 C 
ATOM     41  C   UNL A   1      37.834  28.966  29.555  1.00  0.00     0.029 A 
ATOM     42  N   UNL A   1      39.078  30.781  29.836  1.00  0.00    -0.354 N 
ATOM     43  C   UNL A   1      43.436  30.402  28.533  1.00  0.00     0.074 A 
ATOM     44  C   UNL A   1      43.309  29.789  27.244  1.00  0.00     0.031 C 
ATOM     45  C   UNL A   1      36.998  29.975  29.887  1.00  0.00     0.029 A 
ATOM     46  C   UNL A   1      37.755  31.214  30.008  1.00  0.00     0.049 A 
ATOM     47  H   UNL A   1      39.859  31.344  30.041  1.00  0.00     0.167 HD
ATOM     48  C   UNL A   1      44.049  31.559  28.889  1.00  0.00     0.034 A 
ATOM     49  C   UNL A   1      37.283  32.485  30.184  1.00  0.00     0.034 A 
ATOM     50  C   UNL A   1      43.907  31.789  30.306  1.00  0.00     0.049 A 
ATOM     51  C   UNL A   1      38.401  33.310  30.683  1.00  0.00     0.074 A 
ATOM     52  C   UNL A   1      44.395  31.210  31.457  1.00  0.00     0.029 A 
ATOM     53  N   UNL A   1      42.816  32.543  30.658  1.00  0.00    -0.354 N 
ATOM     54  N   UNL A   1      38.894  33.187  31.882  1.00  0.00    -0.248 NA
ATOM     55  C   UNL A   1      39.233  34.051  29.742  1.00  0.00     0.031 C 
ATOM     56  C   UNL A   1      43.456  31.514  32.484  1.00  0.00     0.029 A 
ATOM     57  C   UNL A   1      42.450  32.322  31.959  1.00  0.00     0.049 A 
ATOM     58  H   UNL A   1      42.356  33.166  30.051  1.00  0.00     0.167 HD
ATOM     59  C   UNL A   1      40.243  33.427  31.724  1.00  0.00     0.074 A 
ATOM     60  C   UNL A   1      40.364  34.118  30.448  1.00  0.00     0.031 C 
ATOM     61  C   UNL A   1      41.152  32.733  32.466  1.00  0.00     0.034 A 
BRANCH  48  62
ATOM     62  C   UNL A   1      44.246  32.711  27.912  1.00  0.00     0.023 A 
ATOM     63  C   UNL A   1      43.571  33.912  28.201  1.00  0.00     0.031 A 
ATOM     64  C   UNL A   1      44.769  32.609  26.597  1.00  0.00     0.131 A 
ATOM     65  C   UNL A   1      43.363  34.882  27.205  1.00  0.00     0.055 A 
ATOM     66  C   UNL A   1      44.602  33.600  25.627  1.00  0.00     0.041 A 
ATOM     67  F   UNL A   1      45.393  31.522  26.134  1.00  0.00    -0.206 F 
ATOM     68  C   UNL A   1      43.871  34.733  25.918  1.00  0.00     0.022 A 
BRANCH  65  69
ATOM     69  S   UNL A   1      42.279  36.282  27.575  1.00  0.00     0.124 S 
ATOM     70  O   UNL A   1      42.742  37.273  26.612  1.00  0.00    -0.237 OA
ATOM     71  O   UNL A   1      40.959  35.708  27.335  1.00  0.00    -0.237 OA
ATOM     72  O   UNL A   1      42.579  36.580  28.974  1.00  0.00    -0.744 OA
ENDBRANCH  65  69
ENDBRANCH  48  62
BRANCH  49  73
ATOM     73  C   UNL A   1      35.964  33.097  29.815  1.00  0.00     0.023 A 
ATOM     74  C   UNL A   1      35.237  33.955  30.683  1.00  0.00     0.031 A 
ATOM     75  C   UNL A   1      35.519  33.048  28.477  1.00  0.00     0.131 A 
ATOM     76  C   UNL A   1      34.145  34.719  30.196  1.00  0.00     0.055 A 
ATOM     77  C   UNL A   1      34.440  33.800  28.004  1.00  0.00     0.041 A 
ATOM     78  F   UNL A   1      36.175  32.335  27.550  1.00  0.00    -0.206 F 
ATOM     79  C   UNL A   1      33.759  34.651  28.857  1.00  0.00     0.022 A 
BRANCH  76  80
ATOM     80  S   UNL A   1      33.270  35.920  31.263  1.00  0.00     0.124 S 
ATOM     81  O   UNL A   1      32.945  36.990  30.327  1.00  0.00    -0.237 OA
ATOM     82  O   UNL A   1      32.151  35.138  31.775  1.00  0.00    -0.237 OA
ATOM     83  O   UNL A   1      34.274  36.274  32.269  1.00  0.00    -0.744 OA
ENDBRANCH  76  80
ENDBRANCH  49  73
BRANCH  61  84
ATOM     84  C   UNL A   1      40.740  32.302  33.851  1.00  0.00     0.023 A 
ATOM     85  C   UNL A   1      40.906  33.052  35.035  1.00  0.00     0.031 A 
ATOM     86  C   UNL A   1      40.134  31.037  33.959  1.00  0.00     0.131 A 
ATOM     87  C   UNL A   1      40.481  32.517  36.267  1.00  0.00     0.055 A 
ATOM     88  C   UNL A   1      39.689  30.524  35.172  1.00  0.00     0.041 A 
ATOM     89  F   UNL A   1      39.953  30.273  32.868  1.00  0.00    -0.206 F 
ATOM     90  C   UNL A   1      39.870  31.260  36.335  1.00  0.00     0.022 A 
BRANCH  87  91
ATOM     91  S   UNL A   1      40.761  33.426  37.818  1.00  0.00     0.124 S 
ATOM     92  O   UNL A   1      41.194  32.392  38.751  1.00  0.00    -0.237 OA
ATOM     93  O   UNL A   1      41.780  34.397  37.427  1.00  0.00    -0.237 OA
ATOM     94  O   UNL A   1      39.448  34.004  38.113  1.00  0.00    -0.744 OA
ENDBRANCH  87  91
ENDBRANCH  61  84
ENDBRANCH  35  36
ENDBRANCH  28  30
ENDBRANCH  27  28
ENDBRANCH  26  27
ENDBRANCH   1  26
TORSDOF 17
ENDMDL
MODEL 2
REMARK VINA RESULT:     -12.9      2.783      3.337
REMARK SMILES Nc1ccc(C(=O)N2Cc3nc[nH]c3C[C@H]2C(=O)OCCOC(=O)c2ccc(-c3c4nc(c(-c5cc(S(=O)(=O)[O-])ccc5F)c5ccc([nH]5)c(-c5cc(S(=O)(=O)[O-])ccc5F)c5nc(c(-c6cc(S(=O)(=O)[O-])ccc6F)c6ccc3[nH]6)C=C5)C=C4)cc2)cc1
REMARK SMILES IDX 20 1 19 2 17 3 18 4 16 5 8 6 9 7 10 8 15 9 11 10 14 11 12 12
REMARK SMILES IDX 13 13 6 15 7 16 5 17 2 18 3 19 89 20 4 21 88 22 1 23 21 26
REMARK SMILES IDX 22 27 23 28 24 29 25 30 26 31 87 32 27 33 86 34 28 35 29 36
REMARK SMILES IDX 30 37 80 38 31 39 85 40 79 41 81 42 32 43 84 44 78 45 77 46
REMARK SMILES IDX 33 48 65 49 45 50 64 51 46 52 49 53 63 54 82 55 47 56 48 57
REMARK SMILES IDX 62 59 83 60 50 61 34 62 35 63 43 64 36 65 42 66 44 67 41 68
REMARK SMILES IDX 37 69 38 70 39 71 40 72 66 73 67 74 75 75 68 76 74 77 76 78
REMARK SMILES IDX 73 79 69 80 70 81 71 82 72 83 51 84 52 85 60 86 53 87 59 88
REMARK SMILES IDX 61 89 58 90 54 91 55 92 56 93 57 94
REMARK H PARENT 13 14 1 24 1 25 81 47 49 58
REMARK Flexibility Score: inf
ROOT
ATOM      1  C   UNL A   1      36.611  20.894  25.050  1.00  0.00     0.274 C 
ENDROOT
BRANCH   1   2
ATOM      2  O   UNL A   1      35.905  21.556  26.118  1.00  0.00    -0.461 OA
BRANCH   2   3
ATOM      3  C   UNL A   1      35.420  22.803  25.848  1.00  0.00     0.329 C 
ATOM      4  O   UNL A   1      36.043  23.654  25.212  1.00  0.00    -0.250 OA
BRANCH   3   5
ATOM      5  C   UNL A   1      34.080  23.127  26.550  1.00  0.00     0.201 C 
ATOM      6  N   UNL A   1      32.901  23.555  25.737  1.00  0.00    -0.318 N 
ATOM      7  C   UNL A   1      32.256  22.593  24.825  1.00  0.00     0.179 C 
ATOM      8  C   UNL A   1      32.472  21.195  25.308  1.00  0.00     0.081 A 
ATOM      9  C   UNL A   1      33.746  21.863  27.394  1.00  0.00     0.093 C 
ATOM     10  N   UNL A   1      32.162  20.060  24.606  1.00  0.00    -0.240 NA
ATOM     11  C   UNL A   1      33.147  20.871  26.465  1.00  0.00     0.042 A 
ATOM     12  C   UNL A   1      32.648  19.070  25.325  1.00  0.00     0.197 A 
ATOM     13  N   UNL A   1      33.255  19.516  26.470  1.00  0.00    -0.348 N 
ATOM     14  H   UNL A   1      33.686  18.961  27.161  1.00  0.00     0.167 HD
BRANCH   6  15
ATOM     15  C   UNL A   1      32.107  24.574  26.257  1.00  0.00     0.254 C 
ATOM     16  O   UNL A   1      31.438  24.427  27.275  1.00  0.00    -0.269 OA
BRANCH  15  17
ATOM     17  C   UNL A   1      32.199  25.900  25.569  1.00  0.00     0.040 A 
ATOM     18  C   UNL A   1      32.356  28.307  24.095  1.00  0.00     0.031 A 
ATOM     19  C   UNL A   1      33.500  27.545  24.338  1.00  0.00     0.026 A 
ATOM     20  C   UNL A   1      31.139  27.859  24.607  1.00  0.00     0.026 A 
ATOM     21  C   UNL A   1      33.431  26.356  25.082  1.00  0.00     0.016 A 
ATOM     22  C   UNL A   1      31.061  26.676  25.347  1.00  0.00     0.016 A 
BRANCH  18  23
ATOM     23  N   UNL A   1      32.387  29.394  23.243  1.00  0.00    -0.399 N 
ATOM     24  H   UNL A   1      32.313  29.260  22.271  1.00  0.00     0.156 HD
ATOM     25  H   UNL A   1      32.484  30.303  23.609  1.00  0.00     0.156 HD
ENDBRANCH  18  23
ENDBRANCH  15  17
ENDBRANCH   6  15
ENDBRANCH   3   5
ENDBRANCH   2   3
ENDBRANCH   1   2
BRANCH   1  26
ATOM     26  C   UNL A   1      38.122  20.779  25.296  1.00  0.00     0.275 C 
BRANCH  26  27
ATOM     27  O   UNL A   1      38.835  22.020  25.451  1.00  0.00    -0.458 OA
BRANCH  27  28
ATOM     28  C   UNL A   1      39.931  21.896  26.226  1.00  0.00     0.338 C 
ATOM     29  O   UNL A   1      40.666  20.926  26.281  1.00  0.00    -0.246 OA
BRANCH  28  30
ATOM     30  C   UNL A   1      40.086  22.937  27.237  1.00  0.00     0.060 A 
ATOM     31  C   UNL A   1      39.211  24.014  27.097  1.00  0.00     0.016 A 
ATOM     32  C   UNL A   1      41.259  23.039  27.989  1.00  0.00     0.016 A 
ATOM     33  C   UNL A   1      39.609  25.247  27.557  1.00  0.00     0.010 A 
ATOM     34  C   UNL A   1      41.637  24.284  28.481  1.00  0.00     0.010 A 
ATOM     35  C   UNL A   1      40.850  25.402  28.196  1.00  0.00    -0.014 A 
BRANCH  35  36
ATOM     36  C   UNL A   1      41.121  26.726  28.778  1.00  0.00     0.031 A 
ATOM     37  C   UNL A   1      42.407  27.261  28.255  1.00  0.00     0.074 A 
ATOM     38  C   UNL A   1      40.301  27.411  29.609  1.00  0.00     0.049 A 
ATOM     39  N   UNL A   1      43.453  27.603  28.930  1.00  0.00    -0.248 NA
ATOM     40  C   UNL A   1      42.646  27.172  26.796  1.00  0.00     0.031 C 
ATOM     41  C   UNL A   1      38.978  26.972  30.060  1.00  0.00     0.029 A 
ATOM     42  N   UNL A   1      40.402  28.670  30.157  1.00  0.00    -0.354 N 
ATOM     43  C   UNL A   1      44.363  28.048  27.976  1.00  0.00     0.074 A 
ATOM     44  C   UNL A   1      43.928  27.523  26.716  1.00  0.00     0.031 C 
ATOM     45  C   UNL A   1      38.314  28.019  30.598  1.00  0.00     0.029 A 
ATOM     46  C   UNL A   1      39.181  29.189  30.614  1.00  0.00     0.049 A 
ATOM     47  H   UNL A   1      41.252  29.162  30.222  1.00  0.00     0.167 HD
ATOM     48  C   UNL A   1      45.129  29.134  28.248  1.00  0.00     0.034 A 
ATOM     49  C   UNL A   1      38.862  30.479  30.937  1.00  0.00     0.034 A 
ATOM     50  C   UNL A   1      45.294  29.291  29.672  1.00  0.00     0.049 A 
ATOM     51  C   UNL A   1      40.124  31.189  31.231  1.00  0.00     0.074 A 
ATOM     52  C   UNL A   1      45.952  28.611  30.674  1.00  0.00     0.029 A 
ATOM     53  N   UNL A   1      44.364  30.101  30.271  1.00  0.00    -0.354 N 
ATOM     54  N   UNL A   1      40.835  30.960  32.298  1.00  0.00    -0.248 NA
ATOM     55  C   UNL A   1      40.809  31.920  30.172  1.00  0.00     0.031 C 
ATOM     56  C   UNL A   1      45.268  28.923  31.883  1.00  0.00     0.029 A 
ATOM     57  C   UNL A   1      44.248  29.831  31.609  1.00  0.00     0.049 A 
ATOM     58  H   UNL A   1      43.845  30.791  29.799  1.00  0.00     0.167 HD
ATOM     59  C   UNL A   1      42.140  31.108  31.878  1.00  0.00     0.074 A 
ATOM     60  C   UNL A   1      42.060  31.862  30.635  1.00  0.00     0.031 C 
ATOM     61  C   UNL A   1      43.117  30.307  32.388  1.00  0.00     0.034 A 
BRANCH  48  62
ATOM     62  C   UNL A   1      45.223  30.323  27.300  1.00  0.00     0.023 A 
ATOM     63  C   UNL A   1      46.485  30.935  27.172  1.00  0.00     0.031 A 
ATOM     64  C   UNL A   1      44.131  31.069  26.787  1.00  0.00     0.131 A 
ATOM     65  C   UNL A   1      46.608  32.236  26.654  1.00  0.00     0.055 A 
ATOM     66  C   UNL A   1      44.268  32.341  26.227  1.00  0.00     0.041 A 
ATOM     67  F   UNL A   1      42.860  30.666  26.869  1.00  0.00    -0.206 F 
ATOM     68  C   UNL A   1      45.507  32.945  26.183  1.00  0.00     0.022 A 
BRANCH  65  69
ATOM     69  S   UNL A   1      48.218  33.054  26.747  1.00  0.00     0.124 S 
ATOM     70  O   UNL A   1      48.105  34.043  25.683  1.00  0.00    -0.237 OA
ATOM     71  O   UNL A   1      48.214  33.566  28.113  1.00  0.00    -0.237 OA
ATOM     72  O   UNL A   1      49.163  31.968  26.495  1.00  0.00    -0.744 OA
ENDBRANCH  65  69
ENDBRANCH  48  62
BRANCH  49  73
ATOM     73  C   UNL A   1      37.553  31.207  30.871  1.00  0.00     0.023 A 
ATOM     74  C   UNL A   1      36.936  31.798  32.006  1.00  0.00     0.031 A 
ATOM     75  C   UNL A   1      37.008  31.559  29.618  1.00  0.00     0.131 A 
ATOM     76  C   UNL A   1      35.850  32.699  31.853  1.00  0.00     0.055 A 
ATOM     77  C   UNL A   1      35.937  32.445  29.473  1.00  0.00     0.041 A 
ATOM     78  F   UNL A   1      37.558  31.126  28.473  1.00  0.00    -0.206 F 
ATOM     79  C   UNL A   1      35.364  33.031  30.589  1.00  0.00     0.022 A 
BRANCH  76  80
ATOM     80  S   UNL A   1      35.118  33.564  33.289  1.00  0.00     0.124 S 
ATOM     81  O   UNL A   1      35.343  34.966  32.957  1.00  0.00    -0.237 OA
ATOM     82  O   UNL A   1      33.736  33.102  33.270  1.00  0.00    -0.237 OA
ATOM     83  O   UNL A   1      35.907  33.071  34.420  1.00  0.00    -0.744 OA
ENDBRANCH  76  80
ENDBRANCH  49  73
BRANCH  61  84
ATOM     84  C   UNL A   1      42.957  29.828  33.809  1.00  0.00     0.023 A 
ATOM     85  C   UNL A   1      42.489  28.557  34.206  1.00  0.00     0.031 A 
ATOM     86  C   UNL A   1      43.311  30.739  34.821  1.00  0.00     0.131 A 
ATOM     87  C   UNL A   1      42.380  28.249  35.576  1.00  0.00     0.055 A 
ATOM     88  C   UNL A   1      43.231  30.421  36.172  1.00  0.00     0.041 A 
ATOM     89  F   UNL A   1      43.759  31.967  34.506  1.00  0.00    -0.206 F 
ATOM     90  C   UNL A   1      42.755  29.175  36.556  1.00  0.00     0.022 A 
BRANCH  87  91
ATOM     91  S   UNL A   1      41.699  26.650  36.115  1.00  0.00     0.124 S 
ATOM     92  O   UNL A   1      42.881  25.822  36.319  1.00  0.00    -0.237 OA
ATOM     93  O   UNL A   1      40.965  27.019  37.322  1.00  0.00    -0.237 OA
ATOM     94  O   UNL A   1      40.856  26.244  34.988  1.00  0.00    -0.744 OA
ENDBRANCH  87  91
ENDBRANCH  61  84
ENDBRANCH  35  36
ENDBRANCH  28  30
ENDBRANCH  27  28
ENDBRANCH  26  27
ENDBRANCH   1  26
TORSDOF 17
ENDMDL
MODEL 3
REMARK VINA RESULT:     -12.9      4.976     10.432
REMARK SMILES Nc1ccc(C(=O)N2Cc3nc[nH]c3C[C@H]2C(=O)OCCOC(=O)c2ccc(-c3c4nc(c(-c5cc(S(=O)(=O)[O-])ccc5F)c5ccc([nH]5)c(-c5cc(S(=O)(=O)[O-])ccc5F)c5nc(c(-c6cc(S(=O)(=O)[O-])ccc6F)c6ccc3[nH]6)C=C5)C=C4)cc2)cc1
REMARK SMILES IDX 20 1 19 2 17 3 18 4 16 5 8 6 9 7 10 8 15 9 11 10 14 11 12 12
REMARK SMILES IDX 13 13 6 15 7 16 5 17 2 18 3 19 89 20 4 21 88 22 1 23 21 26
REMARK SMILES IDX 22 27 23 28 24 29 25 30 26 31 87 32 27 33 86 34 28 35 29 36
REMARK SMILES IDX 30 37 80 38 31 39 85 40 79 41 81 42 32 43 84 44 78 45 77 46
REMARK SMILES IDX 33 48 65 49 45 50 64 51 46 52 49 53 63 54 82 55 47 56 48 57
REMARK SMILES IDX 62 59 83 60 50 61 34 62 35 63 43 64 36 65 42 66 44 67 41 68
REMARK SMILES IDX 37 69 38 70 39 71 40 72 66 73 67 74 75 75 68 76 74 77 76 78
REMARK SMILES IDX 73 79 69 80 70 81 71 82 72 83 51 84 52 85 60 86 53 87 59 88
REMARK SMILES IDX 61 89 58 90 54 91 55 92 56 93 57 94
REMARK H PARENT 13 14 1 24 1 25 81 47 49 58
REMARK Flexibility Score: inf
ROOT
ATOM      1  C   UNL A   1      32.833  30.293  26.729  1.00  0.00     0.274 C 
ENDROOT
BRANCH   1   2
ATOM      2  O   UNL A   1      33.228  29.673  25.489  1.00  0.00    -0.461 OA
BRANCH   2   3
ATOM      3  C   UNL A   1      32.753  28.414  25.257  1.00  0.00     0.329 C 
ATOM      4  O   UNL A   1      32.065  27.786  26.062  1.00  0.00    -0.250 OA
BRANCH   3   5
ATOM      5  C   UNL A   1      33.286  27.766  23.957  1.00  0.00     0.201 C 
ATOM      6  N   UNL A   1      32.686  26.488  23.465  1.00  0.00    -0.318 N 
ATOM      7  C   UNL A   1      31.298  26.479  22.968  1.00  0.00     0.179 C 
ATOM      8  C   UNL A   1      30.924  27.830  22.450  1.00  0.00     0.081 A 
ATOM      9  C   UNL A   1      33.190  28.881  22.876  1.00  0.00     0.093 C 
ATOM     10  N   UNL A   1      29.660  28.213  22.082  1.00  0.00    -0.240 NA
ATOM     11  C   UNL A   1      31.779  28.910  22.413  1.00  0.00     0.042 A 
ATOM     12  C   UNL A   1      29.752  29.503  21.835  1.00  0.00     0.197 A 
ATOM     13  N   UNL A   1      31.027  29.973  22.021  1.00  0.00    -0.348 N 
ATOM     14  H   UNL A   1      31.335  30.899  21.895  1.00  0.00     0.167 HD
BRANCH   6  15
ATOM     15  C   UNL A   1      33.558  25.535  22.945  1.00  0.00     0.254 C 
ATOM     16  O   UNL A   1      33.843  25.492  21.752  1.00  0.00    -0.269 OA
BRANCH  15  17
ATOM     17  C   UNL A   1      34.220  24.633  23.939  1.00  0.00     0.040 A 
ATOM     18  C   UNL A   1      35.335  22.789  25.769  1.00  0.00     0.031 A 
ATOM     19  C   UNL A   1      34.274  23.615  26.147  1.00  0.00     0.026 A 
ATOM     20  C   UNL A   1      35.838  22.906  24.474  1.00  0.00     0.026 A 
ATOM     21  C   UNL A   1      33.725  24.543  25.247  1.00  0.00     0.016 A 
ATOM     22  C   UNL A   1      35.297  23.826  23.572  1.00  0.00     0.016 A 
BRANCH  18  23
ATOM     23  N   UNL A   1      35.781  21.775  26.594  1.00  0.00    -0.399 N 
ATOM     24  H   UNL A   1      36.401  21.978  27.331  1.00  0.00     0.156 HD
ATOM     25  H   UNL A   1      35.479  20.850  26.445  1.00  0.00     0.156 HD
ENDBRANCH  18  23
ENDBRANCH  15  17
ENDBRANCH   6  15
ENDBRANCH   3   5
ENDBRANCH   2   3
ENDBRANCH   1   2
BRANCH   1  26
ATOM     26  C   UNL A   1      33.935  31.158  27.357  1.00  0.00     0.275 C 
BRANCH  26  27
ATOM     27  O   UNL A   1      34.885  30.469  28.190  1.00  0.00    -0.458 OA
BRANCH  27  28
ATOM     28  C   UNL A   1      35.920  31.252  28.554  1.00  0.00     0.338 C 
ATOM     29  O   UNL A   1      36.103  32.407  28.212  1.00  0.00    -0.246 OA
BRANCH  28  30
ATOM     30  C   UNL A   1      37.009  30.551  29.227  1.00  0.00     0.060 A 
ATOM     31  C   UNL A   1      38.281  31.036  28.930  1.00  0.00     0.016 A 
ATOM     32  C   UNL A   1      36.819  29.274  29.763  1.00  0.00     0.016 A 
ATOM     33  C   UNL A   1      39.347  30.170  28.993  1.00  0.00     0.010 A 
ATOM     34  C   UNL A   1      37.908  28.414  29.856  1.00  0.00     0.010 A 
ATOM     35  C   UNL A   1      39.158  28.838  29.397  1.00  0.00    -0.014 A 
BRANCH  35  36
ATOM     36  C   UNL A   1      40.376  28.031  29.571  1.00  0.00     0.031 A 
ATOM     37  C   UNL A   1      40.887  28.171  30.961  1.00  0.00     0.074 A 
ATOM     38  C   UNL A   1      40.925  27.213  28.643  1.00  0.00     0.049 A 
ATOM     39  N   UNL A   1      42.045  28.601  31.336  1.00  0.00    -0.248 NA
ATOM     40  C   UNL A   1      39.911  28.055  32.068  1.00  0.00     0.031 C 
ATOM     41  C   UNL A   1      40.393  26.959  27.302  1.00  0.00     0.029 A 
ATOM     42  N   UNL A   1      42.005  26.360  28.704  1.00  0.00    -0.354 N 
ATOM     43  C   UNL A   1      42.022  28.519  32.725  1.00  0.00     0.074 A 
ATOM     44  C   UNL A   1      40.645  28.439  33.111  1.00  0.00     0.031 C 
ATOM     45  C   UNL A   1      40.992  25.866  26.778  1.00  0.00     0.029 A 
ATOM     46  C   UNL A   1      42.011  25.381  27.698  1.00  0.00     0.049 A 
ATOM     47  H   UNL A   1      42.707  26.430  29.389  1.00  0.00     0.167 HD
ATOM     48  C   UNL A   1      43.134  28.104  33.382  1.00  0.00     0.034 A 
ATOM     49  C   UNL A   1      42.743  24.229  27.625  1.00  0.00     0.034 A 
ATOM     50  C   UNL A   1      44.314  28.375  32.598  1.00  0.00     0.049 A 
ATOM     51  C   UNL A   1      43.918  24.391  28.506  1.00  0.00     0.074 A 
ATOM     52  C   UNL A   1      45.003  29.500  32.201  1.00  0.00     0.029 A 
ATOM     53  N   UNL A   1      44.708  27.345  31.782  1.00  0.00    -0.354 N 
ATOM     54  N   UNL A   1      44.907  25.191  28.229  1.00  0.00    -0.248 NA
ATOM     55  C   UNL A   1      43.857  23.932  29.889  1.00  0.00     0.031 C 
ATOM     56  C   UNL A   1      45.700  29.141  31.012  1.00  0.00     0.029 A 
ATOM     57  C   UNL A   1      45.476  27.794  30.739  1.00  0.00     0.049 A 
ATOM     58  H   UNL A   1      44.471  26.401  31.928  1.00  0.00     0.167 HD
ATOM     59  C   UNL A   1      45.306  25.680  29.455  1.00  0.00     0.074 A 
ATOM     60  C   UNL A   1      44.758  24.752  30.435  1.00  0.00     0.031 C 
ATOM     61  C   UNL A   1      45.734  26.968  29.572  1.00  0.00     0.034 A 
BRANCH  48  62
ATOM     62  C   UNL A   1      43.102  26.978  34.409  1.00  0.00     0.023 A 
ATOM     63  C   UNL A   1      43.797  25.799  34.079  1.00  0.00     0.031 A 
ATOM     64  C   UNL A   1      42.202  26.869  35.499  1.00  0.00     0.131 A 
ATOM     65  C   UNL A   1      43.523  24.590  34.742  1.00  0.00     0.055 A 
ATOM     66  C   UNL A   1      41.972  25.676  36.186  1.00  0.00     0.041 A 
ATOM     67  F   UNL A   1      41.424  27.872  35.916  1.00  0.00    -0.206 F 
ATOM     68  C   UNL A   1      42.613  24.519  35.792  1.00  0.00     0.022 A 
BRANCH  65  69
ATOM     69  S   UNL A   1      44.265  23.068  34.106  1.00  0.00     0.124 S 
ATOM     70  O   UNL A   1      45.506  23.567  33.529  1.00  0.00    -0.237 OA
ATOM     71  O   UNL A   1      44.389  22.266  35.320  1.00  0.00    -0.237 OA
ATOM     72  O   UNL A   1      43.275  22.587  33.145  1.00  0.00    -0.744 OA
ENDBRANCH  65  69
ENDBRANCH  48  62
BRANCH  49  73
ATOM     73  C   UNL A   1      42.438  22.918  26.963  1.00  0.00     0.023 A 
ATOM     74  C   UNL A   1      43.415  22.152  26.273  1.00  0.00     0.031 A 
ATOM     75  C   UNL A   1      41.214  22.267  27.228  1.00  0.00     0.131 A 
ATOM     76  C   UNL A   1      43.151  20.807  25.903  1.00  0.00     0.055 A 
ATOM     77  C   UNL A   1      40.959  20.944  26.858  1.00  0.00     0.041 A 
ATOM     78  F   UNL A   1      40.248  22.864  27.941  1.00  0.00    -0.206 F 
ATOM     79  C   UNL A   1      41.931  20.203  26.208  1.00  0.00     0.022 A 
BRANCH  76  80
ATOM     80  S   UNL A   1      44.434  19.763  25.122  1.00  0.00     0.124 S 
ATOM     81  O   UNL A   1      44.182  18.458  25.722  1.00  0.00    -0.237 OA
ATOM     82  O   UNL A   1      44.135  19.897  23.702  1.00  0.00    -0.237 OA
ATOM     83  O   UNL A   1      45.687  20.395  25.541  1.00  0.00    -0.744 OA
ENDBRANCH  76  80
ENDBRANCH  49  73
BRANCH  61  84
ATOM     84  C   UNL A   1      46.433  27.582  28.385  1.00  0.00     0.023 A 
ATOM     85  C   UNL A   1      47.813  27.504  28.105  1.00  0.00     0.031 A 
ATOM     86  C   UNL A   1      45.622  28.293  27.481  1.00  0.00     0.131 A 
ATOM     87  C   UNL A   1      48.332  28.138  26.959  1.00  0.00     0.055 A 
ATOM     88  C   UNL A   1      46.132  28.893  26.334  1.00  0.00     0.041 A 
ATOM     89  F   UNL A   1      44.300  28.408  27.695  1.00  0.00    -0.206 F 
ATOM     90  C   UNL A   1      47.494  28.825  26.074  1.00  0.00     0.022 A 
BRANCH  87  91
ATOM     91  S   UNL A   1      50.120  28.125  26.622  1.00  0.00     0.124 S 
ATOM     92  O   UNL A   1      50.205  28.438  25.201  1.00  0.00    -0.237 OA
ATOM     93  O   UNL A   1      50.613  29.156  27.532  1.00  0.00    -0.237 OA
ATOM     94  O   UNL A   1      50.520  26.761  26.972  1.00  0.00    -0.744 OA
ENDBRANCH  87  91
ENDBRANCH  61  84
ENDBRANCH  35  36
ENDBRANCH  28  30
ENDBRANCH  27  28
ENDBRANCH  26  27
ENDBRANCH   1  26
TORSDOF 17
ENDMDL
