MODEL 1
REMARK VINA RESULT:     -10.6      0.000      0.000
REMARK SMILES CC(C)[C@H](C[NH+](C)C)NC(=O)c1csc(/C=C/C(=O)OCCOC(=O)c2ccc(-c3c4nc(c(-c5cc(S(=O)(=O)[O-])ccc5F)c5ccc([nH]5)c(-c5cc(S(=O)(=O)[O-])ccc5F)c5nc(c(-c6cc(S(=O)(=O)[O-])ccc6F)c6ccc3[nH]6)C=C5)C=C4)cc2)c1
REMARK SMILES IDX 21 1 20 2 18 3 19 4 17 5 16 6 15 7 12 8 13 9 89 10 14 11
REMARK SMILES IDX 10 12 9 13 11 15 4 16 2 17 1 18 3 19 5 20 6 21 7 22 8 23
REMARK SMILES IDX 22 25 23 26 24 27 25 28 26 29 27 30 88 31 28 32 87 33 29 34
REMARK SMILES IDX 30 35 31 36 81 37 32 38 86 39 80 40 82 41 33 42 85 43 79 44
REMARK SMILES IDX 78 45 34 47 66 48 46 49 65 50 47 51 50 52 64 53 83 54 48 55
REMARK SMILES IDX 49 56 63 58 84 59 51 60 35 61 36 62 44 63 37 64 43 65 45 66
REMARK SMILES IDX 42 67 38 68 39 69 40 70 41 71 67 72 68 73 76 74 69 75 75 76
REMARK SMILES IDX 77 77 74 78 70 79 71 80 72 81 73 82 52 83 53 84 61 85 54 86
REMARK SMILES IDX 60 87 62 88 59 89 55 90 56 91 57 92 58 93
REMARK H PARENT 9 14 6 24 82 46 50 57
REMARK Flexibility Score: inf
ROOT
ATOM      1  C   UNL A   1      39.422  21.043  26.174  1.00  0.00     0.275 C 
ENDROOT
BRANCH   1   2
ATOM      2  O   UNL A   1      38.204  21.337  25.465  1.00  0.00    -0.459 OA
BRANCH   2   3
ATOM      3  C   UNL A   1      37.766  22.613  25.574  1.00  0.00     0.330 C 
ATOM      4  O   UNL A   1      38.237  23.474  26.302  1.00  0.00    -0.247 OA
BRANCH   3   5
ATOM      5  C   UNL A   1      36.651  22.916  24.659  1.00  0.00     0.095 C 
ATOM      6  C   UNL A   1      35.473  23.461  25.005  1.00  0.00     0.026 C 
BRANCH   6   7
ATOM      7  C   UNL A   1      34.430  23.664  24.050  1.00  0.00     0.028 A 
ATOM      8  C   UNL A   1      33.062  24.645  22.379  1.00  0.00     0.051 A 
ATOM      9  C   UNL A   1      32.452  23.423  22.573  1.00  0.00     0.079 A 
ATOM     10  C   UNL A   1      34.217  24.761  23.231  1.00  0.00     0.033 A 
ATOM     11  S   UNL A   1      33.174  22.507  23.813  1.00  0.00    -0.144 S 
BRANCH   8  12
ATOM     12  C   UNL A   1      32.672  25.628  21.374  1.00  0.00     0.252 C 
ATOM     13  N   UNL A   1      31.846  26.667  21.710  1.00  0.00    -0.343 N 
ATOM     14  H   UNL A   1      31.382  27.089  20.951  1.00  0.00     0.164 HD
ATOM     15  O   UNL A   1      33.086  25.555  20.218  1.00  0.00    -0.269 OA
BRANCH  13  16
ATOM     16  C   UNL A   1      31.542  27.254  23.020  1.00  0.00     0.139 C 
BRANCH  16  17
ATOM     17  C   UNL A   1      30.169  26.742  23.544  1.00  0.00     0.011 C 
ATOM     18  C   UNL A   1      30.214  26.388  25.040  1.00  0.00     0.010 C 
ATOM     19  C   UNL A   1      29.067  27.793  23.344  1.00  0.00     0.010 C 
ENDBRANCH  16  17
BRANCH  16  20
ATOM     20  C   UNL A   1      31.650  28.815  22.958  1.00  0.00     0.287 C 
BRANCH  20  21
ATOM     21  N   UNL A   1      32.551  29.451  23.958  1.00  0.00    -0.338 N 
ATOM     22  C   UNL A   1      31.778  29.809  25.156  1.00  0.00     0.332 C 
ATOM     23  C   UNL A   1      33.619  28.529  24.373  1.00  0.00     0.332 C 
ATOM     24  H   UNL A   1      32.963  30.277  23.525  1.00  0.00     0.347 HD
ENDBRANCH  20  21
ENDBRANCH  16  20
ENDBRANCH  13  16
ENDBRANCH   8  12
ENDBRANCH   6   7
ENDBRANCH   3   5
ENDBRANCH   2   3
ENDBRANCH   1   2
BRANCH   1  25
ATOM     25  C   UNL A   1      39.948  19.644  25.834  1.00  0.00     0.275 C 
BRANCH  25  26
ATOM     26  O   UNL A   1      41.178  19.339  26.519  1.00  0.00    -0.458 OA
BRANCH  26  27
ATOM     27  C   UNL A   1      42.301  19.764  25.885  1.00  0.00     0.338 C 
ATOM     28  O   UNL A   1      42.950  19.136  25.064  1.00  0.00    -0.246 OA
BRANCH  27  29
ATOM     29  C   UNL A   1      42.590  21.169  26.232  1.00  0.00     0.060 A 
ATOM     30  C   UNL A   1      42.745  22.077  25.181  1.00  0.00     0.016 A 
ATOM     31  C   UNL A   1      42.779  21.585  27.554  1.00  0.00     0.016 A 
ATOM     32  C   UNL A   1      43.093  23.401  25.446  1.00  0.00     0.010 A 
ATOM     33  C   UNL A   1      43.131  22.917  27.817  1.00  0.00     0.010 A 
ATOM     34  C   UNL A   1      43.301  23.831  26.764  1.00  0.00    -0.014 A 
BRANCH  34  35
ATOM     35  C   UNL A   1      43.729  25.234  27.007  1.00  0.00     0.031 A 
ATOM     36  C   UNL A   1      42.755  26.240  27.557  1.00  0.00     0.074 A 
ATOM     37  C   UNL A   1      45.010  25.587  26.788  1.00  0.00     0.049 A 
ATOM     38  N   UNL A   1      42.956  27.489  27.894  1.00  0.00    -0.248 NA
ATOM     39  C   UNL A   1      41.374  25.777  27.751  1.00  0.00     0.031 C 
ATOM     40  C   UNL A   1      46.048  24.695  26.271  1.00  0.00     0.029 A 
ATOM     41  N   UNL A   1      45.659  26.780  26.984  1.00  0.00    -0.354 N 
ATOM     42  C   UNL A   1      41.730  27.963  28.347  1.00  0.00     0.074 A 
ATOM     43  C   UNL A   1      40.783  26.877  28.198  1.00  0.00     0.031 C 
ATOM     44  C   UNL A   1      47.209  25.369  26.206  1.00  0.00     0.029 A 
ATOM     45  C   UNL A   1      46.992  26.745  26.645  1.00  0.00     0.049 A 
ATOM     46  H   UNL A   1      45.213  27.584  27.334  1.00  0.00     0.167 HD
ATOM     47  C   UNL A   1      41.426  29.187  28.852  1.00  0.00     0.034 A 
ATOM     48  C   UNL A   1      47.930  27.713  26.675  1.00  0.00     0.034 A 
ATOM     49  C   UNL A   1      42.377  30.267  28.981  1.00  0.00     0.049 A 
ATOM     50  C   UNL A   1      47.553  29.082  27.185  1.00  0.00     0.074 A 
ATOM     51  C   UNL A   1      42.176  31.536  29.498  1.00  0.00     0.029 A 
ATOM     52  N   UNL A   1      43.705  30.213  28.577  1.00  0.00    -0.354 N 
ATOM     53  N   UNL A   1      46.394  29.507  27.635  1.00  0.00    -0.248 NA
ATOM     54  C   UNL A   1      48.614  30.096  27.199  1.00  0.00     0.031 C 
ATOM     55  C   UNL A   1      43.359  32.268  29.343  1.00  0.00     0.029 A 
ATOM     56  C   UNL A   1      44.325  31.435  28.801  1.00  0.00     0.049 A 
ATOM     57  H   UNL A   1      44.144  29.422  28.189  1.00  0.00     0.167 HD
ATOM     58  C   UNL A   1      46.597  30.834  28.007  1.00  0.00     0.074 A 
ATOM     59  C   UNL A   1      47.992  31.128  27.749  1.00  0.00     0.031 C 
ATOM     60  C   UNL A   1      45.711  31.728  28.517  1.00  0.00     0.034 A 
BRANCH  47  61
ATOM     61  C   UNL A   1      39.991  29.431  29.257  1.00  0.00     0.023 A 
ATOM     62  C   UNL A   1      39.593  29.444  30.606  1.00  0.00     0.031 A 
ATOM     63  C   UNL A   1      39.001  29.631  28.278  1.00  0.00     0.131 A 
ATOM     64  C   UNL A   1      38.236  29.586  30.936  1.00  0.00     0.055 A 
ATOM     65  C   UNL A   1      37.663  29.846  28.616  1.00  0.00     0.041 A 
ATOM     66  F   UNL A   1      39.316  29.610  26.974  1.00  0.00    -0.206 F 
ATOM     67  C   UNL A   1      37.272  29.810  29.951  1.00  0.00     0.022 A 
BRANCH  64  68
ATOM     68  S   UNL A   1      37.731  29.337  32.660  1.00  0.00     0.124 S 
ATOM     69  O   UNL A   1      38.777  30.055  33.383  1.00  0.00    -0.237 OA
ATOM     70  O   UNL A   1      36.403  29.941  32.691  1.00  0.00    -0.237 OA
ATOM     71  O   UNL A   1      37.760  27.884  32.820  1.00  0.00    -0.744 OA
ENDBRANCH  64  68
ENDBRANCH  47  61
BRANCH  48  72
ATOM     72  C   UNL A   1      49.310  27.439  26.186  1.00  0.00     0.023 A 
ATOM     73  C   UNL A   1      49.672  27.674  24.850  1.00  0.00     0.031 A 
ATOM     74  C   UNL A   1      50.279  26.888  27.045  1.00  0.00     0.131 A 
ATOM     75  C   UNL A   1      50.954  27.320  24.400  1.00  0.00     0.055 A 
ATOM     76  C   UNL A   1      51.568  26.586  26.606  1.00  0.00     0.041 A 
ATOM     77  F   UNL A   1      49.984  26.642  28.331  1.00  0.00    -0.206 F 
ATOM     78  C   UNL A   1      51.909  26.791  25.272  1.00  0.00     0.022 A 
BRANCH  75  79
ATOM     79  S   UNL A   1      51.333  27.486  22.635  1.00  0.00     0.124 S 
ATOM     80  O   UNL A   1      50.088  27.043  22.019  1.00  0.00    -0.237 OA
ATOM     81  O   UNL A   1      51.635  28.909  22.521  1.00  0.00    -0.237 OA
ATOM     82  O   UNL A   1      52.475  26.592  22.446  1.00  0.00    -0.744 OA
ENDBRANCH  75  79
ENDBRANCH  48  72
BRANCH  60  83
ATOM     83  C   UNL A   1      46.245  33.101  28.851  1.00  0.00     0.023 A 
ATOM     84  C   UNL A   1      46.205  34.157  27.923  1.00  0.00     0.031 A 
ATOM     85  C   UNL A   1      46.834  33.347  30.104  1.00  0.00     0.131 A 
ATOM     86  C   UNL A   1      46.802  35.387  28.235  1.00  0.00     0.055 A 
ATOM     87  C   UNL A   1      47.372  34.592  30.433  1.00  0.00     0.041 A 
ATOM     88  F   UNL A   1      46.903  32.376  31.030  1.00  0.00    -0.206 F 
ATOM     89  C   UNL A   1      47.371  35.617  29.491  1.00  0.00     0.022 A 
BRANCH  86  90
ATOM     90  S   UNL A   1      46.919  36.653  26.941  1.00  0.00     0.124 S 
ATOM     91  O   UNL A   1      45.517  36.990  26.718  1.00  0.00    -0.237 OA
ATOM     92  O   UNL A   1      47.728  37.684  27.584  1.00  0.00    -0.237 OA
ATOM     93  O   UNL A   1      47.572  35.954  25.835  1.00  0.00    -0.744 OA
ENDBRANCH  86  90
ENDBRANCH  60  83
ENDBRANCH  34  35
ENDBRANCH  27  29
ENDBRANCH  26  27
ENDBRANCH  25  26
ENDBRANCH   1  25
TORSDOF 20
ENDMDL
MODEL 2
REMARK VINA RESULT:     -10.6      5.489      9.086
REMARK SMILES CC(C)[C@H](C[NH+](C)C)NC(=O)c1csc(/C=C/C(=O)OCCOC(=O)c2ccc(-c3c4nc(c(-c5cc(S(=O)(=O)[O-])ccc5F)c5ccc([nH]5)c(-c5cc(S(=O)(=O)[O-])ccc5F)c5nc(c(-c6cc(S(=O)(=O)[O-])ccc6F)c6ccc3[nH]6)C=C5)C=C4)cc2)c1
REMARK SMILES IDX 21 1 20 2 18 3 19 4 17 5 16 6 15 7 12 8 13 9 89 10 14 11
REMARK SMILES IDX 10 12 9 13 11 15 4 16 2 17 1 18 3 19 5 20 6 21 7 22 8 23
REMARK SMILES IDX 22 25 23 26 24 27 25 28 26 29 27 30 88 31 28 32 87 33 29 34
REMARK SMILES IDX 30 35 31 36 81 37 32 38 86 39 80 40 82 41 33 42 85 43 79 44
REMARK SMILES IDX 78 45 34 47 66 48 46 49 65 50 47 51 50 52 64 53 83 54 48 55
REMARK SMILES IDX 49 56 63 58 84 59 51 60 35 61 36 62 44 63 37 64 43 65 45 66
REMARK SMILES IDX 42 67 38 68 39 69 40 70 41 71 67 72 68 73 76 74 69 75 75 76
REMARK SMILES IDX 77 77 74 78 70 79 71 80 72 81 73 82 52 83 53 84 61 85 54 86
REMARK SMILES IDX 60 87 62 88 59 89 55 90 56 91 57 92 58 93
REMARK H PARENT 9 14 6 24 82 46 50 57
REMARK Flexibility Score: inf
ROOT
ATOM      1  C   UNL A   1      31.574  28.943  24.886  1.00  0.00     0.275 C 
ENDROOT
BRANCH   1   2
ATOM      2  O   UNL A   1      30.923  27.882  25.609  1.00  0.00    -0.459 OA
BRANCH   2   3
ATOM      3  C   UNL A   1      31.668  27.303  26.580  1.00  0.00     0.330 C 
ATOM      4  O   UNL A   1      31.685  27.625  27.759  1.00  0.00    -0.247 OA
BRANCH   3   5
ATOM      5  C   UNL A   1      32.459  26.159  26.091  1.00  0.00     0.095 C 
ATOM      6  C   UNL A   1      33.603  26.234  25.391  1.00  0.00     0.026 C 
BRANCH   6   7
ATOM      7  C   UNL A   1      34.266  25.063  24.912  1.00  0.00     0.028 A 
ATOM      8  C   UNL A   1      35.571  23.084  24.832  1.00  0.00     0.051 A 
ATOM      9  C   UNL A   1      35.140  23.201  23.526  1.00  0.00     0.079 A 
ATOM     10  C   UNL A   1      35.041  24.162  25.626  1.00  0.00     0.033 A 
ATOM     11  S   UNL A   1      34.235  24.614  23.248  1.00  0.00    -0.144 S 
BRANCH   8  12
ATOM     12  C   UNL A   1      36.347  21.969  25.363  1.00  0.00     0.252 C 
ATOM     13  N   UNL A   1      35.757  20.748  25.558  1.00  0.00    -0.343 N 
ATOM     14  H   UNL A   1      36.226  20.159  26.191  1.00  0.00     0.164 HD
ATOM     15  O   UNL A   1      37.542  22.094  25.630  1.00  0.00    -0.269 OA
BRANCH  13  16
ATOM     16  C   UNL A   1      34.538  20.179  24.972  1.00  0.00     0.139 C 
BRANCH  16  17
ATOM     17  C   UNL A   1      33.313  20.441  25.895  1.00  0.00     0.011 C 
ATOM     18  C   UNL A   1      33.701  21.210  27.170  1.00  0.00     0.010 C 
ATOM     19  C   UNL A   1      32.230  21.252  25.169  1.00  0.00     0.010 C 
ENDBRANCH  16  17
BRANCH  16  20
ATOM     20  C   UNL A   1      34.754  18.666  24.626  1.00  0.00     0.287 C 
BRANCH  20  21
ATOM     21  N   UNL A   1      33.635  17.748  24.973  1.00  0.00    -0.338 N 
ATOM     22  C   UNL A   1      32.780  17.549  23.793  1.00  0.00     0.332 C 
ATOM     23  C   UNL A   1      34.139  16.430  25.389  1.00  0.00     0.332 C 
ATOM     24  H   UNL A   1      33.112  18.170  25.740  1.00  0.00     0.347 HD
ENDBRANCH  20  21
ENDBRANCH  16  20
ENDBRANCH  13  16
ENDBRANCH   8  12
ENDBRANCH   6   7
ENDBRANCH   3   5
ENDBRANCH   2   3
ENDBRANCH   1   2
BRANCH   1  25
ATOM     25  C   UNL A   1      31.788  30.177  25.769  1.00  0.00     0.275 C 
BRANCH  25  26
ATOM     26  O   UNL A   1      33.183  30.444  26.011  1.00  0.00    -0.458 OA
BRANCH  26  27
ATOM     27  C   UNL A   1      33.425  31.343  26.999  1.00  0.00     0.338 C 
ATOM     28  O   UNL A   1      32.662  32.209  27.393  1.00  0.00    -0.246 OA
BRANCH  27  29
ATOM     29  C   UNL A   1      34.725  31.065  27.643  1.00  0.00     0.060 A 
ATOM     30  C   UNL A   1      34.993  29.745  28.015  1.00  0.00     0.016 A 
ATOM     31  C   UNL A   1      35.637  32.080  27.946  1.00  0.00     0.016 A 
ATOM     32  C   UNL A   1      36.171  29.435  28.693  1.00  0.00     0.010 A 
ATOM     33  C   UNL A   1      36.821  31.767  28.630  1.00  0.00     0.010 A 
ATOM     34  C   UNL A   1      37.090  30.443  29.018  1.00  0.00    -0.014 A 
BRANCH  34  35
ATOM     35  C   UNL A   1      38.308  30.088  29.794  1.00  0.00     0.031 A 
ATOM     36  C   UNL A   1      38.518  30.649  31.174  1.00  0.00     0.074 A 
ATOM     37  C   UNL A   1      39.195  29.215  29.280  1.00  0.00     0.049 A 
ATOM     38  N   UNL A   1      39.480  30.409  32.028  1.00  0.00    -0.248 NA
ATOM     39  C   UNL A   1      37.512  31.608  31.652  1.00  0.00     0.031 C 
ATOM     40  C   UNL A   1      39.090  28.594  27.960  1.00  0.00     0.029 A 
ATOM     41  N   UNL A   1      40.347  28.690  29.808  1.00  0.00    -0.354 N 
ATOM     42  C   UNL A   1      39.195  31.180  33.150  1.00  0.00     0.074 A 
ATOM     43  C   UNL A   1      37.993  31.929  32.846  1.00  0.00     0.031 C 
ATOM     44  C   UNL A   1      40.128  27.758  27.787  1.00  0.00     0.029 A 
ATOM     45  C   UNL A   1      40.987  27.808  28.968  1.00  0.00     0.049 A 
ATOM     46  H   UNL A   1      40.684  28.922  30.703  1.00  0.00     0.167 HD
ATOM     47  C   UNL A   1      39.868  31.247  34.328  1.00  0.00     0.034 A 
ATOM     48  C   UNL A   1      42.138  27.125  29.126  1.00  0.00     0.034 A 
ATOM     49  C   UNL A   1      41.075  30.506  34.613  1.00  0.00     0.049 A 
ATOM     50  C   UNL A   1      42.899  27.262  30.421  1.00  0.00     0.074 A 
ATOM     51  C   UNL A   1      41.820  30.487  35.780  1.00  0.00     0.029 A 
ATOM     52  N   UNL A   1      41.724  29.664  33.718  1.00  0.00    -0.354 N 
ATOM     53  N   UNL A   1      42.602  27.975  31.484  1.00  0.00    -0.248 NA
ATOM     54  C   UNL A   1      44.143  26.492  30.541  1.00  0.00     0.031 C 
ATOM     55  C   UNL A   1      42.953  29.692  35.568  1.00  0.00     0.029 A 
ATOM     56  C   UNL A   1      42.878  29.149  34.296  1.00  0.00     0.049 A 
ATOM     57  H   UNL A   1      41.411  29.461  32.808  1.00  0.00     0.167 HD
ATOM     58  C   UNL A   1      43.614  27.721  32.406  1.00  0.00     0.074 A 
ATOM     59  C   UNL A   1      44.514  26.772  31.781  1.00  0.00     0.031 C 
ATOM     60  C   UNL A   1      43.784  28.224  33.656  1.00  0.00     0.034 A 
BRANCH  47  61
ATOM     61  C   UNL A   1      39.332  32.193  35.377  1.00  0.00     0.023 A 
ATOM     62  C   UNL A   1      39.753  33.532  35.454  1.00  0.00     0.031 A 
ATOM     63  C   UNL A   1      38.401  31.742  36.330  1.00  0.00     0.131 A 
ATOM     64  C   UNL A   1      39.299  34.353  36.498  1.00  0.00     0.055 A 
ATOM     65  C   UNL A   1      37.895  32.585  37.323  1.00  0.00     0.041 A 
ATOM     66  F   UNL A   1      37.975  30.469  36.321  1.00  0.00    -0.206 F 
ATOM     67  C   UNL A   1      38.354  33.895  37.419  1.00  0.00     0.022 A 
BRANCH  64  68
ATOM     68  S   UNL A   1      40.061  35.984  36.716  1.00  0.00     0.124 S 
ATOM     69  O   UNL A   1      39.712  36.645  35.461  1.00  0.00    -0.237 OA
ATOM     70  O   UNL A   1      39.394  36.488  37.911  1.00  0.00    -0.237 OA
ATOM     71  O   UNL A   1      41.482  35.681  36.876  1.00  0.00    -0.744 OA
ENDBRANCH  64  68
ENDBRANCH  47  61
BRANCH  48  72
ATOM     72  C   UNL A   1      42.664  26.270  28.024  1.00  0.00     0.023 A 
ATOM     73  C   UNL A   1      42.257  24.934  27.878  1.00  0.00     0.031 A 
ATOM     74  C   UNL A   1      43.624  26.769  27.126  1.00  0.00     0.131 A 
ATOM     75  C   UNL A   1      42.838  24.130  26.886  1.00  0.00     0.055 A 
ATOM     76  C   UNL A   1      44.162  25.981  26.107  1.00  0.00     0.041 A 
ATOM     77  F   UNL A   1      44.050  28.039  27.223  1.00  0.00    -0.206 F 
ATOM     78  C   UNL A   1      43.779  24.648  25.990  1.00  0.00     0.022 A 
BRANCH  75  79
ATOM     79  S   UNL A   1      42.410  22.369  26.830  1.00  0.00     0.124 S 
ATOM     80  O   UNL A   1      41.098  22.401  26.194  1.00  0.00    -0.237 OA
ATOM     81  O   UNL A   1      43.498  21.818  26.028  1.00  0.00    -0.237 OA
ATOM     82  O   UNL A   1      42.413  21.973  28.237  1.00  0.00    -0.744 OA
ENDBRANCH  75  79
ENDBRANCH  48  72
BRANCH  60  83
ATOM     83  C   UNL A   1      44.981  27.727  34.432  1.00  0.00     0.023 A 
ATOM     84  C   UNL A   1      44.966  26.491  35.103  1.00  0.00     0.031 A 
ATOM     85  C   UNL A   1      46.140  28.516  34.530  1.00  0.00     0.131 A 
ATOM     86  C   UNL A   1      46.060  26.111  35.896  1.00  0.00     0.055 A 
ATOM     87  C   UNL A   1      47.250  28.105  35.271  1.00  0.00     0.041 A 
ATOM     88  F   UNL A   1      46.211  29.707  33.913  1.00  0.00    -0.206 F 
ATOM     89  C   UNL A   1      47.208  26.903  35.971  1.00  0.00     0.022 A 
BRANCH  86  90
ATOM     90  S   UNL A   1      45.921  24.615  36.913  1.00  0.00     0.124 S 
ATOM     91  O   UNL A   1      47.141  23.896  36.564  1.00  0.00    -0.237 OA
ATOM     92  O   UNL A   1      45.866  25.161  38.265  1.00  0.00    -0.237 OA
ATOM     93  O   UNL A   1      44.682  23.996  36.445  1.00  0.00    -0.744 OA
ENDBRANCH  86  90
ENDBRANCH  60  83
ENDBRANCH  34  35
ENDBRANCH  27  29
ENDBRANCH  26  27
ENDBRANCH  25  26
ENDBRANCH   1  25
TORSDOF 20
ENDMDL
MODEL 3
REMARK VINA RESULT:     -10.5      5.874      9.369
REMARK SMILES CC(C)[C@H](C[NH+](C)C)NC(=O)c1csc(/C=C/C(=O)OCCOC(=O)c2ccc(-c3c4nc(c(-c5cc(S(=O)(=O)[O-])ccc5F)c5ccc([nH]5)c(-c5cc(S(=O)(=O)[O-])ccc5F)c5nc(c(-c6cc(S(=O)(=O)[O-])ccc6F)c6ccc3[nH]6)C=C5)C=C4)cc2)c1
REMARK SMILES IDX 21 1 20 2 18 3 19 4 17 5 16 6 15 7 12 8 13 9 89 10 14 11
REMARK SMILES IDX 10 12 9 13 11 15 4 16 2 17 1 18 3 19 5 20 6 21 7 22 8 23
REMARK SMILES IDX 22 25 23 26 24 27 25 28 26 29 27 30 88 31 28 32 87 33 29 34
REMARK SMILES IDX 30 35 31 36 81 37 32 38 86 39 80 40 82 41 33 42 85 43 79 44
REMARK SMILES IDX 78 45 34 47 66 48 46 49 65 50 47 51 50 52 64 53 83 54 48 55
REMARK SMILES IDX 49 56 63 58 84 59 51 60 35 61 36 62 44 63 37 64 43 65 45 66
REMARK SMILES IDX 42 67 38 68 39 69 40 70 41 71 67 72 68 73 76 74 69 75 75 76
REMARK SMILES IDX 77 77 74 78 70 79 71 80 72 81 73 82 52 83 53 84 61 85 54 86
REMARK SMILES IDX 60 87 62 88 59 89 55 90 56 91 57 92 58 93
REMARK H PARENT 9 14 6 24 82 46 50 57
REMARK Flexibility Score: inf
ROOT
ATOM      1  C   UNL A   1      31.949  30.803  26.888  1.00  0.00     0.275 C 
ENDROOT
BRANCH   1   2
ATOM      2  O   UNL A   1      33.107  30.480  26.096  1.00  0.00    -0.459 OA
BRANCH   2   3
ATOM      3  C   UNL A   1      33.694  29.296  26.387  1.00  0.00     0.330 C 
ATOM      4  O   UNL A   1      34.401  29.065  27.357  1.00  0.00    -0.247 OA
BRANCH   3   5
ATOM      5  C   UNL A   1      33.355  28.235  25.422  1.00  0.00     0.095 C 
ATOM      6  C   UNL A   1      32.248  27.475  25.443  1.00  0.00     0.026 C 
BRANCH   6   7
ATOM      7  C   UNL A   1      32.038  26.429  24.492  1.00  0.00     0.028 A 
ATOM      8  C   UNL A   1      32.424  24.782  22.830  1.00  0.00     0.051 A 
ATOM      9  C   UNL A   1      31.067  24.659  23.052  1.00  0.00     0.079 A 
ATOM     10  C   UNL A   1      32.973  25.801  23.686  1.00  0.00     0.033 A 
ATOM     11  S   UNL A   1      30.466  25.804  24.157  1.00  0.00    -0.144 S 
BRANCH   8  12
ATOM     12  C   UNL A   1      33.211  23.925  21.951  1.00  0.00     0.252 C 
ATOM     13  N   UNL A   1      34.066  22.994  22.478  1.00  0.00    -0.343 N 
ATOM     14  H   UNL A   1      34.774  22.688  21.866  1.00  0.00     0.164 HD
ATOM     15  O   UNL A   1      33.114  24.007  20.727  1.00  0.00    -0.269 OA
BRANCH  13  16
ATOM     16  C   UNL A   1      34.096  22.379  23.810  1.00  0.00     0.139 C 
BRANCH  16  17
ATOM     17  C   UNL A   1      35.557  22.289  24.339  1.00  0.00     0.011 C 
ATOM     18  C   UNL A   1      36.574  22.861  23.337  1.00  0.00     0.010 C 
ATOM     19  C   UNL A   1      35.721  23.051  25.661  1.00  0.00     0.010 C 
ENDBRANCH  16  17
BRANCH  16  20
ATOM     20  C   UNL A   1      33.345  21.005  23.795  1.00  0.00     0.287 C 
BRANCH  20  21
ATOM     21  N   UNL A   1      32.373  20.776  24.898  1.00  0.00    -0.338 N 
ATOM     22  C   UNL A   1      32.950  19.839  25.873  1.00  0.00     0.332 C 
ATOM     23  C   UNL A   1      32.069  22.029  25.607  1.00  0.00     0.332 C 
ATOM     24  H   UNL A   1      31.518  20.400  24.487  1.00  0.00     0.347 HD
ENDBRANCH  20  21
ENDBRANCH  16  20
ENDBRANCH  13  16
ENDBRANCH   8  12
ENDBRANCH   6   7
ENDBRANCH   3   5
ENDBRANCH   2   3
ENDBRANCH   1   2
BRANCH   1  25
ATOM     25  C   UNL A   1      31.764  32.318  27.025  1.00  0.00     0.275 C 
BRANCH  25  26
ATOM     26  O   UNL A   1      33.001  33.039  26.866  1.00  0.00    -0.458 OA
BRANCH  26  27
ATOM     27  C   UNL A   1      33.452  33.649  27.992  1.00  0.00     0.338 C 
ATOM     28  O   UNL A   1      32.888  34.537  28.609  1.00  0.00    -0.246 OA
BRANCH  27  29
ATOM     29  C   UNL A   1      34.696  33.009  28.464  1.00  0.00     0.060 A 
ATOM     30  C   UNL A   1      34.575  31.836  29.216  1.00  0.00     0.016 A 
ATOM     31  C   UNL A   1      35.954  33.576  28.243  1.00  0.00     0.016 A 
ATOM     32  C   UNL A   1      35.710  31.229  29.751  1.00  0.00     0.010 A 
ATOM     33  C   UNL A   1      37.094  32.964  28.785  1.00  0.00     0.010 A 
ATOM     34  C   UNL A   1      36.978  31.793  29.552  1.00  0.00    -0.014 A 
BRANCH  34  35
ATOM     35  C   UNL A   1      38.161  31.153  30.187  1.00  0.00     0.031 A 
ATOM     36  C   UNL A   1      38.542  31.498  31.600  1.00  0.00     0.074 A 
ATOM     37  C   UNL A   1      38.856  30.219  29.511  1.00  0.00     0.049 A 
ATOM     38  N   UNL A   1      39.498  31.002  32.345  1.00  0.00    -0.248 NA
ATOM     39  C   UNL A   1      37.742  32.540  32.259  1.00  0.00     0.031 C 
ATOM     40  C   UNL A   1      38.572  29.790  28.141  1.00  0.00     0.029 A 
ATOM     41  N   UNL A   1      39.932  29.454  29.885  1.00  0.00    -0.354 N 
ATOM     42  C   UNL A   1      39.413  31.664  33.565  1.00  0.00     0.074 A 
ATOM     43  C   UNL A   1      38.339  32.629  33.440  1.00  0.00     0.031 C 
ATOM     44  C   UNL A   1      39.442  28.827  27.796  1.00  0.00     0.029 A 
ATOM     45  C   UNL A   1      40.364  28.591  28.904  1.00  0.00     0.049 A 
ATOM     46  H   UNL A   1      40.354  29.517  30.772  1.00  0.00     0.167 HD
ATOM     47  C   UNL A   1      40.154  31.476  34.687  1.00  0.00     0.034 A 
ATOM     48  C   UNL A   1      41.391  27.717  28.895  1.00  0.00     0.034 A 
ATOM     49  C   UNL A   1      41.233  30.522  34.793  1.00  0.00     0.049 A 
ATOM     50  C   UNL A   1      42.237  27.569  30.135  1.00  0.00     0.074 A 
ATOM     51  C   UNL A   1      42.030  30.239  35.889  1.00  0.00     0.029 A 
ATOM     52  N   UNL A   1      41.677  29.703  33.762  1.00  0.00    -0.354 N 
ATOM     53  N   UNL A   1      42.126  28.184  31.291  1.00  0.00    -0.248 NA
ATOM     54  C   UNL A   1      43.338  26.601  30.071  1.00  0.00     0.031 C 
ATOM     55  C   UNL A   1      42.998  29.303  35.503  1.00  0.00     0.029 A 
ATOM     56  C   UNL A   1      42.759  28.942  34.187  1.00  0.00     0.049 A 
ATOM     57  H   UNL A   1      41.283  29.667  32.861  1.00  0.00     0.167 HD
ATOM     58  C   UNL A   1      43.133  27.658  32.097  1.00  0.00     0.074 A 
ATOM     59  C   UNL A   1      43.822  26.662  31.302  1.00  0.00     0.031 C 
ATOM     60  C   UNL A   1      43.457  27.969  33.379  1.00  0.00     0.034 A 
BRANCH  47  61
ATOM     61  C   UNL A   1      39.847  32.359  35.875  1.00  0.00     0.023 A 
ATOM     62  C   UNL A   1      38.911  31.984  36.855  1.00  0.00     0.031 A 
ATOM     63  C   UNL A   1      40.484  33.605  36.017  1.00  0.00     0.131 A 
ATOM     64  C   UNL A   1      38.589  32.872  37.894  1.00  0.00     0.055 A 
ATOM     65  C   UNL A   1      40.214  34.452  37.094  1.00  0.00     0.041 A 
ATOM     66  F   UNL A   1      41.372  34.026  35.103  1.00  0.00    -0.206 F 
ATOM     67  C   UNL A   1      39.252  34.093  38.033  1.00  0.00     0.022 A 
BRANCH  64  68
ATOM     68  S   UNL A   1      37.196  32.466  38.983  1.00  0.00     0.124 S 
ATOM     69  O   UNL A   1      37.329  31.017  39.107  1.00  0.00    -0.237 OA
ATOM     70  O   UNL A   1      37.497  33.240  40.182  1.00  0.00    -0.237 OA
ATOM     71  O   UNL A   1      36.028  32.914  38.227  1.00  0.00    -0.744 OA
ENDBRANCH  64  68
ENDBRANCH  47  61
BRANCH  48  72
ATOM     72  C   UNL A   1      41.699  26.931  27.667  1.00  0.00     0.023 A 
ATOM     73  C   UNL A   1      41.427  25.556  27.592  1.00  0.00     0.031 A 
ATOM     74  C   UNL A   1      42.320  27.543  26.563  1.00  0.00     0.131 A 
ATOM     75  C   UNL A   1      41.813  24.828  26.455  1.00  0.00     0.055 A 
ATOM     76  C   UNL A   1      42.655  26.826  25.414  1.00  0.00     0.041 A 
ATOM     77  F   UNL A   1      42.604  28.855  26.584  1.00  0.00    -0.206 F 
ATOM     78  C   UNL A   1      42.413  25.456  25.360  1.00  0.00     0.022 A 
BRANCH  75  79
ATOM     79  S   UNL A   1      41.595  23.028  26.459  1.00  0.00     0.124 S 
ATOM     80  O   UNL A   1      42.356  22.633  25.280  1.00  0.00    -0.237 OA
ATOM     81  O   UNL A   1      42.169  22.656  27.748  1.00  0.00    -0.237 OA
ATOM     82  O   UNL A   1      40.147  22.860  26.353  1.00  0.00    -0.744 OA
ENDBRANCH  75  79
ENDBRANCH  48  72
BRANCH  60  83
ATOM     83  C   UNL A   1      44.595  27.194  33.999  1.00  0.00     0.023 A 
ATOM     84  C   UNL A   1      44.395  25.936  34.596  1.00  0.00     0.031 A 
ATOM     85  C   UNL A   1      45.893  27.736  34.024  1.00  0.00     0.131 A 
ATOM     86  C   UNL A   1      45.457  25.293  35.251  1.00  0.00     0.055 A 
ATOM     87  C   UNL A   1      46.959  27.064  34.623  1.00  0.00     0.041 A 
ATOM     88  F   UNL A   1      46.143  28.934  33.472  1.00  0.00    -0.206 F 
ATOM     89  C   UNL A   1      46.743  25.842  35.254  1.00  0.00     0.022 A 
BRANCH  86  90
ATOM     90  S   UNL A   1      45.115  23.779  36.189  1.00  0.00     0.124 S 
ATOM     91  O   UNL A   1      44.805  24.305  37.513  1.00  0.00    -0.237 OA
ATOM     92  O   UNL A   1      43.995  23.202  35.452  1.00  0.00    -0.237 OA
ATOM     93  O   UNL A   1      46.367  23.029  36.097  1.00  0.00    -0.744 OA
ENDBRANCH  86  90
ENDBRANCH  60  83
ENDBRANCH  34  35
ENDBRANCH  27  29
ENDBRANCH  26  27
ENDBRANCH  25  26
ENDBRANCH   1  25
TORSDOF 20
ENDMDL
