MODEL 1
REMARK VINA RESULT:     -12.8      0.000      0.000
REMARK SMILES C[C@H](C(=O)OCCOC(=O)c1ccc(-c2c3nc(c(-c4cc(S(=O)(=O)[O-])ccc4F)c4ccc([nH]4)c(-c4cc(S(=O)(=O)[O-])ccc4F)c4nc(c(-c5cc(S(=O)(=O)[O-])ccc5F)c5ccc2[nH]5)C=C4)C=C3)cc1)N1C(=O)C[C@@H](N2C(=O)/C(=C/c3ccccc3)SC2=S)C1=O
REMARK SMILES IDX 6 1 5 2 3 3 4 4 2 5 1 6 74 7 75 8 93 9 76 10 77 11 78 12
REMARK SMILES IDX 94 13 79 14 80 15 91 16 81 17 82 18 90 19 92 20 83 21 84 22
REMARK SMILES IDX 85 23 89 24 86 25 88 26 87 27 7 28 8 29 9 30 10 31 11 32
REMARK SMILES IDX 12 33 73 34 13 35 72 36 14 37 15 38 16 39 66 40 17 41 71 42
REMARK SMILES IDX 65 43 67 44 18 45 70 46 64 47 63 48 19 50 51 51 31 52 50 53
REMARK SMILES IDX 32 54 35 55 49 56 68 57 33 58 34 59 48 61 69 62 36 63 20 64
REMARK SMILES IDX 21 65 29 66 22 67 28 68 30 69 27 70 23 71 24 72 25 73 26 74
REMARK SMILES IDX 52 75 53 76 61 77 54 78 60 79 62 80 59 81 55 82 56 83 57 84
REMARK SMILES IDX 58 85 37 86 38 87 46 88 39 89 45 90 47 91 44 92 40 93 41 94
REMARK SMILES IDX 42 95 43 96
REMARK H PARENT 67 49 35 60
REMARK Flexibility Score: inf
ROOT
ATOM      1  C   UNL A   1      31.334  29.317  24.346  1.00  0.00     0.274 C 
ENDROOT
BRANCH   1   2
ATOM      2  O   UNL A   1      32.617  28.692  24.182  1.00  0.00    -0.461 OA
BRANCH   2   3
ATOM      3  C   UNL A   1      32.757  27.869  23.106  1.00  0.00     0.329 C 
ATOM      4  O   UNL A   1      33.512  28.071  22.161  1.00  0.00    -0.250 OA
BRANCH   3   5
ATOM      5  C   UNL A   1      31.850  26.640  23.210  1.00  0.00     0.200 C 
ATOM      6  C   UNL A   1      31.665  25.841  21.927  1.00  0.00     0.044 C 
BRANCH   5   7
ATOM      7  N   UNL A   1      32.213  25.813  24.345  1.00  0.00    -0.267 N 
ATOM      8  C   UNL A   1      31.554  25.786  25.536  1.00  0.00     0.232 C 
ATOM      9  C   UNL A   1      33.400  25.141  24.392  1.00  0.00     0.253 C 
ATOM     10  O   UNL A   1      30.596  26.471  25.861  1.00  0.00    -0.274 OA
ATOM     11  C   UNL A   1      32.191  24.766  26.434  1.00  0.00     0.136 C 
ATOM     12  C   UNL A   1      33.513  24.469  25.741  1.00  0.00     0.191 C 
ATOM     13  O   UNL A   1      34.252  25.098  23.518  1.00  0.00    -0.272 OA
BRANCH  12  14
ATOM     14  N   UNL A   1      33.840  23.060  25.534  1.00  0.00    -0.280 N 
ATOM     15  C   UNL A   1      32.815  22.176  25.235  1.00  0.00     0.266 C 
ATOM     16  C   UNL A   1      35.113  22.533  25.561  1.00  0.00     0.149 C 
ATOM     17  O   UNL A   1      31.625  22.464  25.196  1.00  0.00    -0.268 OA
ATOM     18  C   UNL A   1      33.347  20.813  25.018  1.00  0.00     0.081 C 
ATOM     19  S   UNL A   1      35.054  20.812  25.207  1.00  0.00    -0.054 SA
ATOM     20  S   UNL A   1      36.539  23.309  25.942  1.00  0.00    -0.052 S 
ATOM     21  C   UNL A   1      32.536  19.781  24.756  1.00  0.00     0.029 C 
BRANCH  21  22
ATOM     22  C   UNL A   1      32.954  18.380  24.672  1.00  0.00    -0.024 A 
ATOM     23  C   UNL A   1      33.595  17.897  23.528  1.00  0.00     0.008 A 
ATOM     24  C   UNL A   1      32.672  17.502  25.727  1.00  0.00     0.008 A 
ATOM     25  C   UNL A   1      33.968  16.553  23.454  1.00  0.00     0.001 A 
ATOM     26  C   UNL A   1      33.050  16.163  25.652  1.00  0.00     0.001 A 
ATOM     27  C   UNL A   1      33.700  15.689  24.515  1.00  0.00     0.000 A 
ENDBRANCH  21  22
ENDBRANCH  12  14
ENDBRANCH   5   7
ENDBRANCH   3   5
ENDBRANCH   2   3
ENDBRANCH   1   2
BRANCH   1  28
ATOM     28  C   UNL A   1      31.434  30.337  25.477  1.00  0.00     0.275 C 
BRANCH  28  29
ATOM     29  O   UNL A   1      32.808  30.419  25.905  1.00  0.00    -0.458 OA
BRANCH  29  30
ATOM     30  C   UNL A   1      33.054  31.293  26.912  1.00  0.00     0.338 C 
ATOM     31  O   UNL A   1      32.304  32.160  27.328  1.00  0.00    -0.246 OA
BRANCH  30  32
ATOM     32  C   UNL A   1      34.381  31.029  27.510  1.00  0.00     0.060 A 
ATOM     33  C   UNL A   1      34.731  29.753  27.956  1.00  0.00     0.016 A 
ATOM     34  C   UNL A   1      35.240  32.101  27.743  1.00  0.00     0.016 A 
ATOM     35  C   UNL A   1      35.885  29.569  28.719  1.00  0.00     0.010 A 
ATOM     36  C   UNL A   1      36.460  31.885  28.391  1.00  0.00     0.010 A 
ATOM     37  C   UNL A   1      36.790  30.621  28.914  1.00  0.00    -0.014 A 
BRANCH  37  38
ATOM     38  C   UNL A   1      38.085  30.423  29.635  1.00  0.00     0.031 A 
ATOM     39  C   UNL A   1      39.167  29.562  29.031  1.00  0.00     0.074 A 
ATOM     40  C   UNL A   1      38.275  30.959  30.859  1.00  0.00     0.049 A 
ATOM     41  N   UNL A   1      40.221  29.029  29.598  1.00  0.00    -0.248 NA
ATOM     42  C   UNL A   1      39.026  29.237  27.604  1.00  0.00     0.031 C 
ATOM     43  C   UNL A   1      37.343  31.851  31.554  1.00  0.00     0.029 A 
ATOM     44  N   UNL A   1      39.314  30.817  31.749  1.00  0.00    -0.354 N 
ATOM     45  C   UNL A   1      40.833  28.254  28.616  1.00  0.00     0.074 A 
ATOM     46  C   UNL A   1      40.022  28.380  27.422  1.00  0.00     0.031 C 
ATOM     47  C   UNL A   1      37.861  32.194  32.743  1.00  0.00     0.029 A 
ATOM     48  C   UNL A   1      39.102  31.460  32.948  1.00  0.00     0.049 A 
ATOM     49  H   UNL A   1      40.130  30.304  31.549  1.00  0.00     0.167 HD
ATOM     50  C   UNL A   1      41.961  27.504  28.708  1.00  0.00     0.034 A 
ATOM     51  C   UNL A   1      39.784  31.419  34.109  1.00  0.00     0.034 A 
ATOM     52  C   UNL A   1      42.781  27.428  29.897  1.00  0.00     0.049 A 
ATOM     53  C   UNL A   1      40.999  30.536  34.209  1.00  0.00     0.074 A 
ATOM     54  C   UNL A   1      43.961  26.728  30.088  1.00  0.00     0.029 A 
ATOM     55  N   UNL A   1      42.510  28.078  31.096  1.00  0.00    -0.354 N 
ATOM     56  N   UNL A   1      41.535  29.761  33.295  1.00  0.00    -0.248 NA
ATOM     57  C   UNL A   1      41.691  30.512  35.503  1.00  0.00     0.031 C 
ATOM     58  C   UNL A   1      44.365  26.898  31.418  1.00  0.00     0.029 A 
ATOM     59  C   UNL A   1      43.484  27.770  32.036  1.00  0.00     0.049 A 
ATOM     60  H   UNL A   1      41.741  28.670  31.254  1.00  0.00     0.167 HD
ATOM     61  C   UNL A   1      42.644  29.177  33.899  1.00  0.00     0.074 A 
ATOM     62  C   UNL A   1      42.708  29.702  35.248  1.00  0.00     0.031 C 
ATOM     63  C   UNL A   1      43.531  28.289  33.383  1.00  0.00     0.034 A 
BRANCH  50  64
ATOM     64  C   UNL A   1      42.343  26.656  27.515  1.00  0.00     0.023 A 
ATOM     65  C   UNL A   1      41.950  25.313  27.388  1.00  0.00     0.031 A 
ATOM     66  C   UNL A   1      43.131  27.207  26.487  1.00  0.00     0.131 A 
ATOM     67  C   UNL A   1      42.406  24.548  26.301  1.00  0.00     0.055 A 
ATOM     68  C   UNL A   1      43.513  26.465  25.367  1.00  0.00     0.041 A 
ATOM     69  F   UNL A   1      43.556  28.478  26.557  1.00  0.00    -0.206 F 
ATOM     70  C   UNL A   1      43.162  25.122  25.278  1.00  0.00     0.022 A 
BRANCH  67  71
ATOM     71  S   UNL A   1      42.117  22.757  26.318  1.00  0.00     0.124 S 
ATOM     72  O   UNL A   1      42.613  22.365  25.000  1.00  0.00    -0.237 OA
ATOM     73  O   UNL A   1      42.914  22.319  27.458  1.00  0.00    -0.237 OA
ATOM     74  O   UNL A   1      40.669  22.644  26.488  1.00  0.00    -0.744 OA
ENDBRANCH  67  71
ENDBRANCH  50  64
BRANCH  51  75
ATOM     75  C   UNL A   1      39.298  32.183  35.295  1.00  0.00     0.023 A 
ATOM     76  C   UNL A   1      39.715  33.503  35.522  1.00  0.00     0.031 A 
ATOM     77  C   UNL A   1      38.434  31.593  36.236  1.00  0.00     0.131 A 
ATOM     78  C   UNL A   1      39.298  34.178  36.679  1.00  0.00     0.055 A 
ATOM     79  C   UNL A   1      37.974  32.289  37.354  1.00  0.00     0.041 A 
ATOM     80  F   UNL A   1      38.005  30.331  36.069  1.00  0.00    -0.206 F 
ATOM     81  C   UNL A   1      38.417  33.587  37.587  1.00  0.00     0.022 A 
BRANCH  78  82
ATOM     82  S   UNL A   1      39.992  35.817  37.023  1.00  0.00     0.124 S 
ATOM     83  O   UNL A   1      39.272  36.197  38.233  1.00  0.00    -0.237 OA
ATOM     84  O   UNL A   1      41.411  35.518  37.187  1.00  0.00    -0.237 OA
ATOM     85  O   UNL A   1      39.654  36.587  35.827  1.00  0.00    -0.744 OA
ENDBRANCH  78  82
ENDBRANCH  51  75
BRANCH  63  86
ATOM     86  C   UNL A   1      44.679  27.878  34.274  1.00  0.00     0.023 A 
ATOM     87  C   UNL A   1      44.586  26.775  35.142  1.00  0.00     0.031 A 
ATOM     88  C   UNL A   1      45.872  28.621  34.272  1.00  0.00     0.131 A 
ATOM     89  C   UNL A   1      45.645  26.484  36.016  1.00  0.00     0.055 A 
ATOM     90  C   UNL A   1      46.945  28.288  35.100  1.00  0.00     0.041 A 
ATOM     91  F   UNL A   1      46.014  29.686  33.467  1.00  0.00    -0.206 F 
ATOM     92  C   UNL A   1      46.829  27.223  35.988  1.00  0.00     0.022 A 
BRANCH  89  93
ATOM     93  S   UNL A   1      45.414  25.186  37.262  1.00  0.00     0.124 S 
ATOM     94  O   UNL A   1      44.116  24.634  36.890  1.00  0.00    -0.237 OA
ATOM     95  O   UNL A   1      46.566  24.320  37.028  1.00  0.00    -0.237 OA
ATOM     96  O   UNL A   1      45.438  25.917  38.527  1.00  0.00    -0.744 OA
ENDBRANCH  89  93
ENDBRANCH  63  86
ENDBRANCH  37  38
ENDBRANCH  30  32
ENDBRANCH  29  30
ENDBRANCH  28  29
ENDBRANCH   1  28
TORSDOF 17
ENDMDL
MODEL 2
REMARK VINA RESULT:     -12.7      5.040     10.347
REMARK SMILES C[C@H](C(=O)OCCOC(=O)c1ccc(-c2c3nc(c(-c4cc(S(=O)(=O)[O-])ccc4F)c4ccc([nH]4)c(-c4cc(S(=O)(=O)[O-])ccc4F)c4nc(c(-c5cc(S(=O)(=O)[O-])ccc5F)c5ccc2[nH]5)C=C4)C=C3)cc1)N1C(=O)C[C@@H](N2C(=O)/C(=C/c3ccccc3)SC2=S)C1=O
REMARK SMILES IDX 6 1 5 2 3 3 4 4 2 5 1 6 74 7 75 8 93 9 76 10 77 11 78 12
REMARK SMILES IDX 94 13 79 14 80 15 91 16 81 17 82 18 90 19 92 20 83 21 84 22
REMARK SMILES IDX 85 23 89 24 86 25 88 26 87 27 7 28 8 29 9 30 10 31 11 32
REMARK SMILES IDX 12 33 73 34 13 35 72 36 14 37 15 38 16 39 66 40 17 41 71 42
REMARK SMILES IDX 65 43 67 44 18 45 70 46 64 47 63 48 19 50 51 51 31 52 50 53
REMARK SMILES IDX 32 54 35 55 49 56 68 57 33 58 34 59 48 61 69 62 36 63 20 64
REMARK SMILES IDX 21 65 29 66 22 67 28 68 30 69 27 70 23 71 24 72 25 73 26 74
REMARK SMILES IDX 52 75 53 76 61 77 54 78 60 79 62 80 59 81 55 82 56 83 57 84
REMARK SMILES IDX 58 85 37 86 38 87 46 88 39 89 45 90 47 91 44 92 40 93 41 94
REMARK SMILES IDX 42 95 43 96
REMARK H PARENT 67 49 35 60
REMARK Flexibility Score: inf
ROOT
ATOM      1  C   UNL A   1      34.636  20.685  25.596  1.00  0.00     0.274 C 
ENDROOT
BRANCH   1   2
ATOM      2  O   UNL A   1      34.439  21.912  26.318  1.00  0.00    -0.461 OA
BRANCH   2   3
ATOM      3  C   UNL A   1      33.162  22.192  26.700  1.00  0.00     0.329 C 
ATOM      4  O   UNL A   1      32.750  22.152  27.854  1.00  0.00    -0.250 OA
BRANCH   3   5
ATOM      5  C   UNL A   1      32.283  22.568  25.504  1.00  0.00     0.200 C 
ATOM      6  C   UNL A   1      30.787  22.643  25.779  1.00  0.00     0.044 C 
BRANCH   5   7
ATOM      7  N   UNL A   1      32.794  23.743  24.825  1.00  0.00    -0.267 N 
ATOM      8  C   UNL A   1      33.464  23.733  23.640  1.00  0.00     0.232 C 
ATOM      9  C   UNL A   1      32.838  24.962  25.437  1.00  0.00     0.253 C 
ATOM     10  O   UNL A   1      33.783  22.752  22.986  1.00  0.00    -0.274 OA
ATOM     11  C   UNL A   1      33.777  25.144  23.233  1.00  0.00     0.136 C 
ATOM     12  C   UNL A   1      33.516  25.939  24.504  1.00  0.00     0.191 C 
ATOM     13  O   UNL A   1      32.430  25.236  26.556  1.00  0.00    -0.272 OA
BRANCH  12  14
ATOM     14  N   UNL A   1      32.670  27.123  24.372  1.00  0.00    -0.280 N 
ATOM     15  C   UNL A   1      31.632  27.100  23.453  1.00  0.00     0.266 C 
ATOM     16  C   UNL A   1      32.787  28.265  25.135  1.00  0.00     0.149 C 
ATOM     17  O   UNL A   1      31.399  26.182  22.677  1.00  0.00    -0.268 OA
ATOM     18  C   UNL A   1      30.867  28.365  23.499  1.00  0.00     0.081 C 
ATOM     19  S   UNL A   1      31.535  29.413  24.684  1.00  0.00    -0.054 SA
ATOM     20  S   UNL A   1      33.951  28.627  26.273  1.00  0.00    -0.052 S 
ATOM     21  C   UNL A   1      29.840  28.590  22.670  1.00  0.00     0.029 C 
BRANCH  21  22
ATOM     22  C   UNL A   1      29.122  29.859  22.541  1.00  0.00    -0.024 A 
ATOM     23  C   UNL A   1      28.302  30.319  23.575  1.00  0.00     0.008 A 
ATOM     24  C   UNL A   1      29.218  30.600  21.356  1.00  0.00     0.008 A 
ATOM     25  C   UNL A   1      27.606  31.521  23.430  1.00  0.00     0.001 A 
ATOM     26  C   UNL A   1      28.526  31.801  21.215  1.00  0.00     0.001 A 
ATOM     27  C   UNL A   1      27.720  32.263  22.254  1.00  0.00     0.000 A 
ENDBRANCH  21  22
ENDBRANCH  12  14
ENDBRANCH   5   7
ENDBRANCH   3   5
ENDBRANCH   2   3
ENDBRANCH   1   2
BRANCH   1  28
ATOM     28  C   UNL A   1      36.065  20.662  25.063  1.00  0.00     0.275 C 
BRANCH  28  29
ATOM     29  O   UNL A   1      36.851  21.617  25.804  1.00  0.00    -0.458 OA
BRANCH  29  30
ATOM     30  C   UNL A   1      38.191  21.414  25.780  1.00  0.00     0.338 C 
ATOM     31  O   UNL A   1      38.777  20.453  25.310  1.00  0.00    -0.246 OA
BRANCH  30  32
ATOM     32  C   UNL A   1      38.898  22.568  26.375  1.00  0.00     0.060 A 
ATOM     33  C   UNL A   1      38.473  23.877  26.136  1.00  0.00     0.016 A 
ATOM     34  C   UNL A   1      40.078  22.346  27.081  1.00  0.00     0.016 A 
ATOM     35  C   UNL A   1      39.275  24.955  26.510  1.00  0.00     0.010 A 
ATOM     36  C   UNL A   1      40.809  23.432  27.572  1.00  0.00     0.010 A 
ATOM     37  C   UNL A   1      40.434  24.755  27.272  1.00  0.00    -0.014 A 
BRANCH  37  38
ATOM     38  C   UNL A   1      41.253  25.898  27.777  1.00  0.00     0.031 A 
ATOM     39  C   UNL A   1      40.619  26.964  28.638  1.00  0.00     0.074 A 
ATOM     40  C   UNL A   1      42.548  26.025  27.419  1.00  0.00     0.049 A 
ATOM     41  N   UNL A   1      41.054  28.164  28.934  1.00  0.00    -0.248 NA
ATOM     42  C   UNL A   1      39.307  26.643  29.219  1.00  0.00     0.031 C 
ATOM     43  C   UNL A   1      43.314  25.055  26.631  1.00  0.00     0.029 A 
ATOM     44  N   UNL A   1      43.450  27.035  27.656  1.00  0.00    -0.354 N 
ATOM     45  C   UNL A   1      40.044  28.765  29.681  1.00  0.00     0.074 A 
ATOM     46  C   UNL A   1      38.970  27.796  29.779  1.00  0.00     0.031 C 
ATOM     47  C   UNL A   1      44.568  25.503  26.474  1.00  0.00     0.029 A 
ATOM     48  C   UNL A   1      44.669  26.839  27.045  1.00  0.00     0.049 A 
ATOM     49  H   UNL A   1      43.245  27.824  28.209  1.00  0.00     0.167 HD
ATOM     50  C   UNL A   1      40.015  30.009  30.224  1.00  0.00     0.034 A 
ATOM     51  C   UNL A   1      45.728  27.657  26.896  1.00  0.00     0.034 A 
ATOM     52  C   UNL A   1      41.117  30.942  30.151  1.00  0.00     0.049 A 
ATOM     53  C   UNL A   1      45.655  29.053  27.455  1.00  0.00     0.074 A 
ATOM     54  C   UNL A   1      41.208  32.213  30.695  1.00  0.00     0.029 A 
ATOM     55  N   UNL A   1      42.321  30.707  29.498  1.00  0.00    -0.354 N 
ATOM     56  N   UNL A   1      44.672  29.631  28.106  1.00  0.00    -0.248 NA
ATOM     57  C   UNL A   1      46.828  29.910  27.244  1.00  0.00     0.031 C 
ATOM     58  C   UNL A   1      42.435  32.769  30.314  1.00  0.00     0.029 A 
ATOM     59  C   UNL A   1      43.146  31.819  29.601  1.00  0.00     0.049 A 
ATOM     60  H   UNL A   1      42.555  29.873  29.031  1.00  0.00     0.167 HD
ATOM     61  C   UNL A   1      45.123  30.914  28.406  1.00  0.00     0.074 A 
ATOM     62  C   UNL A   1      46.468  31.016  27.878  1.00  0.00     0.031 C 
ATOM     63  C   UNL A   1      44.481  31.915  29.060  1.00  0.00     0.034 A 
BRANCH  50  64
ATOM     64  C   UNL A   1      38.734  30.457  30.890  1.00  0.00     0.023 A 
ATOM     65  C   UNL A   1      37.673  31.033  30.171  1.00  0.00     0.031 A 
ATOM     66  C   UNL A   1      38.580  30.315  32.282  1.00  0.00     0.131 A 
ATOM     67  C   UNL A   1      36.541  31.511  30.853  1.00  0.00     0.055 A 
ATOM     68  C   UNL A   1      37.417  30.717  32.944  1.00  0.00     0.041 A 
ATOM     69  F   UNL A   1      39.564  29.791  33.029  1.00  0.00    -0.206 F 
ATOM     70  C   UNL A   1      36.395  31.333  32.230  1.00  0.00     0.022 A 
BRANCH  67  71
ATOM     71  S   UNL A   1      35.326  32.498  29.935  1.00  0.00     0.124 S 
ATOM     72  O   UNL A   1      34.912  31.562  28.892  1.00  0.00    -0.237 OA
ATOM     73  O   UNL A   1      34.330  32.801  30.955  1.00  0.00    -0.237 OA
ATOM     74  O   UNL A   1      36.102  33.643  29.460  1.00  0.00    -0.744 OA
ENDBRANCH  67  71
ENDBRANCH  50  64
BRANCH  51  75
ATOM     75  C   UNL A   1      46.925  27.208  26.126  1.00  0.00     0.023 A 
ATOM     76  C   UNL A   1      47.135  27.637  24.807  1.00  0.00     0.031 A 
ATOM     77  C   UNL A   1      47.859  26.319  26.688  1.00  0.00     0.131 A 
ATOM     78  C   UNL A   1      48.232  27.147  24.081  1.00  0.00     0.055 A 
ATOM     79  C   UNL A   1      48.981  25.882  25.982  1.00  0.00     0.041 A 
ATOM     80  F   UNL A   1      47.705  25.876  27.947  1.00  0.00    -0.206 F 
ATOM     81  C   UNL A   1      49.165  26.288  24.664  1.00  0.00     0.022 A 
BRANCH  78  82
ATOM     82  S   UNL A   1      48.376  27.590  22.328  1.00  0.00     0.124 S 
ATOM     83  O   UNL A   1      47.149  28.348  22.112  1.00  0.00    -0.237 OA
ATOM     84  O   UNL A   1      49.617  28.357  22.309  1.00  0.00    -0.237 OA
ATOM     85  O   UNL A   1      48.436  26.294  21.654  1.00  0.00    -0.744 OA
ENDBRANCH  78  82
ENDBRANCH  51  75
BRANCH  63  86
ATOM     86  C   UNL A   1      45.261  33.188  29.287  1.00  0.00     0.023 A 
ATOM     87  C   UNL A   1      45.248  34.241  28.355  1.00  0.00     0.031 A 
ATOM     88  C   UNL A   1      46.050  33.334  30.441  1.00  0.00     0.131 A 
ATOM     89  C   UNL A   1      46.058  35.368  28.565  1.00  0.00     0.055 A 
ATOM     90  C   UNL A   1      46.804  34.484  30.674  1.00  0.00     0.041 A 
ATOM     91  F   UNL A   1      46.103  32.358  31.362  1.00  0.00    -0.206 F 
ATOM     92  C   UNL A   1      46.822  35.504  29.726  1.00  0.00     0.022 A 
BRANCH  89  93
ATOM     93  S   UNL A   1      46.177  36.613  27.251  1.00  0.00     0.124 S 
ATOM     94  O   UNL A   1      46.487  35.794  26.084  1.00  0.00    -0.237 OA
ATOM     95  O   UNL A   1      44.849  37.218  27.271  1.00  0.00    -0.237 OA
ATOM     96  O   UNL A   1      47.260  37.485  27.702  1.00  0.00    -0.744 OA
ENDBRANCH  89  93
ENDBRANCH  63  86
ENDBRANCH  37  38
ENDBRANCH  30  32
ENDBRANCH  29  30
ENDBRANCH  28  29
ENDBRANCH   1  28
TORSDOF 17
ENDMDL
MODEL 3
REMARK VINA RESULT:     -12.4      4.704     10.325
REMARK SMILES C[C@H](C(=O)OCCOC(=O)c1ccc(-c2c3nc(c(-c4cc(S(=O)(=O)[O-])ccc4F)c4ccc([nH]4)c(-c4cc(S(=O)(=O)[O-])ccc4F)c4nc(c(-c5cc(S(=O)(=O)[O-])ccc5F)c5ccc2[nH]5)C=C4)C=C3)cc1)N1C(=O)C[C@@H](N2C(=O)/C(=C/c3ccccc3)SC2=S)C1=O
REMARK SMILES IDX 6 1 5 2 3 3 4 4 2 5 1 6 74 7 75 8 93 9 76 10 77 11 78 12
REMARK SMILES IDX 94 13 79 14 80 15 91 16 81 17 82 18 90 19 92 20 83 21 84 22
REMARK SMILES IDX 85 23 89 24 86 25 88 26 87 27 7 28 8 29 9 30 10 31 11 32
REMARK SMILES IDX 12 33 73 34 13 35 72 36 14 37 15 38 16 39 66 40 17 41 71 42
REMARK SMILES IDX 65 43 67 44 18 45 70 46 64 47 63 48 19 50 51 51 31 52 50 53
REMARK SMILES IDX 32 54 35 55 49 56 68 57 33 58 34 59 48 61 69 62 36 63 20 64
REMARK SMILES IDX 21 65 29 66 22 67 28 68 30 69 27 70 23 71 24 72 25 73 26 74
REMARK SMILES IDX 52 75 53 76 61 77 54 78 60 79 62 80 59 81 55 82 56 83 57 84
REMARK SMILES IDX 58 85 37 86 38 87 46 88 39 89 45 90 47 91 44 92 40 93 41 94
REMARK SMILES IDX 42 95 43 96
REMARK H PARENT 67 49 35 60
REMARK Flexibility Score: inf
ROOT
ATOM      1  C   UNL A   1      34.865  20.203  25.079  1.00  0.00     0.274 C 
ENDROOT
BRANCH   1   2
ATOM      2  O   UNL A   1      33.723  21.052  25.276  1.00  0.00    -0.461 OA
BRANCH   2   3
ATOM      3  C   UNL A   1      33.323  21.788  24.202  1.00  0.00     0.329 C 
ATOM      4  O   UNL A   1      32.721  21.343  23.231  1.00  0.00    -0.250 OA
BRANCH   3   5
ATOM      5  C   UNL A   1      33.716  23.261  24.346  1.00  0.00     0.200 C 
ATOM      6  C   UNL A   1      34.410  23.883  23.142  1.00  0.00     0.044 C 
BRANCH   5   7
ATOM      7  N   UNL A   1      32.604  24.056  24.833  1.00  0.00    -0.267 N 
ATOM      8  C   UNL A   1      32.235  24.169  26.139  1.00  0.00     0.232 C 
ATOM      9  C   UNL A   1      31.682  24.595  23.984  1.00  0.00     0.253 C 
ATOM     10  O   UNL A   1      32.736  23.595  27.095  1.00  0.00    -0.274 OA
ATOM     11  C   UNL A   1      31.082  25.122  26.249  1.00  0.00     0.136 C 
ATOM     12  C   UNL A   1      30.610  25.266  24.810  1.00  0.00     0.191 C 
ATOM     13  O   UNL A   1      31.687  24.536  22.763  1.00  0.00    -0.272 OA
BRANCH  12  14
ATOM     14  N   UNL A   1      30.424  26.629  24.316  1.00  0.00    -0.280 N 
ATOM     15  C   UNL A   1      29.172  27.005  23.855  1.00  0.00     0.266 C 
ATOM     16  C   UNL A   1      31.395  27.607  24.316  1.00  0.00     0.149 C 
ATOM     17  O   UNL A   1      28.204  26.261  23.759  1.00  0.00    -0.268 OA
ATOM     18  C   UNL A   1      29.173  28.425  23.442  1.00  0.00     0.081 C 
ATOM     19  S   UNL A   1      30.729  29.108  23.688  1.00  0.00    -0.054 SA
ATOM     20  S   UNL A   1      33.000  27.462  24.746  1.00  0.00    -0.052 S 
ATOM     21  C   UNL A   1      28.082  29.002  22.924  1.00  0.00     0.029 C 
BRANCH  21  22
ATOM     22  C   UNL A   1      28.029  30.350  22.354  1.00  0.00    -0.024 A 
ATOM     23  C   UNL A   1      28.010  30.535  20.969  1.00  0.00     0.008 A 
ATOM     24  C   UNL A   1      28.043  31.467  23.199  1.00  0.00     0.008 A 
ATOM     25  C   UNL A   1      27.982  31.827  20.440  1.00  0.00     0.001 A 
ATOM     26  C   UNL A   1      28.010  32.755  22.669  1.00  0.00     0.001 A 
ATOM     27  C   UNL A   1      27.978  32.935  21.288  1.00  0.00     0.000 A 
ENDBRANCH  21  22
ENDBRANCH  12  14
ENDBRANCH   5   7
ENDBRANCH   3   5
ENDBRANCH   2   3
ENDBRANCH   1   2
BRANCH   1  28
ATOM     28  C   UNL A   1      36.039  21.066  24.627  1.00  0.00     0.275 C 
BRANCH  28  29
ATOM     29  O   UNL A   1      36.809  21.442  25.786  1.00  0.00    -0.458 OA
BRANCH  29  30
ATOM     30  C   UNL A   1      38.108  21.054  25.775  1.00  0.00     0.338 C 
ATOM     31  O   UNL A   1      38.543  19.966  25.438  1.00  0.00    -0.246 OA
BRANCH  30  32
ATOM     32  C   UNL A   1      38.983  22.172  26.190  1.00  0.00     0.060 A 
ATOM     33  C   UNL A   1      40.152  21.941  26.919  1.00  0.00     0.016 A 
ATOM     34  C   UNL A   1      38.564  23.480  25.956  1.00  0.00     0.016 A 
ATOM     35  C   UNL A   1      40.841  23.009  27.497  1.00  0.00     0.010 A 
ATOM     36  C   UNL A   1      39.333  24.550  26.424  1.00  0.00     0.010 A 
ATOM     37  C   UNL A   1      40.469  24.332  27.225  1.00  0.00    -0.014 A 
BRANCH  37  38
ATOM     38  C   UNL A   1      41.254  25.493  27.743  1.00  0.00     0.031 A 
ATOM     39  C   UNL A   1      40.577  26.560  28.570  1.00  0.00     0.074 A 
ATOM     40  C   UNL A   1      42.558  25.635  27.425  1.00  0.00     0.049 A 
ATOM     41  N   UNL A   1      40.985  27.769  28.865  1.00  0.00    -0.248 NA
ATOM     42  C   UNL A   1      39.252  26.226  29.112  1.00  0.00     0.031 C 
ATOM     43  C   UNL A   1      43.363  24.667  26.675  1.00  0.00     0.029 A 
ATOM     44  N   UNL A   1      43.438  26.661  27.679  1.00  0.00    -0.354 N 
ATOM     45  C   UNL A   1      39.942  28.364  29.571  1.00  0.00     0.074 A 
ATOM     46  C   UNL A   1      38.880  27.381  29.647  1.00  0.00     0.031 C 
ATOM     47  C   UNL A   1      44.615  25.131  26.553  1.00  0.00     0.029 A 
ATOM     48  C   UNL A   1      44.678  26.475  27.111  1.00  0.00     0.049 A 
ATOM     49  H   UNL A   1      43.203  27.453  28.215  1.00  0.00     0.167 HD
ATOM     50  C   UNL A   1      39.879  29.614  30.098  1.00  0.00     0.034 A 
ATOM     51  C   UNL A   1      45.730  27.307  26.986  1.00  0.00     0.034 A 
ATOM     52  C   UNL A   1      40.969  30.562  30.049  1.00  0.00     0.049 A 
ATOM     53  C   UNL A   1      45.618  28.708  27.525  1.00  0.00     0.074 A 
ATOM     54  C   UNL A   1      41.024  31.841  30.580  1.00  0.00     0.029 A 
ATOM     55  N   UNL A   1      42.197  30.337  29.438  1.00  0.00    -0.354 N 
ATOM     56  N   UNL A   1      44.607  29.280  28.137  1.00  0.00    -0.248 NA
ATOM     57  C   UNL A   1      46.785  29.579  27.342  1.00  0.00     0.031 C 
ATOM     58  C   UNL A   1      42.254  32.410  30.233  1.00  0.00     0.029 A 
ATOM     59  C   UNL A   1      43.002  31.462  29.554  1.00  0.00     0.049 A 
ATOM     60  H   UNL A   1      42.457  29.501  28.989  1.00  0.00     0.167 HD
ATOM     61  C   UNL A   1      45.029  30.572  28.436  1.00  0.00     0.074 A 
ATOM     62  C   UNL A   1      46.390  30.688  27.950  1.00  0.00     0.031 C 
ATOM     63  C   UNL A   1      44.353  31.571  29.057  1.00  0.00     0.034 A 
BRANCH  50  64
ATOM     64  C   UNL A   1      38.570  30.051  30.716  1.00  0.00     0.023 A 
ATOM     65  C   UNL A   1      37.585  30.739  29.988  1.00  0.00     0.031 A 
ATOM     66  C   UNL A   1      38.311  29.782  32.073  1.00  0.00     0.131 A 
ATOM     67  C   UNL A   1      36.425  31.198  30.635  1.00  0.00     0.055 A 
ATOM     68  C   UNL A   1      37.119  30.169  32.692  1.00  0.00     0.041 A 
ATOM     69  F   UNL A   1      39.219  29.146  32.830  1.00  0.00    -0.206 F 
ATOM     70  C   UNL A   1      36.175  30.895  31.975  1.00  0.00     0.022 A 
BRANCH  67  71
ATOM     71  S   UNL A   1      35.316  32.320  29.739  1.00  0.00     0.124 S 
ATOM     72  O   UNL A   1      34.762  31.435  28.717  1.00  0.00    -0.237 OA
ATOM     73  O   UNL A   1      34.393  32.751  30.782  1.00  0.00    -0.237 OA
ATOM     74  O   UNL A   1      36.214  33.358  29.232  1.00  0.00    -0.744 OA
ENDBRANCH  67  71
ENDBRANCH  50  64
BRANCH  51  75
ATOM     75  C   UNL A   1      46.957  26.866  26.261  1.00  0.00     0.023 A 
ATOM     76  C   UNL A   1      48.025  26.273  26.949  1.00  0.00     0.031 A 
ATOM     77  C   UNL A   1      47.092  27.059  24.874  1.00  0.00     0.131 A 
ATOM     78  C   UNL A   1      49.197  25.927  26.257  1.00  0.00     0.055 A 
ATOM     79  C   UNL A   1      48.234  26.659  24.180  1.00  0.00     0.041 A 
ATOM     80  F   UNL A   1      46.100  27.624  24.166  1.00  0.00    -0.206 F 
ATOM     81  C   UNL A   1      49.301  26.100  24.875  1.00  0.00     0.022 A 
BRANCH  78  82
ATOM     82  S   UNL A   1      50.617  25.322  27.207  1.00  0.00     0.124 S 
ATOM     83  O   UNL A   1      50.994  26.508  27.967  1.00  0.00    -0.237 OA
ATOM     84  O   UNL A   1      50.027  24.229  27.973  1.00  0.00    -0.237 OA
ATOM     85  O   UNL A   1      51.568  24.914  26.175  1.00  0.00    -0.744 OA
ENDBRANCH  78  82
ENDBRANCH  51  75
BRANCH  63  86
ATOM     86  C   UNL A   1      45.106  32.858  29.293  1.00  0.00     0.023 A 
ATOM     87  C   UNL A   1      45.107  33.901  28.349  1.00  0.00     0.031 A 
ATOM     88  C   UNL A   1      45.857  33.028  30.469  1.00  0.00     0.131 A 
ATOM     89  C   UNL A   1      45.893  35.042  28.572  1.00  0.00     0.055 A 
ATOM     90  C   UNL A   1      46.587  34.192  30.712  1.00  0.00     0.041 A 
ATOM     91  F   UNL A   1      45.896  32.063  31.402  1.00  0.00    -0.206 F 
ATOM     92  C   UNL A   1      46.619  35.201  29.754  1.00  0.00     0.022 A 
BRANCH  89  93
ATOM     93  S   UNL A   1      46.034  36.275  27.248  1.00  0.00     0.124 S 
ATOM     94  O   UNL A   1      45.305  35.635  26.158  1.00  0.00    -0.237 OA
ATOM     95  O   UNL A   1      45.396  37.446  27.842  1.00  0.00    -0.237 OA
ATOM     96  O   UNL A   1      47.476  36.394  27.044  1.00  0.00    -0.744 OA
ENDBRANCH  89  93
ENDBRANCH  63  86
ENDBRANCH  37  38
ENDBRANCH  30  32
ENDBRANCH  29  30
ENDBRANCH  28  29
ENDBRANCH   1  28
TORSDOF 17
ENDMDL
