MODEL 1
REMARK VINA RESULT:     -10.6      0.000      0.000
REMARK SMILES CCCCCNC(=O)Oc1cccc(-c2ccc([C@@H](C)C(=O)OCCOC(=O)c3ccc(-c4c5nc(c(-c6cc(S(=O)(=O)[O-])ccc6F)c6ccc([nH]6)c(-c6cc(S(=O)(=O)[O-])ccc6F)c6nc(c(-c7cc(S(=O)(=O)[O-])ccc7F)c7ccc4[nH]7)C=C6)C=C5)cc3)cc2F)c1
REMARK SMILES IDX 21 1 22 2 19 3 20 4 18 5 15 6 16 7 93 8 17 9 92 10 94 11
REMARK SMILES IDX 14 12 10 13 11 14 95 15 12 16 13 17 9 18 7 19 6 20 8 22 5 23
REMARK SMILES IDX 4 24 3 25 2 26 1 27 23 28 24 29 25 30 26 31 27 32 28 33
REMARK SMILES IDX 29 34 30 35 91 36 31 37 90 38 32 39 33 40 34 41 84 42 35 43
REMARK SMILES IDX 89 44 83 45 85 46 36 47 88 48 82 49 81 50 37 52 69 53 49 54
REMARK SMILES IDX 68 55 50 56 53 57 67 58 86 59 51 60 52 61 66 63 87 64 54 65
REMARK SMILES IDX 38 66 39 67 47 68 40 69 46 70 48 71 45 72 41 73 42 74 43 75
REMARK SMILES IDX 44 76 70 77 71 78 79 79 72 80 78 81 80 82 77 83 73 84 74 85
REMARK SMILES IDX 75 86 76 87 55 88 56 89 64 90 57 91 63 92 65 93 62 94 58 95
REMARK SMILES IDX 59 96 60 97 61 98
REMARK H PARENT 6 21 85 51 53 62
REMARK Flexibility Score: inf
ROOT
ATOM      1  C   UNL A   1      34.917  33.569  28.226  1.00  0.00     0.313 C 
ATOM      2  O   UNL A   1      35.462  34.076  27.251  1.00  0.00    -0.252 OA
ENDROOT
BRANCH   1   3
ATOM      3  C   UNL A   1      34.988  32.072  28.505  1.00  0.00     0.126 C 
ATOM      4  C   UNL A   1      36.437  31.599  28.404  1.00  0.00     0.025 C 
BRANCH   3   5
ATOM      5  C   UNL A   1      34.040  31.188  27.708  1.00  0.00    -0.031 A 
ATOM      6  C   UNL A   1      32.352  29.538  26.105  1.00  0.00     0.018 A 
ATOM      7  C   UNL A   1      31.940  30.812  26.532  1.00  0.00     0.012 A 
ATOM      8  C   UNL A   1      33.612  29.099  26.534  1.00  0.00     0.131 A 
ATOM      9  C   UNL A   1      32.769  31.626  27.313  1.00  0.00     0.005 A 
ATOM     10  C   UNL A   1      34.443  29.903  27.317  1.00  0.00     0.044 A 
ATOM     11  F   UNL A   1      34.077  27.899  26.154  1.00  0.00    -0.206 F 
BRANCH   6  12
ATOM     12  C   UNL A   1      31.515  28.739  25.191  1.00  0.00    -0.012 A 
ATOM     13  C   UNL A   1      30.472  26.657  24.510  1.00  0.00     0.133 A 
ATOM     14  C   UNL A   1      29.969  27.249  23.354  1.00  0.00     0.047 A 
ATOM     15  C   UNL A   1      31.247  27.378  25.420  1.00  0.00     0.056 A 
ATOM     16  C   UNL A   1      30.222  28.594  23.113  1.00  0.00     0.004 A 
ATOM     17  C   UNL A   1      30.987  29.329  24.024  1.00  0.00     0.009 A 
BRANCH  13  18
ATOM     18  O   UNL A   1      30.277  25.272  24.637  1.00  0.00    -0.410 OA
BRANCH  18  19
ATOM     19  C   UNL A   1      30.761  24.646  25.776  1.00  0.00     0.412 C 
ATOM     20  N   UNL A   1      31.928  23.964  25.554  1.00  0.00    -0.321 N 
ATOM     21  H   UNL A   1      32.344  23.534  26.335  1.00  0.00     0.167 HD
ATOM     22  O   UNL A   1      30.224  24.634  26.877  1.00  0.00    -0.224 OA
BRANCH  20  23
ATOM     23  C   UNL A   1      32.615  23.812  24.286  1.00  0.00     0.119 C 
BRANCH  23  24
ATOM     24  C   UNL A   1      33.808  24.755  24.145  1.00  0.00     0.021 C 
BRANCH  24  25
ATOM     25  C   UNL A   1      34.725  24.835  25.372  1.00  0.00     0.002 C 
BRANCH  25  26
ATOM     26  C   UNL A   1      35.513  23.564  25.702  1.00  0.00    -0.003 C 
ATOM     27  C   UNL A   1      37.013  23.701  25.491  1.00  0.00     0.004 C 
ENDBRANCH  25  26
ENDBRANCH  24  25
ENDBRANCH  23  24
ENDBRANCH  20  23
ENDBRANCH  18  19
ENDBRANCH  13  18
ENDBRANCH   6  12
ENDBRANCH   3   5
ENDBRANCH   1   3
BRANCH   1  28
ATOM     28  O   UNL A   1      34.154  34.260  29.113  1.00  0.00    -0.462 OA
BRANCH  28  29
ATOM     29  C   UNL A   1      33.596  35.507  28.656  1.00  0.00     0.274 C 
BRANCH  29  30
ATOM     30  C   UNL A   1      32.841  36.222  29.778  1.00  0.00     0.275 C 
BRANCH  30  31
ATOM     31  O   UNL A   1      32.535  35.326  30.861  1.00  0.00    -0.458 OA
BRANCH  31  32
ATOM     32  C   UNL A   1      32.819  35.807  32.096  1.00  0.00     0.338 C 
ATOM     33  O   UNL A   1      32.199  36.652  32.715  1.00  0.00    -0.246 OA
BRANCH  32  34
ATOM     34  C   UNL A   1      33.945  35.055  32.668  1.00  0.00     0.060 A 
ATOM     35  C   UNL A   1      35.225  35.600  32.551  1.00  0.00     0.016 A 
ATOM     36  C   UNL A   1      33.759  33.794  33.235  1.00  0.00     0.016 A 
ATOM     37  C   UNL A   1      36.333  34.883  32.990  1.00  0.00     0.010 A 
ATOM     38  C   UNL A   1      34.873  33.077  33.684  1.00  0.00     0.010 A 
ATOM     39  C   UNL A   1      36.167  33.612  33.553  1.00  0.00    -0.014 A 
BRANCH  39  40
ATOM     40  C   UNL A   1      37.358  32.823  33.949  1.00  0.00     0.031 A 
ATOM     41  C   UNL A   1      38.082  33.160  35.222  1.00  0.00     0.074 A 
ATOM     42  C   UNL A   1      37.768  31.795  33.183  1.00  0.00     0.049 A 
ATOM     43  N   UNL A   1      39.192  32.662  35.702  1.00  0.00    -0.248 NA
ATOM     44  C   UNL A   1      37.471  34.198  36.065  1.00  0.00     0.031 C 
ATOM     45  C   UNL A   1      37.107  31.343  31.958  1.00  0.00     0.029 A 
ATOM     46  N   UNL A   1      38.838  30.948  33.318  1.00  0.00    -0.354 N 
ATOM     47  C   UNL A   1      39.423  33.333  36.897  1.00  0.00     0.074 A 
ATOM     48  C   UNL A   1      38.349  34.293  37.053  1.00  0.00     0.031 C 
ATOM     49  C   UNL A   1      37.789  30.302  31.452  1.00  0.00     0.029 A 
ATOM     50  C   UNL A   1      38.962  30.049  32.284  1.00  0.00     0.049 A 
ATOM     51  H   UNL A   1      39.458  30.980  34.082  1.00  0.00     0.167 HD
ATOM     52  C   UNL A   1      40.435  33.159  37.784  1.00  0.00     0.034 A 
ATOM     53  C   UNL A   1      39.931  29.150  32.021  1.00  0.00     0.034 A 
ATOM     54  C   UNL A   1      41.501  32.202  37.604  1.00  0.00     0.049 A 
ATOM     55  C   UNL A   1      41.091  29.033  32.976  1.00  0.00     0.074 A 
ATOM     56  C   UNL A   1      42.589  31.953  38.425  1.00  0.00     0.029 A 
ATOM     57  N   UNL A   1      41.617  31.335  36.524  1.00  0.00    -0.354 N 
ATOM     58  N   UNL A   1      41.319  29.699  34.085  1.00  0.00    -0.248 NA
ATOM     59  C   UNL A   1      42.125  28.044  32.645  1.00  0.00     0.031 C 
ATOM     60  C   UNL A   1      43.388  30.979  37.816  1.00  0.00     0.029 A 
ATOM     61  C   UNL A   1      42.767  30.569  36.646  1.00  0.00     0.049 A 
ATOM     62  H   UNL A   1      40.976  31.273  35.780  1.00  0.00     0.167 HD
ATOM     63  C   UNL A   1      42.512  29.192  34.594  1.00  0.00     0.074 A 
ATOM     64  C   UNL A   1      42.944  28.154  33.679  1.00  0.00     0.031 C 
ATOM     65  C   UNL A   1      43.188  29.548  35.715  1.00  0.00     0.034 A 
BRANCH  52  66
ATOM     66  C   UNL A   1      40.460  34.067  38.989  1.00  0.00     0.023 A 
ATOM     67  C   UNL A   1      39.764  33.755  40.170  1.00  0.00     0.031 A 
ATOM     68  C   UNL A   1      41.161  35.286  38.941  1.00  0.00     0.131 A 
ATOM     69  C   UNL A   1      39.728  34.678  41.227  1.00  0.00     0.055 A 
ATOM     70  C   UNL A   1      41.181  36.167  40.024  1.00  0.00     0.041 A 
ATOM     71  F   UNL A   1      41.825  35.650  37.832  1.00  0.00    -0.206 F 
ATOM     72  C   UNL A   1      40.451  35.872  41.170  1.00  0.00     0.022 A 
BRANCH  69  73
ATOM     73  S   UNL A   1      38.617  34.359  42.626  1.00  0.00     0.124 S 
ATOM     74  O   UNL A   1      38.240  32.967  42.393  1.00  0.00    -0.237 OA
ATOM     75  O   UNL A   1      39.478  34.606  43.776  1.00  0.00    -0.237 OA
ATOM     76  O   UNL A   1      37.537  35.327  42.436  1.00  0.00    -0.744 OA
ENDBRANCH  69  73
ENDBRANCH  52  66
BRANCH  53  77
ATOM     77  C   UNL A   1      39.884  28.332  30.776  1.00  0.00     0.023 A 
ATOM     78  C   UNL A   1      40.680  28.650  29.664  1.00  0.00     0.031 A 
ATOM     79  C   UNL A   1      38.995  27.247  30.662  1.00  0.00     0.131 A 
ATOM     80  C   UNL A   1      40.543  27.918  28.475  1.00  0.00     0.055 A 
ATOM     81  C   UNL A   1      38.901  26.489  29.494  1.00  0.00     0.041 A 
ATOM     82  F   UNL A   1      38.208  26.903  31.694  1.00  0.00    -0.206 F 
ATOM     83  C   UNL A   1      39.668  26.833  28.386  1.00  0.00     0.022 A 
BRANCH  80  84
ATOM     84  S   UNL A   1      41.463  28.461  27.009  1.00  0.00     0.124 S 
ATOM     85  O   UNL A   1      40.397  28.990  26.165  1.00  0.00    -0.237 OA
ATOM     86  O   UNL A   1      42.380  29.445  27.575  1.00  0.00    -0.237 OA
ATOM     87  O   UNL A   1      42.090  27.233  26.525  1.00  0.00    -0.744 OA
ENDBRANCH  80  84
ENDBRANCH  53  77
BRANCH  65  88
ATOM     88  C   UNL A   1      44.442  28.770  36.027  1.00  0.00     0.023 A 
ATOM     89  C   UNL A   1      44.408  27.583  36.779  1.00  0.00     0.031 A 
ATOM     90  C   UNL A   1      45.691  29.239  35.584  1.00  0.00     0.131 A 
ATOM     91  C   UNL A   1      45.606  26.932  37.112  1.00  0.00     0.055 A 
ATOM     92  C   UNL A   1      46.875  28.560  35.874  1.00  0.00     0.041 A 
ATOM     93  F   UNL A   1      45.780  30.369  34.864  1.00  0.00    -0.206 F 
ATOM     94  C   UNL A   1      46.837  27.407  36.652  1.00  0.00     0.022 A 
BRANCH  91  95
ATOM     95  S   UNL A   1      45.541  25.501  38.225  1.00  0.00     0.124 S 
ATOM     96  O   UNL A   1      45.863  26.103  39.514  1.00  0.00    -0.237 OA
ATOM     97  O   UNL A   1      44.167  25.040  38.061  1.00  0.00    -0.237 OA
ATOM     98  O   UNL A   1      46.562  24.603  37.688  1.00  0.00    -0.744 OA
ENDBRANCH  91  95
ENDBRANCH  65  88
ENDBRANCH  39  40
ENDBRANCH  32  34
ENDBRANCH  31  32
ENDBRANCH  30  31
ENDBRANCH  29  30
ENDBRANCH  28  29
ENDBRANCH   1  28
TORSDOF 22
ENDMDL
MODEL 2
REMARK VINA RESULT:     -10.6      1.389      1.590
REMARK SMILES CCCCCNC(=O)Oc1cccc(-c2ccc([C@@H](C)C(=O)OCCOC(=O)c3ccc(-c4c5nc(c(-c6cc(S(=O)(=O)[O-])ccc6F)c6ccc([nH]6)c(-c6cc(S(=O)(=O)[O-])ccc6F)c6nc(c(-c7cc(S(=O)(=O)[O-])ccc7F)c7ccc4[nH]7)C=C6)C=C5)cc3)cc2F)c1
REMARK SMILES IDX 21 1 22 2 19 3 20 4 18 5 15 6 16 7 93 8 17 9 92 10 94 11
REMARK SMILES IDX 14 12 10 13 11 14 95 15 12 16 13 17 9 18 7 19 6 20 8 22 5 23
REMARK SMILES IDX 4 24 3 25 2 26 1 27 23 28 24 29 25 30 26 31 27 32 28 33
REMARK SMILES IDX 29 34 30 35 91 36 31 37 90 38 32 39 33 40 34 41 84 42 35 43
REMARK SMILES IDX 89 44 83 45 85 46 36 47 88 48 82 49 81 50 37 52 69 53 49 54
REMARK SMILES IDX 68 55 50 56 53 57 67 58 86 59 51 60 52 61 66 63 87 64 54 65
REMARK SMILES IDX 38 66 39 67 47 68 40 69 46 70 48 71 45 72 41 73 42 74 43 75
REMARK SMILES IDX 44 76 70 77 71 78 79 79 72 80 78 81 80 82 77 83 73 84 74 85
REMARK SMILES IDX 75 86 76 87 55 88 56 89 64 90 57 91 63 92 65 93 62 94 58 95
REMARK SMILES IDX 59 96 60 97 61 98
REMARK H PARENT 6 21 85 51 53 62
REMARK Flexibility Score: inf
ROOT
ATOM      1  C   UNL A   1      34.986  33.481  28.209  1.00  0.00     0.313 C 
ATOM      2  O   UNL A   1      35.555  33.989  27.249  1.00  0.00    -0.252 OA
ENDROOT
BRANCH   1   3
ATOM      3  C   UNL A   1      35.145  32.005  28.555  1.00  0.00     0.126 C 
ATOM      4  C   UNL A   1      36.613  31.602  28.426  1.00  0.00     0.025 C 
BRANCH   3   5
ATOM      5  C   UNL A   1      34.219  31.036  27.834  1.00  0.00    -0.031 A 
ATOM      6  C   UNL A   1      32.568  29.229  26.367  1.00  0.00     0.018 A 
ATOM      7  C   UNL A   1      32.095  30.488  26.775  1.00  0.00     0.012 A 
ATOM      8  C   UNL A   1      33.873  28.886  26.746  1.00  0.00     0.131 A 
ATOM      9  C   UNL A   1      32.906  31.379  27.488  1.00  0.00     0.005 A 
ATOM     10  C   UNL A   1      34.686  29.766  27.462  1.00  0.00     0.044 A 
ATOM     11  F   UNL A   1      34.396  27.706  26.379  1.00  0.00    -0.206 F 
BRANCH   6  12
ATOM     12  C   UNL A   1      31.742  28.349  25.521  1.00  0.00    -0.012 A 
ATOM     13  C   UNL A   1      30.468  26.318  25.144  1.00  0.00     0.133 A 
ATOM     14  C   UNL A   1      30.234  26.672  23.817  1.00  0.00     0.047 A 
ATOM     15  C   UNL A   1      31.221  27.132  25.993  1.00  0.00     0.056 A 
ATOM     16  C   UNL A   1      30.739  27.873  23.334  1.00  0.00     0.004 A 
ATOM     17  C   UNL A   1      31.485  28.701  24.179  1.00  0.00     0.009 A 
BRANCH  13  18
ATOM     18  O   UNL A   1      30.028  25.044  25.537  1.00  0.00    -0.410 OA
BRANCH  18  19
ATOM     19  C   UNL A   1      30.959  24.167  26.074  1.00  0.00     0.412 C 
ATOM     20  N   UNL A   1      31.482  23.310  25.143  1.00  0.00    -0.321 N 
ATOM     21  H   UNL A   1      32.181  22.691  25.456  1.00  0.00     0.167 HD
ATOM     22  O   UNL A   1      31.286  24.095  27.252  1.00  0.00    -0.224 OA
BRANCH  20  23
ATOM     23  C   UNL A   1      31.114  23.220  23.744  1.00  0.00     0.119 C 
BRANCH  23  24
ATOM     24  C   UNL A   1      32.315  23.338  22.808  1.00  0.00     0.021 C 
BRANCH  24  25
ATOM     25  C   UNL A   1      33.680  23.103  23.467  1.00  0.00     0.002 C 
BRANCH  25  26
ATOM     26  C   UNL A   1      34.621  24.311  23.504  1.00  0.00    -0.003 C 
ATOM     27  C   UNL A   1      33.928  25.615  23.869  1.00  0.00     0.004 C 
ENDBRANCH  25  26
ENDBRANCH  24  25
ENDBRANCH  23  24
ENDBRANCH  20  23
ENDBRANCH  18  19
ENDBRANCH  13  18
ENDBRANCH   6  12
ENDBRANCH   3   5
ENDBRANCH   1   3
BRANCH   1  28
ATOM     28  O   UNL A   1      34.122  34.147  29.019  1.00  0.00    -0.462 OA
BRANCH  28  29
ATOM     29  C   UNL A   1      33.725  35.466  28.598  1.00  0.00     0.274 C 
BRANCH  29  30
ATOM     30  C   UNL A   1      32.869  36.155  29.663  1.00  0.00     0.275 C 
BRANCH  30  31
ATOM     31  O   UNL A   1      32.585  35.271  30.763  1.00  0.00    -0.458 OA
BRANCH  31  32
ATOM     32  C   UNL A   1      32.875  35.776  31.987  1.00  0.00     0.338 C 
ATOM     33  O   UNL A   1      32.261  36.636  32.591  1.00  0.00    -0.246 OA
BRANCH  32  34
ATOM     34  C   UNL A   1      33.998  35.029  32.572  1.00  0.00     0.060 A 
ATOM     35  C   UNL A   1      35.284  35.547  32.412  1.00  0.00     0.016 A 
ATOM     36  C   UNL A   1      33.800  33.796  33.194  1.00  0.00     0.016 A 
ATOM     37  C   UNL A   1      36.388  34.830  32.862  1.00  0.00     0.010 A 
ATOM     38  C   UNL A   1      34.910  33.080  33.656  1.00  0.00     0.010 A 
ATOM     39  C   UNL A   1      36.211  33.587  33.481  1.00  0.00    -0.014 A 
BRANCH  39  40
ATOM     40  C   UNL A   1      37.395  32.795  33.890  1.00  0.00     0.031 A 
ATOM     41  C   UNL A   1      38.120  33.145  35.159  1.00  0.00     0.074 A 
ATOM     42  C   UNL A   1      37.797  31.752  33.141  1.00  0.00     0.049 A 
ATOM     43  N   UNL A   1      39.226  32.646  35.647  1.00  0.00    -0.248 NA
ATOM     44  C   UNL A   1      37.517  34.202  35.984  1.00  0.00     0.031 C 
ATOM     45  C   UNL A   1      37.134  31.285  31.923  1.00  0.00     0.029 A 
ATOM     46  N   UNL A   1      38.860  30.898  33.291  1.00  0.00    -0.354 N 
ATOM     47  C   UNL A   1      39.462  33.335  36.832  1.00  0.00     0.074 A 
ATOM     48  C   UNL A   1      38.395  34.306  36.972  1.00  0.00     0.031 C 
ATOM     49  C   UNL A   1      37.808  30.231  31.434  1.00  0.00     0.029 A 
ATOM     50  C   UNL A   1      38.978  29.982  32.271  1.00  0.00     0.049 A 
ATOM     51  H   UNL A   1      39.480  30.937  34.055  1.00  0.00     0.167 HD
ATOM     52  C   UNL A   1      40.472  33.166  37.722  1.00  0.00     0.034 A 
ATOM     53  C   UNL A   1      39.940  29.071  32.023  1.00  0.00     0.034 A 
ATOM     54  C   UNL A   1      41.530  32.198  37.559  1.00  0.00     0.049 A 
ATOM     55  C   UNL A   1      41.099  28.960  32.981  1.00  0.00     0.074 A 
ATOM     56  C   UNL A   1      42.615  31.954  38.385  1.00  0.00     0.029 A 
ATOM     57  N   UNL A   1      41.639  31.314  36.493  1.00  0.00    -0.354 N 
ATOM     58  N   UNL A   1      41.331  29.642  34.080  1.00  0.00    -0.248 NA
ATOM     59  C   UNL A   1      42.124  27.958  32.667  1.00  0.00     0.031 C 
ATOM     60  C   UNL A   1      43.407  30.964  37.791  1.00  0.00     0.029 A 
ATOM     61  C   UNL A   1      42.783  30.540  36.628  1.00  0.00     0.049 A 
ATOM     62  H   UNL A   1      40.999  31.245  35.750  1.00  0.00     0.167 HD
ATOM     63  C   UNL A   1      42.519  29.133  34.598  1.00  0.00     0.074 A 
ATOM     64  C   UNL A   1      42.944  28.078  33.700  1.00  0.00     0.031 C 
ATOM     65  C   UNL A   1      43.197  29.501  35.714  1.00  0.00     0.034 A 
BRANCH  52  66
ATOM     66  C   UNL A   1      40.503  34.094  38.913  1.00  0.00     0.023 A 
ATOM     67  C   UNL A   1      39.766  33.828  40.082  1.00  0.00     0.031 A 
ATOM     68  C   UNL A   1      41.251  35.284  38.863  1.00  0.00     0.131 A 
ATOM     69  C   UNL A   1      39.741  34.770  41.122  1.00  0.00     0.055 A 
ATOM     70  C   UNL A   1      41.280  36.182  39.931  1.00  0.00     0.041 A 
ATOM     71  F   UNL A   1      41.955  35.603  37.765  1.00  0.00    -0.206 F 
ATOM     72  C   UNL A   1      40.511  35.934  41.064  1.00  0.00     0.022 A 
BRANCH  69  73
ATOM     73  S   UNL A   1      38.585  34.518  42.498  1.00  0.00     0.124 S 
ATOM     74  O   UNL A   1      38.405  33.068  42.471  1.00  0.00    -0.237 OA
ATOM     75  O   UNL A   1      39.326  35.050  43.635  1.00  0.00    -0.237 OA
ATOM     76  O   UNL A   1      37.407  35.289  42.105  1.00  0.00    -0.744 OA
ENDBRANCH  69  73
ENDBRANCH  52  66
BRANCH  53  77
ATOM     77  C   UNL A   1      39.887  28.234  30.791  1.00  0.00     0.023 A 
ATOM     78  C   UNL A   1      40.672  28.539  29.668  1.00  0.00     0.031 A 
ATOM     79  C   UNL A   1      39.004  27.143  30.701  1.00  0.00     0.131 A 
ATOM     80  C   UNL A   1      40.529  27.789  28.491  1.00  0.00     0.055 A 
ATOM     81  C   UNL A   1      38.904  26.366  29.546  1.00  0.00     0.041 A 
ATOM     82  F   UNL A   1      38.228  26.809  31.745  1.00  0.00    -0.206 F 
ATOM     83  C   UNL A   1      39.661  26.697  28.426  1.00  0.00     0.022 A 
BRANCH  80  84
ATOM     84  S   UNL A   1      41.435  28.314  27.009  1.00  0.00     0.124 S 
ATOM     85  O   UNL A   1      40.383  28.956  26.228  1.00  0.00    -0.237 OA
ATOM     86  O   UNL A   1      42.447  29.201  27.572  1.00  0.00    -0.237 OA
ATOM     87  O   UNL A   1      41.944  27.061  26.458  1.00  0.00    -0.744 OA
ENDBRANCH  80  84
ENDBRANCH  53  77
BRANCH  65  88
ATOM     88  C   UNL A   1      44.444  28.719  36.039  1.00  0.00     0.023 A 
ATOM     89  C   UNL A   1      45.712  29.130  35.591  1.00  0.00     0.031 A 
ATOM     90  C   UNL A   1      44.358  27.532  36.787  1.00  0.00     0.131 A 
ATOM     91  C   UNL A   1      46.837  28.331  35.850  1.00  0.00     0.055 A 
ATOM     92  C   UNL A   1      45.486  26.769  37.086  1.00  0.00     0.041 A 
ATOM     93  F   UNL A   1      43.171  27.094  37.237  1.00  0.00    -0.206 F 
ATOM     94  C   UNL A   1      46.733  27.160  36.606  1.00  0.00     0.022 A 
BRANCH  91  95
ATOM     95  S   UNL A   1      48.428  28.799  35.114  1.00  0.00     0.124 S 
ATOM     96  O   UNL A   1      48.096  30.051  34.443  1.00  0.00    -0.237 OA
ATOM     97  O   UNL A   1      49.292  28.912  36.284  1.00  0.00    -0.237 OA
ATOM     98  O   UNL A   1      48.736  27.682  34.224  1.00  0.00    -0.744 OA
ENDBRANCH  91  95
ENDBRANCH  65  88
ENDBRANCH  39  40
ENDBRANCH  32  34
ENDBRANCH  31  32
ENDBRANCH  30  31
ENDBRANCH  29  30
ENDBRANCH  28  29
ENDBRANCH   1  28
TORSDOF 22
ENDMDL
MODEL 3
REMARK VINA RESULT:     -10.5      6.764     12.933
REMARK SMILES CCCCCNC(=O)Oc1cccc(-c2ccc([C@@H](C)C(=O)OCCOC(=O)c3ccc(-c4c5nc(c(-c6cc(S(=O)(=O)[O-])ccc6F)c6ccc([nH]6)c(-c6cc(S(=O)(=O)[O-])ccc6F)c6nc(c(-c7cc(S(=O)(=O)[O-])ccc7F)c7ccc4[nH]7)C=C6)C=C5)cc3)cc2F)c1
REMARK SMILES IDX 21 1 22 2 19 3 20 4 18 5 15 6 16 7 93 8 17 9 92 10 94 11
REMARK SMILES IDX 14 12 10 13 11 14 95 15 12 16 13 17 9 18 7 19 6 20 8 22 5 23
REMARK SMILES IDX 4 24 3 25 2 26 1 27 23 28 24 29 25 30 26 31 27 32 28 33
REMARK SMILES IDX 29 34 30 35 91 36 31 37 90 38 32 39 33 40 34 41 84 42 35 43
REMARK SMILES IDX 89 44 83 45 85 46 36 47 88 48 82 49 81 50 37 52 69 53 49 54
REMARK SMILES IDX 68 55 50 56 53 57 67 58 86 59 51 60 52 61 66 63 87 64 54 65
REMARK SMILES IDX 38 66 39 67 47 68 40 69 46 70 48 71 45 72 41 73 42 74 43 75
REMARK SMILES IDX 44 76 70 77 71 78 79 79 72 80 78 81 80 82 77 83 73 84 74 85
REMARK SMILES IDX 75 86 76 87 55 88 56 89 64 90 57 91 63 92 65 93 62 94 58 95
REMARK SMILES IDX 59 96 60 97 61 98
REMARK H PARENT 6 21 85 51 53 62
REMARK Flexibility Score: inf
ROOT
ATOM      1  C   UNL A   1      40.981  20.131  26.688  1.00  0.00     0.313 C 
ATOM      2  O   UNL A   1      40.775  19.866  27.868  1.00  0.00    -0.252 OA
ENDROOT
BRANCH   1   3
ATOM      3  C   UNL A   1      40.814  21.542  26.136  1.00  0.00     0.126 C 
ATOM      4  C   UNL A   1      41.765  22.494  26.859  1.00  0.00     0.025 C 
BRANCH   3   5
ATOM      5  C   UNL A   1      39.393  22.085  26.082  1.00  0.00    -0.031 A 
ATOM      6  C   UNL A   1      36.740  23.109  25.841  1.00  0.00     0.018 A 
ATOM      7  C   UNL A   1      37.752  23.839  26.490  1.00  0.00     0.012 A 
ATOM      8  C   UNL A   1      37.083  21.841  25.354  1.00  0.00     0.131 A 
ATOM      9  C   UNL A   1      39.055  23.341  26.602  1.00  0.00     0.005 A 
ATOM     10  C   UNL A   1      38.379  21.335  25.467  1.00  0.00     0.044 A 
ATOM     11  F   UNL A   1      36.172  21.094  24.712  1.00  0.00    -0.206 F 
BRANCH   6  12
ATOM     12  C   UNL A   1      35.403  23.693  25.632  1.00  0.00    -0.012 A 
ATOM     13  C   UNL A   1      33.870  25.175  24.472  1.00  0.00     0.133 A 
ATOM     14  C   UNL A   1      32.834  24.835  25.340  1.00  0.00     0.047 A 
ATOM     15  C   UNL A   1      35.147  24.627  24.612  1.00  0.00     0.056 A 
ATOM     16  C   UNL A   1      33.070  23.912  26.352  1.00  0.00     0.004 A 
ATOM     17  C   UNL A   1      34.342  23.349  26.494  1.00  0.00     0.009 A 
BRANCH  13  18
ATOM     18  O   UNL A   1      33.598  26.194  23.545  1.00  0.00    -0.410 OA
BRANCH  18  19
ATOM     19  C   UNL A   1      32.760  25.901  22.479  1.00  0.00     0.412 C 
ATOM     20  N   UNL A   1      32.014  26.978  22.079  1.00  0.00    -0.321 N 
ATOM     21  H   UNL A   1      31.430  26.844  21.298  1.00  0.00     0.167 HD
ATOM     22  O   UNL A   1      32.628  24.809  21.944  1.00  0.00    -0.224 OA
BRANCH  20  23
ATOM     23  C   UNL A   1      31.996  28.295  22.685  1.00  0.00     0.119 C 
BRANCH  23  24
ATOM     24  C   UNL A   1      30.993  28.404  23.831  1.00  0.00     0.021 C 
BRANCH  24  25
ATOM     25  C   UNL A   1      30.193  29.711  23.876  1.00  0.00     0.002 C 
BRANCH  25  26
ATOM     26  C   UNL A   1      29.211  29.934  22.723  1.00  0.00    -0.003 C 
ATOM     27  C   UNL A   1      28.018  28.990  22.745  1.00  0.00     0.004 C 
ENDBRANCH  25  26
ENDBRANCH  24  25
ENDBRANCH  23  24
ENDBRANCH  20  23
ENDBRANCH  18  19
ENDBRANCH  13  18
ENDBRANCH   6  12
ENDBRANCH   3   5
ENDBRANCH   1   3
BRANCH   1  28
ATOM     28  O   UNL A   1      41.316  19.208  25.749  1.00  0.00    -0.462 OA
BRANCH  28  29
ATOM     29  C   UNL A   1      42.267  18.200  26.142  1.00  0.00     0.274 C 
BRANCH  29  30
ATOM     30  C   UNL A   1      43.690  18.591  25.737  1.00  0.00     0.275 C 
BRANCH  30  31
ATOM     31  O   UNL A   1      43.687  19.599  24.710  1.00  0.00    -0.458 OA
BRANCH  31  32
ATOM     32  C   UNL A   1      44.885  20.196  24.495  1.00  0.00     0.338 C 
ATOM     33  O   UNL A   1      45.825  19.750  23.864  1.00  0.00    -0.246 OA
BRANCH  32  34
ATOM     34  C   UNL A   1      44.855  21.562  25.037  1.00  0.00     0.060 A 
ATOM     35  C   UNL A   1      44.424  22.592  24.198  1.00  0.00     0.016 A 
ATOM     36  C   UNL A   1      45.324  21.841  26.321  1.00  0.00     0.016 A 
ATOM     37  C   UNL A   1      44.469  23.912  24.632  1.00  0.00     0.010 A 
ATOM     38  C   UNL A   1      45.360  23.169  26.760  1.00  0.00     0.010 A 
ATOM     39  C   UNL A   1      44.945  24.213  25.914  1.00  0.00    -0.014 A 
BRANCH  39  40
ATOM     40  C   UNL A   1      45.061  25.628  26.341  1.00  0.00     0.031 A 
ATOM     41  C   UNL A   1      46.395  26.316  26.280  1.00  0.00     0.074 A 
ATOM     42  C   UNL A   1      43.967  26.296  26.755  1.00  0.00     0.049 A 
ATOM     43  N   UNL A   1      46.732  27.510  26.693  1.00  0.00    -0.248 NA
ATOM     44  C   UNL A   1      47.496  25.551  25.675  1.00  0.00     0.031 C 
ATOM     45  C   UNL A   1      42.612  25.746  26.798  1.00  0.00     0.029 A 
ATOM     46  N   UNL A   1      43.824  27.579  27.218  1.00  0.00    -0.354 N 
ATOM     47  C   UNL A   1      48.088  27.640  26.409  1.00  0.00     0.074 A 
ATOM     48  C   UNL A   1      48.513  26.389  25.814  1.00  0.00     0.031 C 
ATOM     49  C   UNL A   1      41.774  26.686  27.267  1.00  0.00     0.029 A 
ATOM     50  C   UNL A   1      42.539  27.882  27.607  1.00  0.00     0.049 A 
ATOM     51  H   UNL A   1      44.568  28.221  27.268  1.00  0.00     0.167 HD
ATOM     52  C   UNL A   1      48.898  28.707  26.621  1.00  0.00     0.034 A 
ATOM     53  C   UNL A   1      42.046  28.986  28.203  1.00  0.00     0.034 A 
ATOM     54  C   UNL A   1      48.455  29.942  27.224  1.00  0.00     0.049 A 
ATOM     55  C   UNL A   1      42.983  30.127  28.507  1.00  0.00     0.074 A 
ATOM     56  C   UNL A   1      49.192  31.080  27.507  1.00  0.00     0.029 A 
ATOM     57  N   UNL A   1      47.155  30.199  27.644  1.00  0.00    -0.354 N 
ATOM     58  N   UNL A   1      44.271  30.224  28.268  1.00  0.00    -0.248 NA
ATOM     59  C   UNL A   1      42.401  31.305  29.161  1.00  0.00     0.031 C 
ATOM     60  C   UNL A   1      48.353  32.001  28.145  1.00  0.00     0.029 A 
ATOM     61  C   UNL A   1      47.075  31.467  28.202  1.00  0.00     0.049 A 
ATOM     62  H   UNL A   1      46.401  29.573  27.557  1.00  0.00     0.167 HD
ATOM     63  C   UNL A   1      44.646  31.486  28.724  1.00  0.00     0.074 A 
ATOM     64  C   UNL A   1      43.445  32.116  29.235  1.00  0.00     0.031 C 
ATOM     65  C   UNL A   1      45.870  32.072  28.719  1.00  0.00     0.034 A 
BRANCH  52  66
ATOM     66  C   UNL A   1      50.353  28.551  26.252  1.00  0.00     0.023 A 
ATOM     67  C   UNL A   1      50.832  28.866  24.967  1.00  0.00     0.031 A 
ATOM     68  C   UNL A   1      51.270  28.043  27.190  1.00  0.00     0.131 A 
ATOM     69  C   UNL A   1      52.171  28.605  24.636  1.00  0.00     0.055 A 
ATOM     70  C   UNL A   1      52.618  27.855  26.876  1.00  0.00     0.041 A 
ATOM     71  F   UNL A   1      50.867  27.703  28.424  1.00  0.00    -0.206 F 
ATOM     72  C   UNL A   1      53.073  28.124  25.589  1.00  0.00     0.022 A 
BRANCH  69  73
ATOM     73  S   UNL A   1      52.691  28.780  22.907  1.00  0.00     0.124 S 
ATOM     74  O   UNL A   1      54.075  29.224  23.058  1.00  0.00    -0.237 OA
ATOM     75  O   UNL A   1      52.504  27.434  22.381  1.00  0.00    -0.237 OA
ATOM     76  O   UNL A   1      51.778  29.791  22.374  1.00  0.00    -0.744 OA
ENDBRANCH  69  73
ENDBRANCH  52  66
BRANCH  53  77
ATOM     77  C   UNL A   1      40.612  29.048  28.607  1.00  0.00     0.023 A 
ATOM     78  C   UNL A   1      40.227  28.910  29.949  1.00  0.00     0.031 A 
ATOM     79  C   UNL A   1      39.600  29.194  27.641  1.00  0.00     0.131 A 
ATOM     80  C   UNL A   1      38.864  28.878  30.285  1.00  0.00     0.055 A 
ATOM     81  C   UNL A   1      38.247  29.215  27.987  1.00  0.00     0.041 A 
ATOM     82  F   UNL A   1      39.913  29.327  26.342  1.00  0.00    -0.206 F 
ATOM     83  C   UNL A   1      37.873  29.042  29.315  1.00  0.00     0.022 A 
BRANCH  80  84
ATOM     84  S   UNL A   1      38.401  28.530  32.004  1.00  0.00     0.124 S 
ATOM     85  O   UNL A   1      38.545  27.079  32.065  1.00  0.00    -0.237 OA
ATOM     86  O   UNL A   1      39.389  29.304  32.747  1.00  0.00    -0.237 OA
ATOM     87  O   UNL A   1      37.028  29.023  32.093  1.00  0.00    -0.744 OA
ENDBRANCH  80  84
ENDBRANCH  53  77
BRANCH  65  88
ATOM     88  C   UNL A   1      45.948  33.483  29.246  1.00  0.00     0.023 A 
ATOM     89  C   UNL A   1      45.860  34.596  28.392  1.00  0.00     0.031 A 
ATOM     90  C   UNL A   1      46.138  33.713  30.619  1.00  0.00     0.131 A 
ATOM     91  C   UNL A   1      46.015  35.890  28.913  1.00  0.00     0.055 A 
ATOM     92  C   UNL A   1      46.239  35.004  31.139  1.00  0.00     0.041 A 
ATOM     93  F   UNL A   1      46.230  32.685  31.478  1.00  0.00    -0.206 F 
ATOM     94  C   UNL A   1      46.191  36.100  30.284  1.00  0.00     0.022 A 
BRANCH  91  95
ATOM     95  S   UNL A   1      46.068  37.293  27.764  1.00  0.00     0.124 S 
ATOM     96  O   UNL A   1      47.186  38.072  28.286  1.00  0.00    -0.237 OA
ATOM     97  O   UNL A   1      46.292  36.637  26.480  1.00  0.00    -0.237 OA
ATOM     98  O   UNL A   1      44.754  37.913  27.920  1.00  0.00    -0.744 OA
ENDBRANCH  91  95
ENDBRANCH  65  88
ENDBRANCH  39  40
ENDBRANCH  32  34
ENDBRANCH  31  32
ENDBRANCH  30  31
ENDBRANCH  29  30
ENDBRANCH  28  29
ENDBRANCH   1  28
TORSDOF 22
ENDMDL
