MODEL 1
REMARK VINA RESULT:     -11.1      0.000      0.000
REMARK SMILES C[C@@H](Oc1ccc2c(c1)OCO2)C(=O)N1CCn2nc(C(=O)OCCOC(=O)c3ccc(-c4c5nc(c(-c6cc(S(=O)(=O)[O-])ccc6F)c6ccc([nH]6)c(-c6cc(S(=O)(=O)[O-])ccc6F)c6nc(c(-c7cc(S(=O)(=O)[O-])ccc7F)c7ccc4[nH]7)C=C6)C=C5)cc3)cc2C1
REMARK SMILES IDX 24 1 23 2 21 3 22 4 20 5 15 6 16 7 94 8 17 9 93 10 18 11
REMARK SMILES IDX 92 12 19 13 13 14 14 15 2 16 1 17 3 18 4 19 5 20 9 21 6 22
REMARK SMILES IDX 8 23 7 24 10 25 12 26 11 27 25 28 26 29 27 30 28 31 29 32
REMARK SMILES IDX 30 33 91 34 31 35 90 36 32 37 33 38 34 39 84 40 35 41 89 42
REMARK SMILES IDX 83 43 85 44 36 45 88 46 82 47 81 48 37 50 69 51 49 52 68 53
REMARK SMILES IDX 50 54 53 55 67 56 86 57 51 58 52 59 66 61 87 62 54 63 38 64
REMARK SMILES IDX 39 65 47 66 40 67 46 68 48 69 45 70 41 71 42 72 43 73 44 74
REMARK SMILES IDX 70 75 71 76 79 77 72 78 78 79 80 80 77 81 73 82 74 83 75 84
REMARK SMILES IDX 76 85 55 86 56 87 64 88 57 89 63 90 65 91 62 92 58 93 59 94
REMARK SMILES IDX 60 95 61 96
REMARK H PARENT 85 49 53 60
REMARK Flexibility Score: inf
ROOT
ATOM      1  C   UNL A   1      33.950  35.410  28.777  1.00  0.00     0.275 C 
ENDROOT
BRANCH   1   2
ATOM      2  O   UNL A   1      32.813  35.226  29.631  1.00  0.00    -0.457 OA
BRANCH   2   3
ATOM      3  C   UNL A   1      32.924  35.760  30.890  1.00  0.00     0.358 C 
ATOM      4  O   UNL A   1      32.294  36.747  31.269  1.00  0.00    -0.244 OA
BRANCH   3   5
ATOM      5  C   UNL A   1      33.857  34.996  31.728  1.00  0.00     0.170 A 
ATOM      6  N   UNL A   1      36.834  32.928  34.579  1.00  0.00    -0.332 N 
ATOM      7  C   UNL A   1      36.752  31.944  33.493  1.00  0.00     0.143 C 
ATOM      8  C   UNL A   1      36.203  34.237  34.466  1.00  0.00     0.175 C 
ATOM      9  C   UNL A   1      35.681  32.105  32.421  1.00  0.00     0.166 C 
ATOM     10  C   UNL A   1      35.328  34.398  33.296  1.00  0.00     0.059 A 
ATOM     11  N   UNL A   1      35.056  33.396  32.428  1.00  0.00    -0.265 N 
ATOM     12  C   UNL A   1      34.643  35.488  32.809  1.00  0.00     0.063 A 
ATOM     13  N   UNL A   1      34.086  33.679  31.548  1.00  0.00    -0.165 NA
BRANCH   6  14
ATOM     14  C   UNL A   1      37.678  32.795  35.689  1.00  0.00     0.263 C 
ATOM     15  O   UNL A   1      37.406  32.001  36.599  1.00  0.00    -0.271 OA
BRANCH  14  16
ATOM     16  C   UNL A   1      38.934  33.683  35.827  1.00  0.00     0.259 C 
ATOM     17  C   UNL A   1      39.233  34.060  37.273  1.00  0.00     0.064 C 
BRANCH  16  18
ATOM     18  O   UNL A   1      40.008  32.973  35.192  1.00  0.00    -0.481 OA
BRANCH  18  19
ATOM     19  C   UNL A   1      40.584  33.642  34.149  1.00  0.00     0.124 A 
ATOM     20  C   UNL A   1      41.626  34.549  34.409  1.00  0.00     0.050 A 
ATOM     21  C   UNL A   1      40.252  33.284  32.841  1.00  0.00     0.097 A 
ATOM     22  C   UNL A   1      42.324  35.146  33.358  1.00  0.00     0.054 A 
ATOM     23  C   UNL A   1      40.973  33.877  31.823  1.00  0.00     0.169 A 
ATOM     24  C   UNL A   1      41.977  34.783  32.077  1.00  0.00     0.166 A 
ATOM     25  O   UNL A   1      40.823  33.640  30.490  1.00  0.00    -0.453 OA
ATOM     26  O   UNL A   1      42.578  35.231  30.941  1.00  0.00    -0.454 OA
ATOM     27  C   UNL A   1      41.899  34.434  29.949  1.00  0.00     0.468 C 
ENDBRANCH  18  19
ENDBRANCH  16  18
ENDBRANCH  14  16
ENDBRANCH   6  14
ENDBRANCH   3   5
ENDBRANCH   2   3
ENDBRANCH   1   2
BRANCH   1  28
ATOM     28  C   UNL A   1      34.206  34.172  27.930  1.00  0.00     0.275 C 
BRANCH  28  29
ATOM     29  O   UNL A   1      35.271  33.383  28.459  1.00  0.00    -0.458 OA
BRANCH  29  30
ATOM     30  C   UNL A   1      35.138  32.047  28.275  1.00  0.00     0.338 C 
ATOM     31  O   UNL A   1      34.140  31.462  27.893  1.00  0.00    -0.246 OA
BRANCH  30  32
ATOM     32  C   UNL A   1      36.309  31.373  28.852  1.00  0.00     0.060 A 
ATOM     33  C   UNL A   1      37.404  32.155  29.229  1.00  0.00     0.016 A 
ATOM     34  C   UNL A   1      36.399  29.975  28.769  1.00  0.00     0.016 A 
ATOM     35  C   UNL A   1      38.631  31.538  29.398  1.00  0.00     0.010 A 
ATOM     36  C   UNL A   1      37.624  29.368  28.911  1.00  0.00     0.010 A 
ATOM     37  C   UNL A   1      38.740  30.160  29.168  1.00  0.00    -0.014 A 
BRANCH  37  38
ATOM     38  C   UNL A   1      40.020  29.510  29.382  1.00  0.00     0.031 A 
ATOM     39  C   UNL A   1      40.367  29.418  30.820  1.00  0.00     0.074 A 
ATOM     40  C   UNL A   1      40.718  28.899  28.404  1.00  0.00     0.049 A 
ATOM     41  N   UNL A   1      41.296  30.054  31.451  1.00  0.00    -0.248 NA
ATOM     42  C   UNL A   1      39.438  28.691  31.704  1.00  0.00     0.031 C 
ATOM     43  C   UNL A   1      40.306  28.682  27.015  1.00  0.00     0.029 A 
ATOM     44  N   UNL A   1      41.911  28.244  28.473  1.00  0.00    -0.354 N 
ATOM     45  C   UNL A   1      41.237  29.586  32.758  1.00  0.00     0.074 A 
ATOM     46  C   UNL A   1      39.945  28.975  32.902  1.00  0.00     0.031 C 
ATOM     47  C   UNL A   1      41.121  27.763  26.446  1.00  0.00     0.029 A 
ATOM     48  C   UNL A   1      42.183  27.421  27.382  1.00  0.00     0.049 A 
ATOM     49  H   UNL A   1      42.529  28.343  29.233  1.00  0.00     0.167 HD
ATOM     50  C   UNL A   1      42.370  29.457  33.498  1.00  0.00     0.034 A 
ATOM     51  C   UNL A   1      43.166  26.483  27.284  1.00  0.00     0.034 A 
ATOM     52  C   UNL A   1      43.440  30.261  32.943  1.00  0.00     0.049 A 
ATOM     53  C   UNL A   1      44.196  26.837  28.292  1.00  0.00     0.074 A 
ATOM     54  C   UNL A   1      43.592  31.603  32.648  1.00  0.00     0.029 A 
ATOM     55  N   UNL A   1      44.430  29.617  32.236  1.00  0.00    -0.354 N 
ATOM     56  N   UNL A   1      44.909  27.928  28.239  1.00  0.00    -0.248 NA
ATOM     57  C   UNL A   1      44.099  26.228  29.610  1.00  0.00     0.031 C 
ATOM     58  C   UNL A   1      44.325  31.634  31.425  1.00  0.00     0.029 A 
ATOM     59  C   UNL A   1      44.657  30.322  31.080  1.00  0.00     0.049 A 
ATOM     60  H   UNL A   1      44.895  28.793  32.512  1.00  0.00     0.167 HD
ATOM     61  C   UNL A   1      44.967  28.384  29.548  1.00  0.00     0.074 A 
ATOM     62  C   UNL A   1      44.541  27.244  30.359  1.00  0.00     0.031 C 
ATOM     63  C   UNL A   1      45.078  29.717  29.828  1.00  0.00     0.034 A 
BRANCH  50  64
ATOM     64  C   UNL A   1      42.634  28.296  34.439  1.00  0.00     0.023 A 
ATOM     65  C   UNL A   1      43.619  27.372  34.040  1.00  0.00     0.031 A 
ATOM     66  C   UNL A   1      41.806  27.878  35.509  1.00  0.00     0.131 A 
ATOM     67  C   UNL A   1      43.661  26.079  34.588  1.00  0.00     0.055 A 
ATOM     68  C   UNL A   1      41.899  26.613  36.098  1.00  0.00     0.041 A 
ATOM     69  F   UNL A   1      40.804  28.616  35.996  1.00  0.00    -0.206 F 
ATOM     70  C   UNL A   1      42.804  25.690  35.612  1.00  0.00     0.022 A 
BRANCH  67  71
ATOM     71  S   UNL A   1      44.733  24.856  33.797  1.00  0.00     0.124 S 
ATOM     72  O   UNL A   1      45.364  24.234  34.956  1.00  0.00    -0.237 OA
ATOM     73  O   UNL A   1      43.767  24.037  33.072  1.00  0.00    -0.237 OA
ATOM     74  O   UNL A   1      45.615  25.668  32.963  1.00  0.00    -0.744 OA
ENDBRANCH  67  71
ENDBRANCH  50  64
BRANCH  51  75
ATOM     75  C   UNL A   1      43.068  25.128  26.658  1.00  0.00     0.023 A 
ATOM     76  C   UNL A   1      44.045  24.611  25.774  1.00  0.00     0.031 A 
ATOM     77  C   UNL A   1      42.108  24.208  27.137  1.00  0.00     0.131 A 
ATOM     78  C   UNL A   1      44.030  23.240  25.412  1.00  0.00     0.055 A 
ATOM     79  C   UNL A   1      42.098  22.859  26.776  1.00  0.00     0.041 A 
ATOM     80  F   UNL A   1      41.192  24.569  28.049  1.00  0.00    -0.206 F 
ATOM     81  C   UNL A   1      43.066  22.366  25.919  1.00  0.00     0.022 A 
BRANCH  78  82
ATOM     82  S   UNL A   1      45.325  22.539  24.332  1.00  0.00     0.124 S 
ATOM     83  O   UNL A   1      46.068  23.726  23.927  1.00  0.00    -0.237 OA
ATOM     84  O   UNL A   1      46.013  21.614  25.225  1.00  0.00    -0.237 OA
ATOM     85  O   UNL A   1      44.565  21.896  23.258  1.00  0.00    -0.744 OA
ENDBRANCH  78  82
ENDBRANCH  51  75
BRANCH  63  86
ATOM     86  C   UNL A   1      45.497  30.657  28.710  1.00  0.00     0.023 A 
ATOM     87  C   UNL A   1      46.826  31.032  28.402  1.00  0.00     0.031 A 
ATOM     88  C   UNL A   1      44.478  31.122  27.857  1.00  0.00     0.131 A 
ATOM     89  C   UNL A   1      47.086  31.856  27.286  1.00  0.00     0.055 A 
ATOM     90  C   UNL A   1      44.743  31.914  26.742  1.00  0.00     0.041 A 
ATOM     91  F   UNL A   1      43.196  30.786  28.080  1.00  0.00    -0.206 F 
ATOM     92  C   UNL A   1      46.048  32.291  26.457  1.00  0.00     0.022 A 
BRANCH  89  93
ATOM     93  S   UNL A   1      48.781  32.410  26.902  1.00  0.00     0.124 S 
ATOM     94  O   UNL A   1      49.260  32.952  28.167  1.00  0.00    -0.237 OA
ATOM     95  O   UNL A   1      49.420  31.177  26.450  1.00  0.00    -0.237 OA
ATOM     96  O   UNL A   1      48.581  33.408  25.850  1.00  0.00    -0.744 OA
ENDBRANCH  89  93
ENDBRANCH  63  86
ENDBRANCH  37  38
ENDBRANCH  30  32
ENDBRANCH  29  30
ENDBRANCH  28  29
ENDBRANCH   1  28
TORSDOF 18
ENDMDL
MODEL 2
REMARK VINA RESULT:     -11.0      5.216     10.813
REMARK SMILES C[C@@H](Oc1ccc2c(c1)OCO2)C(=O)N1CCn2nc(C(=O)OCCOC(=O)c3ccc(-c4c5nc(c(-c6cc(S(=O)(=O)[O-])ccc6F)c6ccc([nH]6)c(-c6cc(S(=O)(=O)[O-])ccc6F)c6nc(c(-c7cc(S(=O)(=O)[O-])ccc7F)c7ccc4[nH]7)C=C6)C=C5)cc3)cc2C1
REMARK SMILES IDX 24 1 23 2 21 3 22 4 20 5 15 6 16 7 94 8 17 9 93 10 18 11
REMARK SMILES IDX 92 12 19 13 13 14 14 15 2 16 1 17 3 18 4 19 5 20 9 21 6 22
REMARK SMILES IDX 8 23 7 24 10 25 12 26 11 27 25 28 26 29 27 30 28 31 29 32
REMARK SMILES IDX 30 33 91 34 31 35 90 36 32 37 33 38 34 39 84 40 35 41 89 42
REMARK SMILES IDX 83 43 85 44 36 45 88 46 82 47 81 48 37 50 69 51 49 52 68 53
REMARK SMILES IDX 50 54 53 55 67 56 86 57 51 58 52 59 66 61 87 62 54 63 38 64
REMARK SMILES IDX 39 65 47 66 40 67 46 68 48 69 45 70 41 71 42 72 43 73 44 74
REMARK SMILES IDX 70 75 71 76 79 77 72 78 78 79 80 80 77 81 73 82 74 83 75 84
REMARK SMILES IDX 76 85 55 86 56 87 64 88 57 89 63 90 65 91 62 92 58 93 59 94
REMARK SMILES IDX 60 95 61 96
REMARK H PARENT 85 49 53 60
REMARK Flexibility Score: inf
ROOT
ATOM      1  C   UNL A   1      37.732  19.408  25.136  1.00  0.00     0.275 C 
ENDROOT
BRANCH   1   2
ATOM      2  O   UNL A   1      36.772  20.465  24.999  1.00  0.00    -0.457 OA
BRANCH   2   3
ATOM      3  C   UNL A   1      35.461  20.068  24.910  1.00  0.00     0.358 C 
ATOM      4  O   UNL A   1      35.114  18.905  24.709  1.00  0.00    -0.244 OA
BRANCH   3   5
ATOM      5  C   UNL A   1      34.535  21.189  25.114  1.00  0.00     0.170 A 
ATOM      6  N   UNL A   1      31.946  24.948  25.774  1.00  0.00    -0.332 N 
ATOM      7  C   UNL A   1      30.952  23.883  25.962  1.00  0.00     0.143 C 
ATOM      8  C   UNL A   1      33.364  24.645  25.627  1.00  0.00     0.175 C 
ATOM      9  C   UNL A   1      31.319  22.449  25.597  1.00  0.00     0.166 C 
ATOM     10  C   UNL A   1      33.674  23.216  25.473  1.00  0.00     0.059 A 
ATOM     11  N   UNL A   1      32.725  22.254  25.394  1.00  0.00    -0.265 N 
ATOM     12  C   UNL A   1      34.872  22.543  25.400  1.00  0.00     0.063 A 
ATOM     13  N   UNL A   1      33.195  21.045  25.056  1.00  0.00    -0.165 NA
BRANCH   6  14
ATOM     14  C   UNL A   1      31.667  26.311  25.936  1.00  0.00     0.263 C 
ATOM     15  O   UNL A   1      31.317  26.758  27.036  1.00  0.00    -0.271 OA
BRANCH  14  16
ATOM     16  C   UNL A   1      31.731  27.270  24.728  1.00  0.00     0.259 C 
ATOM     17  C   UNL A   1      33.114  27.320  24.089  1.00  0.00     0.064 C 
BRANCH  16  18
ATOM     18  O   UNL A   1      30.702  26.852  23.819  1.00  0.00    -0.481 OA
BRANCH  18  19
ATOM     19  C   UNL A   1      29.796  27.827  23.508  1.00  0.00     0.124 A 
ATOM     20  C   UNL A   1      28.439  27.487  23.385  1.00  0.00     0.050 A 
ATOM     21  C   UNL A   1      30.207  29.161  23.495  1.00  0.00     0.097 A 
ATOM     22  C   UNL A   1      27.474  28.478  23.201  1.00  0.00     0.054 A 
ATOM     23  C   UNL A   1      29.228  30.121  23.330  1.00  0.00     0.169 A 
ATOM     24  C   UNL A   1      27.900  29.786  23.185  1.00  0.00     0.166 A 
ATOM     25  O   UNL A   1      29.419  31.469  23.318  1.00  0.00    -0.453 OA
ATOM     26  O   UNL A   1      27.096  30.877  23.060  1.00  0.00    -0.454 OA
ATOM     27  C   UNL A   1      28.057  31.937  23.234  1.00  0.00     0.468 C 
ENDBRANCH  18  19
ENDBRANCH  16  18
ENDBRANCH  14  16
ENDBRANCH   6  14
ENDBRANCH   3   5
ENDBRANCH   2   3
ENDBRANCH   1   2
BRANCH   1  28
ATOM     28  C   UNL A   1      39.142  19.963  25.278  1.00  0.00     0.275 C 
BRANCH  28  29
ATOM     29  O   UNL A   1      40.068  18.952  25.678  1.00  0.00    -0.458 OA
BRANCH  29  30
ATOM     30  C   UNL A   1      41.341  19.382  25.851  1.00  0.00     0.338 C 
ATOM     31  O   UNL A   1      42.352  18.705  25.784  1.00  0.00    -0.246 OA
BRANCH  30  32
ATOM     32  C   UNL A   1      41.308  20.749  26.389  1.00  0.00     0.060 A 
ATOM     33  C   UNL A   1      42.014  21.745  25.711  1.00  0.00     0.016 A 
ATOM     34  C   UNL A   1      40.799  20.960  27.680  1.00  0.00     0.016 A 
ATOM     35  C   UNL A   1      42.322  22.914  26.384  1.00  0.00     0.010 A 
ATOM     36  C   UNL A   1      41.129  22.110  28.356  1.00  0.00     0.010 A 
ATOM     37  C   UNL A   1      41.934  23.053  27.724  1.00  0.00    -0.014 A 
BRANCH  37  38
ATOM     38  C   UNL A   1      42.226  24.295  28.415  1.00  0.00     0.031 A 
ATOM     39  C   UNL A   1      41.242  25.356  28.098  1.00  0.00     0.074 A 
ATOM     40  C   UNL A   1      43.169  24.411  29.371  1.00  0.00     0.049 A 
ATOM     41  N   UNL A   1      41.431  26.429  27.407  1.00  0.00    -0.248 NA
ATOM     42  C   UNL A   1      39.825  25.091  28.409  1.00  0.00     0.031 C 
ATOM     43  C   UNL A   1      43.983  23.344  29.958  1.00  0.00     0.029 A 
ATOM     44  N   UNL A   1      43.528  25.503  30.102  1.00  0.00    -0.354 N 
ATOM     45  C   UNL A   1      40.217  27.105  27.441  1.00  0.00     0.074 A 
ATOM     46  C   UNL A   1      39.233  26.134  27.829  1.00  0.00     0.031 C 
ATOM     47  C   UNL A   1      44.565  23.798  31.093  1.00  0.00     0.029 A 
ATOM     48  C   UNL A   1      44.270  25.215  31.247  1.00  0.00     0.049 A 
ATOM     49  H   UNL A   1      43.283  26.421  29.845  1.00  0.00     0.167 HD
ATOM     50  C   UNL A   1      40.183  28.464  27.462  1.00  0.00     0.034 A 
ATOM     51  C   UNL A   1      44.562  26.062  32.273  1.00  0.00     0.034 A 
ATOM     52  C   UNL A   1      41.438  29.017  26.993  1.00  0.00     0.049 A 
ATOM     53  C   UNL A   1      44.416  27.441  31.744  1.00  0.00     0.074 A 
ATOM     54  C   UNL A   1      42.179  28.892  25.832  1.00  0.00     0.029 A 
ATOM     55  N   UNL A   1      42.308  29.526  27.930  1.00  0.00    -0.354 N 
ATOM     56  N   UNL A   1      45.179  27.937  30.809  1.00  0.00    -0.248 NA
ATOM     57  C   UNL A   1      43.129  28.101  31.903  1.00  0.00     0.031 C 
ATOM     58  C   UNL A   1      43.539  28.862  26.262  1.00  0.00     0.029 A 
ATOM     59  C   UNL A   1      43.566  29.055  27.645  1.00  0.00     0.049 A 
ATOM     60  H   UNL A   1      42.069  30.124  28.676  1.00  0.00     0.167 HD
ATOM     61  C   UNL A   1      44.320  28.645  29.982  1.00  0.00     0.074 A 
ATOM     62  C   UNL A   1      43.092  28.797  30.763  1.00  0.00     0.031 C 
ATOM     63  C   UNL A   1      44.583  28.792  28.649  1.00  0.00     0.034 A 
BRANCH  50  64
ATOM     64  C   UNL A   1      39.206  29.270  28.299  1.00  0.00     0.023 A 
ATOM     65  C   UNL A   1      39.365  29.199  29.696  1.00  0.00     0.031 A 
ATOM     66  C   UNL A   1      37.986  29.834  27.854  1.00  0.00     0.131 A 
ATOM     67  C   UNL A   1      38.313  29.541  30.562  1.00  0.00     0.055 A 
ATOM     68  C   UNL A   1      36.969  30.237  28.724  1.00  0.00     0.041 A 
ATOM     69  F   UNL A   1      37.657  29.952  26.564  1.00  0.00    -0.206 F 
ATOM     70  C   UNL A   1      37.112  30.055  30.085  1.00  0.00     0.022 A 
BRANCH  67  71
ATOM     71  S   UNL A   1      38.479  29.115  32.311  1.00  0.00     0.124 S 
ATOM     72  O   UNL A   1      38.879  30.396  32.883  1.00  0.00    -0.237 OA
ATOM     73  O   UNL A   1      37.133  28.655  32.636  1.00  0.00    -0.237 OA
ATOM     74  O   UNL A   1      39.509  28.079  32.311  1.00  0.00    -0.744 OA
ENDBRANCH  67  71
ENDBRANCH  50  64
BRANCH  51  75
ATOM     75  C   UNL A   1      44.573  25.745  33.735  1.00  0.00     0.023 A 
ATOM     76  C   UNL A   1      43.534  26.124  34.617  1.00  0.00     0.031 A 
ATOM     77  C   UNL A   1      45.517  24.822  34.239  1.00  0.00     0.131 A 
ATOM     78  C   UNL A   1      43.474  25.586  35.928  1.00  0.00     0.055 A 
ATOM     79  C   UNL A   1      45.453  24.297  35.532  1.00  0.00     0.041 A 
ATOM     80  F   UNL A   1      46.491  24.327  33.461  1.00  0.00    -0.206 F 
ATOM     81  C   UNL A   1      44.425  24.669  36.380  1.00  0.00     0.022 A 
BRANCH  78  82
ATOM     82  S   UNL A   1      42.099  26.005  37.055  1.00  0.00     0.124 S 
ATOM     83  O   UNL A   1      42.801  26.371  38.279  1.00  0.00    -0.237 OA
ATOM     84  O   UNL A   1      41.426  27.085  36.343  1.00  0.00    -0.237 OA
ATOM     85  O   UNL A   1      41.333  24.760  37.138  1.00  0.00    -0.744 OA
ENDBRANCH  78  82
ENDBRANCH  51  75
BRANCH  63  86
ATOM     86  C   UNL A   1      45.985  28.485  28.152  1.00  0.00     0.023 A 
ATOM     87  C   UNL A   1      46.451  27.219  27.726  1.00  0.00     0.031 A 
ATOM     88  C   UNL A   1      46.866  29.577  28.024  1.00  0.00     0.131 A 
ATOM     89  C   UNL A   1      47.759  27.084  27.214  1.00  0.00     0.055 A 
ATOM     90  C   UNL A   1      48.147  29.442  27.494  1.00  0.00     0.041 A 
ATOM     91  F   UNL A   1      46.479  30.810  28.389  1.00  0.00    -0.206 F 
ATOM     92  C   UNL A   1      48.602  28.193  27.095  1.00  0.00     0.022 A 
BRANCH  89  93
ATOM     93  S   UNL A   1      48.410  25.453  26.720  1.00  0.00     0.124 S 
ATOM     94  O   UNL A   1      47.564  24.512  27.441  1.00  0.00    -0.237 OA
ATOM     95  O   UNL A   1      48.249  25.477  25.268  1.00  0.00    -0.237 OA
ATOM     96  O   UNL A   1      49.802  25.492  27.175  1.00  0.00    -0.744 OA
ENDBRANCH  89  93
ENDBRANCH  63  86
ENDBRANCH  37  38
ENDBRANCH  30  32
ENDBRANCH  29  30
ENDBRANCH  28  29
ENDBRANCH   1  28
TORSDOF 18
ENDMDL
MODEL 3
REMARK VINA RESULT:     -11.0      5.209     10.668
REMARK SMILES C[C@@H](Oc1ccc2c(c1)OCO2)C(=O)N1CCn2nc(C(=O)OCCOC(=O)c3ccc(-c4c5nc(c(-c6cc(S(=O)(=O)[O-])ccc6F)c6ccc([nH]6)c(-c6cc(S(=O)(=O)[O-])ccc6F)c6nc(c(-c7cc(S(=O)(=O)[O-])ccc7F)c7ccc4[nH]7)C=C6)C=C5)cc3)cc2C1
REMARK SMILES IDX 24 1 23 2 21 3 22 4 20 5 15 6 16 7 94 8 17 9 93 10 18 11
REMARK SMILES IDX 92 12 19 13 13 14 14 15 2 16 1 17 3 18 4 19 5 20 9 21 6 22
REMARK SMILES IDX 8 23 7 24 10 25 12 26 11 27 25 28 26 29 27 30 28 31 29 32
REMARK SMILES IDX 30 33 91 34 31 35 90 36 32 37 33 38 34 39 84 40 35 41 89 42
REMARK SMILES IDX 83 43 85 44 36 45 88 46 82 47 81 48 37 50 69 51 49 52 68 53
REMARK SMILES IDX 50 54 53 55 67 56 86 57 51 58 52 59 66 61 87 62 54 63 38 64
REMARK SMILES IDX 39 65 47 66 40 67 46 68 48 69 45 70 41 71 42 72 43 73 44 74
REMARK SMILES IDX 70 75 71 76 79 77 72 78 78 79 80 80 77 81 73 82 74 83 75 84
REMARK SMILES IDX 76 85 55 86 56 87 64 88 57 89 63 90 65 91 62 92 58 93 59 94
REMARK SMILES IDX 60 95 61 96
REMARK H PARENT 85 49 53 60
REMARK Flexibility Score: inf
ROOT
ATOM      1  C   UNL A   1      31.461  31.703  26.912  1.00  0.00     0.275 C 
ENDROOT
BRANCH   1   2
ATOM      2  O   UNL A   1      32.167  30.703  26.163  1.00  0.00    -0.457 OA
BRANCH   2   3
ATOM      3  C   UNL A   1      33.068  29.953  26.877  1.00  0.00     0.358 C 
ATOM      4  O   UNL A   1      33.808  30.420  27.742  1.00  0.00    -0.244 OA
BRANCH   3   5
ATOM      5  C   UNL A   1      33.016  28.534  26.503  1.00  0.00     0.170 A 
ATOM      6  N   UNL A   1      33.247  24.100  25.257  1.00  0.00    -0.332 N 
ATOM      7  C   UNL A   1      31.795  24.311  25.287  1.00  0.00     0.143 C 
ATOM      8  C   UNL A   1      34.178  25.210  25.418  1.00  0.00     0.175 C 
ATOM      9  C   UNL A   1      31.240  25.596  25.889  1.00  0.00     0.166 C 
ATOM     10  C   UNL A   1      33.555  26.481  25.814  1.00  0.00     0.059 A 
ATOM     11  N   UNL A   1      32.235  26.609  26.087  1.00  0.00    -0.265 N 
ATOM     12  C   UNL A   1      34.076  27.745  25.973  1.00  0.00     0.063 A 
ATOM     13  N   UNL A   1      31.897  27.791  26.621  1.00  0.00    -0.165 NA
BRANCH   6  14
ATOM     14  C   UNL A   1      33.853  22.899  24.864  1.00  0.00     0.263 C 
ATOM     15  O   UNL A   1      34.233  22.736  23.697  1.00  0.00    -0.271 OA
BRANCH  14  16
ATOM     16  C   UNL A   1      34.000  21.734  25.866  1.00  0.00     0.259 C 
ATOM     17  C   UNL A   1      34.121  22.211  27.309  1.00  0.00     0.064 C 
BRANCH  16  18
ATOM     18  O   UNL A   1      32.880  20.865  25.649  1.00  0.00    -0.481 OA
BRANCH  18  19
ATOM     19  C   UNL A   1      33.218  19.592  25.282  1.00  0.00     0.124 A 
ATOM     20  C   UNL A   1      34.442  19.371  24.628  1.00  0.00     0.050 A 
ATOM     21  C   UNL A   1      32.432  18.524  25.717  1.00  0.00     0.097 A 
ATOM     22  C   UNL A   1      34.877  18.072  24.360  1.00  0.00     0.054 A 
ATOM     23  C   UNL A   1      32.898  17.250  25.455  1.00  0.00     0.169 A 
ATOM     24  C   UNL A   1      34.085  17.034  24.793  1.00  0.00     0.166 A 
ATOM     25  O   UNL A   1      32.297  16.085  25.821  1.00  0.00    -0.453 OA
ATOM     26  O   UNL A   1      34.375  15.711  24.656  1.00  0.00    -0.454 OA
ATOM     27  C   UNL A   1      33.281  15.123  25.387  1.00  0.00     0.468 C 
ENDBRANCH  18  19
ENDBRANCH  16  18
ENDBRANCH  14  16
ENDBRANCH   6  14
ENDBRANCH   3   5
ENDBRANCH   2   3
ENDBRANCH   1   2
BRANCH   1  28
ATOM     28  C   UNL A   1      32.267  32.991  27.001  1.00  0.00     0.275 C 
BRANCH  28  29
ATOM     29  O   UNL A   1      31.999  33.697  28.213  1.00  0.00    -0.458 OA
BRANCH  29  30
ATOM     30  C   UNL A   1      33.025  34.456  28.669  1.00  0.00     0.338 C 
ATOM     31  O   UNL A   1      33.039  35.670  28.777  1.00  0.00    -0.246 OA
BRANCH  30  32
ATOM     32  C   UNL A   1      34.223  33.613  28.776  1.00  0.00     0.060 A 
ATOM     33  C   UNL A   1      34.432  32.907  29.963  1.00  0.00     0.016 A 
ATOM     34  C   UNL A   1      35.235  33.742  27.811  1.00  0.00     0.016 A 
ATOM     35  C   UNL A   1      35.704  32.437  30.240  1.00  0.00     0.010 A 
ATOM     36  C   UNL A   1      36.503  33.298  28.100  1.00  0.00     0.010 A 
ATOM     37  C   UNL A   1      36.741  32.700  29.334  1.00  0.00    -0.014 A 
BRANCH  37  38
ATOM     38  C   UNL A   1      38.065  32.174  29.609  1.00  0.00     0.031 A 
ATOM     39  C   UNL A   1      38.174  30.734  29.281  1.00  0.00     0.074 A 
ATOM     40  C   UNL A   1      39.118  32.946  29.946  1.00  0.00     0.049 A 
ATOM     41  N   UNL A   1      38.298  29.744  30.099  1.00  0.00    -0.248 NA
ATOM     42  C   UNL A   1      37.903  30.326  27.890  1.00  0.00     0.031 C 
ATOM     43  C   UNL A   1      39.172  34.409  30.001  1.00  0.00     0.029 A 
ATOM     44  N   UNL A   1      40.404  32.585  30.212  1.00  0.00    -0.354 N 
ATOM     45  C   UNL A   1      38.402  28.615  29.295  1.00  0.00     0.074 A 
ATOM     46  C   UNL A   1      37.896  28.999  28.007  1.00  0.00     0.031 C 
ATOM     47  C   UNL A   1      40.464  34.807  30.057  1.00  0.00     0.029 A 
ATOM     48  C   UNL A   1      41.320  33.635  30.170  1.00  0.00     0.049 A 
ATOM     49  H   UNL A   1      40.666  31.658  30.415  1.00  0.00     0.167 HD
ATOM     50  C   UNL A   1      39.187  27.569  29.668  1.00  0.00     0.034 A 
ATOM     51  C   UNL A   1      42.680  33.541  30.161  1.00  0.00     0.034 A 
ATOM     52  C   UNL A   1      39.459  27.614  31.091  1.00  0.00     0.049 A 
ATOM     53  C   UNL A   1      43.020  32.208  30.718  1.00  0.00     0.074 A 
ATOM     54  C   UNL A   1      38.673  27.638  32.228  1.00  0.00     0.029 A 
ATOM     55  N   UNL A   1      40.703  28.041  31.496  1.00  0.00    -0.354 N 
ATOM     56  N   UNL A   1      42.770  31.859  31.950  1.00  0.00    -0.248 NA
ATOM     57  C   UNL A   1      43.192  31.103  29.788  1.00  0.00     0.031 C 
ATOM     58  C   UNL A   1      39.338  28.531  33.120  1.00  0.00     0.029 A 
ATOM     59  C   UNL A   1      40.532  28.938  32.522  1.00  0.00     0.049 A 
ATOM     60  H   UNL A   1      41.565  27.753  31.117  1.00  0.00     0.167 HD
ATOM     61  C   UNL A   1      42.312  30.553  31.868  1.00  0.00     0.074 A 
ATOM     62  C   UNL A   1      42.693  30.108  30.528  1.00  0.00     0.031 C 
ATOM     63  C   UNL A   1      41.424  30.056  32.781  1.00  0.00     0.034 A 
BRANCH  50  64
ATOM     64  C   UNL A   1      40.051  26.778  28.702  1.00  0.00     0.023 A 
ATOM     65  C   UNL A   1      41.102  27.477  28.080  1.00  0.00     0.031 A 
ATOM     66  C   UNL A   1      39.739  25.519  28.137  1.00  0.00     0.131 A 
ATOM     67  C   UNL A   1      41.688  26.996  26.896  1.00  0.00     0.055 A 
ATOM     68  C   UNL A   1      40.374  25.014  26.999  1.00  0.00     0.041 A 
ATOM     69  F   UNL A   1      38.752  24.735  28.584  1.00  0.00    -0.206 F 
ATOM     70  C   UNL A   1      41.328  25.771  26.347  1.00  0.00     0.022 A 
BRANCH  67  71
ATOM     71  S   UNL A   1      42.794  28.101  25.986  1.00  0.00     0.124 S 
ATOM     72  O   UNL A   1      42.379  29.405  26.493  1.00  0.00    -0.237 OA
ATOM     73  O   UNL A   1      44.106  27.629  26.415  1.00  0.00    -0.237 OA
ATOM     74  O   UNL A   1      42.460  27.836  24.589  1.00  0.00    -0.744 OA
ENDBRANCH  67  71
ENDBRANCH  50  64
BRANCH  51  75
ATOM     75  C   UNL A   1      43.640  34.359  29.357  1.00  0.00     0.023 A 
ATOM     76  C   UNL A   1      44.163  33.938  28.112  1.00  0.00     0.031 A 
ATOM     77  C   UNL A   1      43.861  35.711  29.703  1.00  0.00     0.131 A 
ATOM     78  C   UNL A   1      44.864  34.849  27.283  1.00  0.00     0.055 A 
ATOM     79  C   UNL A   1      44.553  36.605  28.882  1.00  0.00     0.041 A 
ATOM     80  F   UNL A   1      43.332  36.240  30.817  1.00  0.00    -0.206 F 
ATOM     81  C   UNL A   1      45.050  36.180  27.663  1.00  0.00     0.022 A 
BRANCH  78  82
ATOM     82  S   UNL A   1      45.481  34.344  25.640  1.00  0.00     0.124 S 
ATOM     83  O   UNL A   1      44.260  34.320  24.844  1.00  0.00    -0.237 OA
ATOM     84  O   UNL A   1      46.442  35.395  25.326  1.00  0.00    -0.237 OA
ATOM     85  O   UNL A   1      46.076  33.029  25.887  1.00  0.00    -0.744 OA
ENDBRANCH  78  82
ENDBRANCH  51  75
BRANCH  63  86
ATOM     86  C   UNL A   1      41.220  30.819  34.078  1.00  0.00     0.023 A 
ATOM     87  C   UNL A   1      40.243  31.819  34.302  1.00  0.00     0.031 A 
ATOM     88  C   UNL A   1      42.016  30.434  35.174  1.00  0.00     0.131 A 
ATOM     89  C   UNL A   1      40.109  32.399  35.581  1.00  0.00     0.055 A 
ATOM     90  C   UNL A   1      41.862  30.993  36.441  1.00  0.00     0.041 A 
ATOM     91  F   UNL A   1      42.947  29.476  35.035  1.00  0.00    -0.206 F 
ATOM     92  C   UNL A   1      40.913  31.984  36.647  1.00  0.00     0.022 A 
BRANCH  89  93
ATOM     93  S   UNL A   1      38.905  33.736  35.884  1.00  0.00     0.124 S 
ATOM     94  O   UNL A   1      37.658  33.024  36.138  1.00  0.00    -0.237 OA
ATOM     95  O   UNL A   1      39.488  34.433  37.026  1.00  0.00    -0.237 OA
ATOM     96  O   UNL A   1      38.924  34.499  34.634  1.00  0.00    -0.744 OA
ENDBRANCH  89  93
ENDBRANCH  63  86
ENDBRANCH  37  38
ENDBRANCH  30  32
ENDBRANCH  29  30
ENDBRANCH  28  29
ENDBRANCH   1  28
TORSDOF 18
ENDMDL
