MODEL 1
REMARK VINA RESULT:     -12.2      0.000      0.000
REMARK SMILES O=C(Cc1ccccc1)Nc1cccc(C(=O)Nc2ccccc2C(=O)OCCOC(=O)c2ccc(-c3c4nc(c(-c5cc(S(=O)(=O)[O-])ccc5F)c5ccc([nH]5)c(-c5cc(S(=O)(=O)[O-])ccc5F)c5nc(c(-c6cc(S(=O)(=O)[O-])ccc6F)c6ccc3[nH]6)C=C5)C=C4)cc2)c1
REMARK SMILES IDX 28 1 27 2 25 3 26 4 24 5 19 6 20 7 21 8 23 9 22 10 18 11
REMARK SMILES IDX 16 12 17 13 15 15 11 16 12 17 96 18 13 19 14 20 10 21 1 22
REMARK SMILES IDX 2 23 3 25 4 26 5 27 9 28 6 29 8 30 7 31 29 32 30 33 31 34
REMARK SMILES IDX 32 35 33 36 34 37 95 38 35 39 94 40 36 41 37 42 38 43 88 44
REMARK SMILES IDX 39 45 93 46 87 47 89 48 40 49 92 50 86 51 85 52 41 54 73 55
REMARK SMILES IDX 53 56 72 57 54 58 57 59 71 60 90 61 55 62 56 63 70 65 91 66
REMARK SMILES IDX 58 67 42 68 43 69 51 70 44 71 50 72 52 73 49 74 45 75 46 76
REMARK SMILES IDX 47 77 48 78 74 79 75 80 83 81 76 82 82 83 84 84 81 85 77 86
REMARK SMILES IDX 78 87 79 88 80 89 59 90 60 91 68 92 61 93 67 94 69 95 66 96
REMARK SMILES IDX 62 97 63 98 64 99 65 100
REMARK H PARENT 18 14 10 24 89 53 57 64
REMARK Flexibility Score: inf
ROOT
ATOM      1  C   UNL A   1      36.141  22.339  23.741  1.00  0.00     0.275 C 
ENDROOT
BRANCH   1   2
ATOM      2  O   UNL A   1      34.910  22.592  24.449  1.00  0.00    -0.458 OA
BRANCH   2   3
ATOM      3  C   UNL A   1      33.801  22.211  23.772  1.00  0.00     0.340 C 
ATOM      4  O   UNL A   1      33.255  22.844  22.884  1.00  0.00    -0.246 OA
BRANCH   3   5
ATOM      5  C   UNL A   1      33.333  20.873  24.173  1.00  0.00     0.083 A 
ATOM      6  C   UNL A   1      33.336  20.378  25.487  1.00  0.00     0.056 A 
ATOM      7  C   UNL A   1      32.893  19.058  25.696  1.00  0.00     0.027 A 
ATOM      8  C   UNL A   1      32.368  18.286  24.656  1.00  0.00     0.002 A 
ATOM      9  C   UNL A   1      32.828  20.075  23.128  1.00  0.00     0.018 A 
ATOM     10  C   UNL A   1      32.326  18.800  23.370  1.00  0.00     0.001 A 
BRANCH   6  11
ATOM     11  N   UNL A   1      33.725  21.052  26.664  1.00  0.00    -0.321 N 
ATOM     12  C   UNL A   1      33.411  22.273  27.217  1.00  0.00     0.255 C 
ATOM     13  O   UNL A   1      34.112  22.698  28.137  1.00  0.00    -0.269 OA
ATOM     14  H   UNL A   1      34.361  20.535  27.211  1.00  0.00     0.170 HD
BRANCH  12  15
ATOM     15  C   UNL A   1      32.213  23.056  26.823  1.00  0.00     0.042 A 
ATOM     16  C   UNL A   1      31.173  25.074  25.989  1.00  0.00     0.041 A 
ATOM     17  C   UNL A   1      29.922  24.576  26.376  1.00  0.00     0.026 A 
ATOM     18  C   UNL A   1      32.305  24.269  26.132  1.00  0.00     0.040 A 
ATOM     19  C   UNL A   1      29.808  23.303  26.934  1.00  0.00     0.003 A 
ATOM     20  C   UNL A   1      30.955  22.551  27.176  1.00  0.00     0.014 A 
BRANCH  16  21
ATOM     21  N   UNL A   1      31.240  26.431  25.619  1.00  0.00    -0.326 N 
ATOM     22  O   UNL A   1      30.702  26.363  23.356  1.00  0.00    -0.274 OA
ATOM     23  C   UNL A   1      31.109  26.966  24.347  1.00  0.00     0.228 C 
ATOM     24  H   UNL A   1      31.395  27.074  26.348  1.00  0.00     0.169 HD
BRANCH  23  25
ATOM     25  C   UNL A   1      31.614  28.394  24.243  1.00  0.00     0.135 C 
BRANCH  25  26
ATOM     26  C   UNL A   1      32.478  28.922  25.365  1.00  0.00    -0.039 A 
ATOM     27  C   UNL A   1      31.983  30.010  26.103  1.00  0.00     0.004 A 
ATOM     28  C   UNL A   1      33.734  28.401  25.710  1.00  0.00     0.004 A 
ATOM     29  C   UNL A   1      32.723  30.563  27.146  1.00  0.00     0.000 A 
ATOM     30  C   UNL A   1      34.488  28.978  26.732  1.00  0.00     0.000 A 
ATOM     31  C   UNL A   1      33.982  30.055  27.450  1.00  0.00     0.000 A 
ENDBRANCH  25  26
ENDBRANCH  23  25
ENDBRANCH  16  21
ENDBRANCH  12  15
ENDBRANCH   6  11
ENDBRANCH   3   5
ENDBRANCH   2   3
ENDBRANCH   1   2
BRANCH   1  32
ATOM     32  C   UNL A   1      36.961  21.195  24.345  1.00  0.00     0.275 C 
BRANCH  32  33
ATOM     33  O   UNL A   1      37.389  21.499  25.686  1.00  0.00    -0.458 OA
BRANCH  33  34
ATOM     34  C   UNL A   1      38.690  21.249  25.963  1.00  0.00     0.338 C 
ATOM     35  O   UNL A   1      39.294  20.207  25.780  1.00  0.00    -0.246 OA
BRANCH  34  36
ATOM     36  C   UNL A   1      39.323  22.443  26.551  1.00  0.00     0.060 A 
ATOM     37  C   UNL A   1      38.910  23.713  26.148  1.00  0.00     0.016 A 
ATOM     38  C   UNL A   1      40.424  22.305  27.397  1.00  0.00     0.016 A 
ATOM     39  C   UNL A   1      39.620  24.841  26.533  1.00  0.00     0.010 A 
ATOM     40  C   UNL A   1      41.096  23.448  27.847  1.00  0.00     0.010 A 
ATOM     41  C   UNL A   1      40.708  24.724  27.402  1.00  0.00    -0.014 A 
BRANCH  41  42
ATOM     42  C   UNL A   1      41.444  25.947  27.803  1.00  0.00     0.031 A 
ATOM     43  C   UNL A   1      40.770  26.978  28.658  1.00  0.00     0.074 A 
ATOM     44  C   UNL A   1      42.733  26.094  27.443  1.00  0.00     0.049 A 
ATOM     45  N   UNL A   1      41.187  28.166  29.008  1.00  0.00    -0.248 NA
ATOM     46  C   UNL A   1      39.446  26.622  29.188  1.00  0.00     0.031 C 
ATOM     47  C   UNL A   1      43.511  25.112  26.682  1.00  0.00     0.029 A 
ATOM     48  N   UNL A   1      43.623  27.110  27.678  1.00  0.00    -0.354 N 
ATOM     49  C   UNL A   1      40.158  28.723  29.759  1.00  0.00     0.074 A 
ATOM     50  C   UNL A   1      39.100  27.735  29.818  1.00  0.00     0.031 C 
ATOM     51  C   UNL A   1      44.765  25.563  26.536  1.00  0.00     0.029 A 
ATOM     52  C   UNL A   1      44.862  26.897  27.117  1.00  0.00     0.049 A 
ATOM     53  H   UNL A   1      43.398  27.914  28.200  1.00  0.00     0.167 HD
ATOM     54  C   UNL A   1      40.102  29.954  30.327  1.00  0.00     0.034 A 
ATOM     55  C   UNL A   1      45.936  27.706  27.037  1.00  0.00     0.034 A 
ATOM     56  C   UNL A   1      41.177  30.915  30.251  1.00  0.00     0.049 A 
ATOM     57  C   UNL A   1      45.831  29.088  27.626  1.00  0.00     0.074 A 
ATOM     58  C   UNL A   1      41.226  32.204  30.753  1.00  0.00     0.029 A 
ATOM     59  N   UNL A   1      42.397  30.686  29.626  1.00  0.00    -0.354 N 
ATOM     60  N   UNL A   1      44.824  29.635  28.268  1.00  0.00    -0.248 NA
ATOM     61  C   UNL A   1      46.993  29.968  27.458  1.00  0.00     0.031 C 
ATOM     62  C   UNL A   1      42.452  32.771  30.382  1.00  0.00     0.029 A 
ATOM     63  C   UNL A   1      43.194  31.820  29.700  1.00  0.00     0.049 A 
ATOM     64  H   UNL A   1      42.660  29.841  29.194  1.00  0.00     0.167 HD
ATOM     65  C   UNL A   1      45.223  30.935  28.558  1.00  0.00     0.074 A 
ATOM     66  C   UNL A   1      46.580  31.072  28.064  1.00  0.00     0.031 C 
ATOM     67  C   UNL A   1      44.528  31.934  29.160  1.00  0.00     0.034 A 
BRANCH  54  68
ATOM     68  C   UNL A   1      38.797  30.345  30.977  1.00  0.00     0.023 A 
ATOM     69  C   UNL A   1      37.840  31.138  30.319  1.00  0.00     0.031 A 
ATOM     70  C   UNL A   1      38.550  29.988  32.315  1.00  0.00     0.131 A 
ATOM     71  C   UNL A   1      36.723  31.614  31.024  1.00  0.00     0.055 A 
ATOM     72  C   UNL A   1      37.400  30.404  32.988  1.00  0.00     0.041 A 
ATOM     73  F   UNL A   1      39.439  29.255  33.002  1.00  0.00    -0.206 F 
ATOM     74  C   UNL A   1      36.487  31.237  32.349  1.00  0.00     0.022 A 
BRANCH  71  75
ATOM     75  S   UNL A   1      35.674  32.872  30.242  1.00  0.00     0.124 S 
ATOM     76  O   UNL A   1      36.308  34.109  30.690  1.00  0.00    -0.237 OA
ATOM     77  O   UNL A   1      35.813  32.559  28.824  1.00  0.00    -0.237 OA
ATOM     78  O   UNL A   1      34.352  32.618  30.811  1.00  0.00    -0.744 OA
ENDBRANCH  71  75
ENDBRANCH  54  68
BRANCH  55  79
ATOM     79  C   UNL A   1      47.157  27.265  26.303  1.00  0.00     0.023 A 
ATOM     80  C   UNL A   1      48.192  26.574  26.951  1.00  0.00     0.031 A 
ATOM     81  C   UNL A   1      47.305  27.532  24.928  1.00  0.00     0.131 A 
ATOM     82  C   UNL A   1      49.327  26.172  26.228  1.00  0.00     0.055 A 
ATOM     83  C   UNL A   1      48.413  27.093  24.205  1.00  0.00     0.041 A 
ATOM     84  F   UNL A   1      46.351  28.202  24.261  1.00  0.00    -0.206 F 
ATOM     85  C   UNL A   1      49.435  26.410  24.855  1.00  0.00     0.022 A 
BRANCH  82  86
ATOM     86  S   UNL A   1      50.687  25.361  27.114  1.00  0.00     0.124 S 
ATOM     87  O   UNL A   1      51.536  24.918  26.015  1.00  0.00    -0.237 OA
ATOM     88  O   UNL A   1      51.212  26.448  27.931  1.00  0.00    -0.237 OA
ATOM     89  O   UNL A   1      50.018  24.297  27.861  1.00  0.00    -0.744 OA
ENDBRANCH  82  86
ENDBRANCH  55  79
BRANCH  67  90
ATOM     90  C   UNL A   1      45.237  33.257  29.286  1.00  0.00     0.023 A 
ATOM     91  C   UNL A   1      45.065  34.264  28.320  1.00  0.00     0.031 A 
ATOM     92  C   UNL A   1      46.100  33.507  30.365  1.00  0.00     0.131 A 
ATOM     93  C   UNL A   1      45.786  35.461  28.426  1.00  0.00     0.055 A 
ATOM     94  C   UNL A   1      46.779  34.719  30.491  1.00  0.00     0.041 A 
ATOM     95  F   UNL A   1      46.298  32.575  31.311  1.00  0.00    -0.206 F 
ATOM     96  C   UNL A   1      46.632  35.701  29.514  1.00  0.00     0.022 A 
BRANCH  93  97
ATOM     97  S   UNL A   1      45.655  36.679  27.089  1.00  0.00     0.124 S 
ATOM     98  O   UNL A   1      46.351  37.828  27.658  1.00  0.00    -0.237 OA
ATOM     99  O   UNL A   1      46.330  36.007  25.984  1.00  0.00    -0.237 OA
ATOM    100  O   UNL A   1      44.212  36.848  26.921  1.00  0.00    -0.744 OA
ENDBRANCH  93  97
ENDBRANCH  67  90
ENDBRANCH  41  42
ENDBRANCH  34  36
ENDBRANCH  33  34
ENDBRANCH  32  33
ENDBRANCH   1  32
TORSDOF 19
ENDMDL
MODEL 2
REMARK VINA RESULT:     -12.2      5.300     10.314
REMARK SMILES O=C(Cc1ccccc1)Nc1cccc(C(=O)Nc2ccccc2C(=O)OCCOC(=O)c2ccc(-c3c4nc(c(-c5cc(S(=O)(=O)[O-])ccc5F)c5ccc([nH]5)c(-c5cc(S(=O)(=O)[O-])ccc5F)c5nc(c(-c6cc(S(=O)(=O)[O-])ccc6F)c6ccc3[nH]6)C=C5)C=C4)cc2)c1
REMARK SMILES IDX 28 1 27 2 25 3 26 4 24 5 19 6 20 7 21 8 23 9 22 10 18 11
REMARK SMILES IDX 16 12 17 13 15 15 11 16 12 17 96 18 13 19 14 20 10 21 1 22
REMARK SMILES IDX 2 23 3 25 4 26 5 27 9 28 6 29 8 30 7 31 29 32 30 33 31 34
REMARK SMILES IDX 32 35 33 36 34 37 95 38 35 39 94 40 36 41 37 42 38 43 88 44
REMARK SMILES IDX 39 45 93 46 87 47 89 48 40 49 92 50 86 51 85 52 41 54 73 55
REMARK SMILES IDX 53 56 72 57 54 58 57 59 71 60 90 61 55 62 56 63 70 65 91 66
REMARK SMILES IDX 58 67 42 68 43 69 51 70 44 71 50 72 52 73 49 74 45 75 46 76
REMARK SMILES IDX 47 77 48 78 74 79 75 80 83 81 76 82 82 83 84 84 81 85 77 86
REMARK SMILES IDX 78 87 79 88 80 89 59 90 60 91 68 92 61 93 67 94 69 95 66 96
REMARK SMILES IDX 62 97 63 98 64 99 65 100
REMARK H PARENT 18 14 10 24 89 53 57 64
REMARK Flexibility Score: inf
ROOT
ATOM      1  C   UNL A   1      33.355  34.251  28.105  1.00  0.00     0.275 C 
ENDROOT
BRANCH   1   2
ATOM      2  O   UNL A   1      32.769  34.714  29.339  1.00  0.00    -0.458 OA
BRANCH   2   3
ATOM      3  C   UNL A   1      33.046  36.008  29.626  1.00  0.00     0.340 C 
ATOM      4  O   UNL A   1      32.958  36.944  28.850  1.00  0.00    -0.246 OA
BRANCH   3   5
ATOM      5  C   UNL A   1      33.412  36.202  31.040  1.00  0.00     0.083 A 
ATOM      6  C   UNL A   1      33.838  35.185  31.909  1.00  0.00     0.056 A 
ATOM      7  C   UNL A   1      34.109  35.531  33.247  1.00  0.00     0.027 A 
ATOM      8  C   UNL A   1      34.061  36.857  33.686  1.00  0.00     0.002 A 
ATOM      9  C   UNL A   1      33.339  37.530  31.502  1.00  0.00     0.018 A 
ATOM     10  C   UNL A   1      33.685  37.861  32.809  1.00  0.00     0.001 A 
BRANCH   6  11
ATOM     11  N   UNL A   1      34.047  33.822  31.609  1.00  0.00    -0.321 N 
ATOM     12  C   UNL A   1      35.130  32.977  31.700  1.00  0.00     0.255 C 
ATOM     13  O   UNL A   1      35.077  31.892  31.118  1.00  0.00    -0.269 OA
ATOM     14  H   UNL A   1      33.241  33.377  31.260  1.00  0.00     0.170 HD
BRANCH  12  15
ATOM     15  C   UNL A   1      36.318  33.270  32.541  1.00  0.00     0.042 A 
ATOM     16  C   UNL A   1      38.598  34.030  32.807  1.00  0.00     0.041 A 
ATOM     17  C   UNL A   1      38.602  33.525  34.113  1.00  0.00     0.026 A 
ATOM     18  C   UNL A   1      37.421  33.981  32.057  1.00  0.00     0.040 A 
ATOM     19  C   UNL A   1      37.454  32.943  34.652  1.00  0.00     0.003 A 
ATOM     20  C   UNL A   1      36.319  32.797  33.860  1.00  0.00     0.014 A 
BRANCH  16  21
ATOM     21  N   UNL A   1      39.837  34.421  32.264  1.00  0.00    -0.326 N 
ATOM     22  O   UNL A   1      39.860  33.320  30.214  1.00  0.00    -0.274 OA
ATOM     23  C   UNL A   1      40.422  33.976  31.089  1.00  0.00     0.228 C 
ATOM     24  H   UNL A   1      40.345  35.090  32.777  1.00  0.00     0.169 HD
BRANCH  23  25
ATOM     25  C   UNL A   1      41.903  34.297  30.998  1.00  0.00     0.135 C 
BRANCH  25  26
ATOM     26  C   UNL A   1      42.767  33.412  30.131  1.00  0.00    -0.039 A 
ATOM     27  C   UNL A   1      43.140  32.163  30.655  1.00  0.00     0.004 A 
ATOM     28  C   UNL A   1      43.218  33.756  28.847  1.00  0.00     0.004 A 
ATOM     29  C   UNL A   1      43.944  31.291  29.923  1.00  0.00     0.000 A 
ATOM     30  C   UNL A   1      44.051  32.896  28.131  1.00  0.00     0.000 A 
ATOM     31  C   UNL A   1      44.412  31.666  28.667  1.00  0.00     0.000 A 
ENDBRANCH  25  26
ENDBRANCH  23  25
ENDBRANCH  16  21
ENDBRANCH  12  15
ENDBRANCH   6  11
ENDBRANCH   3   5
ENDBRANCH   2   3
ENDBRANCH   1   2
BRANCH   1  32
ATOM     32  C   UNL A   1      33.210  32.741  27.896  1.00  0.00     0.275 C 
BRANCH  32  33
ATOM     33  O   UNL A   1      34.481  32.068  27.993  1.00  0.00    -0.458 OA
BRANCH  33  34
ATOM     34  C   UNL A   1      34.520  30.805  27.508  1.00  0.00     0.338 C 
ATOM     35  O   UNL A   1      33.679  30.255  26.818  1.00  0.00    -0.246 OA
BRANCH  34  36
ATOM     36  C   UNL A   1      35.758  30.133  27.941  1.00  0.00     0.060 A 
ATOM     37  C   UNL A   1      35.777  29.434  29.147  1.00  0.00     0.016 A 
ATOM     38  C   UNL A   1      36.940  30.314  27.221  1.00  0.00     0.016 A 
ATOM     39  C   UNL A   1      36.974  28.964  29.671  1.00  0.00     0.010 A 
ATOM     40  C   UNL A   1      38.135  29.775  27.712  1.00  0.00     0.010 A 
ATOM     41  C   UNL A   1      38.162  29.112  28.951  1.00  0.00    -0.014 A 
BRANCH  41  42
ATOM     42  C   UNL A   1      39.425  28.595  29.532  1.00  0.00     0.031 A 
ATOM     43  C   UNL A   1      39.961  29.189  30.800  1.00  0.00     0.074 A 
ATOM     44  C   UNL A   1      40.048  27.555  28.946  1.00  0.00     0.049 A 
ATOM     45  N   UNL A   1      41.104  28.973  31.397  1.00  0.00    -0.248 NA
ATOM     46  C   UNL A   1      39.095  30.159  31.484  1.00  0.00     0.031 C 
ATOM     47  C   UNL A   1      39.567  26.848  27.756  1.00  0.00     0.029 A 
ATOM     48  N   UNL A   1      41.207  26.900  29.274  1.00  0.00    -0.354 N 
ATOM     49  C   UNL A   1      41.117  29.816  32.503  1.00  0.00     0.074 A 
ATOM     50  C   UNL A   1      39.863  30.540  32.494  1.00  0.00     0.031 C 
ATOM     51  C   UNL A   1      40.409  25.844  27.471  1.00  0.00     0.029 A 
ATOM     52  C   UNL A   1      41.531  25.886  28.402  1.00  0.00     0.049 A 
ATOM     53  H   UNL A   1      41.754  27.132  30.059  1.00  0.00     0.167 HD
ATOM     54  C   UNL A   1      42.100  29.978  33.425  1.00  0.00     0.034 A 
ATOM     55  C   UNL A   1      42.631  25.111  28.332  1.00  0.00     0.034 A 
ATOM     56  C   UNL A   1      43.338  29.236  33.407  1.00  0.00     0.049 A 
ATOM     57  C   UNL A   1      43.732  25.346  29.332  1.00  0.00     0.074 A 
ATOM     58  C   UNL A   1      44.422  29.335  34.262  1.00  0.00     0.029 A 
ATOM     59  N   UNL A   1      43.657  28.255  32.476  1.00  0.00    -0.354 N 
ATOM     60  N   UNL A   1      43.769  26.200  30.330  1.00  0.00    -0.248 NA
ATOM     61  C   UNL A   1      44.946  24.536  29.183  1.00  0.00     0.031 C 
ATOM     62  C   UNL A   1      45.416  28.456  33.813  1.00  0.00     0.029 A 
ATOM     63  C   UNL A   1      44.932  27.764  32.713  1.00  0.00     0.049 A 
ATOM     64  H   UNL A   1      43.063  27.951  31.751  1.00  0.00     0.167 HD
ATOM     65  C   UNL A   1      45.022  26.047  30.912  1.00  0.00     0.074 A 
ATOM     66  C   UNL A   1      45.689  24.984  30.184  1.00  0.00     0.031 C 
ATOM     67  C   UNL A   1      45.583  26.732  31.941  1.00  0.00     0.034 A 
BRANCH  54  68
ATOM     68  C   UNL A   1      41.898  31.067  34.451  1.00  0.00     0.023 A 
ATOM     69  C   UNL A   1      42.241  32.407  34.198  1.00  0.00     0.031 A 
ATOM     70  C   UNL A   1      41.435  30.737  35.738  1.00  0.00     0.131 A 
ATOM     71  C   UNL A   1      42.193  33.348  35.239  1.00  0.00     0.055 A 
ATOM     72  C   UNL A   1      41.319  31.694  36.747  1.00  0.00     0.041 A 
ATOM     73  F   UNL A   1      41.118  29.470  36.045  1.00  0.00    -0.206 F 
ATOM     74  C   UNL A   1      41.717  33.005  36.507  1.00  0.00     0.022 A 
BRANCH  71  75
ATOM     75  S   UNL A   1      42.925  34.986  34.961  1.00  0.00     0.124 S 
ATOM     76  O   UNL A   1      43.023  35.503  36.324  1.00  0.00    -0.237 OA
ATOM     77  O   UNL A   1      44.187  34.660  34.308  1.00  0.00    -0.237 OA
ATOM     78  O   UNL A   1      41.941  35.662  34.117  1.00  0.00    -0.744 OA
ENDBRANCH  71  75
ENDBRANCH  54  68
BRANCH  55  79
ATOM     79  C   UNL A   1      42.780  24.113  27.233  1.00  0.00     0.023 A 
ATOM     80  C   UNL A   1      42.191  22.842  27.313  1.00  0.00     0.031 A 
ATOM     81  C   UNL A   1      43.521  24.424  26.077  1.00  0.00     0.131 A 
ATOM     82  C   UNL A   1      42.350  21.928  26.258  1.00  0.00     0.055 A 
ATOM     83  C   UNL A   1      43.640  23.529  25.013  1.00  0.00     0.041 A 
ATOM     84  F   UNL A   1      44.117  25.620  25.953  1.00  0.00    -0.206 F 
ATOM     85  C   UNL A   1      43.055  22.271  25.101  1.00  0.00     0.022 A 
BRANCH  82  86
ATOM     86  S   UNL A   1      41.653  20.262  26.431  1.00  0.00     0.124 S 
ATOM     87  O   UNL A   1      42.103  19.888  27.766  1.00  0.00    -0.237 OA
ATOM     88  O   UNL A   1      40.224  20.511  26.284  1.00  0.00    -0.237 OA
ATOM     89  O   UNL A   1      42.267  19.522  25.330  1.00  0.00    -0.744 OA
ENDBRANCH  82  86
ENDBRANCH  55  79
BRANCH  67  90
ATOM     90  C   UNL A   1      46.992  26.349  32.307  1.00  0.00     0.023 A 
ATOM     91  C   UNL A   1      47.245  25.331  33.243  1.00  0.00     0.031 A 
ATOM     92  C   UNL A   1      48.087  27.015  31.734  1.00  0.00     0.131 A 
ATOM     93  C   UNL A   1      48.564  25.038  33.615  1.00  0.00     0.055 A 
ATOM     94  C   UNL A   1      49.401  26.688  32.073  1.00  0.00     0.041 A 
ATOM     95  F   UNL A   1      47.897  27.996  30.837  1.00  0.00    -0.206 F 
ATOM     96  C   UNL A   1      49.644  25.701  33.025  1.00  0.00     0.022 A 
BRANCH  93  97
ATOM     97  S   UNL A   1      48.849  23.822  34.930  1.00  0.00     0.124 S 
ATOM     98  O   UNL A   1      47.937  22.749  34.551  1.00  0.00    -0.237 OA
ATOM     99  O   UNL A   1      50.272  23.530  34.786  1.00  0.00    -0.237 OA
ATOM    100  O   UNL A   1      48.487  24.544  36.149  1.00  0.00    -0.744 OA
ENDBRANCH  93  97
ENDBRANCH  67  90
ENDBRANCH  41  42
ENDBRANCH  34  36
ENDBRANCH  33  34
ENDBRANCH  32  33
ENDBRANCH   1  32
TORSDOF 19
ENDMDL
MODEL 3
REMARK VINA RESULT:     -12.1      2.618      3.556
REMARK SMILES O=C(Cc1ccccc1)Nc1cccc(C(=O)Nc2ccccc2C(=O)OCCOC(=O)c2ccc(-c3c4nc(c(-c5cc(S(=O)(=O)[O-])ccc5F)c5ccc([nH]5)c(-c5cc(S(=O)(=O)[O-])ccc5F)c5nc(c(-c6cc(S(=O)(=O)[O-])ccc6F)c6ccc3[nH]6)C=C5)C=C4)cc2)c1
REMARK SMILES IDX 28 1 27 2 25 3 26 4 24 5 19 6 20 7 21 8 23 9 22 10 18 11
REMARK SMILES IDX 16 12 17 13 15 15 11 16 12 17 96 18 13 19 14 20 10 21 1 22
REMARK SMILES IDX 2 23 3 25 4 26 5 27 9 28 6 29 8 30 7 31 29 32 30 33 31 34
REMARK SMILES IDX 32 35 33 36 34 37 95 38 35 39 94 40 36 41 37 42 38 43 88 44
REMARK SMILES IDX 39 45 93 46 87 47 89 48 40 49 92 50 86 51 85 52 41 54 73 55
REMARK SMILES IDX 53 56 72 57 54 58 57 59 71 60 90 61 55 62 56 63 70 65 91 66
REMARK SMILES IDX 58 67 42 68 43 69 51 70 44 71 50 72 52 73 49 74 45 75 46 76
REMARK SMILES IDX 47 77 48 78 74 79 75 80 83 81 76 82 82 83 84 84 81 85 77 86
REMARK SMILES IDX 78 87 79 88 80 89 59 90 60 91 68 92 61 93 67 94 69 95 66 96
REMARK SMILES IDX 62 97 63 98 64 99 65 100
REMARK H PARENT 18 14 10 24 89 53 57 64
REMARK Flexibility Score: inf
ROOT
ATOM      1  C   UNL A   1      38.441  21.057  25.529  1.00  0.00     0.275 C 
ENDROOT
BRANCH   1   2
ATOM      2  O   UNL A   1      37.187  20.863  24.844  1.00  0.00    -0.458 OA
BRANCH   2   3
ATOM      3  C   UNL A   1      36.329  21.903  24.965  1.00  0.00     0.340 C 
ATOM      4  O   UNL A   1      36.638  23.053  25.229  1.00  0.00    -0.246 OA
BRANCH   3   5
ATOM      5  C   UNL A   1      34.939  21.521  24.668  1.00  0.00     0.083 A 
ATOM      6  C   UNL A   1      34.069  22.234  23.827  1.00  0.00     0.056 A 
ATOM      7  C   UNL A   1      32.752  21.755  23.681  1.00  0.00     0.027 A 
ATOM      8  C   UNL A   1      32.339  20.555  24.264  1.00  0.00     0.002 A 
ATOM      9  C   UNL A   1      34.501  20.328  25.275  1.00  0.00     0.018 A 
ATOM     10  C   UNL A   1      33.219  19.833  25.056  1.00  0.00     0.001 A 
BRANCH   6  11
ATOM     11  N   UNL A   1      34.350  23.396  23.077  1.00  0.00    -0.321 N 
ATOM     12  C   UNL A   1      33.724  24.613  22.928  1.00  0.00     0.255 C 
ATOM     13  O   UNL A   1      34.074  25.342  21.998  1.00  0.00    -0.269 OA
ATOM     14  H   UNL A   1      35.174  23.320  22.544  1.00  0.00     0.170 HD
BRANCH  12  15
ATOM     15  C   UNL A   1      32.718  25.129  23.889  1.00  0.00     0.042 A 
ATOM     16  C   UNL A   1      30.600  26.188  24.385  1.00  0.00     0.041 A 
ATOM     17  C   UNL A   1      31.002  26.342  25.718  1.00  0.00     0.026 A 
ATOM     18  C   UNL A   1      31.427  25.497  23.496  1.00  0.00     0.040 A 
ATOM     19  C   UNL A   1      32.233  25.845  26.149  1.00  0.00     0.003 A 
ATOM     20  C   UNL A   1      33.099  25.257  25.231  1.00  0.00     0.014 A 
BRANCH  16  21
ATOM     21  N   UNL A   1      29.445  26.881  23.977  1.00  0.00    -0.326 N 
ATOM     22  O   UNL A   1      30.193  28.058  22.114  1.00  0.00    -0.274 OA
ATOM     23  C   UNL A   1      29.339  27.823  22.966  1.00  0.00     0.228 C 
ATOM     24  H   UNL A   1      28.616  26.671  24.465  1.00  0.00     0.169 HD
BRANCH  23  25
ATOM     25  C   UNL A   1      28.064  28.645  23.045  1.00  0.00     0.135 C 
BRANCH  25  26
ATOM     26  C   UNL A   1      28.138  30.103  22.653  1.00  0.00    -0.039 A 
ATOM     27  C   UNL A   1      28.034  30.408  21.285  1.00  0.00     0.004 A 
ATOM     28  C   UNL A   1      28.304  31.160  23.560  1.00  0.00     0.004 A 
ATOM     29  C   UNL A   1      28.102  31.727  20.840  1.00  0.00     0.000 A 
ATOM     30  C   UNL A   1      28.407  32.476  23.108  1.00  0.00     0.000 A 
ATOM     31  C   UNL A   1      28.304  32.759  21.751  1.00  0.00     0.000 A 
ENDBRANCH  25  26
ENDBRANCH  23  25
ENDBRANCH  16  21
ENDBRANCH  12  15
ENDBRANCH   6  11
ENDBRANCH   3   5
ENDBRANCH   2   3
ENDBRANCH   1   2
BRANCH   1  32
ATOM     32  C   UNL A   1      39.223  19.757  25.740  1.00  0.00     0.275 C 
BRANCH  32  33
ATOM     33  O   UNL A   1      40.564  19.854  25.223  1.00  0.00    -0.458 OA
BRANCH  33  34
ATOM     34  C   UNL A   1      41.558  19.791  26.139  1.00  0.00     0.338 C 
ATOM     35  O   UNL A   1      42.078  18.786  26.593  1.00  0.00    -0.246 OA
BRANCH  34  36
ATOM     36  C   UNL A   1      41.952  21.148  26.557  1.00  0.00     0.060 A 
ATOM     37  C   UNL A   1      42.028  22.167  25.607  1.00  0.00     0.016 A 
ATOM     38  C   UNL A   1      42.384  21.380  27.863  1.00  0.00     0.016 A 
ATOM     39  C   UNL A   1      42.585  23.396  25.934  1.00  0.00     0.010 A 
ATOM     40  C   UNL A   1      42.877  22.643  28.213  1.00  0.00     0.010 A 
ATOM     41  C   UNL A   1      42.997  23.654  27.244  1.00  0.00    -0.014 A 
BRANCH  41  42
ATOM     42  C   UNL A   1      43.583  24.978  27.566  1.00  0.00     0.031 A 
ATOM     43  C   UNL A   1      42.722  26.048  28.169  1.00  0.00     0.074 A 
ATOM     44  C   UNL A   1      44.898  25.188  27.370  1.00  0.00     0.049 A 
ATOM     45  N   UNL A   1      43.003  27.303  28.402  1.00  0.00    -0.248 NA
ATOM     46  C   UNL A   1      41.361  25.650  28.556  1.00  0.00     0.031 C 
ATOM     47  C   UNL A   1      45.843  24.187  26.867  1.00  0.00     0.029 A 
ATOM     48  N   UNL A   1      45.674  26.299  27.580  1.00  0.00    -0.354 N 
ATOM     49  C   UNL A   1      41.839  27.861  28.919  1.00  0.00     0.074 A 
ATOM     50  C   UNL A   1      40.853  26.801  28.971  1.00  0.00     0.031 C 
ATOM     51  C   UNL A   1      47.073  24.722  26.833  1.00  0.00     0.029 A 
ATOM     52  C   UNL A   1      46.992  26.123  27.229  1.00  0.00     0.049 A 
ATOM     53  H   UNL A   1      45.320  27.141  27.947  1.00  0.00     0.167 HD
ATOM     54  C   UNL A   1      41.618  29.146  29.296  1.00  0.00     0.034 A 
ATOM     55  C   UNL A   1      48.010  27.005  27.184  1.00  0.00     0.034 A 
ATOM     56  C   UNL A   1      42.625  30.178  29.235  1.00  0.00     0.049 A 
ATOM     57  C   UNL A   1      47.728  28.437  27.553  1.00  0.00     0.074 A 
ATOM     58  C   UNL A   1      42.514  31.520  29.554  1.00  0.00     0.029 A 
ATOM     59  N   UNL A   1      43.937  29.977  28.821  1.00  0.00    -0.354 N 
ATOM     60  N   UNL A   1      46.603  28.973  27.969  1.00  0.00    -0.248 NA
ATOM     61  C   UNL A   1      48.839  29.385  27.424  1.00  0.00     0.031 C 
ATOM     62  C   UNL A   1      43.740  32.139  29.278  1.00  0.00     0.029 A 
ATOM     63  C   UNL A   1      44.636  31.175  28.844  1.00  0.00     0.049 A 
ATOM     64  H   UNL A   1      44.317  29.109  28.552  1.00  0.00     0.167 HD
ATOM     65  C   UNL A   1      46.866  30.329  28.125  1.00  0.00     0.074 A 
ATOM     66  C   UNL A   1      48.269  30.518  27.808  1.00  0.00     0.031 C 
ATOM     67  C   UNL A   1      46.025  31.334  28.480  1.00  0.00     0.034 A 
BRANCH  54  68
ATOM     68  C   UNL A   1      40.208  29.504  29.701  1.00  0.00     0.023 A 
ATOM     69  C   UNL A   1      39.818  29.601  31.048  1.00  0.00     0.031 A 
ATOM     70  C   UNL A   1      39.218  29.664  28.715  1.00  0.00     0.131 A 
ATOM     71  C   UNL A   1      38.461  29.768  31.372  1.00  0.00     0.055 A 
ATOM     72  C   UNL A   1      37.883  29.904  29.043  1.00  0.00     0.041 A 
ATOM     73  F   UNL A   1      39.527  29.556  27.413  1.00  0.00    -0.206 F 
ATOM     74  C   UNL A   1      37.494  29.939  30.378  1.00  0.00     0.022 A 
BRANCH  71  75
ATOM     75  S   UNL A   1      37.954  29.586  33.105  1.00  0.00     0.124 S 
ATOM     76  O   UNL A   1      37.031  30.707  33.264  1.00  0.00    -0.237 OA
ATOM     77  O   UNL A   1      37.355  28.256  33.119  1.00  0.00    -0.237 OA
ATOM     78  O   UNL A   1      39.209  29.713  33.845  1.00  0.00    -0.744 OA
ENDBRANCH  71  75
ENDBRANCH  54  68
BRANCH  55  79
ATOM     79  C   UNL A   1      49.353  26.579  26.692  1.00  0.00     0.023 A 
ATOM     80  C   UNL A   1      49.850  27.013  25.454  1.00  0.00     0.031 A 
ATOM     81  C   UNL A   1      50.163  25.725  27.464  1.00  0.00     0.131 A 
ATOM     82  C   UNL A   1      51.119  26.594  25.022  1.00  0.00     0.055 A 
ATOM     83  C   UNL A   1      51.441  25.346  27.051  1.00  0.00     0.041 A 
ATOM     84  F   UNL A   1      49.732  25.268  28.651  1.00  0.00    -0.206 F 
ATOM     85  C   UNL A   1      51.925  25.779  25.822  1.00  0.00     0.022 A 
BRANCH  82  86
ATOM     86  S   UNL A   1      51.695  27.098  23.377  1.00  0.00     0.124 S 
ATOM     87  O   UNL A   1      51.754  28.548  23.514  1.00  0.00    -0.237 OA
ATOM     88  O   UNL A   1      52.977  26.412  23.278  1.00  0.00    -0.237 OA
ATOM     89  O   UNL A   1      50.654  26.592  22.484  1.00  0.00    -0.744 OA
ENDBRANCH  82  86
ENDBRANCH  55  79
BRANCH  67  90
ATOM     90  C   UNL A   1      46.617  32.718  28.516  1.00  0.00     0.023 A 
ATOM     91  C   UNL A   1      46.717  33.491  27.346  1.00  0.00     0.031 A 
ATOM     92  C   UNL A   1      47.098  33.260  29.718  1.00  0.00     0.131 A 
ATOM     93  C   UNL A   1      47.331  34.751  27.394  1.00  0.00     0.055 A 
ATOM     94  C   UNL A   1      47.666  34.534  29.770  1.00  0.00     0.041 A 
ATOM     95  F   UNL A   1      47.026  32.559  30.861  1.00  0.00    -0.206 F 
ATOM     96  C   UNL A   1      47.794  35.282  28.602  1.00  0.00     0.022 A 
BRANCH  93  97
ATOM     97  S   UNL A   1      47.577  35.660  25.845  1.00  0.00     0.124 S 
ATOM     98  O   UNL A   1      49.019  35.881  25.850  1.00  0.00    -0.237 OA
ATOM     99  O   UNL A   1      47.079  34.720  24.846  1.00  0.00    -0.237 OA
ATOM    100  O   UNL A   1      46.764  36.863  26.021  1.00  0.00    -0.744 OA
ENDBRANCH  93  97
ENDBRANCH  67  90
ENDBRANCH  41  42
ENDBRANCH  34  36
ENDBRANCH  33  34
ENDBRANCH  32  33
ENDBRANCH   1  32
TORSDOF 19
ENDMDL
