MODEL 1
REMARK VINA RESULT:     -11.5      0.000      0.000
REMARK SMILES Cc1oc(CNC(=O)c2ccnn2C)cc1C(=O)OCCOC(=O)c1ccc(-c2c3nc(c(-c4cc(S(=O)(=O)[O-])ccc4F)c4ccc([nH]4)c(-c4cc(S(=O)(=O)[O-])ccc4F)c4nc(c(-c5cc(S(=O)(=O)[O-])ccc5F)c5ccc2[nH]5)C=C4)C=C3)cc1
REMARK SMILES IDX 20 1 19 2 17 3 18 4 16 5 1 6 2 7 3 8 4 9 15 10 5 11 6 12
REMARK SMILES IDX 7 13 8 15 9 16 10 17 13 18 11 19 12 20 14 21 21 22 22 23
REMARK SMILES IDX 23 24 24 25 25 26 26 27 87 28 27 29 86 30 28 31 29 32 30 33
REMARK SMILES IDX 80 34 31 35 85 36 79 37 81 38 32 39 84 40 78 41 77 42 33 44
REMARK SMILES IDX 65 45 45 46 64 47 46 48 49 49 63 50 82 51 47 52 48 53 62 55
REMARK SMILES IDX 83 56 50 57 34 58 35 59 43 60 36 61 42 62 44 63 41 64 37 65
REMARK SMILES IDX 38 66 39 67 40 68 66 69 67 70 75 71 68 72 74 73 76 74 73 75
REMARK SMILES IDX 69 76 70 77 71 78 72 79 51 80 52 81 60 82 53 83 59 84 61 85
REMARK SMILES IDX 58 86 54 87 55 88 56 89 57 90
REMARK H PARENT 6 14 81 43 49 54
REMARK Flexibility Score: inf
ROOT
ATOM      1  C   UNL A   1      35.075  20.489  25.479  1.00  0.00     0.275 C 
ENDROOT
BRANCH   1   2
ATOM      2  O   UNL A   1      34.097  20.171  24.471  1.00  0.00    -0.458 OA
BRANCH   2   3
ATOM      3  C   UNL A   1      32.795  20.313  24.858  1.00  0.00     0.341 C 
ATOM      4  O   UNL A   1      32.117  19.416  25.332  1.00  0.00    -0.246 OA
BRANCH   3   5
ATOM      5  C   UNL A   1      32.304  21.678  24.767  1.00  0.00     0.101 A 
ATOM      6  C   UNL A   1      32.410  22.697  27.204  1.00  0.00     0.088 C 
ATOM      7  C   UNL A   1      32.108  22.624  25.759  1.00  0.00     0.115 A 
ATOM      8  O   UNL A   1      31.555  23.760  25.227  1.00  0.00    -0.464 OA
ATOM      9  C   UNL A   1      31.422  23.557  23.888  1.00  0.00     0.124 A 
ATOM     10  C   UNL A   1      31.935  22.328  23.554  1.00  0.00     0.063 A 
BRANCH   9  11
ATOM     11  C   UNL A   1      30.891  24.643  23.035  1.00  0.00     0.191 C 
BRANCH  11  12
ATOM     12  N   UNL A   1      31.753  24.946  21.919  1.00  0.00    -0.343 N 
ATOM     13  C   UNL A   1      32.686  25.944  21.828  1.00  0.00     0.269 C 
ATOM     14  H   UNL A   1      31.658  24.366  21.128  1.00  0.00     0.164 HD
ATOM     15  O   UNL A   1      33.278  26.112  20.766  1.00  0.00    -0.268 OA
BRANCH  13  16
ATOM     16  C   UNL A   1      32.868  26.813  22.960  1.00  0.00     0.125 A 
ATOM     17  C   UNL A   1      33.773  26.653  23.994  1.00  0.00     0.055 A 
ATOM     18  N   UNL A   1      32.167  27.952  23.276  1.00  0.00    -0.263 N 
ATOM     19  C   UNL A   1      33.631  27.798  24.791  1.00  0.00     0.136 A 
ATOM     20  N   UNL A   1      32.675  28.610  24.342  1.00  0.00    -0.181 NA
ATOM     21  C   UNL A   1      31.019  28.519  22.603  1.00  0.00     0.174 C 
ENDBRANCH  13  16
ENDBRANCH  11  12
ENDBRANCH   9  11
ENDBRANCH   3   5
ENDBRANCH   2   3
ENDBRANCH   1   2
BRANCH   1  22
ATOM     22  C   UNL A   1      36.492  20.238  24.962  1.00  0.00     0.275 C 
BRANCH  22  23
ATOM     23  O   UNL A   1      37.358  21.341  25.289  1.00  0.00    -0.458 OA
BRANCH  23  24
ATOM     24  C   UNL A   1      38.573  21.007  25.786  1.00  0.00     0.338 C 
ATOM     25  O   UNL A   1      39.122  19.921  25.723  1.00  0.00    -0.246 OA
BRANCH  24  26
ATOM     26  C   UNL A   1      39.200  22.189  26.400  1.00  0.00     0.060 A 
ATOM     27  C   UNL A   1      38.691  23.447  26.094  1.00  0.00     0.016 A 
ATOM     28  C   UNL A   1      40.359  22.073  27.164  1.00  0.00     0.016 A 
ATOM     29  C   UNL A   1      39.361  24.601  26.498  1.00  0.00     0.010 A 
ATOM     30  C   UNL A   1      40.998  23.232  27.627  1.00  0.00     0.010 A 
ATOM     31  C   UNL A   1      40.523  24.510  27.276  1.00  0.00    -0.014 A 
BRANCH  31  32
ATOM     32  C   UNL A   1      41.264  25.745  27.665  1.00  0.00     0.031 A 
ATOM     33  C   UNL A   1      40.579  26.812  28.482  1.00  0.00     0.074 A 
ATOM     34  C   UNL A   1      42.557  25.910  27.318  1.00  0.00     0.049 A 
ATOM     35  N   UNL A   1      40.991  28.015  28.794  1.00  0.00    -0.248 NA
ATOM     36  C   UNL A   1      39.246  26.481  29.006  1.00  0.00     0.031 C 
ATOM     37  C   UNL A   1      43.364  24.937  26.578  1.00  0.00     0.029 A 
ATOM     38  N   UNL A   1      43.423  26.952  27.544  1.00  0.00    -0.354 N 
ATOM     39  C   UNL A   1      39.952  28.602  29.509  1.00  0.00     0.074 A 
ATOM     40  C   UNL A   1      38.886  27.623  29.572  1.00  0.00     0.031 C 
ATOM     41  C   UNL A   1      44.610  25.417  26.433  1.00  0.00     0.029 A 
ATOM     42  C   UNL A   1      44.672  26.764  26.994  1.00  0.00     0.049 A 
ATOM     43  H   UNL A   1      43.175  27.758  28.052  1.00  0.00     0.167 HD
ATOM     44  C   UNL A   1      39.892  29.841  30.062  1.00  0.00     0.034 A 
ATOM     45  C   UNL A   1      45.732  27.593  26.906  1.00  0.00     0.034 A 
ATOM     46  C   UNL A   1      40.975  30.796  30.023  1.00  0.00     0.049 A 
ATOM     47  C   UNL A   1      45.625  28.982  27.479  1.00  0.00     0.074 A 
ATOM     48  C   UNL A   1      41.021  32.071  30.562  1.00  0.00     0.029 A 
ATOM     49  N   UNL A   1      42.206  30.580  29.418  1.00  0.00    -0.354 N 
ATOM     50  N   UNL A   1      44.614  29.544  28.100  1.00  0.00    -0.248 NA
ATOM     51  C   UNL A   1      46.800  29.852  27.330  1.00  0.00     0.031 C 
ATOM     52  C   UNL A   1      42.254  32.646  30.233  1.00  0.00     0.029 A 
ATOM     53  C   UNL A   1      43.008  31.705  29.550  1.00  0.00     0.049 A 
ATOM     54  H   UNL A   1      42.472  29.749  28.963  1.00  0.00     0.167 HD
ATOM     55  C   UNL A   1      45.038  30.830  28.426  1.00  0.00     0.074 A 
ATOM     56  C   UNL A   1      46.402  30.951  27.954  1.00  0.00     0.031 C 
ATOM     57  C   UNL A   1      44.360  31.821  29.059  1.00  0.00     0.034 A 
BRANCH  44  58
ATOM     58  C   UNL A   1      38.587  30.254  30.699  1.00  0.00     0.023 A 
ATOM     59  C   UNL A   1      37.578  30.913  29.975  1.00  0.00     0.031 A 
ATOM     60  C   UNL A   1      38.362  30.011  32.066  1.00  0.00     0.131 A 
ATOM     61  C   UNL A   1      36.427  31.369  30.637  1.00  0.00     0.055 A 
ATOM     62  C   UNL A   1      37.181  30.397  32.701  1.00  0.00     0.041 A 
ATOM     63  F   UNL A   1      39.298  29.403  32.814  1.00  0.00    -0.206 F 
ATOM     64  C   UNL A   1      36.210  31.095  31.989  1.00  0.00     0.022 A 
BRANCH  61  65
ATOM     65  S   UNL A   1      35.283  32.454  29.739  1.00  0.00     0.124 S 
ATOM     66  O   UNL A   1      34.731  31.538  28.744  1.00  0.00    -0.237 OA
ATOM     67  O   UNL A   1      34.368  32.884  30.791  1.00  0.00    -0.237 OA
ATOM     68  O   UNL A   1      36.152  33.498  29.201  1.00  0.00    -0.744 OA
ENDBRANCH  61  65
ENDBRANCH  44  58
BRANCH  45  69
ATOM     69  C   UNL A   1      46.966  27.163  26.187  1.00  0.00     0.023 A 
ATOM     70  C   UNL A   1      48.036  26.564  26.871  1.00  0.00     0.031 A 
ATOM     71  C   UNL A   1      47.108  27.385  24.805  1.00  0.00     0.131 A 
ATOM     72  C   UNL A   1      49.213  26.241  26.178  1.00  0.00     0.055 A 
ATOM     73  C   UNL A   1      48.260  27.014  24.111  1.00  0.00     0.041 A 
ATOM     74  F   UNL A   1      46.117  27.958  24.103  1.00  0.00    -0.206 F 
ATOM     75  C   UNL A   1      49.327  26.447  24.802  1.00  0.00     0.022 A 
BRANCH  72  76
ATOM     76  S   UNL A   1      50.630  25.611  27.120  1.00  0.00     0.124 S 
ATOM     77  O   UNL A   1      51.662  25.538  26.091  1.00  0.00    -0.237 OA
ATOM     78  O   UNL A   1      50.806  26.649  28.130  1.00  0.00    -0.237 OA
ATOM     79  O   UNL A   1      50.157  24.325  27.626  1.00  0.00    -0.744 OA
ENDBRANCH  72  76
ENDBRANCH  45  69
BRANCH  57  80
ATOM     80  C   UNL A   1      45.108  33.107  29.308  1.00  0.00     0.023 A 
ATOM     81  C   UNL A   1      45.143  34.137  28.352  1.00  0.00     0.031 A 
ATOM     82  C   UNL A   1      45.813  33.293  30.510  1.00  0.00     0.131 A 
ATOM     83  C   UNL A   1      45.914  35.286  28.592  1.00  0.00     0.055 A 
ATOM     84  C   UNL A   1      46.534  34.459  30.766  1.00  0.00     0.041 A 
ATOM     85  F   UNL A   1      45.815  32.339  31.455  1.00  0.00    -0.206 F 
ATOM     86  C   UNL A   1      46.597  35.459  29.799  1.00  0.00     0.022 A 
BRANCH  83  87
ATOM     87  S   UNL A   1      46.080  36.517  27.270  1.00  0.00     0.124 S 
ATOM     88  O   UNL A   1      47.321  37.191  27.638  1.00  0.00    -0.237 OA
ATOM     89  O   UNL A   1      46.138  35.685  26.073  1.00  0.00    -0.237 OA
ATOM     90  O   UNL A   1      44.871  37.328  27.402  1.00  0.00    -0.744 OA
ENDBRANCH  83  87
ENDBRANCH  57  80
ENDBRANCH  31  32
ENDBRANCH  24  26
ENDBRANCH  23  24
ENDBRANCH  22  23
ENDBRANCH   1  22
TORSDOF 17
ENDMDL
MODEL 2
REMARK VINA RESULT:     -11.4      1.526      1.780
REMARK SMILES Cc1oc(CNC(=O)c2ccnn2C)cc1C(=O)OCCOC(=O)c1ccc(-c2c3nc(c(-c4cc(S(=O)(=O)[O-])ccc4F)c4ccc([nH]4)c(-c4cc(S(=O)(=O)[O-])ccc4F)c4nc(c(-c5cc(S(=O)(=O)[O-])ccc5F)c5ccc2[nH]5)C=C4)C=C3)cc1
REMARK SMILES IDX 20 1 19 2 17 3 18 4 16 5 1 6 2 7 3 8 4 9 15 10 5 11 6 12
REMARK SMILES IDX 7 13 8 15 9 16 10 17 13 18 11 19 12 20 14 21 21 22 22 23
REMARK SMILES IDX 23 24 24 25 25 26 26 27 87 28 27 29 86 30 28 31 29 32 30 33
REMARK SMILES IDX 80 34 31 35 85 36 79 37 81 38 32 39 84 40 78 41 77 42 33 44
REMARK SMILES IDX 65 45 45 46 64 47 46 48 49 49 63 50 82 51 47 52 48 53 62 55
REMARK SMILES IDX 83 56 50 57 34 58 35 59 43 60 36 61 42 62 44 63 41 64 37 65
REMARK SMILES IDX 38 66 39 67 40 68 66 69 67 70 75 71 68 72 74 73 76 74 73 75
REMARK SMILES IDX 69 76 70 77 71 78 72 79 51 80 52 81 60 82 53 83 59 84 61 85
REMARK SMILES IDX 58 86 54 87 55 88 56 89 57 90
REMARK H PARENT 6 14 81 43 49 54
REMARK Flexibility Score: inf
ROOT
ATOM      1  C   UNL A   1      35.108  20.892  25.366  1.00  0.00     0.275 C 
ENDROOT
BRANCH   1   2
ATOM      2  O   UNL A   1      34.299  21.017  24.182  1.00  0.00    -0.458 OA
BRANCH   2   3
ATOM      3  C   UNL A   1      32.993  21.349  24.402  1.00  0.00     0.341 C 
ATOM      4  O   UNL A   1      32.150  20.578  24.831  1.00  0.00    -0.246 OA
BRANCH   3   5
ATOM      5  C   UNL A   1      32.704  22.758  24.188  1.00  0.00     0.101 A 
ATOM      6  C   UNL A   1      32.970  23.959  26.527  1.00  0.00     0.088 C 
ATOM      7  C   UNL A   1      32.652  23.805  25.092  1.00  0.00     0.115 A 
ATOM      8  O   UNL A   1      32.267  24.958  24.459  1.00  0.00    -0.464 OA
ATOM      9  C   UNL A   1      32.099  24.660  23.142  1.00  0.00     0.124 A 
ATOM     10  C   UNL A   1      32.426  23.345  22.921  1.00  0.00     0.063 A 
BRANCH   9  11
ATOM     11  C   UNL A   1      31.726  25.733  22.194  1.00  0.00     0.191 C 
BRANCH  11  12
ATOM     12  N   UNL A   1      32.866  26.485  21.730  1.00  0.00    -0.343 N 
ATOM     13  C   UNL A   1      33.353  27.663  22.231  1.00  0.00     0.269 C 
ATOM     14  H   UNL A   1      33.351  26.107  20.960  1.00  0.00     0.164 HD
ATOM     15  O   UNL A   1      34.289  28.214  21.659  1.00  0.00    -0.268 OA
BRANCH  13  16
ATOM     16  C   UNL A   1      32.684  28.251  23.361  1.00  0.00     0.125 A 
ATOM     17  C   UNL A   1      33.082  28.197  24.684  1.00  0.00     0.055 A 
ATOM     18  N   UNL A   1      31.501  28.953  23.375  1.00  0.00    -0.263 N 
ATOM     19  C   UNL A   1      32.163  28.996  25.381  1.00  0.00     0.136 A 
ATOM     20  N   UNL A   1      31.213  29.484  24.584  1.00  0.00    -0.181 NA
ATOM     21  C   UNL A   1      30.589  29.202  22.281  1.00  0.00     0.174 C 
ENDBRANCH  13  16
ENDBRANCH  11  12
ENDBRANCH   9  11
ENDBRANCH   3   5
ENDBRANCH   2   3
ENDBRANCH   1   2
BRANCH   1  22
ATOM     22  C   UNL A   1      36.512  20.398  25.017  1.00  0.00     0.275 C 
BRANCH  22  23
ATOM     23  O   UNL A   1      37.478  21.456  25.165  1.00  0.00    -0.458 OA
BRANCH  23  24
ATOM     24  C   UNL A   1      38.645  21.108  25.758  1.00  0.00     0.338 C 
ATOM     25  O   UNL A   1      39.164  20.006  25.775  1.00  0.00    -0.246 OA
BRANCH  24  26
ATOM     26  C   UNL A   1      39.263  22.295  26.372  1.00  0.00     0.060 A 
ATOM     27  C   UNL A   1      38.754  23.550  26.052  1.00  0.00     0.016 A 
ATOM     28  C   UNL A   1      40.415  22.187  27.147  1.00  0.00     0.016 A 
ATOM     29  C   UNL A   1      39.417  24.708  26.455  1.00  0.00     0.010 A 
ATOM     30  C   UNL A   1      41.047  23.351  27.608  1.00  0.00     0.010 A 
ATOM     31  C   UNL A   1      40.571  24.626  27.245  1.00  0.00    -0.014 A 
BRANCH  31  32
ATOM     32  C   UNL A   1      41.306  25.865  27.633  1.00  0.00     0.031 A 
ATOM     33  C   UNL A   1      40.625  26.915  28.475  1.00  0.00     0.074 A 
ATOM     34  C   UNL A   1      42.590  26.049  27.263  1.00  0.00     0.049 A 
ATOM     35  N   UNL A   1      41.029  28.119  28.793  1.00  0.00    -0.248 NA
ATOM     36  C   UNL A   1      39.307  26.561  29.022  1.00  0.00     0.031 C 
ATOM     37  C   UNL A   1      43.393  25.094  26.496  1.00  0.00     0.029 A 
ATOM     38  N   UNL A   1      43.448  27.099  27.483  1.00  0.00    -0.354 N 
ATOM     39  C   UNL A   1      39.998  28.686  29.535  1.00  0.00     0.074 A 
ATOM     40  C   UNL A   1      38.945  27.694  29.608  1.00  0.00     0.031 C 
ATOM     41  C   UNL A   1      44.630  25.591  26.332  1.00  0.00     0.029 A 
ATOM     42  C   UNL A   1      44.688  26.931  26.906  1.00  0.00     0.049 A 
ATOM     43  H   UNL A   1      43.201  27.896  28.005  1.00  0.00     0.167 HD
ATOM     44  C   UNL A   1      39.935  29.918  30.103  1.00  0.00     0.034 A 
ATOM     45  C   UNL A   1      45.736  27.774  26.807  1.00  0.00     0.034 A 
ATOM     46  C   UNL A   1      41.005  30.886  30.054  1.00  0.00     0.049 A 
ATOM     47  C   UNL A   1      45.624  29.155  27.397  1.00  0.00     0.074 A 
ATOM     48  C   UNL A   1      41.047  32.155  30.606  1.00  0.00     0.029 A 
ATOM     49  N   UNL A   1      42.226  30.691  29.422  1.00  0.00    -0.354 N 
ATOM     50  N   UNL A   1      44.619  29.699  28.045  1.00  0.00    -0.248 NA
ATOM     51  C   UNL A   1      46.786  30.041  27.235  1.00  0.00     0.031 C 
ATOM     52  C   UNL A   1      42.267  32.748  30.259  1.00  0.00     0.029 A 
ATOM     53  C   UNL A   1      43.018  31.824  29.550  1.00  0.00     0.049 A 
ATOM     54  H   UNL A   1      42.493  29.868  28.952  1.00  0.00     0.167 HD
ATOM     55  C   UNL A   1      45.035  30.985  28.376  1.00  0.00     0.074 A 
ATOM     56  C   UNL A   1      46.387  31.128  27.879  1.00  0.00     0.031 C 
ATOM     57  C   UNL A   1      44.359  31.961  29.034  1.00  0.00     0.034 A 
BRANCH  44  58
ATOM     58  C   UNL A   1      38.637  30.308  30.770  1.00  0.00     0.023 A 
ATOM     59  C   UNL A   1      37.611  30.970  30.076  1.00  0.00     0.031 A 
ATOM     60  C   UNL A   1      38.440  30.039  32.137  1.00  0.00     0.131 A 
ATOM     61  C   UNL A   1      36.468  31.405  30.767  1.00  0.00     0.055 A 
ATOM     62  C   UNL A   1      37.267  30.404  32.800  1.00  0.00     0.041 A 
ATOM     63  F   UNL A   1      39.394  29.427  32.857  1.00  0.00    -0.206 F 
ATOM     64  C   UNL A   1      36.278  31.106  32.117  1.00  0.00     0.022 A 
BRANCH  61  65
ATOM     65  S   UNL A   1      35.298  32.495  29.908  1.00  0.00     0.124 S 
ATOM     66  O   UNL A   1      34.332  32.780  30.967  1.00  0.00    -0.237 OA
ATOM     67  O   UNL A   1      36.149  33.608  29.501  1.00  0.00    -0.237 OA
ATOM     68  O   UNL A   1      34.792  31.664  28.819  1.00  0.00    -0.744 OA
ENDBRANCH  61  65
ENDBRANCH  44  58
BRANCH  45  69
ATOM     69  C   UNL A   1      46.961  27.367  26.058  1.00  0.00     0.023 A 
ATOM     70  C   UNL A   1      47.158  27.750  24.722  1.00  0.00     0.031 A 
ATOM     71  C   UNL A   1      47.935  26.550  26.661  1.00  0.00     0.131 A 
ATOM     72  C   UNL A   1      48.284  27.288  24.022  1.00  0.00     0.055 A 
ATOM     73  C   UNL A   1      49.079  26.137  25.978  1.00  0.00     0.041 A 
ATOM     74  F   UNL A   1      47.794  26.152  27.936  1.00  0.00    -0.206 F 
ATOM     75  C   UNL A   1      49.252  26.497  24.645  1.00  0.00     0.022 A 
BRANCH  72  76
ATOM     76  S   UNL A   1      48.428  27.675  22.256  1.00  0.00     0.124 S 
ATOM     77  O   UNL A   1      49.666  28.445  22.221  1.00  0.00    -0.237 OA
ATOM     78  O   UNL A   1      48.485  26.344  21.659  1.00  0.00    -0.237 OA
ATOM     79  O   UNL A   1      47.211  28.432  21.973  1.00  0.00    -0.744 OA
ENDBRANCH  72  76
ENDBRANCH  45  69
BRANCH  57  80
ATOM     80  C   UNL A   1      45.096  33.253  29.283  1.00  0.00     0.023 A 
ATOM     81  C   UNL A   1      45.109  34.290  28.334  1.00  0.00     0.031 A 
ATOM     82  C   UNL A   1      45.815  33.438  30.477  1.00  0.00     0.131 A 
ATOM     83  C   UNL A   1      45.871  35.446  28.572  1.00  0.00     0.055 A 
ATOM     84  C   UNL A   1      46.527  34.610  30.732  1.00  0.00     0.041 A 
ATOM     85  F   UNL A   1      45.838  32.478  31.415  1.00  0.00    -0.206 F 
ATOM     86  C   UNL A   1      46.567  35.617  29.771  1.00  0.00     0.022 A 
BRANCH  83  87
ATOM     87  S   UNL A   1      46.008  36.687  27.256  1.00  0.00     0.124 S 
ATOM     88  O   UNL A   1      46.900  37.672  27.861  1.00  0.00    -0.237 OA
ATOM     89  O   UNL A   1      46.567  35.914  26.153  1.00  0.00    -0.237 OA
ATOM     90  O   UNL A   1      44.630  37.135  27.062  1.00  0.00    -0.744 OA
ENDBRANCH  83  87
ENDBRANCH  57  80
ENDBRANCH  31  32
ENDBRANCH  24  26
ENDBRANCH  23  24
ENDBRANCH  22  23
ENDBRANCH   1  22
TORSDOF 17
ENDMDL
MODEL 3
REMARK VINA RESULT:     -11.3      4.850     10.020
REMARK SMILES Cc1oc(CNC(=O)c2ccnn2C)cc1C(=O)OCCOC(=O)c1ccc(-c2c3nc(c(-c4cc(S(=O)(=O)[O-])ccc4F)c4ccc([nH]4)c(-c4cc(S(=O)(=O)[O-])ccc4F)c4nc(c(-c5cc(S(=O)(=O)[O-])ccc5F)c5ccc2[nH]5)C=C4)C=C3)cc1
REMARK SMILES IDX 20 1 19 2 17 3 18 4 16 5 1 6 2 7 3 8 4 9 15 10 5 11 6 12
REMARK SMILES IDX 7 13 8 15 9 16 10 17 13 18 11 19 12 20 14 21 21 22 22 23
REMARK SMILES IDX 23 24 24 25 25 26 26 27 87 28 27 29 86 30 28 31 29 32 30 33
REMARK SMILES IDX 80 34 31 35 85 36 79 37 81 38 32 39 84 40 78 41 77 42 33 44
REMARK SMILES IDX 65 45 45 46 64 47 46 48 49 49 63 50 82 51 47 52 48 53 62 55
REMARK SMILES IDX 83 56 50 57 34 58 35 59 43 60 36 61 42 62 44 63 41 64 37 65
REMARK SMILES IDX 38 66 39 67 40 68 66 69 67 70 75 71 68 72 74 73 76 74 73 75
REMARK SMILES IDX 69 76 70 77 71 78 72 79 51 80 52 81 60 82 53 83 59 84 61 85
REMARK SMILES IDX 58 86 54 87 55 88 56 89 57 90
REMARK H PARENT 6 14 81 43 49 54
REMARK Flexibility Score: inf
ROOT
ATOM      1  C   UNL A   1      31.134  29.876  24.648  1.00  0.00     0.275 C 
ENDROOT
BRANCH   1   2
ATOM      2  O   UNL A   1      31.318  29.695  23.232  1.00  0.00    -0.458 OA
BRANCH   2   3
ATOM      3  C   UNL A   1      30.266  29.123  22.577  1.00  0.00     0.341 C 
ATOM      4  O   UNL A   1      29.716  29.610  21.602  1.00  0.00    -0.246 OA
BRANCH   3   5
ATOM      5  C   UNL A   1      29.917  27.802  23.073  1.00  0.00     0.101 A 
ATOM      6  C   UNL A   1      27.315  27.816  23.535  1.00  0.00     0.088 C 
ATOM      7  C   UNL A   1      28.701  27.304  23.509  1.00  0.00     0.115 A 
ATOM      8  O   UNL A   1      28.850  26.019  23.961  1.00  0.00    -0.464 OA
ATOM      9  C   UNL A   1      30.157  25.678  23.789  1.00  0.00     0.124 A 
ATOM     10  C   UNL A   1      30.827  26.711  23.182  1.00  0.00     0.063 A 
BRANCH   9  11
ATOM     11  C   UNL A   1      30.607  24.315  24.148  1.00  0.00     0.191 C 
BRANCH  11  12
ATOM     12  N   UNL A   1      30.485  24.044  25.559  1.00  0.00    -0.343 N 
ATOM     13  C   UNL A   1      31.486  23.743  26.444  1.00  0.00     0.269 C 
ATOM     14  H   UNL A   1      29.573  24.077  25.930  1.00  0.00     0.164 HD
ATOM     15  O   UNL A   1      31.194  23.456  27.601  1.00  0.00    -0.268 OA
BRANCH  13  16
ATOM     16  C   UNL A   1      32.837  23.689  25.952  1.00  0.00     0.125 A 
ATOM     17  C   UNL A   1      33.569  22.554  25.653  1.00  0.00     0.055 A 
ATOM     18  N   UNL A   1      33.694  24.737  25.710  1.00  0.00    -0.263 N 
ATOM     19  C   UNL A   1      34.780  23.022  25.122  1.00  0.00     0.136 A 
ATOM     20  N   UNL A   1      34.851  24.353  25.126  1.00  0.00    -0.181 NA
ATOM     21  C   UNL A   1      33.491  26.145  25.970  1.00  0.00     0.174 C 
ENDBRANCH  13  16
ENDBRANCH  11  12
ENDBRANCH   9  11
ENDBRANCH   3   5
ENDBRANCH   2   3
ENDBRANCH   1   2
BRANCH   1  22
ATOM     22  C   UNL A   1      32.455  29.695  25.397  1.00  0.00     0.275 C 
BRANCH  22  23
ATOM     23  O   UNL A   1      32.324  30.107  26.771  1.00  0.00    -0.458 OA
BRANCH  23  24
ATOM     24  C   UNL A   1      32.935  31.271  27.097  1.00  0.00     0.338 C 
ATOM     25  O   UNL A   1      32.477  32.396  27.001  1.00  0.00    -0.246 OA
BRANCH  24  26
ATOM     26  C   UNL A   1      34.269  30.993  27.654  1.00  0.00     0.060 A 
ATOM     27  C   UNL A   1      34.584  29.683  28.003  1.00  0.00     0.016 A 
ATOM     28  C   UNL A   1      35.153  32.027  27.954  1.00  0.00     0.016 A 
ATOM     29  C   UNL A   1      35.756  29.398  28.702  1.00  0.00     0.010 A 
ATOM     30  C   UNL A   1      36.363  31.733  28.599  1.00  0.00     0.010 A 
ATOM     31  C   UNL A   1      36.666  30.419  29.006  1.00  0.00    -0.014 A 
BRANCH  31  32
ATOM     32  C   UNL A   1      37.895  30.118  29.798  1.00  0.00     0.031 A 
ATOM     33  C   UNL A   1      38.959  29.215  29.227  1.00  0.00     0.074 A 
ATOM     34  C   UNL A   1      38.082  30.670  31.014  1.00  0.00     0.049 A 
ATOM     35  N   UNL A   1      40.021  28.711  29.804  1.00  0.00    -0.248 NA
ATOM     36  C   UNL A   1      38.797  28.819  27.820  1.00  0.00     0.031 C 
ATOM     37  C   UNL A   1      37.165  31.606  31.668  1.00  0.00     0.029 A 
ATOM     38  N   UNL A   1      39.107  30.528  31.918  1.00  0.00    -0.354 N 
ATOM     39  C   UNL A   1      40.628  27.901  28.849  1.00  0.00     0.074 A 
ATOM     40  C   UNL A   1      39.804  27.974  27.659  1.00  0.00     0.031 C 
ATOM     41  C   UNL A   1      37.679  31.972  32.853  1.00  0.00     0.029 A 
ATOM     42  C   UNL A   1      38.919  31.236  33.085  1.00  0.00     0.049 A 
ATOM     43  H   UNL A   1      39.902  29.972  31.748  1.00  0.00     0.167 HD
ATOM     44  C   UNL A   1      41.764  27.165  28.954  1.00  0.00     0.034 A 
ATOM     45  C   UNL A   1      39.632  31.258  34.229  1.00  0.00     0.034 A 
ATOM     46  C   UNL A   1      42.596  27.127  30.135  1.00  0.00     0.049 A 
ATOM     47  C   UNL A   1      40.861  30.393  34.343  1.00  0.00     0.074 A 
ATOM     48  C   UNL A   1      43.772  26.426  30.339  1.00  0.00     0.029 A 
ATOM     49  N   UNL A   1      42.344  27.826  31.308  1.00  0.00    -0.354 N 
ATOM     50  N   UNL A   1      41.389  29.586  33.452  1.00  0.00    -0.248 NA
ATOM     51  C   UNL A   1      41.583  30.435  35.622  1.00  0.00     0.031 C 
ATOM     52  C   UNL A   1      44.199  26.653  31.653  1.00  0.00     0.029 A 
ATOM     53  C   UNL A   1      43.329  27.553  32.247  1.00  0.00     0.049 A 
ATOM     54  H   UNL A   1      41.580  28.428  31.453  1.00  0.00     0.167 HD
ATOM     55  C   UNL A   1      42.513  29.034  34.061  1.00  0.00     0.074 A 
ATOM     56  C   UNL A   1      42.599  29.617  35.384  1.00  0.00     0.031 C 
ATOM     57  C   UNL A   1      43.395  28.127  33.570  1.00  0.00     0.034 A 
BRANCH  44  58
ATOM     58  C   UNL A   1      42.136  26.291  27.780  1.00  0.00     0.023 A 
ATOM     59  C   UNL A   1      41.651  24.979  27.643  1.00  0.00     0.031 A 
ATOM     60  C   UNL A   1      43.018  26.772  26.796  1.00  0.00     0.131 A 
ATOM     61  C   UNL A   1      42.109  24.171  26.590  1.00  0.00     0.055 A 
ATOM     62  C   UNL A   1      43.407  25.990  25.707  1.00  0.00     0.041 A 
ATOM     63  F   UNL A   1      43.529  28.010  26.883  1.00  0.00    -0.206 F 
ATOM     64  C   UNL A   1      42.964  24.674  25.608  1.00  0.00     0.022 A 
BRANCH  61  65
ATOM     65  S   UNL A   1      41.684  22.406  26.603  1.00  0.00     0.124 S 
ATOM     66  O   UNL A   1      40.224  22.457  26.597  1.00  0.00    -0.237 OA
ATOM     67  O   UNL A   1      42.313  21.925  25.378  1.00  0.00    -0.237 OA
ATOM     68  O   UNL A   1      42.280  21.921  27.845  1.00  0.00    -0.744 OA
ENDBRANCH  61  65
ENDBRANCH  44  58
BRANCH  45  69
ATOM     69  C   UNL A   1      39.169  32.073  35.390  1.00  0.00     0.023 A 
ATOM     70  C   UNL A   1      39.636  33.382  35.592  1.00  0.00     0.031 A 
ATOM     71  C   UNL A   1      38.281  31.535  36.338  1.00  0.00     0.131 A 
ATOM     72  C   UNL A   1      39.240  34.094  36.736  1.00  0.00     0.055 A 
ATOM     73  C   UNL A   1      37.848  32.266  37.444  1.00  0.00     0.041 A 
ATOM     74  F   UNL A   1      37.806  30.287  36.193  1.00  0.00    -0.206 F 
ATOM     75  C   UNL A   1      38.338  33.552  37.653  1.00  0.00     0.022 A 
BRANCH  72  76
ATOM     76  S   UNL A   1      39.981  35.720  37.046  1.00  0.00     0.124 S 
ATOM     77  O   UNL A   1      39.285  36.138  38.258  1.00  0.00    -0.237 OA
ATOM     78  O   UNL A   1      41.393  35.384  37.201  1.00  0.00    -0.237 OA
ATOM     79  O   UNL A   1      39.651  36.479  35.841  1.00  0.00    -0.744 OA
ENDBRANCH  72  76
ENDBRANCH  45  69
BRANCH  57  80
ATOM     80  C   UNL A   1      44.549  27.747  34.462  1.00  0.00     0.023 A 
ATOM     81  C   UNL A   1      44.479  26.641  35.329  1.00  0.00     0.031 A 
ATOM     82  C   UNL A   1      45.727  28.515  34.462  1.00  0.00     0.131 A 
ATOM     83  C   UNL A   1      45.547  26.367  36.199  1.00  0.00     0.055 A 
ATOM     84  C   UNL A   1      46.806  28.206  35.290  1.00  0.00     0.041 A 
ATOM     85  F   UNL A   1      45.845  29.582  33.656  1.00  0.00    -0.206 F 
ATOM     86  C   UNL A   1      46.715  27.133  36.173  1.00  0.00     0.022 A 
BRANCH  83  87
ATOM     87  S   UNL A   1      45.356  25.043  37.424  1.00  0.00     0.124 S 
ATOM     88  O   UNL A   1      46.485  25.291  38.316  1.00  0.00    -0.237 OA
ATOM     89  O   UNL A   1      44.035  25.318  37.978  1.00  0.00    -0.237 OA
ATOM     90  O   UNL A   1      45.452  23.821  36.628  1.00  0.00    -0.744 OA
ENDBRANCH  83  87
ENDBRANCH  57  80
ENDBRANCH  31  32
ENDBRANCH  24  26
ENDBRANCH  23  24
ENDBRANCH  22  23
ENDBRANCH   1  22
TORSDOF 17
ENDMDL
