MODEL 1
REMARK VINA RESULT:     -12.0      0.000      0.000
REMARK SMILES C[C@H](NC(=O)c1ccc(C(C)(C)C)cc1)C(=O)N[C@@H](C(=O)OCCOC(=O)c1ccc(-c2c3nc(c(-c4cc(S(=O)(=O)[O-])ccc4F)c4ccc([nH]4)c(-c4cc(S(=O)(=O)[O-])ccc4F)c4nc(c(-c5cc(S(=O)(=O)[O-])ccc5F)c5ccc2[nH]5)C=C4)C=C3)cc1)[C@H](C)O
REMARK SMILES IDX 23 1 22 2 20 3 21 4 19 5 18 6 16 7 17 8 2 10 1 11 3 12 4 13
REMARK SMILES IDX 5 15 6 16 7 17 15 18 8 19 14 20 9 21 10 22 11 23 12 24 13 25
REMARK SMILES IDX 91 26 92 27 93 28 24 30 25 31 26 32 27 33 28 34 29 35 90 36
REMARK SMILES IDX 30 37 89 38 31 39 32 40 33 41 83 42 34 43 88 44 82 45 84 46
REMARK SMILES IDX 35 47 87 48 81 49 80 50 36 52 68 53 48 54 67 55 49 56 52 57
REMARK SMILES IDX 66 58 85 59 50 60 51 61 65 63 86 64 53 65 37 66 38 67 46 68
REMARK SMILES IDX 39 69 45 70 47 71 44 72 40 73 41 74 42 75 43 76 69 77 70 78
REMARK SMILES IDX 78 79 71 80 77 81 79 82 76 83 72 84 73 85 74 86 75 87 54 88
REMARK SMILES IDX 55 89 63 90 56 91 62 92 64 93 61 94 57 95 58 96 59 97 60 98
REMARK H PARENT 18 9 3 14 93 29 84 51 52 62
REMARK Flexibility Score: inf
ROOT
ATOM      1  C   UNL A   1      31.591  29.046  25.696  1.00  0.00     0.274 C 
ENDROOT
BRANCH   1   2
ATOM      2  O   UNL A   1      32.367  28.757  24.505  1.00  0.00    -0.460 OA
BRANCH   2   3
ATOM      3  C   UNL A   1      31.677  28.524  23.361  1.00  0.00     0.331 C 
ATOM      4  O   UNL A   1      32.165  28.003  22.360  1.00  0.00    -0.250 OA
BRANCH   3   5
ATOM      5  C   UNL A   1      30.179  28.935  23.412  1.00  0.00     0.221 C 
BRANCH   5   6
ATOM      6  N   UNL A   1      29.120  27.908  23.385  1.00  0.00    -0.339 N 
ATOM      7  C   UNL A   1      29.040  26.655  23.907  1.00  0.00     0.243 C 
ATOM      8  O   UNL A   1      27.906  26.195  24.078  1.00  0.00    -0.273 OA
ATOM      9  H   UNL A   1      28.314  28.184  22.893  1.00  0.00     0.164 HD
BRANCH   7  10
ATOM     10  C   UNL A   1      30.265  25.836  24.334  1.00  0.00     0.168 C 
ATOM     11  C   UNL A   1      30.399  24.608  23.433  1.00  0.00     0.041 C 
BRANCH  10  12
ATOM     12  N   UNL A   1      30.363  25.470  25.755  1.00  0.00    -0.341 N 
ATOM     13  C   UNL A   1      31.041  24.383  26.286  1.00  0.00     0.251 C 
ATOM     14  H   UNL A   1      29.899  26.058  26.395  1.00  0.00     0.164 HD
ATOM     15  O   UNL A   1      30.546  23.801  27.251  1.00  0.00    -0.269 OA
BRANCH  13  16
ATOM     16  C   UNL A   1      32.379  23.952  25.792  1.00  0.00     0.039 A 
ATOM     17  C   UNL A   1      32.686  22.611  25.565  1.00  0.00     0.014 A 
ATOM     18  C   UNL A   1      33.429  24.853  25.750  1.00  0.00     0.014 A 
ATOM     19  C   UNL A   1      34.008  22.228  25.244  1.00  0.00     0.005 A 
ATOM     20  C   UNL A   1      34.728  24.495  25.423  1.00  0.00     0.005 A 
ATOM     21  C   UNL A   1      35.052  23.173  25.146  1.00  0.00    -0.043 A 
BRANCH  21  22
ATOM     22  C   UNL A   1      36.506  22.797  24.824  1.00  0.00    -0.013 C 
ATOM     23  C   UNL A   1      36.756  21.353  25.295  1.00  0.00     0.016 C 
ATOM     24  C   UNL A   1      36.780  22.914  23.313  1.00  0.00     0.016 C 
ATOM     25  C   UNL A   1      37.546  23.707  25.533  1.00  0.00     0.016 C 
ENDBRANCH  21  22
ENDBRANCH  13  16
ENDBRANCH  10  12
ENDBRANCH   7  10
ENDBRANCH   5   6
BRANCH   5  26
ATOM     26  C   UNL A   1      29.876  30.083  22.382  1.00  0.00     0.145 C 
ATOM     27  C   UNL A   1      28.458  30.090  21.797  1.00  0.00     0.041 C 
BRANCH  26  28
ATOM     28  O   UNL A   1      30.765  30.085  21.266  1.00  0.00    -0.391 OA
ATOM     29  H   UNL A   1      31.129  30.975  21.144  1.00  0.00     0.211 HD
ENDBRANCH  26  28
ENDBRANCH   5  26
ENDBRANCH   3   5
ENDBRANCH   2   3
ENDBRANCH   1   2
BRANCH   1  30
ATOM     30  C   UNL A   1      31.839  30.485  26.152  1.00  0.00     0.275 C 
BRANCH  30  31
ATOM     31  O   UNL A   1      33.247  30.592  26.406  1.00  0.00    -0.458 OA
BRANCH  31  32
ATOM     32  C   UNL A   1      33.640  31.551  27.273  1.00  0.00     0.338 C 
ATOM     33  O   UNL A   1      32.996  32.492  27.692  1.00  0.00    -0.246 OA
BRANCH  32  34
ATOM     34  C   UNL A   1      34.987  31.171  27.731  1.00  0.00     0.060 A 
ATOM     35  C   UNL A   1      35.239  29.815  27.942  1.00  0.00     0.016 A 
ATOM     36  C   UNL A   1      35.964  32.121  28.016  1.00  0.00     0.016 A 
ATOM     37  C   UNL A   1      36.449  29.409  28.486  1.00  0.00     0.010 A 
ATOM     38  C   UNL A   1      37.207  31.699  28.511  1.00  0.00     0.010 A 
ATOM     39  C   UNL A   1      37.447  30.339  28.785  1.00  0.00    -0.014 A 
BRANCH  39  40
ATOM     40  C   UNL A   1      38.667  29.870  29.501  1.00  0.00     0.031 A 
ATOM     41  C   UNL A   1      38.922  30.339  30.910  1.00  0.00     0.074 A 
ATOM     42  C   UNL A   1      39.475  28.941  28.951  1.00  0.00     0.049 A 
ATOM     43  N   UNL A   1      39.960  30.134  31.679  1.00  0.00    -0.248 NA
ATOM     44  C   UNL A   1      37.866  31.152  31.532  1.00  0.00     0.031 C 
ATOM     45  C   UNL A   1      39.287  28.328  27.633  1.00  0.00     0.029 A 
ATOM     46  N   UNL A   1      40.597  28.321  29.444  1.00  0.00    -0.354 N 
ATOM     47  C   UNL A   1      39.709  30.840  32.853  1.00  0.00     0.074 A 
ATOM     48  C   UNL A   1      38.422  31.481  32.688  1.00  0.00     0.031 C 
ATOM     49  C   UNL A   1      40.224  27.386  27.448  1.00  0.00     0.029 A 
ATOM     50  C   UNL A   1      41.134  27.384  28.588  1.00  0.00     0.049 A 
ATOM     51  H   UNL A   1      40.982  28.526  30.326  1.00  0.00     0.167 HD
ATOM     52  C   UNL A   1      40.482  30.943  33.962  1.00  0.00     0.034 A 
ATOM     53  C   UNL A   1      42.248  26.633  28.695  1.00  0.00     0.034 A 
ATOM     54  C   UNL A   1      41.744  30.261  34.126  1.00  0.00     0.049 A 
ATOM     55  C   UNL A   1      43.108  26.789  29.923  1.00  0.00     0.074 A 
ATOM     56  C   UNL A   1      42.635  30.330  35.182  1.00  0.00     0.029 A 
ATOM     57  N   UNL A   1      42.285  29.365  33.212  1.00  0.00    -0.354 N 
ATOM     58  N   UNL A   1      42.919  27.555  30.973  1.00  0.00    -0.248 NA
ATOM     59  C   UNL A   1      44.339  25.988  29.972  1.00  0.00     0.031 C 
ATOM     60  C   UNL A   1      43.734  29.513  34.887  1.00  0.00     0.029 A 
ATOM     61  C   UNL A   1      43.500  28.883  33.675  1.00  0.00     0.049 A 
ATOM     62  H   UNL A   1      41.866  29.110  32.358  1.00  0.00     0.167 HD
ATOM     63  C   UNL A   1      44.010  27.327  31.807  1.00  0.00     0.074 A 
ATOM     64  C   UNL A   1      44.828  26.324  31.156  1.00  0.00     0.031 C 
ATOM     65  C   UNL A   1      44.314  27.901  33.000  1.00  0.00     0.034 A 
BRANCH  52  66
ATOM     66  C   UNL A   1      40.016  31.894  35.037  1.00  0.00     0.023 A 
ATOM     67  C   UNL A   1      39.246  31.469  36.134  1.00  0.00     0.031 A 
ATOM     68  C   UNL A   1      40.300  33.268  34.926  1.00  0.00     0.131 A 
ATOM     69  C   UNL A   1      38.727  32.415  37.033  1.00  0.00     0.055 A 
ATOM     70  C   UNL A   1      39.847  34.195  35.866  1.00  0.00     0.041 A 
ATOM     71  F   UNL A   1      41.010  33.736  33.886  1.00  0.00    -0.206 F 
ATOM     72  C   UNL A   1      39.042  33.772  36.919  1.00  0.00     0.022 A 
BRANCH  69  73
ATOM     73  S   UNL A   1      37.513  31.870  38.267  1.00  0.00     0.124 S 
ATOM     74  O   UNL A   1      36.432  32.830  38.061  1.00  0.00    -0.237 OA
ATOM     75  O   UNL A   1      37.239  30.499  37.854  1.00  0.00    -0.237 OA
ATOM     76  O   UNL A   1      38.227  32.010  39.534  1.00  0.00    -0.744 OA
ENDBRANCH  69  73
ENDBRANCH  52  66
BRANCH  53  77
ATOM     77  C   UNL A   1      42.659  25.722  27.586  1.00  0.00     0.023 A 
ATOM     78  C   UNL A   1      42.136  24.424  27.472  1.00  0.00     0.031 A 
ATOM     79  C   UNL A   1      43.623  26.128  26.644  1.00  0.00     0.131 A 
ATOM     80  C   UNL A   1      42.604  23.567  26.462  1.00  0.00     0.055 A 
ATOM     81  C   UNL A   1      44.045  25.291  25.610  1.00  0.00     0.041 A 
ATOM     82  F   UNL A   1      44.162  27.356  26.710  1.00  0.00    -0.206 F 
ATOM     83  C   UNL A   1      43.543  23.998  25.522  1.00  0.00     0.022 A 
BRANCH  80  84
ATOM     84  S   UNL A   1      42.024  21.848  26.437  1.00  0.00     0.124 S 
ATOM     85  O   UNL A   1      40.600  22.017  26.171  1.00  0.00    -0.237 OA
ATOM     86  O   UNL A   1      42.818  21.276  25.354  1.00  0.00    -0.237 OA
ATOM     87  O   UNL A   1      42.355  21.357  27.774  1.00  0.00    -0.744 OA
ENDBRANCH  80  84
ENDBRANCH  53  77
BRANCH  65  88
ATOM     88  C   UNL A   1      45.579  27.428  33.671  1.00  0.00     0.023 A 
ATOM     89  C   UNL A   1      45.567  26.369  34.597  1.00  0.00     0.031 A 
ATOM     90  C   UNL A   1      46.801  28.071  33.416  1.00  0.00     0.131 A 
ATOM     91  C   UNL A   1      46.740  26.030  35.285  1.00  0.00     0.055 A 
ATOM     92  C   UNL A   1      47.978  27.692  34.063  1.00  0.00     0.041 A 
ATOM     93  F   UNL A   1      46.869  29.089  32.542  1.00  0.00    -0.206 F 
ATOM     94  C   UNL A   1      47.948  26.678  35.015  1.00  0.00     0.022 A 
BRANCH  91  95
ATOM     95  S   UNL A   1      46.642  24.808  36.623  1.00  0.00     0.124 S 
ATOM     96  O   UNL A   1      45.278  24.995  37.107  1.00  0.00    -0.237 OA
ATOM     97  O   UNL A   1      46.904  23.557  35.920  1.00  0.00    -0.237 OA
ATOM     98  O   UNL A   1      47.691  25.230  37.549  1.00  0.00    -0.744 OA
ENDBRANCH  91  95
ENDBRANCH  65  88
ENDBRANCH  39  40
ENDBRANCH  32  34
ENDBRANCH  31  32
ENDBRANCH  30  31
ENDBRANCH   1  30
TORSDOF 21
ENDMDL
MODEL 2
REMARK VINA RESULT:     -11.9      4.794      9.872
REMARK SMILES C[C@H](NC(=O)c1ccc(C(C)(C)C)cc1)C(=O)N[C@@H](C(=O)OCCOC(=O)c1ccc(-c2c3nc(c(-c4cc(S(=O)(=O)[O-])ccc4F)c4ccc([nH]4)c(-c4cc(S(=O)(=O)[O-])ccc4F)c4nc(c(-c5cc(S(=O)(=O)[O-])ccc5F)c5ccc2[nH]5)C=C4)C=C3)cc1)[C@H](C)O
REMARK SMILES IDX 23 1 22 2 20 3 21 4 19 5 18 6 16 7 17 8 2 10 1 11 3 12 4 13
REMARK SMILES IDX 5 15 6 16 7 17 15 18 8 19 14 20 9 21 10 22 11 23 12 24 13 25
REMARK SMILES IDX 91 26 92 27 93 28 24 30 25 31 26 32 27 33 28 34 29 35 90 36
REMARK SMILES IDX 30 37 89 38 31 39 32 40 33 41 83 42 34 43 88 44 82 45 84 46
REMARK SMILES IDX 35 47 87 48 81 49 80 50 36 52 68 53 48 54 67 55 49 56 52 57
REMARK SMILES IDX 66 58 85 59 50 60 51 61 65 63 86 64 53 65 37 66 38 67 46 68
REMARK SMILES IDX 39 69 45 70 47 71 44 72 40 73 41 74 42 75 43 76 69 77 70 78
REMARK SMILES IDX 78 79 71 80 77 81 79 82 76 83 72 84 73 85 74 86 75 87 54 88
REMARK SMILES IDX 55 89 63 90 56 91 62 92 64 93 61 94 57 95 58 96 59 97 60 98
REMARK H PARENT 18 9 3 14 93 29 84 51 52 62
REMARK Flexibility Score: inf
ROOT
ATOM      1  C   UNL A   1      36.685  20.490  24.835  1.00  0.00     0.274 C 
ENDROOT
BRANCH   1   2
ATOM      2  O   UNL A   1      36.760  21.932  24.694  1.00  0.00    -0.460 OA
BRANCH   2   3
ATOM      3  C   UNL A   1      36.096  22.484  23.649  1.00  0.00     0.331 C 
ATOM      4  O   UNL A   1      36.644  22.877  22.619  1.00  0.00    -0.250 OA
BRANCH   3   5
ATOM      5  C   UNL A   1      34.555  22.555  23.824  1.00  0.00     0.221 C 
BRANCH   5   6
ATOM      6  N   UNL A   1      33.792  21.361  24.234  1.00  0.00    -0.339 N 
ATOM      7  C   UNL A   1      32.739  21.185  25.077  1.00  0.00     0.243 C 
ATOM      8  O   UNL A   1      32.060  20.166  24.913  1.00  0.00    -0.273 OA
ATOM      9  H   UNL A   1      34.107  20.527  23.816  1.00  0.00     0.164 HD
BRANCH   7  10
ATOM     10  C   UNL A   1      32.338  22.203  26.153  1.00  0.00     0.168 C 
ATOM     11  C   UNL A   1      33.102  21.910  27.444  1.00  0.00     0.041 C 
BRANCH  10  12
ATOM     12  N   UNL A   1      30.900  22.374  26.409  1.00  0.00    -0.341 N 
ATOM     13  C   UNL A   1      30.259  23.543  26.792  1.00  0.00     0.251 C 
ATOM     14  H   UNL A   1      30.334  21.575  26.298  1.00  0.00     0.164 HD
ATOM     15  O   UNL A   1      29.324  23.463  27.588  1.00  0.00    -0.269 OA
BRANCH  13  16
ATOM     16  C   UNL A   1      30.601  24.872  26.212  1.00  0.00     0.039 A 
ATOM     17  C   UNL A   1      29.823  25.468  25.221  1.00  0.00     0.014 A 
ATOM     18  C   UNL A   1      31.825  25.458  26.486  1.00  0.00     0.014 A 
ATOM     19  C   UNL A   1      30.260  26.654  24.588  1.00  0.00     0.005 A 
ATOM     20  C   UNL A   1      32.262  26.628  25.885  1.00  0.00     0.005 A 
ATOM     21  C   UNL A   1      31.485  27.269  24.928  1.00  0.00    -0.043 A 
BRANCH  21  22
ATOM     22  C   UNL A   1      32.010  28.542  24.249  1.00  0.00    -0.013 C 
ATOM     23  C   UNL A   1      31.450  29.765  24.999  1.00  0.00     0.016 C 
ATOM     24  C   UNL A   1      33.549  28.574  24.264  1.00  0.00     0.016 C 
ATOM     25  C   UNL A   1      31.579  28.667  22.762  1.00  0.00     0.016 C 
ENDBRANCH  21  22
ENDBRANCH  13  16
ENDBRANCH  10  12
ENDBRANCH   7  10
ENDBRANCH   5   6
BRANCH   5  26
ATOM     26  C   UNL A   1      33.881  23.258  22.589  1.00  0.00     0.145 C 
ATOM     27  C   UNL A   1      33.338  24.669  22.847  1.00  0.00     0.041 C 
BRANCH  26  28
ATOM     28  O   UNL A   1      32.796  22.510  22.042  1.00  0.00    -0.391 OA
ATOM     29  H   UNL A   1      32.231  23.098  21.517  1.00  0.00     0.211 HD
ENDBRANCH  26  28
ENDBRANCH   5  26
ENDBRANCH   3   5
ENDBRANCH   2   3
ENDBRANCH   1   2
BRANCH   1  30
ATOM     30  C   UNL A   1      38.091  19.888  24.860  1.00  0.00     0.275 C 
BRANCH  30  31
ATOM     31  O   UNL A   1      38.636  20.184  26.153  1.00  0.00    -0.458 OA
BRANCH  31  32
ATOM     32  C   UNL A   1      39.983  20.172  26.266  1.00  0.00     0.338 C 
ATOM     33  O   UNL A   1      40.758  19.311  25.902  1.00  0.00    -0.246 OA
BRANCH  32  34
ATOM     34  C   UNL A   1      40.366  21.486  26.809  1.00  0.00     0.060 A 
ATOM     35  C   UNL A   1      39.767  22.616  26.252  1.00  0.00     0.016 A 
ATOM     36  C   UNL A   1      41.342  21.621  27.793  1.00  0.00     0.016 A 
ATOM     37  C   UNL A   1      40.175  23.884  26.640  1.00  0.00     0.010 A 
ATOM     38  C   UNL A   1      41.709  22.904  28.224  1.00  0.00     0.010 A 
ATOM     39  C   UNL A   1      41.153  24.050  27.623  1.00  0.00    -0.014 A 
BRANCH  39  40
ATOM     40  C   UNL A   1      41.660  25.424  27.899  1.00  0.00     0.031 A 
ATOM     41  C   UNL A   1      43.005  25.837  27.360  1.00  0.00     0.074 A 
ATOM     42  C   UNL A   1      40.881  26.336  28.516  1.00  0.00     0.049 A 
ATOM     43  N   UNL A   1      43.677  26.941  27.560  1.00  0.00    -0.248 NA
ATOM     44  C   UNL A   1      43.686  24.871  26.485  1.00  0.00     0.031 C 
ATOM     45  C   UNL A   1      39.518  26.097  28.998  1.00  0.00     0.029 A 
ATOM     46  N   UNL A   1      41.106  27.658  28.810  1.00  0.00    -0.354 N 
ATOM     47  C   UNL A   1      44.883  26.781  26.882  1.00  0.00     0.074 A 
ATOM     48  C   UNL A   1      44.848  25.468  26.273  1.00  0.00     0.031 C 
ATOM     49  C   UNL A   1      39.012  27.245  29.477  1.00  0.00     0.029 A 
ATOM     50  C   UNL A   1      40.038  28.280  29.420  1.00  0.00     0.049 A 
ATOM     51  H   UNL A   1      41.951  28.120  28.605  1.00  0.00     0.167 HD
ATOM     52  C   UNL A   1      45.921  27.647  26.781  1.00  0.00     0.034 A 
ATOM     53  C   UNL A   1      39.911  29.531  29.906  1.00  0.00     0.034 A 
ATOM     54  C   UNL A   1      45.920  28.970  27.360  1.00  0.00     0.049 A 
ATOM     55  C   UNL A   1      41.089  30.466  29.810  1.00  0.00     0.074 A 
ATOM     56  C   UNL A   1      46.932  29.914  27.365  1.00  0.00     0.029 A 
ATOM     57  N   UNL A   1      44.842  29.544  28.022  1.00  0.00    -0.354 N 
ATOM     58  N   UNL A   1      42.269  30.256  29.273  1.00  0.00    -0.248 NA
ATOM     59  C   UNL A   1      40.921  31.801  30.399  1.00  0.00     0.031 C 
ATOM     60  C   UNL A   1      46.483  31.039  28.067  1.00  0.00     0.029 A 
ATOM     61  C   UNL A   1      45.167  30.824  28.445  1.00  0.00     0.049 A 
ATOM     62  H   UNL A   1      43.973  29.106  28.168  1.00  0.00     0.167 HD
ATOM     63  C   UNL A   1      42.984  31.436  29.461  1.00  0.00     0.074 A 
ATOM     64  C   UNL A   1      42.089  32.362  30.124  1.00  0.00     0.031 C 
ATOM     65  C   UNL A   1      44.268  31.725  29.127  1.00  0.00     0.034 A 
BRANCH  52  66
ATOM     66  C   UNL A   1      47.167  27.148  26.091  1.00  0.00     0.023 A 
ATOM     67  C   UNL A   1      48.150  26.402  26.763  1.00  0.00     0.031 A 
ATOM     68  C   UNL A   1      47.400  27.481  24.744  1.00  0.00     0.131 A 
ATOM     69  C   UNL A   1      49.351  26.078  26.109  1.00  0.00     0.055 A 
ATOM     70  C   UNL A   1      48.560  27.088  24.075  1.00  0.00     0.041 A 
ATOM     71  F   UNL A   1      46.508  28.213  24.057  1.00  0.00    -0.206 F 
ATOM     72  C   UNL A   1      49.552  26.396  24.763  1.00  0.00     0.022 A 
BRANCH  69  73
ATOM     73  S   UNL A   1      50.707  25.365  27.082  1.00  0.00     0.124 S 
ATOM     74  O   UNL A   1      51.181  26.530  27.825  1.00  0.00    -0.237 OA
ATOM     75  O   UNL A   1      50.029  24.339  27.864  1.00  0.00    -0.237 OA
ATOM     76  O   UNL A   1      51.632  24.867  26.066  1.00  0.00    -0.744 OA
ENDBRANCH  69  73
ENDBRANCH  52  66
BRANCH  53  77
ATOM     77  C   UNL A   1      38.653  29.955  30.590  1.00  0.00     0.023 A 
ATOM     78  C   UNL A   1      37.673  30.706  29.922  1.00  0.00     0.031 A 
ATOM     79  C   UNL A   1      38.438  29.650  31.947  1.00  0.00     0.131 A 
ATOM     80  C   UNL A   1      36.539  31.154  30.620  1.00  0.00     0.055 A 
ATOM     81  C   UNL A   1      37.284  30.052  32.621  1.00  0.00     0.041 A 
ATOM     82  F   UNL A   1      39.346  28.941  32.637  1.00  0.00    -0.206 F 
ATOM     83  C   UNL A   1      36.332  30.819  31.961  1.00  0.00     0.022 A 
BRANCH  80  84
ATOM     84  S   UNL A   1      35.369  32.252  29.773  1.00  0.00     0.124 S 
ATOM     85  O   UNL A   1      36.242  33.334  29.329  1.00  0.00    -0.237 OA
ATOM     86  O   UNL A   1      34.841  31.383  28.726  1.00  0.00    -0.237 OA
ATOM     87  O   UNL A   1      34.416  32.609  30.822  1.00  0.00    -0.744 OA
ENDBRANCH  80  84
ENDBRANCH  53  77
BRANCH  65  88
ATOM     88  C   UNL A   1      44.754  33.113  29.461  1.00  0.00     0.023 A 
ATOM     89  C   UNL A   1      44.640  34.172  28.542  1.00  0.00     0.031 A 
ATOM     90  C   UNL A   1      45.378  33.368  30.693  1.00  0.00     0.131 A 
ATOM     91  C   UNL A   1      45.204  35.420  28.843  1.00  0.00     0.055 A 
ATOM     92  C   UNL A   1      45.888  34.629  31.009  1.00  0.00     0.041 A 
ATOM     93  F   UNL A   1      45.515  32.393  31.606  1.00  0.00    -0.206 F 
ATOM     94  C   UNL A   1      45.816  35.658  30.075  1.00  0.00     0.022 A 
BRANCH  91  95
ATOM     95  S   UNL A   1      45.226  36.697  27.553  1.00  0.00     0.124 S 
ATOM     96  O   UNL A   1      45.746  37.853  28.277  1.00  0.00    -0.237 OA
ATOM     97  O   UNL A   1      46.117  36.115  26.555  1.00  0.00    -0.237 OA
ATOM     98  O   UNL A   1      43.824  36.799  27.149  1.00  0.00    -0.744 OA
ENDBRANCH  91  95
ENDBRANCH  65  88
ENDBRANCH  39  40
ENDBRANCH  32  34
ENDBRANCH  31  32
ENDBRANCH  30  31
ENDBRANCH   1  30
TORSDOF 21
ENDMDL
MODEL 3
REMARK VINA RESULT:     -11.9      4.894      7.738
REMARK SMILES C[C@H](NC(=O)c1ccc(C(C)(C)C)cc1)C(=O)N[C@@H](C(=O)OCCOC(=O)c1ccc(-c2c3nc(c(-c4cc(S(=O)(=O)[O-])ccc4F)c4ccc([nH]4)c(-c4cc(S(=O)(=O)[O-])ccc4F)c4nc(c(-c5cc(S(=O)(=O)[O-])ccc5F)c5ccc2[nH]5)C=C4)C=C3)cc1)[C@H](C)O
REMARK SMILES IDX 23 1 22 2 20 3 21 4 19 5 18 6 16 7 17 8 2 10 1 11 3 12 4 13
REMARK SMILES IDX 5 15 6 16 7 17 15 18 8 19 14 20 9 21 10 22 11 23 12 24 13 25
REMARK SMILES IDX 91 26 92 27 93 28 24 30 25 31 26 32 27 33 28 34 29 35 90 36
REMARK SMILES IDX 30 37 89 38 31 39 32 40 33 41 83 42 34 43 88 44 82 45 84 46
REMARK SMILES IDX 35 47 87 48 81 49 80 50 36 52 68 53 48 54 67 55 49 56 52 57
REMARK SMILES IDX 66 58 85 59 50 60 51 61 65 63 86 64 53 65 37 66 38 67 46 68
REMARK SMILES IDX 39 69 45 70 47 71 44 72 40 73 41 74 42 75 43 76 69 77 70 78
REMARK SMILES IDX 78 79 71 80 77 81 79 82 76 83 72 84 73 85 74 86 75 87 54 88
REMARK SMILES IDX 55 89 63 90 56 91 62 92 64 93 61 94 57 95 58 96 59 97 60 98
REMARK H PARENT 18 9 3 14 93 29 84 51 52 62
REMARK Flexibility Score: inf
ROOT
ATOM      1  C   UNL A   1      35.219  22.267  24.907  1.00  0.00     0.274 C 
ENDROOT
BRANCH   1   2
ATOM      2  O   UNL A   1      33.874  21.964  25.359  1.00  0.00    -0.460 OA
BRANCH   2   3
ATOM      3  C   UNL A   1      33.358  22.754  26.332  1.00  0.00     0.331 C 
ATOM      4  O   UNL A   1      33.858  22.880  27.449  1.00  0.00    -0.250 OA
BRANCH   3   5
ATOM      5  C   UNL A   1      32.083  23.540  25.922  1.00  0.00     0.221 C 
BRANCH   5   6
ATOM      6  N   UNL A   1      31.716  24.788  26.619  1.00  0.00    -0.339 N 
ATOM      7  C   UNL A   1      32.136  26.074  26.487  1.00  0.00     0.243 C 
ATOM      8  O   UNL A   1      31.376  26.953  26.907  1.00  0.00    -0.273 OA
ATOM      9  H   UNL A   1      31.033  24.664  27.318  1.00  0.00     0.164 HD
BRANCH   7  10
ATOM     10  C   UNL A   1      33.452  26.469  25.803  1.00  0.00     0.168 C 
ATOM     11  C   UNL A   1      33.603  27.990  25.824  1.00  0.00     0.041 C 
BRANCH  10  12
ATOM     12  N   UNL A   1      33.696  25.925  24.459  1.00  0.00    -0.341 N 
ATOM     13  C   UNL A   1      32.763  25.771  23.445  1.00  0.00     0.251 C 
ATOM     14  H   UNL A   1      34.618  25.641  24.259  1.00  0.00     0.164 HD
ATOM     15  O   UNL A   1      32.849  24.781  22.718  1.00  0.00    -0.269 OA
BRANCH  13  16
ATOM     16  C   UNL A   1      31.723  26.796  23.148  1.00  0.00     0.039 A 
ATOM     17  C   UNL A   1      32.045  28.042  22.613  1.00  0.00     0.014 A 
ATOM     18  C   UNL A   1      30.426  26.622  23.598  1.00  0.00     0.014 A 
ATOM     19  C   UNL A   1      31.054  29.041  22.488  1.00  0.00     0.005 A 
ATOM     20  C   UNL A   1      29.439  27.587  23.470  1.00  0.00     0.005 A 
ATOM     21  C   UNL A   1      29.721  28.821  22.898  1.00  0.00    -0.043 A 
BRANCH  21  22
ATOM     22  C   UNL A   1      28.619  29.886  22.803  1.00  0.00    -0.013 C 
ATOM     23  C   UNL A   1      28.618  30.467  21.378  1.00  0.00     0.016 C 
ATOM     24  C   UNL A   1      27.241  29.277  23.125  1.00  0.00     0.016 C 
ATOM     25  C   UNL A   1      28.822  31.067  23.790  1.00  0.00     0.016 C 
ENDBRANCH  21  22
ENDBRANCH  13  16
ENDBRANCH  10  12
ENDBRANCH   7  10
ENDBRANCH   5   6
BRANCH   5  26
ATOM     26  C   UNL A   1      30.845  22.579  25.798  1.00  0.00     0.145 C 
ATOM     27  C   UNL A   1      29.795  22.708  26.908  1.00  0.00     0.041 C 
BRANCH  26  28
ATOM     28  O   UNL A   1      31.209  21.200  25.754  1.00  0.00    -0.391 OA
ATOM     29  H   UNL A   1      31.023  20.845  24.871  1.00  0.00     0.211 HD
ENDBRANCH  26  28
ENDBRANCH   5  26
ENDBRANCH   3   5
ENDBRANCH   2   3
ENDBRANCH   1   2
BRANCH   1  30
ATOM     30  C   UNL A   1      36.200  21.213  25.422  1.00  0.00     0.275 C 
BRANCH  30  31
ATOM     31  O   UNL A   1      37.505  21.636  25.004  1.00  0.00    -0.458 OA
BRANCH  31  32
ATOM     32  C   UNL A   1      38.555  21.178  25.722  1.00  0.00     0.338 C 
ATOM     33  O   UNL A   1      38.971  20.040  25.799  1.00  0.00    -0.246 OA
BRANCH  32  34
ATOM     34  C   UNL A   1      39.203  22.362  26.312  1.00  0.00     0.060 A 
ATOM     35  C   UNL A   1      38.718  23.616  25.940  1.00  0.00     0.016 A 
ATOM     36  C   UNL A   1      40.306  22.256  27.155  1.00  0.00     0.016 A 
ATOM     37  C   UNL A   1      39.364  24.767  26.369  1.00  0.00     0.010 A 
ATOM     38  C   UNL A   1      40.919  23.423  27.633  1.00  0.00     0.010 A 
ATOM     39  C   UNL A   1      40.474  24.692  27.214  1.00  0.00    -0.014 A 
BRANCH  39  40
ATOM     40  C   UNL A   1      41.218  25.945  27.527  1.00  0.00     0.031 A 
ATOM     41  C   UNL A   1      40.581  26.977  28.420  1.00  0.00     0.074 A 
ATOM     42  C   UNL A   1      42.494  26.107  27.124  1.00  0.00     0.049 A 
ATOM     43  N   UNL A   1      41.005  28.172  28.743  1.00  0.00    -0.248 NA
ATOM     44  C   UNL A   1      39.289  26.616  29.024  1.00  0.00     0.031 C 
ATOM     45  C   UNL A   1      43.265  25.139  26.339  1.00  0.00     0.029 A 
ATOM     46  N   UNL A   1      43.384  27.129  27.349  1.00  0.00    -0.354 N 
ATOM     47  C   UNL A   1      40.008  28.727  29.540  1.00  0.00     0.074 A 
ATOM     48  C   UNL A   1      38.957  27.737  29.644  1.00  0.00     0.031 C 
ATOM     49  C   UNL A   1      44.522  25.588  26.196  1.00  0.00     0.029 A 
ATOM     50  C   UNL A   1      44.628  26.913  26.798  1.00  0.00     0.049 A 
ATOM     51  H   UNL A   1      43.155  27.941  27.856  1.00  0.00     0.167 HD
ATOM     52  C   UNL A   1      39.973  29.949  30.128  1.00  0.00     0.034 A 
ATOM     53  C   UNL A   1      45.720  27.703  26.756  1.00  0.00     0.034 A 
ATOM     54  C   UNL A   1      41.050  30.907  30.048  1.00  0.00     0.049 A 
ATOM     55  C   UNL A   1      45.647  29.069  27.388  1.00  0.00     0.074 A 
ATOM     56  C   UNL A   1      41.107  32.191  30.560  1.00  0.00     0.029 A 
ATOM     57  N   UNL A   1      42.274  30.675  29.431  1.00  0.00    -0.354 N 
ATOM     58  N   UNL A   1      44.650  29.628  28.034  1.00  0.00    -0.248 NA
ATOM     59  C   UNL A   1      46.842  29.914  27.272  1.00  0.00     0.031 C 
ATOM     60  C   UNL A   1      42.343  32.751  30.214  1.00  0.00     0.029 A 
ATOM     61  C   UNL A   1      43.086  31.793  29.541  1.00  0.00     0.049 A 
ATOM     62  H   UNL A   1      42.527  29.837  28.981  1.00  0.00     0.167 HD
ATOM     63  C   UNL A   1      45.101  30.893  28.401  1.00  0.00     0.074 A 
ATOM     64  C   UNL A   1      46.470  30.996  27.939  1.00  0.00     0.031 C 
ATOM     65  C   UNL A   1      44.440  31.886  29.052  1.00  0.00     0.034 A 
BRANCH  52  66
ATOM     66  C   UNL A   1      38.695  30.337  30.828  1.00  0.00     0.023 A 
ATOM     67  C   UNL A   1      37.623  30.948  30.153  1.00  0.00     0.031 A 
ATOM     68  C   UNL A   1      38.573  30.146  32.217  1.00  0.00     0.131 A 
ATOM     69  C   UNL A   1      36.512  31.409  30.878  1.00  0.00     0.055 A 
ATOM     70  C   UNL A   1      37.432  30.536  32.920  1.00  0.00     0.041 A 
ATOM     71  F   UNL A   1      39.574  29.591  32.920  1.00  0.00    -0.206 F 
ATOM     72  C   UNL A   1      36.400  31.186  32.253  1.00  0.00     0.022 A 
BRANCH  69  73
ATOM     73  S   UNL A   1      35.282  32.437  30.025  1.00  0.00     0.124 S 
ATOM     74  O   UNL A   1      36.049  33.650  29.753  1.00  0.00    -0.237 OA
ATOM     75  O   UNL A   1      34.941  31.623  28.866  1.00  0.00    -0.237 OA
ATOM     76  O   UNL A   1      34.219  32.591  31.016  1.00  0.00    -0.744 OA
ENDBRANCH  69  73
ENDBRANCH  52  66
BRANCH  53  77
ATOM     77  C   UNL A   1      46.949  27.261  26.032  1.00  0.00     0.023 A 
ATOM     78  C   UNL A   1      47.201  27.656  24.708  1.00  0.00     0.031 A 
ATOM     79  C   UNL A   1      47.870  26.394  26.647  1.00  0.00     0.131 A 
ATOM     80  C   UNL A   1      48.328  27.158  24.033  1.00  0.00     0.055 A 
ATOM     81  C   UNL A   1      49.016  25.945  25.989  1.00  0.00     0.041 A 
ATOM     82  F   UNL A   1      47.675  25.978  27.909  1.00  0.00    -0.206 F 
ATOM     83  C   UNL A   1      49.244  26.317  24.670  1.00  0.00     0.022 A 
BRANCH  80  84
ATOM     84  S   UNL A   1      48.543  27.562  22.277  1.00  0.00     0.124 S 
ATOM     85  O   UNL A   1      48.653  26.236  21.678  1.00  0.00    -0.237 OA
ATOM     86  O   UNL A   1      47.319  28.300  21.983  1.00  0.00    -0.237 OA
ATOM     87  O   UNL A   1      49.768  28.359  22.258  1.00  0.00    -0.744 OA
ENDBRANCH  80  84
ENDBRANCH  53  77
BRANCH  65  88
ATOM     88  C   UNL A   1      45.217  33.152  29.313  1.00  0.00     0.023 A 
ATOM     89  C   UNL A   1      45.109  34.267  28.463  1.00  0.00     0.031 A 
ATOM     90  C   UNL A   1      46.108  33.227  30.396  1.00  0.00     0.131 A 
ATOM     91  C   UNL A   1      45.930  35.385  28.671  1.00  0.00     0.055 A 
ATOM     92  C   UNL A   1      46.882  34.364  30.631  1.00  0.00     0.041 A 
ATOM     93  F   UNL A   1      46.252  32.190  31.237  1.00  0.00    -0.206 F 
ATOM     94  C   UNL A   1      46.807  35.445  29.756  1.00  0.00     0.022 A 
BRANCH  91  95
ATOM     95  S   UNL A   1      45.918  36.714  27.435  1.00  0.00     0.124 S 
ATOM     96  O   UNL A   1      45.627  37.888  28.252  1.00  0.00    -0.237 OA
ATOM     97  O   UNL A   1      47.267  36.638  26.885  1.00  0.00    -0.237 OA
ATOM     98  O   UNL A   1      44.851  36.318  26.518  1.00  0.00    -0.744 OA
ENDBRANCH  91  95
ENDBRANCH  65  88
ENDBRANCH  39  40
ENDBRANCH  32  34
ENDBRANCH  31  32
ENDBRANCH  30  31
ENDBRANCH   1  30
TORSDOF 21
ENDMDL
