MODEL 1
REMARK VINA RESULT:     -11.6      0.000      0.000
REMARK SMILES CCCC[C@H](C(=O)OCCOC(=O)c1ccc(-c2c3nc(c(-c4cc(S(=O)(=O)[O-])ccc4F)c4ccc([nH]4)c(-c4cc(S(=O)(=O)[O-])ccc4F)c4nc(c(-c5cc(S(=O)(=O)[O-])ccc5F)c5ccc2[nH]5)C=C4)C=C3)cc1)N1C(=O)/C(=C/c2cccc(Br)c2)SC1=S
REMARK SMILES IDX 9 1 8 2 6 3 7 4 5 5 4 6 3 7 2 8 1 9 77 10 78 11 90 12 79 13
REMARK SMILES IDX 80 14 89 15 91 16 81 17 82 18 83 19 88 20 84 21 86 22 85 23
REMARK SMILES IDX 87 24 10 25 11 26 12 27 13 28 14 29 15 30 76 31 16 32 75 33
REMARK SMILES IDX 17 34 18 35 19 36 69 37 20 38 74 39 68 40 70 41 21 42 73 43
REMARK SMILES IDX 67 44 66 45 22 47 54 48 34 49 53 50 35 51 38 52 52 53 71 54
REMARK SMILES IDX 36 55 37 56 51 58 72 59 39 60 23 61 24 62 32 63 25 64 31 65
REMARK SMILES IDX 33 66 30 67 26 68 27 69 28 70 29 71 55 72 56 73 64 74 57 75
REMARK SMILES IDX 63 76 65 77 62 78 58 79 59 80 60 81 61 82 40 83 41 84 49 85
REMARK SMILES IDX 42 86 48 87 50 88 47 89 43 90 44 91 45 92 46 93
REMARK H PARENT 70 46 38 57
REMARK Flexibility Score: inf
ROOT
ATOM      1  C   UNL A   1      31.320  30.499  25.354  1.00  0.00     0.274 C 
ENDROOT
BRANCH   1   2
ATOM      2  O   UNL A   1      32.517  29.868  24.855  1.00  0.00    -0.461 OA
BRANCH   2   3
ATOM      3  C   UNL A   1      32.358  29.062  23.766  1.00  0.00     0.329 C 
ATOM      4  O   UNL A   1      33.057  29.131  22.765  1.00  0.00    -0.250 OA
BRANCH   3   5
ATOM      5  C   UNL A   1      31.195  28.074  23.963  1.00  0.00     0.202 C 
BRANCH   5   6
ATOM      6  C   UNL A   1      30.344  28.003  22.669  1.00  0.00     0.038 C 
BRANCH   6   7
ATOM      7  C   UNL A   1      29.644  29.311  22.268  1.00  0.00     0.002 C 
BRANCH   7   8
ATOM      8  C   UNL A   1      28.162  29.443  22.622  1.00  0.00    -0.003 C 
ATOM      9  C   UNL A   1      27.823  30.695  23.416  1.00  0.00     0.004 C 
ENDBRANCH   7   8
ENDBRANCH   6   7
ENDBRANCH   5   6
BRANCH   5  10
ATOM     10  N   UNL A   1      31.728  26.761  24.424  1.00  0.00    -0.278 N 
ATOM     11  C   UNL A   1      32.075  25.758  23.530  1.00  0.00     0.266 C 
ATOM     12  C   UNL A   1      31.968  26.469  25.758  1.00  0.00     0.149 C 
ATOM     13  O   UNL A   1      31.987  25.820  22.310  1.00  0.00    -0.268 OA
ATOM     14  C   UNL A   1      32.605  24.557  24.237  1.00  0.00     0.081 C 
ATOM     15  S   UNL A   1      32.719  24.888  25.911  1.00  0.00    -0.054 SA
ATOM     16  S   UNL A   1      31.585  27.385  27.102  1.00  0.00    -0.052 S 
ATOM     17  C   UNL A   1      32.929  23.441  23.561  1.00  0.00     0.029 C 
BRANCH  17  18
ATOM     18  C   UNL A   1      33.453  22.143  24.036  1.00  0.00    -0.023 A 
ATOM     19  C   UNL A   1      34.735  22.111  24.609  1.00  0.00     0.008 A 
ATOM     20  C   UNL A   1      32.785  20.927  23.846  1.00  0.00     0.023 A 
ATOM     21  C   UNL A   1      35.315  20.903  25.011  1.00  0.00     0.002 A 
ATOM     22  C   UNL A   1      33.363  19.723  24.262  1.00  0.00     0.018 A 
ATOM     23  C   UNL A   1      34.624  19.705  24.845  1.00  0.00     0.016 A 
ATOM     24  Br  UNL A   1      32.425  18.103  23.990  1.00  0.00    -0.051 Br
ENDBRANCH  17  18
ENDBRANCH   5  10
ENDBRANCH   3   5
ENDBRANCH   2   3
ENDBRANCH   1   2
BRANCH   1  25
ATOM     25  C   UNL A   1      31.589  31.480  26.498  1.00  0.00     0.275 C 
BRANCH  25  26
ATOM     26  O   UNL A   1      32.803  31.159  27.200  1.00  0.00    -0.458 OA
BRANCH  26  27
ATOM     27  C   UNL A   1      33.564  32.224  27.541  1.00  0.00     0.338 C 
ATOM     28  O   UNL A   1      33.190  33.373  27.697  1.00  0.00    -0.246 OA
BRANCH  27  29
ATOM     29  C   UNL A   1      34.936  31.800  27.860  1.00  0.00     0.060 A 
ATOM     30  C   UNL A   1      35.118  30.465  28.189  1.00  0.00     0.016 A 
ATOM     31  C   UNL A   1      35.977  32.707  28.040  1.00  0.00     0.016 A 
ATOM     32  C   UNL A   1      36.287  30.038  28.798  1.00  0.00     0.010 A 
ATOM     33  C   UNL A   1      37.195  32.258  28.579  1.00  0.00     0.010 A 
ATOM     34  C   UNL A   1      37.345  30.926  29.013  1.00  0.00    -0.014 A 
BRANCH  34  35
ATOM     35  C   UNL A   1      38.532  30.438  29.771  1.00  0.00     0.031 A 
ATOM     36  C   UNL A   1      38.752  30.870  31.200  1.00  0.00     0.074 A 
ATOM     37  C   UNL A   1      39.344  29.507  29.225  1.00  0.00     0.049 A 
ATOM     38  N   UNL A   1      39.727  30.557  32.016  1.00  0.00    -0.248 NA
ATOM     39  C   UNL A   1      37.748  31.768  31.787  1.00  0.00     0.031 C 
ATOM     40  C   UNL A   1      39.215  28.967  27.869  1.00  0.00     0.029 A 
ATOM     41  N   UNL A   1      40.412  28.821  29.750  1.00  0.00    -0.354 N 
ATOM     42  C   UNL A   1      39.470  31.241  33.199  1.00  0.00     0.074 A 
ATOM     43  C   UNL A   1      38.265  32.014  32.982  1.00  0.00     0.031 C 
ATOM     44  C   UNL A   1      40.129  28.003  27.687  1.00  0.00     0.029 A 
ATOM     45  C   UNL A   1      40.963  27.907  28.879  1.00  0.00     0.049 A 
ATOM     46  H   UNL A   1      40.752  28.968  30.662  1.00  0.00     0.167 HD
ATOM     47  C   UNL A   1      40.148  31.200  34.372  1.00  0.00     0.034 A 
ATOM     48  C   UNL A   1      42.037  27.102  29.007  1.00  0.00     0.034 A 
ATOM     49  C   UNL A   1      41.304  30.372  34.612  1.00  0.00     0.049 A 
ATOM     50  C   UNL A   1      42.812  27.129  30.297  1.00  0.00     0.074 A 
ATOM     51  C   UNL A   1      42.031  30.226  35.780  1.00  0.00     0.029 A 
ATOM     52  N   UNL A   1      41.892  29.536  33.672  1.00  0.00    -0.354 N 
ATOM     53  N   UNL A   1      42.575  27.820  31.389  1.00  0.00    -0.248 NA
ATOM     54  C   UNL A   1      44.003  26.273  30.369  1.00  0.00     0.031 C 
ATOM     55  C   UNL A   1      43.081  29.331  35.537  1.00  0.00     0.029 A 
ATOM     56  C   UNL A   1      42.981  28.882  34.230  1.00  0.00     0.049 A 
ATOM     57  H   UNL A   1      41.581  29.423  32.746  1.00  0.00     0.167 HD
ATOM     58  C   UNL A   1      43.586  27.475  32.279  1.00  0.00     0.074 A 
ATOM     59  C   UNL A   1      44.415  26.493  31.608  1.00  0.00     0.031 C 
ATOM     60  C   UNL A   1      43.815  27.929  33.538  1.00  0.00     0.034 A 
BRANCH  47  61
ATOM     61  C   UNL A   1      39.647  32.077  35.491  1.00  0.00     0.023 A 
ATOM     62  C   UNL A   1      38.846  31.557  36.519  1.00  0.00     0.031 A 
ATOM     63  C   UNL A   1      39.966  33.445  35.532  1.00  0.00     0.131 A 
ATOM     64  C   UNL A   1      38.346  32.402  37.520  1.00  0.00     0.055 A 
ATOM     65  C   UNL A   1      39.511  34.273  36.561  1.00  0.00     0.041 A 
ATOM     66  F   UNL A   1      40.718  33.999  34.569  1.00  0.00    -0.206 F 
ATOM     67  C   UNL A   1      38.687  33.755  37.559  1.00  0.00     0.022 A 
BRANCH  64  68
ATOM     68  S   UNL A   1      37.174  31.714  38.719  1.00  0.00     0.124 S 
ATOM     69  O   UNL A   1      36.947  30.379  38.174  1.00  0.00    -0.237 OA
ATOM     70  O   UNL A   1      37.933  31.778  39.963  1.00  0.00    -0.237 OA
ATOM     71  O   UNL A   1      36.030  32.619  38.636  1.00  0.00    -0.744 OA
ENDBRANCH  64  68
ENDBRANCH  47  61
BRANCH  48  72
ATOM     72  C   UNL A   1      42.494  26.263  27.860  1.00  0.00     0.023 A 
ATOM     73  C   UNL A   1      42.222  24.887  27.798  1.00  0.00     0.031 A 
ATOM     74  C   UNL A   1      43.254  26.832  26.821  1.00  0.00     0.131 A 
ATOM     75  C   UNL A   1      42.738  24.121  26.740  1.00  0.00     0.055 A 
ATOM     76  C   UNL A   1      43.717  26.077  25.743  1.00  0.00     0.041 A 
ATOM     77  F   UNL A   1      43.549  28.142  26.833  1.00  0.00    -0.206 F 
ATOM     78  C   UNL A   1      43.469  24.710  25.705  1.00  0.00     0.022 A 
BRANCH  75  79
ATOM     79  S   UNL A   1      42.511  22.320  26.772  1.00  0.00     0.124 S 
ATOM     80  O   UNL A   1      41.378  22.146  25.872  1.00  0.00    -0.237 OA
ATOM     81  O   UNL A   1      43.801  21.844  26.283  1.00  0.00    -0.237 OA
ATOM     82  O   UNL A   1      42.239  22.037  28.181  1.00  0.00    -0.744 OA
ENDBRANCH  75  79
ENDBRANCH  48  72
BRANCH  60  83
ATOM     83  C   UNL A   1      45.001  27.342  34.257  1.00  0.00     0.023 A 
ATOM     84  C   UNL A   1      44.876  26.188  35.049  1.00  0.00     0.031 A 
ATOM     85  C   UNL A   1      46.254  27.976  34.201  1.00  0.00     0.131 A 
ATOM     86  C   UNL A   1      45.966  25.739  35.807  1.00  0.00     0.055 A 
ATOM     87  C   UNL A   1      47.353  27.491  34.913  1.00  0.00     0.041 A 
ATOM     88  F   UNL A   1      46.427  29.084  33.462  1.00  0.00    -0.206 F 
ATOM     89  C   UNL A   1      47.208  26.376  35.734  1.00  0.00     0.022 A 
BRANCH  86  90
ATOM     90  S   UNL A   1      45.711  24.375  36.975  1.00  0.00     0.124 S 
ATOM     91  O   UNL A   1      47.063  24.150  37.481  1.00  0.00    -0.237 OA
ATOM     92  O   UNL A   1      44.765  24.950  37.923  1.00  0.00    -0.237 OA
ATOM     93  O   UNL A   1      45.176  23.302  36.139  1.00  0.00    -0.744 OA
ENDBRANCH  86  90
ENDBRANCH  60  83
ENDBRANCH  34  35
ENDBRANCH  27  29
ENDBRANCH  26  27
ENDBRANCH  25  26
ENDBRANCH   1  25
TORSDOF 19
ENDMDL
MODEL 2
REMARK VINA RESULT:     -11.6      1.548      1.791
REMARK SMILES CCCC[C@H](C(=O)OCCOC(=O)c1ccc(-c2c3nc(c(-c4cc(S(=O)(=O)[O-])ccc4F)c4ccc([nH]4)c(-c4cc(S(=O)(=O)[O-])ccc4F)c4nc(c(-c5cc(S(=O)(=O)[O-])ccc5F)c5ccc2[nH]5)C=C4)C=C3)cc1)N1C(=O)/C(=C/c2cccc(Br)c2)SC1=S
REMARK SMILES IDX 9 1 8 2 6 3 7 4 5 5 4 6 3 7 2 8 1 9 77 10 78 11 90 12 79 13
REMARK SMILES IDX 80 14 89 15 91 16 81 17 82 18 83 19 88 20 84 21 86 22 85 23
REMARK SMILES IDX 87 24 10 25 11 26 12 27 13 28 14 29 15 30 76 31 16 32 75 33
REMARK SMILES IDX 17 34 18 35 19 36 69 37 20 38 74 39 68 40 70 41 21 42 73 43
REMARK SMILES IDX 67 44 66 45 22 47 54 48 34 49 53 50 35 51 38 52 52 53 71 54
REMARK SMILES IDX 36 55 37 56 51 58 72 59 39 60 23 61 24 62 32 63 25 64 31 65
REMARK SMILES IDX 33 66 30 67 26 68 27 69 28 70 29 71 55 72 56 73 64 74 57 75
REMARK SMILES IDX 63 76 65 77 62 78 58 79 59 80 60 81 61 82 40 83 41 84 49 85
REMARK SMILES IDX 42 86 48 87 50 88 47 89 43 90 44 91 45 92 46 93
REMARK H PARENT 70 46 38 57
REMARK Flexibility Score: inf
ROOT
ATOM      1  C   UNL A   1      31.962  30.564  25.960  1.00  0.00     0.274 C 
ENDROOT
BRANCH   1   2
ATOM      2  O   UNL A   1      31.133  30.219  24.832  1.00  0.00    -0.461 OA
BRANCH   2   3
ATOM      3  C   UNL A   1      31.540  29.144  24.098  1.00  0.00     0.329 C 
ATOM      4  O   UNL A   1      32.590  29.109  23.473  1.00  0.00    -0.250 OA
BRANCH   3   5
ATOM      5  C   UNL A   1      30.511  28.001  24.159  1.00  0.00     0.202 C 
BRANCH   5   6
ATOM      6  C   UNL A   1      29.728  27.931  22.823  1.00  0.00     0.038 C 
BRANCH   6   7
ATOM      7  C   UNL A   1      29.307  29.286  22.234  1.00  0.00     0.002 C 
BRANCH   7   8
ATOM      8  C   UNL A   1      27.872  29.743  22.497  1.00  0.00    -0.003 C 
ATOM      9  C   UNL A   1      27.751  30.841  23.542  1.00  0.00     0.004 C 
ENDBRANCH   7   8
ENDBRANCH   6   7
ENDBRANCH   5   6
BRANCH   5  10
ATOM     10  N   UNL A   1      31.195  26.733  24.540  1.00  0.00    -0.278 N 
ATOM     11  C   UNL A   1      31.490  25.751  23.605  1.00  0.00     0.266 C 
ATOM     12  C   UNL A   1      31.633  26.469  25.829  1.00  0.00     0.149 C 
ATOM     13  O   UNL A   1      31.234  25.797  22.409  1.00  0.00    -0.268 OA
ATOM     14  C   UNL A   1      32.196  24.596  24.231  1.00  0.00     0.081 C 
ATOM     15  S   UNL A   1      32.511  24.947  25.876  1.00  0.00    -0.054 SA
ATOM     16  S   UNL A   1      31.370  27.365  27.215  1.00  0.00    -0.052 S 
ATOM     17  C   UNL A   1      32.506  23.502  23.516  1.00  0.00     0.029 C 
BRANCH  17  18
ATOM     18  C   UNL A   1      33.181  22.249  23.912  1.00  0.00    -0.023 A 
ATOM     19  C   UNL A   1      32.397  21.095  24.089  1.00  0.00     0.008 A 
ATOM     20  C   UNL A   1      34.543  22.173  24.226  1.00  0.00     0.023 A 
ATOM     21  C   UNL A   1      32.966  19.897  24.533  1.00  0.00     0.002 A 
ATOM     22  C   UNL A   1      35.111  20.970  24.657  1.00  0.00     0.018 A 
ATOM     23  C   UNL A   1      34.330  19.831  24.810  1.00  0.00     0.016 A 
ATOM     24  Br  UNL A   1      36.956  20.910  25.068  1.00  0.00    -0.051 Br
ENDBRANCH  17  18
ENDBRANCH   5  10
ENDBRANCH   3   5
ENDBRANCH   2   3
ENDBRANCH   1   2
BRANCH   1  25
ATOM     25  C   UNL A   1      31.676  31.962  26.512  1.00  0.00     0.275 C 
BRANCH  25  26
ATOM     26  O   UNL A   1      32.362  32.194  27.756  1.00  0.00    -0.458 OA
BRANCH  26  27
ATOM     27  C   UNL A   1      33.308  33.161  27.714  1.00  0.00     0.338 C 
ATOM     28  O   UNL A   1      33.127  34.360  27.598  1.00  0.00    -0.246 OA
BRANCH  27  29
ATOM     29  C   UNL A   1      34.639  32.594  27.980  1.00  0.00     0.060 A 
ATOM     30  C   UNL A   1      34.684  31.276  28.410  1.00  0.00     0.016 A 
ATOM     31  C   UNL A   1      35.792  33.375  28.018  1.00  0.00     0.016 A 
ATOM     32  C   UNL A   1      35.836  30.754  28.979  1.00  0.00     0.010 A 
ATOM     33  C   UNL A   1      36.984  32.821  28.515  1.00  0.00     0.010 A 
ATOM     34  C   UNL A   1      37.004  31.517  29.050  1.00  0.00    -0.014 A 
BRANCH  34  35
ATOM     35  C   UNL A   1      38.177  30.945  29.771  1.00  0.00     0.031 A 
ATOM     36  C   UNL A   1      38.422  31.288  31.220  1.00  0.00     0.074 A 
ATOM     37  C   UNL A   1      38.950  30.016  29.169  1.00  0.00     0.049 A 
ATOM     38  N   UNL A   1      39.389  30.895  32.010  1.00  0.00    -0.248 NA
ATOM     39  C   UNL A   1      37.455  32.189  31.863  1.00  0.00     0.031 C 
ATOM     40  C   UNL A   1      38.793  29.556  27.786  1.00  0.00     0.029 A 
ATOM     41  N   UNL A   1      39.995  29.262  29.646  1.00  0.00    -0.354 N 
ATOM     42  C   UNL A   1      39.164  31.522  33.230  1.00  0.00     0.074 A 
ATOM     43  C   UNL A   1      37.988  32.350  33.065  1.00  0.00     0.031 C 
ATOM     44  C   UNL A   1      39.669  28.570  27.544  1.00  0.00     0.029 A 
ATOM     45  C   UNL A   1      40.506  28.378  28.722  1.00  0.00     0.049 A 
ATOM     46  H   UNL A   1      40.345  29.346  30.563  1.00  0.00     0.167 HD
ATOM     47  C   UNL A   1      39.848  31.391  34.394  1.00  0.00     0.034 A 
ATOM     48  C   UNL A   1      41.550  27.528  28.797  1.00  0.00     0.034 A 
ATOM     49  C   UNL A   1      40.973  30.508  34.579  1.00  0.00     0.049 A 
ATOM     50  C   UNL A   1      42.333  27.455  30.080  1.00  0.00     0.074 A 
ATOM     51  C   UNL A   1      41.701  30.271  35.732  1.00  0.00     0.029 A 
ATOM     52  N   UNL A   1      41.523  29.704  33.590  1.00  0.00    -0.354 N 
ATOM     53  N   UNL A   1      42.128  28.092  31.210  1.00  0.00    -0.248 NA
ATOM     54  C   UNL A   1      43.491  26.552  30.096  1.00  0.00     0.031 C 
ATOM     55  C   UNL A   1      42.715  29.352  35.431  1.00  0.00     0.029 A 
ATOM     56  C   UNL A   1      42.591  28.980  34.103  1.00  0.00     0.049 A 
ATOM     57  H   UNL A   1      41.203  29.654  32.661  1.00  0.00     0.167 HD
ATOM     58  C   UNL A   1      43.131  27.662  32.072  1.00  0.00     0.074 A 
ATOM     59  C   UNL A   1      43.918  26.688  31.342  1.00  0.00     0.031 C 
ATOM     60  C   UNL A   1      43.384  28.037  33.353  1.00  0.00     0.034 A 
BRANCH  47  61
ATOM     61  C   UNL A   1      39.386  32.223  35.563  1.00  0.00     0.023 A 
ATOM     62  C   UNL A   1      39.812  33.550  35.724  1.00  0.00     0.031 A 
ATOM     63  C   UNL A   1      38.517  31.688  36.529  1.00  0.00     0.131 A 
ATOM     64  C   UNL A   1      39.414  34.288  36.848  1.00  0.00     0.055 A 
ATOM     65  C   UNL A   1      38.079  32.444  37.619  1.00  0.00     0.041 A 
ATOM     66  F   UNL A   1      38.087  30.421  36.433  1.00  0.00    -0.206 F 
ATOM     67  C   UNL A   1      38.535  33.750  37.790  1.00  0.00     0.022 A 
BRANCH  64  68
ATOM     68  S   UNL A   1      40.135  35.931  37.097  1.00  0.00     0.124 S 
ATOM     69  O   UNL A   1      39.774  36.601  35.851  1.00  0.00    -0.237 OA
ATOM     70  O   UNL A   1      39.443  36.393  38.295  1.00  0.00    -0.237 OA
ATOM     71  O   UNL A   1      41.560  35.658  37.263  1.00  0.00    -0.744 OA
ENDBRANCH  64  68
ENDBRANCH  47  61
BRANCH  48  72
ATOM     72  C   UNL A   1      41.968  26.737  27.602  1.00  0.00     0.023 A 
ATOM     73  C   UNL A   1      41.695  25.365  27.494  1.00  0.00     0.031 A 
ATOM     74  C   UNL A   1      42.693  27.349  26.563  1.00  0.00     0.131 A 
ATOM     75  C   UNL A   1      42.175  24.643  26.388  1.00  0.00     0.055 A 
ATOM     76  C   UNL A   1      43.120  26.639  25.440  1.00  0.00     0.041 A 
ATOM     77  F   UNL A   1      42.988  28.658  26.619  1.00  0.00    -0.206 F 
ATOM     78  C   UNL A   1      42.871  25.274  25.354  1.00  0.00     0.022 A 
BRANCH  75  79
ATOM     79  S   UNL A   1      41.949  22.842  26.354  1.00  0.00     0.124 S 
ATOM     80  O   UNL A   1      42.521  22.494  25.059  1.00  0.00    -0.237 OA
ATOM     81  O   UNL A   1      42.709  22.420  27.527  1.00  0.00    -0.237 OA
ATOM     82  O   UNL A   1      40.500  22.679  26.462  1.00  0.00    -0.744 OA
ENDBRANCH  75  79
ENDBRANCH  48  72
BRANCH  60  83
ATOM     83  C   UNL A   1      44.551  27.368  34.029  1.00  0.00     0.023 A 
ATOM     84  C   UNL A   1      44.384  26.189  34.776  1.00  0.00     0.031 A 
ATOM     85  C   UNL A   1      45.831  27.946  33.979  1.00  0.00     0.131 A 
ATOM     86  C   UNL A   1      45.463  25.659  35.498  1.00  0.00     0.055 A 
ATOM     87  C   UNL A   1      46.916  27.382  34.654  1.00  0.00     0.041 A 
ATOM     88  F   UNL A   1      46.045  29.073  33.283  1.00  0.00    -0.206 F 
ATOM     89  C   UNL A   1      46.731  26.242  35.431  1.00  0.00     0.022 A 
BRANCH  86  90
ATOM     90  S   UNL A   1      45.161  24.262  36.614  1.00  0.00     0.124 S 
ATOM     91  O   UNL A   1      46.519  23.852  36.963  1.00  0.00    -0.237 OA
ATOM     92  O   UNL A   1      44.388  24.880  37.685  1.00  0.00    -0.237 OA
ATOM     93  O   UNL A   1      44.421  23.313  35.784  1.00  0.00    -0.744 OA
ENDBRANCH  86  90
ENDBRANCH  60  83
ENDBRANCH  34  35
ENDBRANCH  27  29
ENDBRANCH  26  27
ENDBRANCH  25  26
ENDBRANCH   1  25
TORSDOF 19
ENDMDL
MODEL 3
REMARK VINA RESULT:     -11.4      1.862      2.119
REMARK SMILES CCCC[C@H](C(=O)OCCOC(=O)c1ccc(-c2c3nc(c(-c4cc(S(=O)(=O)[O-])ccc4F)c4ccc([nH]4)c(-c4cc(S(=O)(=O)[O-])ccc4F)c4nc(c(-c5cc(S(=O)(=O)[O-])ccc5F)c5ccc2[nH]5)C=C4)C=C3)cc1)N1C(=O)/C(=C/c2cccc(Br)c2)SC1=S
REMARK SMILES IDX 9 1 8 2 6 3 7 4 5 5 4 6 3 7 2 8 1 9 77 10 78 11 90 12 79 13
REMARK SMILES IDX 80 14 89 15 91 16 81 17 82 18 83 19 88 20 84 21 86 22 85 23
REMARK SMILES IDX 87 24 10 25 11 26 12 27 13 28 14 29 15 30 76 31 16 32 75 33
REMARK SMILES IDX 17 34 18 35 19 36 69 37 20 38 74 39 68 40 70 41 21 42 73 43
REMARK SMILES IDX 67 44 66 45 22 47 54 48 34 49 53 50 35 51 38 52 52 53 71 54
REMARK SMILES IDX 36 55 37 56 51 58 72 59 39 60 23 61 24 62 32 63 25 64 31 65
REMARK SMILES IDX 33 66 30 67 26 68 27 69 28 70 29 71 55 72 56 73 64 74 57 75
REMARK SMILES IDX 63 76 65 77 62 78 58 79 59 80 60 81 61 82 40 83 41 84 49 85
REMARK SMILES IDX 42 86 48 87 50 88 47 89 43 90 44 91 45 92 46 93
REMARK H PARENT 70 46 38 57
REMARK Flexibility Score: inf
ROOT
ATOM      1  C   UNL A   1      31.462  30.180  25.526  1.00  0.00     0.274 C 
ENDROOT
BRANCH   1   2
ATOM      2  O   UNL A   1      32.650  30.027  24.723  1.00  0.00    -0.461 OA
BRANCH   2   3
ATOM      3  C   UNL A   1      32.652  28.977  23.852  1.00  0.00     0.329 C 
ATOM      4  O   UNL A   1      33.494  28.824  22.978  1.00  0.00    -0.250 OA
BRANCH   3   5
ATOM      5  C   UNL A   1      31.468  28.030  24.113  1.00  0.00     0.202 C 
BRANCH   5   6
ATOM      6  C   UNL A   1      30.567  27.962  22.853  1.00  0.00     0.038 C 
BRANCH   6   7
ATOM      7  C   UNL A   1      29.073  28.225  23.095  1.00  0.00     0.002 C 
BRANCH   7   8
ATOM      8  C   UNL A   1      28.424  29.351  22.289  1.00  0.00    -0.003 C 
ATOM      9  C   UNL A   1      27.826  30.460  23.141  1.00  0.00     0.004 C 
ENDBRANCH   7   8
ENDBRANCH   6   7
ENDBRANCH   5   6
BRANCH   5  10
ATOM     10  N   UNL A   1      31.977  26.710  24.580  1.00  0.00    -0.278 N 
ATOM     11  C   UNL A   1      32.438  25.749  23.691  1.00  0.00     0.266 C 
ATOM     12  C   UNL A   1      32.080  26.371  25.920  1.00  0.00     0.149 C 
ATOM     13  O   UNL A   1      32.479  25.856  22.473  1.00  0.00    -0.268 OA
ATOM     14  C   UNL A   1      32.916  24.530  24.407  1.00  0.00     0.081 C 
ATOM     15  S   UNL A   1      32.844  24.798  26.095  1.00  0.00    -0.054 SA
ATOM     16  S   UNL A   1      31.537  27.228  27.248  1.00  0.00    -0.052 S 
ATOM     17  C   UNL A   1      33.334  23.448  23.730  1.00  0.00     0.029 C 
BRANCH  17  18
ATOM     18  C   UNL A   1      33.832  22.141  24.210  1.00  0.00    -0.023 A 
ATOM     19  C   UNL A   1      35.184  22.038  24.579  1.00  0.00     0.008 A 
ATOM     20  C   UNL A   1      33.057  20.975  24.214  1.00  0.00     0.023 A 
ATOM     21  C   UNL A   1      35.732  20.812  24.972  1.00  0.00     0.002 A 
ATOM     22  C   UNL A   1      33.606  19.755  24.621  1.00  0.00     0.018 A 
ATOM     23  C   UNL A   1      34.939  19.668  25.002  1.00  0.00     0.016 A 
ATOM     24  Br  UNL A   1      32.523  18.204  24.615  1.00  0.00    -0.051 Br
ENDBRANCH  17  18
ENDBRANCH   5  10
ENDBRANCH   3   5
ENDBRANCH   2   3
ENDBRANCH   1   2
BRANCH   1  25
ATOM     25  C   UNL A   1      31.490  31.427  26.412  1.00  0.00     0.275 C 
BRANCH  25  26
ATOM     26  O   UNL A   1      32.478  31.318  27.453  1.00  0.00    -0.458 OA
BRANCH  26  27
ATOM     27  C   UNL A   1      33.282  32.398  27.592  1.00  0.00     0.338 C 
ATOM     28  O   UNL A   1      32.944  33.568  27.599  1.00  0.00    -0.246 OA
BRANCH  27  29
ATOM     29  C   UNL A   1      34.660  31.982  27.894  1.00  0.00     0.060 A 
ATOM     30  C   UNL A   1      34.861  30.639  28.176  1.00  0.00     0.016 A 
ATOM     31  C   UNL A   1      35.689  32.896  28.104  1.00  0.00     0.016 A 
ATOM     32  C   UNL A   1      36.038  30.207  28.768  1.00  0.00     0.010 A 
ATOM     33  C   UNL A   1      36.915  32.446  28.625  1.00  0.00     0.010 A 
ATOM     34  C   UNL A   1      37.084  31.102  29.012  1.00  0.00    -0.014 A 
BRANCH  34  35
ATOM     35  C   UNL A   1      38.280  30.605  29.751  1.00  0.00     0.031 A 
ATOM     36  C   UNL A   1      38.495  30.987  31.194  1.00  0.00     0.074 A 
ATOM     37  C   UNL A   1      39.104  29.706  29.171  1.00  0.00     0.049 A 
ATOM     38  N   UNL A   1      39.476  30.659  31.997  1.00  0.00    -0.248 NA
ATOM     39  C   UNL A   1      37.478  31.849  31.814  1.00  0.00     0.031 C 
ATOM     40  C   UNL A   1      38.981  29.214  27.796  1.00  0.00     0.029 A 
ATOM     41  N   UNL A   1      40.183  29.017  29.669  1.00  0.00    -0.354 N 
ATOM     42  C   UNL A   1      39.210  31.296  33.204  1.00  0.00     0.074 A 
ATOM     43  C   UNL A   1      37.994  32.059  33.016  1.00  0.00     0.031 C 
ATOM     44  C   UNL A   1      39.909  28.270  27.578  1.00  0.00     0.029 A 
ATOM     45  C   UNL A   1      40.747  28.144  28.764  1.00  0.00     0.049 A 
ATOM     46  H   UNL A   1      40.522  29.136  30.585  1.00  0.00     0.167 HD
ATOM     47  C   UNL A   1      39.891  31.223  34.375  1.00  0.00     0.034 A 
ATOM     48  C   UNL A   1      41.832  27.351  28.862  1.00  0.00     0.034 A 
ATOM     49  C   UNL A   1      41.060  30.404  34.583  1.00  0.00     0.049 A 
ATOM     50  C   UNL A   1      42.609  27.342  30.151  1.00  0.00     0.074 A 
ATOM     51  C   UNL A   1      41.791  30.226  35.744  1.00  0.00     0.029 A 
ATOM     52  N   UNL A   1      41.658  29.611  33.613  1.00  0.00    -0.354 N 
ATOM     53  N   UNL A   1      42.363  27.990  31.268  1.00  0.00    -0.248 NA
ATOM     54  C   UNL A   1      43.812  26.502  30.191  1.00  0.00     0.031 C 
ATOM     55  C   UNL A   1      42.854  29.356  35.468  1.00  0.00     0.029 A 
ATOM     56  C   UNL A   1      42.758  28.954  34.146  1.00  0.00     0.049 A 
ATOM     57  H   UNL A   1      41.348  29.527  32.683  1.00  0.00     0.167 HD
ATOM     58  C   UNL A   1      43.381  27.628  32.144  1.00  0.00     0.074 A 
ATOM     59  C   UNL A   1      44.223  26.683  31.437  1.00  0.00     0.031 C 
ATOM     60  C   UNL A   1      43.604  28.040  33.418  1.00  0.00     0.034 A 
BRANCH  47  61
ATOM     61  C   UNL A   1      39.379  32.051  35.525  1.00  0.00     0.023 A 
ATOM     62  C   UNL A   1      39.786  33.383  35.700  1.00  0.00     0.031 A 
ATOM     63  C   UNL A   1      38.480  31.509  36.458  1.00  0.00     0.131 A 
ATOM     64  C   UNL A   1      39.340  34.117  36.807  1.00  0.00     0.055 A 
ATOM     65  C   UNL A   1      37.995  32.261  37.531  1.00  0.00     0.041 A 
ATOM     66  F   UNL A   1      38.067  30.237  36.348  1.00  0.00    -0.206 F 
ATOM     67  C   UNL A   1      38.432  33.572  37.716  1.00  0.00     0.022 A 
BRANCH  64  68
ATOM     68  S   UNL A   1      40.034  35.769  37.080  1.00  0.00     0.124 S 
ATOM     69  O   UNL A   1      39.653  36.454  35.849  1.00  0.00    -0.237 OA
ATOM     70  O   UNL A   1      39.343  36.197  38.291  1.00  0.00    -0.237 OA
ATOM     71  O   UNL A   1      41.465  35.517  37.231  1.00  0.00    -0.744 OA
ENDBRANCH  64  68
ENDBRANCH  47  61
BRANCH  48  72
ATOM     72  C   UNL A   1      42.299  26.561  27.685  1.00  0.00     0.023 A 
ATOM     73  C   UNL A   1      41.926  25.221  27.501  1.00  0.00     0.031 A 
ATOM     74  C   UNL A   1      43.172  27.137  26.742  1.00  0.00     0.131 A 
ATOM     75  C   UNL A   1      42.452  24.492  26.421  1.00  0.00     0.055 A 
ATOM     76  C   UNL A   1      43.647  26.425  25.641  1.00  0.00     0.041 A 
ATOM     77  F   UNL A   1      43.566  28.414  26.874  1.00  0.00    -0.206 F 
ATOM     78  C   UNL A   1      43.296  25.089  25.482  1.00  0.00     0.022 A 
BRANCH  75  79
ATOM     79  S   UNL A   1      42.082  22.718  26.301  1.00  0.00     0.124 S 
ATOM     80  O   UNL A   1      40.627  22.711  26.384  1.00  0.00    -0.237 OA
ATOM     81  O   UNL A   1      42.654  22.377  25.002  1.00  0.00    -0.237 OA
ATOM     82  O   UNL A   1      42.777  22.147  27.453  1.00  0.00    -0.744 OA
ENDBRANCH  75  79
ENDBRANCH  48  72
BRANCH  60  83
ATOM     83  C   UNL A   1      44.800  27.444  34.115  1.00  0.00     0.023 A 
ATOM     84  C   UNL A   1      46.062  28.061  34.052  1.00  0.00     0.031 A 
ATOM     85  C   UNL A   1      44.693  26.219  34.794  1.00  0.00     0.131 A 
ATOM     86  C   UNL A   1      47.181  27.419  34.602  1.00  0.00     0.055 A 
ATOM     87  C   UNL A   1      45.800  25.612  35.390  1.00  0.00     0.041 A 
ATOM     88  F   UNL A   1      43.511  25.587  34.881  1.00  0.00    -0.206 F 
ATOM     89  C   UNL A   1      47.055  26.205  35.282  1.00  0.00     0.022 A 
BRANCH  86  90
ATOM     90  S   UNL A   1      48.822  28.139  34.322  1.00  0.00     0.124 S 
ATOM     91  O   UNL A   1      49.082  28.809  35.593  1.00  0.00    -0.237 OA
ATOM     92  O   UNL A   1      49.636  26.961  34.045  1.00  0.00    -0.237 OA
ATOM     93  O   UNL A   1      48.615  29.031  33.182  1.00  0.00    -0.744 OA
ENDBRANCH  86  90
ENDBRANCH  60  83
ENDBRANCH  34  35
ENDBRANCH  27  29
ENDBRANCH  26  27
ENDBRANCH  25  26
ENDBRANCH   1  25
TORSDOF 19
ENDMDL
