MODEL 1
REMARK VINA RESULT:     -12.9      0.000      0.000
REMARK SMILES COC(=O)c1ccc(NC(=O)[C@H]2CC=CC[C@@H]2C(=O)OCCOC(=O)c2ccc(-c3c4nc(c(-c5cc(S(=O)(=O)[O-])ccc5F)c5ccc([nH]5)c(-c5cc(S(=O)(=O)[O-])ccc5F)c5nc(c(-c6cc(S(=O)(=O)[O-])ccc6F)c6ccc3[nH]6)C=C5)C=C4)cc2)c(C)c1
REMARK SMILES IDX 21 1 20 2 18 3 19 4 17 5 12 6 13 7 14 8 16 9 15 10 10 11
REMARK SMILES IDX 9 12 11 14 8 15 5 16 6 17 91 18 7 19 89 20 90 21 3 22 4 23
REMARK SMILES IDX 2 24 1 25 22 26 23 27 24 28 25 29 26 30 27 31 88 32 28 33
REMARK SMILES IDX 87 34 29 35 30 36 31 37 81 38 32 39 86 40 80 41 82 42 33 43
REMARK SMILES IDX 85 44 79 45 78 46 34 48 66 49 46 50 65 51 47 52 50 53 64 54
REMARK SMILES IDX 83 55 48 56 49 57 63 59 84 60 51 61 35 62 36 63 44 64 37 65
REMARK SMILES IDX 43 66 45 67 42 68 38 69 39 70 40 71 41 72 67 73 68 74 76 75
REMARK SMILES IDX 69 76 75 77 77 78 74 79 70 80 71 81 72 82 73 83 52 84 53 85
REMARK SMILES IDX 61 86 54 87 60 88 62 89 59 90 55 91 56 92 57 93 58 94
REMARK H PARENT 9 13 82 47 50 58
REMARK Flexibility Score: inf
ROOT
ATOM      1  C   UNL A   1      32.801  30.814  27.266  1.00  0.00     0.274 C 
ENDROOT
BRANCH   1   2
ATOM      2  O   UNL A   1      33.155  30.319  25.975  1.00  0.00    -0.462 OA
BRANCH   2   3
ATOM      3  C   UNL A   1      33.739  29.126  26.029  1.00  0.00     0.310 C 
ATOM      4  O   UNL A   1      34.779  28.939  26.664  1.00  0.00    -0.252 OA
BRANCH   3   5
ATOM      5  C   UNL A   1      33.023  27.951  25.248  1.00  0.00     0.116 C 
ATOM      6  C   UNL A   1      32.266  25.849  25.456  1.00  0.00     0.097 C 
ATOM      7  C   UNL A   1      32.787  24.745  23.906  1.00  0.00     0.041 C 
ATOM      8  C   UNL A   1      33.291  25.586  22.402  1.00  0.00    -0.030 C 
ATOM      9  C   UNL A   1      33.682  28.295  23.420  1.00  0.00     0.043 C 
ATOM     10  C   UNL A   1      33.641  26.952  22.205  1.00  0.00    -0.030 C 
BRANCH   6  11
ATOM     11  C   UNL A   1      30.963  24.973  26.238  1.00  0.00     0.228 C 
ATOM     12  N   UNL A   1      31.127  23.616  26.686  1.00  0.00    -0.326 N 
ATOM     13  H   UNL A   1      30.580  23.420  27.480  1.00  0.00     0.169 HD
ATOM     14  O   UNL A   1      29.859  25.467  26.474  1.00  0.00    -0.274 OA
BRANCH  12  15
ATOM     15  C   UNL A   1      31.895  22.464  26.257  1.00  0.00     0.044 A 
ATOM     16  C   UNL A   1      33.462  20.264  25.257  1.00  0.00     0.060 A 
ATOM     17  C   UNL A   1      32.191  20.515  24.765  1.00  0.00     0.018 A 
ATOM     18  C   UNL A   1      33.939  21.079  26.287  1.00  0.00     0.021 A 
ATOM     19  C   UNL A   1      31.418  21.555  25.303  1.00  0.00     0.027 A 
ATOM     20  C   UNL A   1      33.160  22.152  26.817  1.00  0.00    -0.027 A 
ATOM     21  C   UNL A   1      33.769  22.904  27.970  1.00  0.00     0.046 C 
BRANCH  16  22
ATOM     22  C   UNL A   1      34.197  19.072  24.735  1.00  0.00     0.337 C 
ATOM     23  O   UNL A   1      35.402  19.041  24.539  1.00  0.00    -0.246 OA
BRANCH  22  24
ATOM     24  O   UNL A   1      33.360  18.052  24.428  1.00  0.00    -0.465 OA
ATOM     25  C   UNL A   1      33.660  17.450  23.168  1.00  0.00     0.282 C 
ENDBRANCH  22  24
ENDBRANCH  16  22
ENDBRANCH  12  15
ENDBRANCH   6  11
ENDBRANCH   3   5
ENDBRANCH   2   3
ENDBRANCH   1   2
BRANCH   1  26
ATOM     26  C   UNL A   1      33.788  31.789  28.026  1.00  0.00     0.275 C 
BRANCH  26  27
ATOM     27  O   UNL A   1      33.715  33.258  27.831  1.00  0.00    -0.458 OA
BRANCH  27  28
ATOM     28  C   UNL A   1      33.404  34.243  28.767  1.00  0.00     0.338 C 
ATOM     29  O   UNL A   1      32.530  35.077  28.629  1.00  0.00    -0.246 OA
BRANCH  28  30
ATOM     30  C   UNL A   1      34.385  34.226  29.935  1.00  0.00     0.060 A 
ATOM     31  C   UNL A   1      34.039  33.688  31.575  1.00  0.00     0.016 A 
ATOM     32  C   UNL A   1      35.850  34.076  29.213  1.00  0.00     0.016 A 
ATOM     33  C   UNL A   1      35.358  32.667  32.391  1.00  0.00     0.010 A 
ATOM     34  C   UNL A   1      36.957  33.173  29.729  1.00  0.00     0.010 A 
ATOM     35  C   UNL A   1      36.955  32.398  31.252  1.00  0.00    -0.014 A 
BRANCH  35  36
ATOM     36  C   UNL A   1      38.440  31.801  31.055  1.00  0.00     0.031 A 
ATOM     37  C   UNL A   1      38.701  30.583  30.279  1.00  0.00     0.074 A 
ATOM     38  C   UNL A   1      39.596  32.356  31.590  1.00  0.00     0.049 A 
ATOM     39  N   UNL A   1      39.031  29.452  30.813  1.00  0.00    -0.248 NA
ATOM     40  C   UNL A   1      38.492  30.539  28.833  1.00  0.00     0.031 C 
ATOM     41  C   UNL A   1      40.982  32.062  31.196  1.00  0.00     0.029 A 
ATOM     42  N   UNL A   1      39.813  33.383  32.522  1.00  0.00    -0.354 N 
ATOM     43  C   UNL A   1      39.222  28.605  29.750  1.00  0.00     0.074 A 
ATOM     44  C   UNL A   1      38.577  29.225  28.612  1.00  0.00     0.031 C 
ATOM     45  C   UNL A   1      41.852  32.744  31.970  1.00  0.00     0.029 A 
ATOM     46  C   UNL A   1      41.118  33.459  32.992  1.00  0.00     0.049 A 
ATOM     47  H   UNL A   1      39.102  33.997  32.817  1.00  0.00     0.167 HD
ATOM     48  C   UNL A   1      40.296  27.774  29.684  1.00  0.00     0.034 A 
ATOM     49  C   UNL A   1      41.443  33.557  34.320  1.00  0.00     0.034 A 
ATOM     50  C   UNL A   1      41.334  28.218  30.604  1.00  0.00     0.049 A 
ATOM     51  C   UNL A   1      41.862  32.179  34.793  1.00  0.00     0.074 A 
ATOM     52  C   UNL A   1      42.458  29.000  30.389  1.00  0.00     0.029 A 
ATOM     53  N   UNL A   1      41.147  28.163  31.973  1.00  0.00    -0.354 N 
ATOM     54  N   UNL A   1      41.856  31.138  34.014  1.00  0.00    -0.248 NA
ATOM     55  C   UNL A   1      42.284  31.850  36.149  1.00  0.00     0.031 C 
ATOM     56  C   UNL A   1      42.959  29.401  31.650  1.00  0.00     0.029 A 
ATOM     57  C   UNL A   1      42.157  28.840  32.629  1.00  0.00     0.049 A 
ATOM     58  H   UNL A   1      40.399  27.704  32.420  1.00  0.00     0.167 HD
ATOM     59  C   UNL A   1      42.235  30.026  34.700  1.00  0.00     0.074 A 
ATOM     60  C   UNL A   1      42.527  30.532  36.032  1.00  0.00     0.031 C 
ATOM     61  C   UNL A   1      42.255  28.807  34.081  1.00  0.00     0.034 A 
BRANCH  48  62
ATOM     62  C   UNL A   1      40.561  26.905  28.486  1.00  0.00     0.023 A 
ATOM     63  C   UNL A   1      41.604  27.235  27.608  1.00  0.00     0.031 A 
ATOM     64  C   UNL A   1      39.856  25.716  28.198  1.00  0.00     0.131 A 
ATOM     65  C   UNL A   1      41.860  26.465  26.464  1.00  0.00     0.055 A 
ATOM     66  C   UNL A   1      40.078  24.972  27.033  1.00  0.00     0.041 A 
ATOM     67  F   UNL A   1      38.930  25.231  29.043  1.00  0.00    -0.206 F 
ATOM     68  C   UNL A   1      41.084  25.350  26.154  1.00  0.00     0.022 A 
BRANCH  65  69
ATOM     69  S   UNL A   1      43.251  26.937  25.408  1.00  0.00     0.124 S 
ATOM     70  O   UNL A   1      42.615  27.836  24.450  1.00  0.00    -0.237 OA
ATOM     71  O   UNL A   1      44.168  27.551  26.361  1.00  0.00    -0.237 OA
ATOM     72  O   UNL A   1      43.701  25.661  24.853  1.00  0.00    -0.744 OA
ENDBRANCH  65  69
ENDBRANCH  48  62
BRANCH  49  73
ATOM     73  C   UNL A   1      40.530  34.449  35.101  1.00  0.00     0.023 A 
ATOM     74  C   UNL A   1      39.428  33.853  35.767  1.00  0.00     0.031 A 
ATOM     75  C   UNL A   1      41.120  35.570  35.671  1.00  0.00     0.131 A 
ATOM     76  C   UNL A   1      39.177  34.173  37.111  1.00  0.00     0.055 A 
ATOM     77  C   UNL A   1      40.893  35.836  37.006  1.00  0.00     0.041 A 
ATOM     78  F   UNL A   1      42.131  36.217  35.072  1.00  0.00    -0.206 F 
ATOM     79  C   UNL A   1      39.977  35.103  37.758  1.00  0.00     0.022 A 
BRANCH  76  80
ATOM     80  S   UNL A   1      38.000  33.183  38.082  1.00  0.00     0.124 S 
ATOM     81  O   UNL A   1      38.649  31.875  38.104  1.00  0.00    -0.237 OA
ATOM     82  O   UNL A   1      37.963  33.901  39.351  1.00  0.00    -0.237 OA
ATOM     83  O   UNL A   1      36.763  33.257  37.307  1.00  0.00    -0.744 OA
ENDBRANCH  76  80
ENDBRANCH  49  73
BRANCH  61  84
ATOM     84  C   UNL A   1      42.489  27.482  34.756  1.00  0.00     0.023 A 
ATOM     85  C   UNL A   1      43.400  26.545  34.270  1.00  0.00     0.031 A 
ATOM     86  C   UNL A   1      41.810  27.116  35.946  1.00  0.00     0.131 A 
ATOM     87  C   UNL A   1      43.513  25.275  34.850  1.00  0.00     0.055 A 
ATOM     88  C   UNL A   1      42.014  25.896  36.594  1.00  0.00     0.041 A 
ATOM     89  F   UNL A   1      40.917  27.918  36.540  1.00  0.00    -0.206 F 
ATOM     90  C   UNL A   1      42.848  24.949  36.026  1.00  0.00     0.022 A 
BRANCH  87  91
ATOM     91  S   UNL A   1      44.467  24.039  33.943  1.00  0.00     0.124 S 
ATOM     92  O   UNL A   1      43.649  22.841  34.123  1.00  0.00    -0.237 OA
ATOM     93  O   UNL A   1      44.486  24.588  32.591  1.00  0.00    -0.237 OA
ATOM     94  O   UNL A   1      45.754  24.024  34.631  1.00  0.00    -0.744 OA
ENDBRANCH  87  91
ENDBRANCH  61  84
ENDBRANCH  35  36
ENDBRANCH  28  30
ENDBRANCH  27  28
ENDBRANCH  26  27
ENDBRANCH   1  26
TORSDOF 18
ENDMDL
MODEL 2
REMARK VINA RESULT:     -12.6      4.659     10.247
REMARK SMILES COC(=O)c1ccc(NC(=O)[C@H]2CC=CC[C@@H]2C(=O)OCCOC(=O)c2ccc(-c3c4nc(c(-c5cc(S(=O)(=O)[O-])ccc5F)c5ccc([nH]5)c(-c5cc(S(=O)(=O)[O-])ccc5F)c5nc(c(-c6cc(S(=O)(=O)[O-])ccc6F)c6ccc3[nH]6)C=C5)C=C4)cc2)c(C)c1
REMARK SMILES IDX 21 1 20 2 18 3 19 4 17 5 12 6 13 7 14 8 16 9 15 10 10 11
REMARK SMILES IDX 9 12 11 14 8 15 5 16 6 17 91 18 7 19 89 20 90 21 3 22 4 23
REMARK SMILES IDX 2 24 1 25 22 26 23 27 24 28 25 29 26 30 27 31 88 32 28 33
REMARK SMILES IDX 87 34 29 35 30 36 31 37 81 38 32 39 86 40 80 41 82 42 33 43
REMARK SMILES IDX 85 44 79 45 78 46 34 48 66 49 46 50 65 51 47 52 50 53 64 54
REMARK SMILES IDX 83 55 48 56 49 57 63 59 84 60 51 61 35 62 36 63 44 64 37 65
REMARK SMILES IDX 43 66 45 67 42 68 38 69 39 70 40 71 41 72 67 73 68 74 76 75
REMARK SMILES IDX 69 76 75 77 77 78 74 79 70 80 71 81 72 82 73 83 52 84 53 85
REMARK SMILES IDX 61 86 54 87 60 88 62 89 59 90 55 91 56 92 57 93 58 94
REMARK H PARENT 9 13 82 47 50 58
REMARK Flexibility Score: inf
ROOT
ATOM      1  C   UNL A   1      37.362  21.202  25.689  1.00  0.00     0.274 C 
ENDROOT
BRANCH   1   2
ATOM      2  O   UNL A   1      36.209  22.007  25.938  1.00  0.00    -0.462 OA
BRANCH   2   3
ATOM      3  C   UNL A   1      35.119  21.534  25.343  1.00  0.00     0.310 C 
ATOM      4  O   UNL A   1      34.961  20.328  25.138  1.00  0.00    -0.252 OA
BRANCH   3   5
ATOM      5  C   UNL A   1      34.024  22.595  24.923  1.00  0.00     0.116 C 
ATOM      6  C   UNL A   1      31.866  23.156  25.181  1.00  0.00     0.097 C 
ATOM      7  C   UNL A   1      31.039  23.629  23.453  1.00  0.00     0.041 C 
ATOM      8  C   UNL A   1      32.124  24.041  22.083  1.00  0.00    -0.030 C 
ATOM      9  C   UNL A   1      34.675  23.075  23.123  1.00  0.00     0.043 C 
ATOM     10  C   UNL A   1      33.525  23.829  21.945  1.00  0.00    -0.030 C 
BRANCH   6  11
ATOM     11  C   UNL A   1      30.798  23.811  26.407  1.00  0.00     0.228 C 
ATOM     12  N   UNL A   1      29.882  24.882  26.118  1.00  0.00    -0.326 N 
ATOM     13  H   UNL A   1      29.064  24.826  26.663  1.00  0.00     0.169 HD
ATOM     14  O   UNL A   1      30.746  23.382  27.562  1.00  0.00    -0.274 OA
BRANCH  12  15
ATOM     15  C   UNL A   1      29.865  26.024  25.227  1.00  0.00     0.044 A 
ATOM     16  C   UNL A   1      29.707  28.368  23.559  1.00  0.00     0.060 A 
ATOM     17  C   UNL A   1      28.723  27.394  23.514  1.00  0.00     0.018 A 
ATOM     18  C   UNL A   1      30.803  28.153  24.400  1.00  0.00     0.021 A 
ATOM     19  C   UNL A   1      28.843  26.231  24.290  1.00  0.00     0.027 A 
ATOM     20  C   UNL A   1      30.911  26.980  25.207  1.00  0.00    -0.027 A 
ATOM     21  C   UNL A   1      32.176  26.847  26.012  1.00  0.00     0.046 C 
BRANCH  16  22
ATOM     22  C   UNL A   1      29.594  29.529  22.626  1.00  0.00     0.337 C 
ATOM     23  O   UNL A   1      30.015  29.533  21.480  1.00  0.00    -0.246 OA
BRANCH  22  24
ATOM     24  O   UNL A   1      29.039  30.611  23.225  1.00  0.00    -0.465 OA
ATOM     25  C   UNL A   1      29.032  31.766  22.384  1.00  0.00     0.282 C 
ENDBRANCH  22  24
ENDBRANCH  16  22
ENDBRANCH  12  15
ENDBRANCH   6  11
ENDBRANCH   3   5
ENDBRANCH   2   3
ENDBRANCH   1   2
BRANCH   1  26
ATOM     26  C   UNL A   1      38.804  21.816  25.904  1.00  0.00     0.275 C 
BRANCH  26  27
ATOM     27  O   UNL A   1      40.013  20.956  25.892  1.00  0.00    -0.458 OA
BRANCH  27  28
ATOM     28  C   UNL A   1      40.975  20.797  26.889  1.00  0.00     0.338 C 
ATOM     29  O   UNL A   1      40.926  19.960  27.770  1.00  0.00    -0.246 OA
BRANCH  28  30
ATOM     30  C   UNL A   1      42.034  21.891  26.814  1.00  0.00     0.060 A 
ATOM     31  C   UNL A   1      42.563  22.728  25.358  1.00  0.00     0.016 A 
ATOM     32  C   UNL A   1      41.990  22.582  28.301  1.00  0.00     0.016 A 
ATOM     33  C   UNL A   1      42.819  24.561  25.522  1.00  0.00     0.010 A 
ATOM     34  C   UNL A   1      42.068  24.080  28.539  1.00  0.00     0.010 A 
ATOM     35  C   UNL A   1      42.477  25.237  27.351  1.00  0.00    -0.014 A 
BRANCH  35  36
ATOM     36  C   UNL A   1      42.455  26.461  28.402  1.00  0.00     0.031 A 
ATOM     37  C   UNL A   1      41.255  27.270  28.641  1.00  0.00     0.074 A 
ATOM     38  C   UNL A   1      43.542  26.872  29.164  1.00  0.00     0.049 A 
ATOM     39  N   UNL A   1      41.120  28.489  28.227  1.00  0.00    -0.248 NA
ATOM     40  C   UNL A   1      40.066  26.704  29.275  1.00  0.00     0.031 C 
ATOM     41  C   UNL A   1      43.511  27.745  30.347  1.00  0.00     0.029 A 
ATOM     42  N   UNL A   1      44.902  26.529  29.140  1.00  0.00    -0.354 N 
ATOM     43  C   UNL A   1      39.890  28.883  28.694  1.00  0.00     0.074 A 
ATOM     44  C   UNL A   1      39.176  27.672  29.039  1.00  0.00     0.031 C 
ATOM     45  C   UNL A   1      44.761  27.979  30.799  1.00  0.00     0.029 A 
ATOM     46  C   UNL A   1      45.713  27.365  29.897  1.00  0.00     0.049 A 
ATOM     47  H   UNL A   1      45.252  25.762  28.632  1.00  0.00     0.167 HD
ATOM     48  C   UNL A   1      39.705  30.095  29.281  1.00  0.00     0.034 A 
ATOM     49  C   UNL A   1      46.880  27.916  29.435  1.00  0.00     0.034 A 
ATOM     50  C   UNL A   1      40.983  30.651  29.702  1.00  0.00     0.049 A 
ATOM     51  C   UNL A   1      46.586  29.351  29.044  1.00  0.00     0.074 A 
ATOM     52  C   UNL A   1      41.619  30.623  30.933  1.00  0.00     0.029 A 
ATOM     53  N   UNL A   1      41.933  31.043  28.776  1.00  0.00    -0.354 N 
ATOM     54  N   UNL A   1      45.399  29.874  29.138  1.00  0.00    -0.248 NA
ATOM     55  C   UNL A   1      47.561  30.288  28.500  1.00  0.00     0.031 C 
ATOM     56  C   UNL A   1      42.962  31.022  30.740  1.00  0.00     0.029 A 
ATOM     57  C   UNL A   1      43.134  31.320  29.399  1.00  0.00     0.049 A 
ATOM     58  H   UNL A   1      41.775  31.116  27.807  1.00  0.00     0.167 HD
ATOM     59  C   UNL A   1      45.406  31.157  28.683  1.00  0.00     0.074 A 
ATOM     60  C   UNL A   1      46.798  31.382  28.325  1.00  0.00     0.031 C 
ATOM     61  C   UNL A   1      44.248  31.883  28.650  1.00  0.00     0.034 A 
BRANCH  48  62
ATOM     62  C   UNL A   1      38.384  30.502  29.872  1.00  0.00     0.023 A 
ATOM     63  C   UNL A   1      37.437  31.153  29.067  1.00  0.00     0.031 A 
ATOM     64  C   UNL A   1      37.990  30.225  31.199  1.00  0.00     0.131 A 
ATOM     65  C   UNL A   1      36.206  31.575  29.593  1.00  0.00     0.055 A 
ATOM     66  C   UNL A   1      36.783  30.685  31.738  1.00  0.00     0.041 A 
ATOM     67  F   UNL A   1      38.761  29.488  32.016  1.00  0.00    -0.206 F 
ATOM     68  C   UNL A   1      35.884  31.371  30.933  1.00  0.00     0.022 A 
BRANCH  65  69
ATOM     69  S   UNL A   1      35.025  32.368  28.475  1.00  0.00     0.124 S 
ATOM     70  O   UNL A   1      34.456  31.224  27.771  1.00  0.00    -0.237 OA
ATOM     71  O   UNL A   1      34.140  33.062  29.404  1.00  0.00    -0.237 OA
ATOM     72  O   UNL A   1      35.867  33.240  27.658  1.00  0.00    -0.744 OA
ENDBRANCH  65  69
ENDBRANCH  48  62
BRANCH  49  73
ATOM     73  C   UNL A   1      47.693  26.987  28.590  1.00  0.00     0.023 A 
ATOM     74  C   UNL A   1      47.428  26.951  27.197  1.00  0.00     0.031 A 
ATOM     75  C   UNL A   1      48.993  26.756  29.022  1.00  0.00     0.131 A 
ATOM     76  C   UNL A   1      48.495  27.029  26.287  1.00  0.00     0.055 A 
ATOM     77  C   UNL A   1      50.028  26.884  28.117  1.00  0.00     0.041 A 
ATOM     78  F   UNL A   1      49.308  26.723  30.325  1.00  0.00    -0.206 F 
ATOM     79  C   UNL A   1      49.798  27.090  26.758  1.00  0.00     0.022 A 
BRANCH  76  80
ATOM     80  S   UNL A   1      48.172  27.328  24.522  1.00  0.00     0.124 S 
ATOM     81  O   UNL A   1      47.632  26.043  24.090  1.00  0.00    -0.237 OA
ATOM     82  O   UNL A   1      47.227  28.439  24.564  1.00  0.00    -0.237 OA
ATOM     83  O   UNL A   1      49.486  27.672  23.983  1.00  0.00    -0.744 OA
ENDBRANCH  76  80
ENDBRANCH  49  73
BRANCH  61  84
ATOM     84  C   UNL A   1      44.079  33.241  28.022  1.00  0.00     0.023 A 
ATOM     85  C   UNL A   1      44.147  34.421  28.761  1.00  0.00     0.031 A 
ATOM     86  C   UNL A   1      43.864  33.402  26.630  1.00  0.00     0.131 A 
ATOM     87  C   UNL A   1      43.872  35.662  28.174  1.00  0.00     0.055 A 
ATOM     88  C   UNL A   1      43.710  34.649  26.023  1.00  0.00     0.041 A 
ATOM     89  F   UNL A   1      43.790  32.362  25.788  1.00  0.00    -0.206 F 
ATOM     90  C   UNL A   1      43.679  35.792  26.803  1.00  0.00     0.022 A 
BRANCH  87  91
ATOM     91  S   UNL A   1      43.658  37.069  29.284  1.00  0.00     0.124 S 
ATOM     92  O   UNL A   1      42.614  37.831  28.604  1.00  0.00    -0.237 OA
ATOM     93  O   UNL A   1      43.255  36.426  30.531  1.00  0.00    -0.237 OA
ATOM     94  O   UNL A   1      44.976  37.696  29.302  1.00  0.00    -0.744 OA
ENDBRANCH  87  91
ENDBRANCH  61  84
ENDBRANCH  35  36
ENDBRANCH  28  30
ENDBRANCH  27  28
ENDBRANCH  26  27
ENDBRANCH   1  26
TORSDOF 18
ENDMDL
MODEL 3
REMARK VINA RESULT:     -12.6      4.885     10.650
REMARK SMILES COC(=O)c1ccc(NC(=O)[C@H]2CC=CC[C@@H]2C(=O)OCCOC(=O)c2ccc(-c3c4nc(c(-c5cc(S(=O)(=O)[O-])ccc5F)c5ccc([nH]5)c(-c5cc(S(=O)(=O)[O-])ccc5F)c5nc(c(-c6cc(S(=O)(=O)[O-])ccc6F)c6ccc3[nH]6)C=C5)C=C4)cc2)c(C)c1
REMARK SMILES IDX 21 1 20 2 18 3 19 4 17 5 12 6 13 7 14 8 16 9 15 10 10 11
REMARK SMILES IDX 9 12 11 14 8 15 5 16 6 17 91 18 7 19 89 20 90 21 3 22 4 23
REMARK SMILES IDX 2 24 1 25 22 26 23 27 24 28 25 29 26 30 27 31 88 32 28 33
REMARK SMILES IDX 87 34 29 35 30 36 31 37 81 38 32 39 86 40 80 41 82 42 33 43
REMARK SMILES IDX 85 44 79 45 78 46 34 48 66 49 46 50 65 51 47 52 50 53 64 54
REMARK SMILES IDX 83 55 48 56 49 57 63 59 84 60 51 61 35 62 36 63 44 64 37 65
REMARK SMILES IDX 43 66 45 67 42 68 38 69 39 70 40 71 41 72 67 73 68 74 76 75
REMARK SMILES IDX 69 76 75 77 77 78 74 79 70 80 71 81 72 82 73 83 52 84 53 85
REMARK SMILES IDX 61 86 54 87 60 88 62 89 59 90 55 91 56 92 57 93 58 94
REMARK H PARENT 9 13 82 47 50 58
REMARK Flexibility Score: inf
ROOT
ATOM      1  C   UNL A   1      39.120  22.176  26.006  1.00  0.00     0.274 C 
ENDROOT
BRANCH   1   2
ATOM      2  O   UNL A   1      38.162  22.615  25.043  1.00  0.00    -0.462 OA
BRANCH   2   3
ATOM      3  C   UNL A   1      36.927  22.656  25.535  1.00  0.00     0.310 C 
ATOM      4  O   UNL A   1      36.700  23.018  26.692  1.00  0.00    -0.252 OA
BRANCH   3   5
ATOM      5  C   UNL A   1      35.760  22.230  24.556  1.00  0.00     0.116 C 
ATOM      6  C   UNL A   1      33.912  22.975  23.524  1.00  0.00     0.097 C 
ATOM      7  C   UNL A   1      32.437  21.673  23.670  1.00  0.00     0.041 C 
ATOM      8  C   UNL A   1      32.847  19.978  24.097  1.00  0.00    -0.030 C 
ATOM      9  C   UNL A   1      35.597  20.319  25.019  1.00  0.00     0.043 C 
ATOM     10  C   UNL A   1      34.060  19.447  24.621  1.00  0.00    -0.030 C 
BRANCH   6  11
ATOM     11  C   UNL A   1      33.460  24.052  22.216  1.00  0.00     0.228 C 
ATOM     12  N   UNL A   1      33.305  25.468  22.421  1.00  0.00    -0.326 N 
ATOM     13  H   UNL A   1      33.536  25.986  21.617  1.00  0.00     0.169 HD
ATOM     14  O   UNL A   1      33.278  23.674  21.057  1.00  0.00    -0.274 OA
BRANCH  12  15
ATOM     15  C   UNL A   1      32.893  26.321  23.517  1.00  0.00     0.044 A 
ATOM     16  C   UNL A   1      32.206  27.949  25.792  1.00  0.00     0.060 A 
ATOM     17  C   UNL A   1      31.870  26.606  25.750  1.00  0.00     0.018 A 
ATOM     18  C   UNL A   1      32.841  28.501  24.677  1.00  0.00     0.021 A 
ATOM     19  C   UNL A   1      32.161  25.840  24.611  1.00  0.00     0.027 A 
ATOM     20  C   UNL A   1      33.158  27.715  23.528  1.00  0.00    -0.027 A 
ATOM     21  C   UNL A   1      33.779  28.453  22.372  1.00  0.00     0.046 C 
BRANCH  16  22
ATOM     22  C   UNL A   1      31.768  28.749  26.976  1.00  0.00     0.337 C 
ATOM     23  O   UNL A   1      31.312  28.265  28.000  1.00  0.00    -0.246 OA
BRANCH  22  24
ATOM     24  O   UNL A   1      31.862  30.082  26.753  1.00  0.00    -0.465 OA
ATOM     25  C   UNL A   1      33.075  30.643  27.258  1.00  0.00     0.282 C 
ENDBRANCH  22  24
ENDBRANCH  16  22
ENDBRANCH  12  15
ENDBRANCH   6  11
ENDBRANCH   3   5
ENDBRANCH   2   3
ENDBRANCH   1   2
BRANCH   1  26
ATOM     26  C   UNL A   1      39.446  20.633  26.134  1.00  0.00     0.275 C 
BRANCH  26  27
ATOM     27  O   UNL A   1      40.712  20.166  26.750  1.00  0.00    -0.458 OA
BRANCH  27  28
ATOM     28  C   UNL A   1      41.891  19.773  26.118  1.00  0.00     0.338 C 
ATOM     29  O   UNL A   1      42.102  18.658  25.680  1.00  0.00    -0.246 OA
BRANCH  28  30
ATOM     30  C   UNL A   1      42.937  20.882  26.158  1.00  0.00     0.060 A 
ATOM     31  C   UNL A   1      43.596  21.740  24.769  1.00  0.00     0.016 A 
ATOM     32  C   UNL A   1      42.733  21.558  27.638  1.00  0.00     0.016 A 
ATOM     33  C   UNL A   1      43.808  23.574  24.973  1.00  0.00     0.010 A 
ATOM     34  C   UNL A   1      42.765  23.054  27.895  1.00  0.00     0.010 A 
ATOM     35  C   UNL A   1      43.274  24.229  26.763  1.00  0.00    -0.014 A 
BRANCH  35  36
ATOM     36  C   UNL A   1      43.129  25.442  27.815  1.00  0.00     0.031 A 
ATOM     37  C   UNL A   1      41.901  26.237  27.934  1.00  0.00     0.074 A 
ATOM     38  C   UNL A   1      44.126  25.857  28.690  1.00  0.00     0.049 A 
ATOM     39  N   UNL A   1      41.797  27.458  27.519  1.00  0.00    -0.248 NA
ATOM     40  C   UNL A   1      40.659  25.653  28.437  1.00  0.00     0.031 C 
ATOM     41  C   UNL A   1      43.962  26.719  29.871  1.00  0.00     0.029 A 
ATOM     42  N   UNL A   1      45.485  25.528  28.806  1.00  0.00    -0.354 N 
ATOM     43  C   UNL A   1      40.521  27.835  27.858  1.00  0.00     0.074 A 
ATOM     44  C   UNL A   1      39.789  26.614  28.116  1.00  0.00     0.031 C 
ATOM     45  C   UNL A   1      45.155  26.961  30.453  1.00  0.00     0.029 A 
ATOM     46  C   UNL A   1      46.203  26.365  29.651  1.00  0.00     0.049 A 
ATOM     47  H   UNL A   1      45.894  24.769  28.331  1.00  0.00     0.167 HD
ATOM     48  C   UNL A   1      40.262  29.040  28.432  1.00  0.00     0.034 A 
ATOM     49  C   UNL A   1      47.406  26.932  29.317  1.00  0.00     0.034 A 
ATOM     50  C   UNL A   1      41.483  29.605  28.989  1.00  0.00     0.049 A 
ATOM     51  C   UNL A   1      47.138  28.368  28.910  1.00  0.00     0.074 A 
ATOM     52  C   UNL A   1      41.987  29.572  30.280  1.00  0.00     0.029 A 
ATOM     53  N   UNL A   1      42.520  30.015  28.171  1.00  0.00    -0.354 N 
ATOM     54  N   UNL A   1      45.942  28.878  28.883  1.00  0.00    -0.248 NA
ATOM     55  C   UNL A   1      48.154  29.320  28.479  1.00  0.00     0.031 C 
ATOM     56  C   UNL A   1      43.339  29.986  30.231  1.00  0.00     0.029 A 
ATOM     57  C   UNL A   1      43.647  30.298  28.918  1.00  0.00     0.049 A 
ATOM     58  H   UNL A   1      42.463  30.095  27.191  1.00  0.00     0.167 HD
ATOM     59  C   UNL A   1      45.983  30.165  28.443  1.00  0.00     0.074 A 
ATOM     60  C   UNL A   1      47.401  30.408  28.233  1.00  0.00     0.031 C 
ATOM     61  C   UNL A   1      44.827  30.880  28.295  1.00  0.00     0.034 A 
BRANCH  48  62
ATOM     62  C   UNL A   1      38.882  29.428  28.885  1.00  0.00     0.023 A 
ATOM     63  C   UNL A   1      38.631  29.623  30.251  1.00  0.00     0.031 A 
ATOM     64  C   UNL A   1      37.801  29.672  28.011  1.00  0.00     0.131 A 
ATOM     65  C   UNL A   1      37.349  29.956  30.713  1.00  0.00     0.055 A 
ATOM     66  C   UNL A   1      36.510  29.959  28.472  1.00  0.00     0.041 A 
ATOM     67  F   UNL A   1      37.962  29.650  26.677  1.00  0.00    -0.206 F 
ATOM     68  C   UNL A   1      36.277  30.096  29.834  1.00  0.00     0.022 A 
BRANCH  65  69
ATOM     69  S   UNL A   1      37.122  30.231  32.487  1.00  0.00     0.124 S 
ATOM     70  O   UNL A   1      37.027  28.867  32.997  1.00  0.00    -0.237 OA
ATOM     71  O   UNL A   1      38.327  30.973  32.840  1.00  0.00    -0.237 OA
ATOM     72  O   UNL A   1      35.881  31.003  32.552  1.00  0.00    -0.744 OA
ENDBRANCH  65  69
ENDBRANCH  48  62
BRANCH  49  73
ATOM     73  C   UNL A   1      48.312  26.019  28.554  1.00  0.00     0.023 A 
ATOM     74  C   UNL A   1      48.394  26.186  27.148  1.00  0.00     0.031 A 
ATOM     75  C   UNL A   1      49.441  25.579  29.235  1.00  0.00     0.131 A 
ATOM     76  C   UNL A   1      49.654  26.241  26.530  1.00  0.00     0.055 A 
ATOM     77  C   UNL A   1      50.673  25.687  28.622  1.00  0.00     0.041 A 
ATOM     78  F   UNL A   1      49.423  25.348  30.556  1.00  0.00    -0.206 F 
ATOM     79  C   UNL A   1      50.802  26.083  27.292  1.00  0.00     0.022 A 
BRANCH  76  80
ATOM     80  S   UNL A   1      49.801  26.790  24.802  1.00  0.00     0.124 S 
ATOM     81  O   UNL A   1      48.679  26.105  24.169  1.00  0.00    -0.237 OA
ATOM     82  O   UNL A   1      49.680  28.239  24.926  1.00  0.00    -0.237 OA
ATOM     83  O   UNL A   1      51.127  26.326  24.403  1.00  0.00    -0.744 OA
ENDBRANCH  76  80
ENDBRANCH  49  73
BRANCH  61  84
ATOM     84  C   UNL A   1      44.709  32.242  27.664  1.00  0.00     0.023 A 
ATOM     85  C   UNL A   1      44.123  33.323  28.320  1.00  0.00     0.031 A 
ATOM     86  C   UNL A   1      45.212  32.513  26.366  1.00  0.00     0.131 A 
ATOM     87  C   UNL A   1      43.923  34.545  27.669  1.00  0.00     0.055 A 
ATOM     88  C   UNL A   1      45.120  33.767  25.762  1.00  0.00     0.041 A 
ATOM     89  F   UNL A   1      45.814  31.579  25.618  1.00  0.00    -0.206 F 
ATOM     90  C   UNL A   1      44.440  34.789  26.401  1.00  0.00     0.022 A 
BRANCH  87  91
ATOM     91  S   UNL A   1      42.863  35.753  28.492  1.00  0.00     0.124 S 
ATOM     92  O   UNL A   1      42.590  35.092  29.765  1.00  0.00    -0.237 OA
ATOM     93  O   UNL A   1      43.726  36.928  28.567  1.00  0.00    -0.237 OA
ATOM     94  O   UNL A   1      41.718  35.874  27.594  1.00  0.00    -0.744 OA
ENDBRANCH  87  91
ENDBRANCH  61  84
ENDBRANCH  35  36
ENDBRANCH  28  30
ENDBRANCH  27  28
ENDBRANCH  26  27
ENDBRANCH   1  26
TORSDOF 18
ENDMDL
