MODEL 1
REMARK VINA RESULT:     -13.1      0.000      0.000
REMARK SMILES CC(C)N1C(=O)C[C@@H]([N@@H+]2CC[C@H](C(=O)OCCOC(=O)c3ccc(-c4c5nc(c(-c6cc(S(=O)(=O)[O-])ccc6F)c6ccc([nH]6)c(-c6cc(S(=O)(=O)[O-])ccc6F)c6nc(c(-c7cc(S(=O)(=O)[O-])ccc7F)c7ccc4[nH]7)C=C6)C=C5)cc3)[C@@H]2C)C1=O
REMARK SMILES IDX 17 1 16 2 15 3 13 4 14 5 12 6 9 7 10 8 84 9 11 11 85 12 8 13
REMARK SMILES IDX 4 14 5 15 86 16 6 17 7 18 87 19 2 20 1 21 3 22 18 23 19 24
REMARK SMILES IDX 20 25 21 26 22 27 83 28 23 29 82 30 24 31 25 32 26 33 76 34
REMARK SMILES IDX 27 35 81 36 75 37 77 38 28 39 80 40 74 41 73 42 29 44 61 45
REMARK SMILES IDX 41 46 60 47 42 48 45 49 59 50 78 51 43 52 44 53 58 55 79 56
REMARK SMILES IDX 46 57 30 58 31 59 39 60 32 61 38 62 40 63 37 64 33 65 34 66
REMARK SMILES IDX 35 67 36 68 62 69 63 70 71 71 64 72 70 73 72 74 69 75 65 76
REMARK SMILES IDX 66 77 67 78 68 79 47 80 48 81 56 82 49 83 55 84 57 85 54 86
REMARK SMILES IDX 50 87 51 88 52 89 53 90
REMARK H PARENT 9 10 77 43 45 54
REMARK Flexibility Score: inf
ROOT
ATOM      1  C   UNL A   1      32.019  29.503  24.746  1.00  0.00     0.275 C 
ENDROOT
BRANCH   1   2
ATOM      2  C   UNL A   1      31.206  28.236  24.989  1.00  0.00     0.274 C 
BRANCH   2   3
ATOM      3  O   UNL A   1      32.048  27.143  25.444  1.00  0.00    -0.462 OA
BRANCH   3   4
ATOM      4  C   UNL A   1      32.805  26.552  24.477  1.00  0.00     0.315 C 
ATOM      5  O   UNL A   1      34.021  26.415  24.581  1.00  0.00    -0.252 OA
BRANCH   4   6
ATOM      6  C   UNL A   1      32.052  26.290  23.172  1.00  0.00     0.162 C 
ATOM      7  N   UNL A   1      32.314  24.317  21.754  1.00  0.00    -0.321 N 
ATOM      8  C   UNL A   1      32.821  25.456  20.978  1.00  0.00     0.264 C 
ATOM      9  C   UNL A   1      31.456  24.914  22.787  1.00  0.00     0.196 C 
ATOM     10  H   UNL A   1      31.770  23.633  21.229  1.00  0.00     0.349 HD
ATOM     11  C   UNL A   1      32.935  26.632  21.956  1.00  0.00     0.083 C 
ATOM     12  C   UNL A   1      30.818  24.071  23.869  1.00  0.00     0.076 C 
BRANCH   7  13
ATOM     13  C   UNL A   1      33.062  22.984  21.853  1.00  0.00     0.284 C 
ATOM     14  N   UNL A   1      34.038  21.992  24.537  1.00  0.00    -0.275 N 
ATOM     15  C   UNL A   1      32.587  20.807  24.318  1.00  0.00     0.236 C 
ATOM     16  C   UNL A   1      34.375  23.128  23.251  1.00  0.00     0.288 C 
ATOM     17  O   UNL A   1      32.083  20.218  25.273  1.00  0.00    -0.274 OA
ATOM     18  C   UNL A   1      31.941  21.401  22.255  1.00  0.00     0.176 C 
ATOM     19  O   UNL A   1      35.179  24.053  23.308  1.00  0.00    -0.267 OA
BRANCH  14  20
ATOM     20  C   UNL A   1      34.973  22.186  25.692  1.00  0.00     0.087 C 
ATOM     21  C   UNL A   1      34.324  21.880  27.086  1.00  0.00     0.031 C 
ATOM     22  C   UNL A   1      36.166  21.231  25.617  1.00  0.00     0.031 C 
ENDBRANCH  14  20
ENDBRANCH   7  13
ENDBRANCH   4   6
ENDBRANCH   3   4
ENDBRANCH   2   3
ENDBRANCH   1   2
BRANCH   1  23
ATOM     23  O   UNL A   1      32.929  29.690  25.850  1.00  0.00    -0.458 OA
BRANCH  23  24
ATOM     24  C   UNL A   1      32.678  30.790  26.587  1.00  0.00     0.338 C 
ATOM     25  O   UNL A   1      31.667  31.478  26.506  1.00  0.00    -0.246 OA
BRANCH  24  26
ATOM     26  C   UNL A   1      33.636  30.960  27.728  1.00  0.00     0.060 A 
ATOM     27  C   UNL A   1      34.234  32.499  27.973  1.00  0.00     0.016 A 
ATOM     28  C   UNL A   1      34.539  29.564  27.874  1.00  0.00     0.016 A 
ATOM     29  C   UNL A   1      35.955  32.674  28.190  1.00  0.00     0.010 A 
ATOM     30  C   UNL A   1      36.126  29.481  28.146  1.00  0.00     0.010 A 
ATOM     31  C   UNL A   1      37.061  30.944  28.293  1.00  0.00    -0.014 A 
BRANCH  31  32
ATOM     32  C   UNL A   1      38.147  30.158  29.408  1.00  0.00     0.031 A 
ATOM     33  C   UNL A   1      39.241  29.283  28.857  1.00  0.00     0.074 A 
ATOM     34  C   UNL A   1      37.930  29.915  30.762  1.00  0.00     0.049 A 
ATOM     35  N   UNL A   1      40.305  28.825  29.465  1.00  0.00    -0.248 NA
ATOM     36  C   UNL A   1      39.031  28.751  27.508  1.00  0.00     0.031 C 
ATOM     37  C   UNL A   1      36.731  30.185  31.551  1.00  0.00     0.029 A 
ATOM     38  N   UNL A   1      38.836  29.635  31.796  1.00  0.00    -0.354 N 
ATOM     39  C   UNL A   1      40.884  27.920  28.587  1.00  0.00     0.074 A 
ATOM     40  C   UNL A   1      40.035  27.886  27.411  1.00  0.00     0.031 C 
ATOM     41  C   UNL A   1      37.055  30.520  32.808  1.00  0.00     0.029 A 
ATOM     42  C   UNL A   1      38.471  30.277  32.996  1.00  0.00     0.049 A 
ATOM     43  H   UNL A   1      39.628  29.059  31.695  1.00  0.00     0.167 HD
ATOM     44  C   UNL A   1      42.002  27.171  28.766  1.00  0.00     0.034 A 
ATOM     45  C   UNL A   1      39.214  30.693  34.057  1.00  0.00     0.034 A 
ATOM     46  C   UNL A   1      42.807  27.192  29.965  1.00  0.00     0.049 A 
ATOM     47  C   UNL A   1      40.628  30.159  34.133  1.00  0.00     0.074 A 
ATOM     48  C   UNL A   1      43.983  26.512  30.236  1.00  0.00     0.029 A 
ATOM     49  N   UNL A   1      42.512  27.930  31.102  1.00  0.00    -0.354 N 
ATOM     50  N   UNL A   1      41.297  29.486  33.228  1.00  0.00    -0.248 NA
ATOM     51  C   UNL A   1      41.365  30.381  35.386  1.00  0.00     0.031 C 
ATOM     52  C   UNL A   1      44.374  26.805  31.549  1.00  0.00     0.029 A 
ATOM     53  C   UNL A   1      43.478  27.718  32.075  1.00  0.00     0.049 A 
ATOM     54  H   UNL A   1      41.731  28.520  31.204  1.00  0.00     0.167 HD
ATOM     55  C   UNL A   1      42.520  29.182  33.818  1.00  0.00     0.074 A 
ATOM     56  C   UNL A   1      42.540  29.840  35.106  1.00  0.00     0.031 C 
ATOM     57  C   UNL A   1      43.507  28.375  33.358  1.00  0.00     0.034 A 
BRANCH  44  58
ATOM     58  C   UNL A   1      42.413  26.255  27.642  1.00  0.00     0.023 A 
ATOM     59  C   UNL A   1      41.894  24.955  27.541  1.00  0.00     0.031 A 
ATOM     60  C   UNL A   1      43.316  26.685  26.653  1.00  0.00     0.131 A 
ATOM     61  C   UNL A   1      42.316  24.111  26.505  1.00  0.00     0.055 A 
ATOM     62  C   UNL A   1      43.678  25.864  25.583  1.00  0.00     0.041 A 
ATOM     63  F   UNL A   1      43.860  27.911  26.708  1.00  0.00    -0.206 F 
ATOM     64  C   UNL A   1      43.185  24.565  25.509  1.00  0.00     0.022 A 
BRANCH  61  65
ATOM     65  S   UNL A   1      41.796  22.374  26.539  1.00  0.00     0.124 S 
ATOM     66  O   UNL A   1      42.348  21.878  25.280  1.00  0.00    -0.237 OA
ATOM     67  O   UNL A   1      42.430  21.880  27.754  1.00  0.00    -0.237 OA
ATOM     68  O   UNL A   1      40.338  22.454  26.583  1.00  0.00    -0.744 OA
ENDBRANCH  61  65
ENDBRANCH  44  58
BRANCH  45  69
ATOM     69  C   UNL A   1      38.746  31.675  35.120  1.00  0.00     0.023 A 
ATOM     70  C   UNL A   1      38.374  31.209  36.408  1.00  0.00     0.031 A 
ATOM     71  C   UNL A   1      38.545  33.045  34.881  1.00  0.00     0.131 A 
ATOM     72  C   UNL A   1      37.771  32.067  37.352  1.00  0.00     0.055 A 
ATOM     73  C   UNL A   1      38.042  33.916  35.859  1.00  0.00     0.041 A 
ATOM     74  F   UNL A   1      38.783  33.573  33.671  1.00  0.00    -0.206 F 
ATOM     75  C   UNL A   1      37.632  33.428  37.095  1.00  0.00     0.022 A 
BRANCH  72  76
ATOM     76  S   UNL A   1      36.985  31.360  38.839  1.00  0.00     0.124 S 
ATOM     77  O   UNL A   1      38.017  31.562  39.849  1.00  0.00    -0.237 OA
ATOM     78  O   UNL A   1      35.787  32.182  38.969  1.00  0.00    -0.237 OA
ATOM     79  O   UNL A   1      36.746  29.967  38.467  1.00  0.00    -0.744 OA
ENDBRANCH  72  76
ENDBRANCH  45  69
BRANCH  57  80
ATOM     80  C   UNL A   1      44.693  28.157  34.264  1.00  0.00     0.023 A 
ATOM     81  C   UNL A   1      44.657  27.208  35.302  1.00  0.00     0.031 A 
ATOM     82  C   UNL A   1      45.867  28.910  34.098  1.00  0.00     0.131 A 
ATOM     83  C   UNL A   1      45.745  27.083  36.177  1.00  0.00     0.055 A 
ATOM     84  C   UNL A   1      46.972  28.736  34.933  1.00  0.00     0.041 A 
ATOM     85  F   UNL A   1      45.958  29.828  33.123  1.00  0.00    -0.206 F 
ATOM     86  C   UNL A   1      46.910  27.830  35.989  1.00  0.00     0.022 A 
BRANCH  83  87
ATOM     87  S   UNL A   1      45.581  25.998  37.622  1.00  0.00     0.124 S 
ATOM     88  O   UNL A   1      44.885  26.857  38.572  1.00  0.00    -0.237 OA
ATOM     89  O   UNL A   1      44.808  24.881  37.088  1.00  0.00    -0.237 OA
ATOM     90  O   UNL A   1      46.966  25.680  37.970  1.00  0.00    -0.744 OA
ENDBRANCH  83  87
ENDBRANCH  57  80
ENDBRANCH  31  32
ENDBRANCH  24  26
ENDBRANCH  23  24
ENDBRANCH   1  23
TORSDOF 16
ENDMDL
MODEL 2
REMARK VINA RESULT:     -12.7      5.128     10.171
REMARK SMILES CC(C)N1C(=O)C[C@@H]([N@@H+]2CC[C@H](C(=O)OCCOC(=O)c3ccc(-c4c5nc(c(-c6cc(S(=O)(=O)[O-])ccc6F)c6ccc([nH]6)c(-c6cc(S(=O)(=O)[O-])ccc6F)c6nc(c(-c7cc(S(=O)(=O)[O-])ccc7F)c7ccc4[nH]7)C=C6)C=C5)cc3)[C@@H]2C)C1=O
REMARK SMILES IDX 17 1 16 2 15 3 13 4 14 5 12 6 9 7 10 8 84 9 11 11 85 12 8 13
REMARK SMILES IDX 4 14 5 15 86 16 6 17 7 18 87 19 2 20 1 21 3 22 18 23 19 24
REMARK SMILES IDX 20 25 21 26 22 27 83 28 23 29 82 30 24 31 25 32 26 33 76 34
REMARK SMILES IDX 27 35 81 36 75 37 77 38 28 39 80 40 74 41 73 42 29 44 61 45
REMARK SMILES IDX 41 46 60 47 42 48 45 49 59 50 78 51 43 52 44 53 58 55 79 56
REMARK SMILES IDX 46 57 30 58 31 59 39 60 32 61 38 62 40 63 37 64 33 65 34 66
REMARK SMILES IDX 35 67 36 68 62 69 63 70 71 71 64 72 70 73 72 74 69 75 65 76
REMARK SMILES IDX 66 77 67 78 68 79 47 80 48 81 56 82 49 83 55 84 57 85 54 86
REMARK SMILES IDX 50 87 51 88 52 89 53 90
REMARK H PARENT 9 10 77 43 45 54
REMARK Flexibility Score: inf
ROOT
ATOM      1  C   UNL A   1      36.209  21.185  24.693  1.00  0.00     0.275 C 
ENDROOT
BRANCH   1   2
ATOM      2  C   UNL A   1      34.774  21.268  25.202  1.00  0.00     0.274 C 
BRANCH   2   3
ATOM      3  O   UNL A   1      34.474  22.587  25.732  1.00  0.00    -0.462 OA
BRANCH   3   4
ATOM      4  C   UNL A   1      33.549  23.298  25.028  1.00  0.00     0.315 C 
ATOM      5  O   UNL A   1      33.809  24.373  24.494  1.00  0.00    -0.252 OA
BRANCH   4   6
ATOM      6  C   UNL A   1      32.122  22.761  25.157  1.00  0.00     0.162 C 
ATOM      7  N   UNL A   1      30.133  24.113  25.587  1.00  0.00    -0.321 N 
ATOM      8  C   UNL A   1      30.324  23.269  26.772  1.00  0.00     0.264 C 
ATOM      9  C   UNL A   1      30.889  23.444  24.519  1.00  0.00     0.196 C 
ATOM     10  H   UNL A   1      29.166  24.231  25.281  1.00  0.00     0.349 HD
ATOM     11  C   UNL A   1      31.718  22.643  26.640  1.00  0.00     0.083 C 
ATOM     12  C   UNL A   1      31.030  24.061  23.145  1.00  0.00     0.076 C 
BRANCH   7  13
ATOM     13  C   UNL A   1      29.818  25.609  25.677  1.00  0.00     0.284 C 
ATOM     14  N   UNL A   1      31.685  27.626  24.417  1.00  0.00    -0.275 N 
ATOM     15  C   UNL A   1      30.284  27.725  23.157  1.00  0.00     0.236 C 
ATOM     16  C   UNL A   1      31.481  26.571  25.796  1.00  0.00     0.288 C 
ATOM     17  O   UNL A   1      30.464  28.167  22.024  1.00  0.00    -0.274 OA
ATOM     18  C   UNL A   1      28.805  26.366  24.153  1.00  0.00     0.176 C 
ATOM     19  O   UNL A   1      32.350  26.286  26.612  1.00  0.00    -0.267 OA
BRANCH  14  20
ATOM     20  C   UNL A   1      33.034  28.279  24.428  1.00  0.00     0.087 C 
ATOM     21  C   UNL A   1      33.668  28.440  23.003  1.00  0.00     0.031 C 
ATOM     22  C   UNL A   1      32.963  29.708  24.970  1.00  0.00     0.031 C 
ENDBRANCH  14  20
ENDBRANCH   7  13
ENDBRANCH   4   6
ENDBRANCH   3   4
ENDBRANCH   2   3
ENDBRANCH   1   2
BRANCH   1  23
ATOM     23  O   UNL A   1      37.106  21.515  25.773  1.00  0.00    -0.458 OA
BRANCH  23  24
ATOM     24  C   UNL A   1      38.292  20.879  25.715  1.00  0.00     0.338 C 
ATOM     25  O   UNL A   1      38.453  19.715  25.363  1.00  0.00    -0.246 OA
BRANCH  24  26
ATOM     26  C   UNL A   1      39.461  21.807  25.864  1.00  0.00     0.060 A 
ATOM     27  C   UNL A   1      40.738  21.252  26.783  1.00  0.00     0.016 A 
ATOM     28  C   UNL A   1      38.892  23.375  25.890  1.00  0.00     0.016 A 
ATOM     29  C   UNL A   1      41.384  22.321  28.001  1.00  0.00     0.010 A 
ATOM     30  C   UNL A   1      39.387  24.551  26.875  1.00  0.00     0.010 A 
ATOM     31  C   UNL A   1      40.617  24.227  28.067  1.00  0.00    -0.014 A 
BRANCH  31  32
ATOM     32  C   UNL A   1      41.195  25.867  27.941  1.00  0.00     0.031 A 
ATOM     33  C   UNL A   1      40.534  26.933  28.773  1.00  0.00     0.074 A 
ATOM     34  C   UNL A   1      41.941  26.418  26.902  1.00  0.00     0.049 A 
ATOM     35  N   UNL A   1      40.958  28.141  29.042  1.00  0.00    -0.248 NA
ATOM     36  C   UNL A   1      39.173  26.647  29.235  1.00  0.00     0.031 C 
ATOM     37  C   UNL A   1      42.350  25.790  25.648  1.00  0.00     0.029 A 
ATOM     38  N   UNL A   1      42.740  27.570  26.863  1.00  0.00    -0.354 N 
ATOM     39  C   UNL A   1      39.905  28.782  29.678  1.00  0.00     0.074 A 
ATOM     40  C   UNL A   1      38.816  27.824  29.736  1.00  0.00     0.031 C 
ATOM     41  C   UNL A   1      43.549  26.247  25.259  1.00  0.00     0.029 A 
ATOM     42  C   UNL A   1      43.911  27.366  26.105  1.00  0.00     0.049 A 
ATOM     43  H   UNL A   1      42.510  28.417  27.310  1.00  0.00     0.167 HD
ATOM     44  C   UNL A   1      39.850  30.057  30.141  1.00  0.00     0.034 A 
ATOM     45  C   UNL A   1      45.137  27.952  26.166  1.00  0.00     0.034 A 
ATOM     46  C   UNL A   1      40.935  31.003  30.032  1.00  0.00     0.049 A 
ATOM     47  C   UNL A   1      45.229  29.226  26.978  1.00  0.00     0.074 A 
ATOM     48  C   UNL A   1      41.007  32.303  30.506  1.00  0.00     0.029 A 
ATOM     49  N   UNL A   1      42.142  30.754  29.395  1.00  0.00    -0.354 N 
ATOM     50  N   UNL A   1      44.331  29.753  27.775  1.00  0.00    -0.248 NA
ATOM     51  C   UNL A   1      46.464  30.014  26.856  1.00  0.00     0.031 C 
ATOM     52  C   UNL A   1      42.236  32.851  30.117  1.00  0.00     0.029 A 
ATOM     53  C   UNL A   1      42.959  31.873  29.458  1.00  0.00     0.049 A 
ATOM     54  H   UNL A   1      42.385  29.905  28.960  1.00  0.00     0.167 HD
ATOM     55  C   UNL A   1      44.887  30.948  28.223  1.00  0.00     0.074 A 
ATOM     56  C   UNL A   1      46.234  31.007  27.701  1.00  0.00     0.031 C 
ATOM     57  C   UNL A   1      44.305  31.936  28.946  1.00  0.00     0.034 A 
BRANCH  44  58
ATOM     58  C   UNL A   1      38.570  30.505  30.795  1.00  0.00     0.023 A 
ATOM     59  C   UNL A   1      37.557  31.133  30.052  1.00  0.00     0.031 A 
ATOM     60  C   UNL A   1      38.345  30.291  32.167  1.00  0.00     0.131 A 
ATOM     61  C   UNL A   1      36.388  31.570  30.689  1.00  0.00     0.055 A 
ATOM     62  C   UNL A   1      37.149  30.665  32.783  1.00  0.00     0.041 A 
ATOM     63  F   UNL A   1      39.284  29.714  32.933  1.00  0.00    -0.206 F 
ATOM     64  C   UNL A   1      36.165  31.317  32.045  1.00  0.00     0.022 A 
BRANCH  61  65
ATOM     65  S   UNL A   1      35.210  32.571  29.742  1.00  0.00     0.124 S 
ATOM     66  O   UNL A   1      36.076  33.624  29.217  1.00  0.00    -0.237 OA
ATOM     67  O   UNL A   1      34.700  31.616  28.766  1.00  0.00    -0.237 OA
ATOM     68  O   UNL A   1      34.247  33.010  30.749  1.00  0.00    -0.744 OA
ENDBRANCH  61  65
ENDBRANCH  44  58
BRANCH  45  69
ATOM     69  C   UNL A   1      46.402  27.399  25.527  1.00  0.00     0.023 A 
ATOM     70  C   UNL A   1      46.848  27.902  24.277  1.00  0.00     0.031 A 
ATOM     71  C   UNL A   1      47.129  26.316  26.049  1.00  0.00     0.131 A 
ATOM     72  C   UNL A   1      47.912  27.290  23.579  1.00  0.00     0.055 A 
ATOM     73  C   UNL A   1      48.252  25.778  25.401  1.00  0.00     0.041 A 
ATOM     74  F   UNL A   1      46.741  25.711  27.181  1.00  0.00    -0.206 F 
ATOM     75  C   UNL A   1      48.637  26.249  24.151  1.00  0.00     0.022 A 
BRANCH  72  76
ATOM     76  S   UNL A   1      48.215  27.730  21.835  1.00  0.00     0.124 S 
ATOM     77  O   UNL A   1      48.401  26.421  21.223  1.00  0.00    -0.237 OA
ATOM     78  O   UNL A   1      46.988  28.437  21.483  1.00  0.00    -0.237 OA
ATOM     79  O   UNL A   1      49.416  28.562  21.897  1.00  0.00    -0.744 OA
ENDBRANCH  72  76
ENDBRANCH  45  69
BRANCH  57  80
ATOM     80  C   UNL A   1      45.130  33.171  29.208  1.00  0.00     0.023 A 
ATOM     81  C   UNL A   1      45.019  34.313  28.394  1.00  0.00     0.031 A 
ATOM     82  C   UNL A   1      46.043  33.206  30.275  1.00  0.00     0.131 A 
ATOM     83  C   UNL A   1      45.855  35.417  28.615  1.00  0.00     0.055 A 
ATOM     84  C   UNL A   1      46.828  34.332  30.529  1.00  0.00     0.041 A 
ATOM     85  F   UNL A   1      46.189  32.146  31.086  1.00  0.00    -0.206 F 
ATOM     86  C   UNL A   1      46.748  35.439  29.688  1.00  0.00     0.022 A 
BRANCH  83  87
ATOM     87  S   UNL A   1      45.828  36.783  27.423  1.00  0.00     0.124 S 
ATOM     88  O   UNL A   1      46.858  36.382  26.472  1.00  0.00    -0.237 OA
ATOM     89  O   UNL A   1      44.454  36.739  26.930  1.00  0.00    -0.237 OA
ATOM     90  O   UNL A   1      46.155  37.954  28.236  1.00  0.00    -0.744 OA
ENDBRANCH  83  87
ENDBRANCH  57  80
ENDBRANCH  31  32
ENDBRANCH  24  26
ENDBRANCH  23  24
ENDBRANCH   1  23
TORSDOF 16
ENDMDL
MODEL 3
REMARK VINA RESULT:     -12.4      1.142      1.738
REMARK SMILES CC(C)N1C(=O)C[C@@H]([N@@H+]2CC[C@H](C(=O)OCCOC(=O)c3ccc(-c4c5nc(c(-c6cc(S(=O)(=O)[O-])ccc6F)c6ccc([nH]6)c(-c6cc(S(=O)(=O)[O-])ccc6F)c6nc(c(-c7cc(S(=O)(=O)[O-])ccc7F)c7ccc4[nH]7)C=C6)C=C5)cc3)[C@@H]2C)C1=O
REMARK SMILES IDX 17 1 16 2 15 3 13 4 14 5 12 6 9 7 10 8 84 9 11 11 85 12 8 13
REMARK SMILES IDX 4 14 5 15 86 16 6 17 7 18 87 19 2 20 1 21 3 22 18 23 19 24
REMARK SMILES IDX 20 25 21 26 22 27 83 28 23 29 82 30 24 31 25 32 26 33 76 34
REMARK SMILES IDX 27 35 81 36 75 37 77 38 28 39 80 40 74 41 73 42 29 44 61 45
REMARK SMILES IDX 41 46 60 47 42 48 45 49 59 50 78 51 43 52 44 53 58 55 79 56
REMARK SMILES IDX 46 57 30 58 31 59 39 60 32 61 38 62 40 63 37 64 33 65 34 66
REMARK SMILES IDX 35 67 36 68 62 69 63 70 71 71 64 72 70 73 72 74 69 75 65 76
REMARK SMILES IDX 66 77 67 78 68 79 47 80 48 81 56 82 49 83 55 84 57 85 54 86
REMARK SMILES IDX 50 87 51 88 52 89 53 90
REMARK H PARENT 9 10 77 43 45 54
REMARK Flexibility Score: inf
ROOT
ATOM      1  C   UNL A   1      31.931  29.703  24.950  1.00  0.00     0.275 C 
ENDROOT
BRANCH   1   2
ATOM      2  C   UNL A   1      31.278  28.371  25.307  1.00  0.00     0.274 C 
BRANCH   2   3
ATOM      3  O   UNL A   1      31.201  27.491  24.153  1.00  0.00    -0.462 OA
BRANCH   3   4
ATOM      4  C   UNL A   1      30.842  26.206  24.426  1.00  0.00     0.315 C 
ATOM      5  O   UNL A   1      29.930  25.634  23.834  1.00  0.00    -0.252 OA
BRANCH   4   6
ATOM      6  C   UNL A   1      31.508  25.627  25.676  1.00  0.00     0.162 C 
ATOM      7  N   UNL A   1      33.145  23.813  25.698  1.00  0.00    -0.321 N 
ATOM      8  C   UNL A   1      31.945  23.296  26.365  1.00  0.00     0.264 C 
ATOM      9  C   UNL A   1      33.013  25.275  25.759  1.00  0.00     0.196 C 
ATOM     10  H   UNL A   1      34.035  23.545  26.120  1.00  0.00     0.349 HD
ATOM     11  C   UNL A   1      30.826  24.310  26.095  1.00  0.00     0.083 C 
ATOM     12  C   UNL A   1      34.011  26.188  25.082  1.00  0.00     0.076 C 
BRANCH   7  13
ATOM     13  C   UNL A   1      33.916  23.014  24.642  1.00  0.00     0.284 C 
ATOM     14  N   UNL A   1      33.609  20.011  24.494  1.00  0.00    -0.275 N 
ATOM     15  C   UNL A   1      32.601  20.466  22.965  1.00  0.00     0.236 C 
ATOM     16  C   UNL A   1      34.372  21.302  25.391  1.00  0.00     0.288 C 
ATOM     17  O   UNL A   1      31.781  19.689  22.476  1.00  0.00    -0.274 OA
ATOM     18  C   UNL A   1      32.949  22.680  22.946  1.00  0.00     0.176 C 
ATOM     19  O   UNL A   1      34.928  21.185  26.478  1.00  0.00    -0.267 OA
BRANCH  14  20
ATOM     20  C   UNL A   1      33.846  18.682  25.145  1.00  0.00     0.087 C 
ATOM     21  C   UNL A   1      32.531  17.876  25.428  1.00  0.00     0.031 C 
ATOM     22  C   UNL A   1      34.669  17.754  24.249  1.00  0.00     0.031 C 
ENDBRANCH  14  20
ENDBRANCH   7  13
ENDBRANCH   4   6
ENDBRANCH   3   4
ENDBRANCH   2   3
ENDBRANCH   1   2
BRANCH   1  23
ATOM     23  O   UNL A   1      32.970  29.983  25.910  1.00  0.00    -0.458 OA
BRANCH  23  24
ATOM     24  C   UNL A   1      32.724  31.055  26.688  1.00  0.00     0.338 C 
ATOM     25  O   UNL A   1      31.703  31.733  26.652  1.00  0.00    -0.246 OA
BRANCH  24  26
ATOM     26  C   UNL A   1      33.707  31.201  27.810  1.00  0.00     0.060 A 
ATOM     27  C   UNL A   1      34.402  32.706  28.000  1.00  0.00     0.016 A 
ATOM     28  C   UNL A   1      34.525  29.757  27.990  1.00  0.00     0.016 A 
ATOM     29  C   UNL A   1      36.134  32.781  28.190  1.00  0.00     0.010 A 
ATOM     30  C   UNL A   1      36.107  29.584  28.245  1.00  0.00     0.010 A 
ATOM     31  C   UNL A   1      37.133  30.990  28.334  1.00  0.00    -0.014 A 
BRANCH  31  32
ATOM     32  C   UNL A   1      38.184  30.173  29.459  1.00  0.00     0.031 A 
ATOM     33  C   UNL A   1      39.261  29.271  28.920  1.00  0.00     0.074 A 
ATOM     34  C   UNL A   1      37.944  29.934  30.810  1.00  0.00     0.049 A 
ATOM     35  N   UNL A   1      40.305  28.783  29.539  1.00  0.00    -0.248 NA
ATOM     36  C   UNL A   1      39.053  28.747  27.567  1.00  0.00     0.031 C 
ATOM     37  C   UNL A   1      36.743  30.234  31.586  1.00  0.00     0.029 A 
ATOM     38  N   UNL A   1      38.829  29.627  31.854  1.00  0.00    -0.354 N 
ATOM     39  C   UNL A   1      40.870  27.865  28.666  1.00  0.00     0.074 A 
ATOM     40  C   UNL A   1      40.034  27.856  27.480  1.00  0.00     0.031 C 
ATOM     41  C   UNL A   1      37.061  30.557  32.847  1.00  0.00     0.029 A 
ATOM     42  C   UNL A   1      38.468  30.277  33.052  1.00  0.00     0.049 A 
ATOM     43  H   UNL A   1      39.607  29.031  31.761  1.00  0.00     0.167 HD
ATOM     44  C   UNL A   1      41.965  27.086  28.856  1.00  0.00     0.034 A 
ATOM     45  C   UNL A   1      39.209  30.670  34.122  1.00  0.00     0.034 A 
ATOM     46  C   UNL A   1      42.756  27.083  30.065  1.00  0.00     0.049 A 
ATOM     47  C   UNL A   1      40.607  30.098  34.214  1.00  0.00     0.074 A 
ATOM     48  C   UNL A   1      43.910  26.372  30.348  1.00  0.00     0.029 A 
ATOM     49  N   UNL A   1      42.468  27.827  31.200  1.00  0.00    -0.354 N 
ATOM     50  N   UNL A   1      41.269  29.410  33.315  1.00  0.00    -0.248 NA
ATOM     51  C   UNL A   1      41.334  30.298  35.476  1.00  0.00     0.031 C 
ATOM     52  C   UNL A   1      44.293  26.651  31.667  1.00  0.00     0.029 A 
ATOM     53  C   UNL A   1      43.415  27.587  32.184  1.00  0.00     0.049 A 
ATOM     54  H   UNL A   1      41.701  28.437  31.294  1.00  0.00     0.167 HD
ATOM     55  C   UNL A   1      42.476  29.072  33.919  1.00  0.00     0.074 A 
ATOM     56  C   UNL A   1      42.498  29.727  35.208  1.00  0.00     0.031 C 
ATOM     57  C   UNL A   1      43.447  28.240  33.469  1.00  0.00     0.034 A 
BRANCH  44  58
ATOM     58  C   UNL A   1      42.366  26.162  27.736  1.00  0.00     0.023 A 
ATOM     59  C   UNL A   1      41.805  24.880  27.618  1.00  0.00     0.031 A 
ATOM     60  C   UNL A   1      43.299  26.566  26.765  1.00  0.00     0.131 A 
ATOM     61  C   UNL A   1      42.216  24.027  26.586  1.00  0.00     0.055 A 
ATOM     62  C   UNL A   1      43.653  25.738  25.697  1.00  0.00     0.041 A 
ATOM     63  F   UNL A   1      43.883  27.772  26.835  1.00  0.00    -0.206 F 
ATOM     64  C   UNL A   1      43.118  24.456  25.608  1.00  0.00     0.022 A 
BRANCH  61  65
ATOM     65  S   UNL A   1      41.638  22.309  26.602  1.00  0.00     0.124 S 
ATOM     66  O   UNL A   1      42.183  21.828  27.870  1.00  0.00    -0.237 OA
ATOM     67  O   UNL A   1      40.190  22.464  26.546  1.00  0.00    -0.237 OA
ATOM     68  O   UNL A   1      42.252  21.730  25.409  1.00  0.00    -0.744 OA
ENDBRANCH  61  65
ENDBRANCH  44  58
BRANCH  45  69
ATOM     69  C   UNL A   1      38.754  31.662  35.182  1.00  0.00     0.023 A 
ATOM     70  C   UNL A   1      38.359  31.204  36.466  1.00  0.00     0.031 A 
ATOM     71  C   UNL A   1      38.588  33.037  34.943  1.00  0.00     0.131 A 
ATOM     72  C   UNL A   1      37.768  32.075  37.405  1.00  0.00     0.055 A 
ATOM     73  C   UNL A   1      38.097  33.919  35.917  1.00  0.00     0.041 A 
ATOM     74  F   UNL A   1      38.849  33.560  33.736  1.00  0.00    -0.206 F 
ATOM     75  C   UNL A   1      37.664  33.439  37.148  1.00  0.00     0.022 A 
BRANCH  72  76
ATOM     76  S   UNL A   1      36.952  31.386  38.884  1.00  0.00     0.124 S 
ATOM     77  O   UNL A   1      37.989  31.537  39.897  1.00  0.00    -0.237 OA
ATOM     78  O   UNL A   1      35.788  32.254  39.020  1.00  0.00    -0.237 OA
ATOM     79  O   UNL A   1      36.658  30.007  38.499  1.00  0.00    -0.744 OA
ENDBRANCH  72  76
ENDBRANCH  45  69
BRANCH  57  80
ATOM     80  C   UNL A   1      44.615  27.989  34.389  1.00  0.00     0.023 A 
ATOM     81  C   UNL A   1      44.567  26.991  35.379  1.00  0.00     0.031 A 
ATOM     82  C   UNL A   1      45.785  28.758  34.283  1.00  0.00     0.131 A 
ATOM     83  C   UNL A   1      45.638  26.833  36.270  1.00  0.00     0.055 A 
ATOM     84  C   UNL A   1      46.875  28.554  35.132  1.00  0.00     0.041 A 
ATOM     85  F   UNL A   1      45.889  29.723  33.355  1.00  0.00    -0.206 F 
ATOM     86  C   UNL A   1      46.799  27.598  36.142  1.00  0.00     0.022 A 
BRANCH  83  87
ATOM     87  S   UNL A   1      45.454  25.679  37.658  1.00  0.00     0.124 S 
ATOM     88  O   UNL A   1      44.502  26.378  38.513  1.00  0.00    -0.237 OA
ATOM     89  O   UNL A   1      44.955  24.476  36.999  1.00  0.00    -0.237 OA
ATOM     90  O   UNL A   1      46.809  25.572  38.196  1.00  0.00    -0.744 OA
ENDBRANCH  83  87
ENDBRANCH  57  80
ENDBRANCH  31  32
ENDBRANCH  24  26
ENDBRANCH  23  24
ENDBRANCH   1  23
TORSDOF 16
ENDMDL
