MODEL 1
REMARK VINA RESULT:     -12.8      0.000      0.000
REMARK SMILES COc1cc(OC)cc(-c2cc3nc(C)c(CCC(=O)OCCOC(=O)c4ccc(-c5c6nc(c(-c7cc(S(=O)(=O)[O-])ccc7F)c7ccc([nH]7)c(-c7cc(S(=O)(=O)[O-])ccc7F)c7nc(c(-c8cc(S(=O)(=O)[O-])ccc8F)c8ccc5[nH]8)C=C7)C=C6)cc4)c(C)n3n2)c1
REMARK SMILES IDX 22 1 21 2 19 3 20 4 18 5 17 6 16 7 10 8 11 9 93 10 12 11
REMARK SMILES IDX 92 12 13 13 90 14 14 15 91 16 15 17 9 18 3 19 4 20 94 21
REMARK SMILES IDX 5 22 8 23 2 24 1 25 6 26 7 27 23 28 24 29 25 30 26 31 27 32
REMARK SMILES IDX 28 33 89 34 29 35 88 36 30 37 31 38 32 39 82 40 33 41 87 42
REMARK SMILES IDX 81 43 83 44 34 45 86 46 80 47 79 48 35 50 67 51 47 52 66 53
REMARK SMILES IDX 48 54 51 55 65 56 84 57 49 58 50 59 64 61 85 62 52 63 36 64
REMARK SMILES IDX 37 65 45 66 38 67 44 68 46 69 43 70 39 71 40 72 41 73 42 74
REMARK SMILES IDX 68 75 69 76 77 77 70 78 76 79 78 80 75 81 71 82 72 83 73 84
REMARK SMILES IDX 74 85 53 86 54 87 62 88 55 89 61 90 63 91 60 92 56 93 57 94
REMARK SMILES IDX 58 95 59 96
REMARK H PARENT 83 49 51 60
REMARK Flexibility Score: inf
ROOT
ATOM      1  C   UNL A   1      33.358  30.202  27.420  1.00  0.00     0.274 C 
ENDROOT
BRANCH   1   2
ATOM      2  O   UNL A   1      32.659  30.425  26.177  1.00  0.00    -0.462 OA
BRANCH   2   3
ATOM      3  C   UNL A   1      32.168  29.331  25.541  1.00  0.00     0.306 C 
ATOM      4  O   UNL A   1      31.444  28.494  26.074  1.00  0.00    -0.252 OA
BRANCH   3   5
ATOM      5  C   UNL A   1      32.637  29.198  24.094  1.00  0.00     0.127 C 
BRANCH   5   6
ATOM      6  C   UNL A   1      31.664  28.713  22.997  1.00  0.00     0.051 C 
BRANCH   6   7
ATOM      7  C   UNL A   1      31.383  27.234  23.047  1.00  0.00    -0.005 A 
ATOM      8  C   UNL A   1      32.349  22.963  23.843  1.00  0.00     0.095 A 
ATOM      9  C   UNL A   1      31.034  23.307  24.216  1.00  0.00     0.080 A 
ATOM     10  N   UNL A   1      32.939  23.945  23.162  1.00  0.00    -0.166 NA
ATOM     11  C   UNL A   1      30.869  24.611  23.807  1.00  0.00     0.156 A 
ATOM     12  N   UNL A   1      32.047  24.964  23.154  1.00  0.00    -0.219 N 
ATOM     13  N   UNL A   1      29.819  25.473  23.906  1.00  0.00    -0.234 NA
ATOM     14  C   UNL A   1      32.265  26.269  22.697  1.00  0.00     0.046 A 
ATOM     15  C   UNL A   1      30.042  26.701  23.523  1.00  0.00     0.045 A 
ATOM     16  C   UNL A   1      33.554  26.474  21.952  1.00  0.00     0.067 C 
ATOM     17  C   UNL A   1      28.807  27.577  23.420  1.00  0.00     0.067 C 
BRANCH   8  18
ATOM     18  C   UNL A   1      33.065  21.722  24.056  1.00  0.00     0.009 A 
ATOM     19  C   UNL A   1      33.072  19.320  24.329  1.00  0.00     0.123 A 
ATOM     20  C   UNL A   1      34.415  19.391  24.717  1.00  0.00     0.092 A 
ATOM     21  C   UNL A   1      32.390  20.493  24.010  1.00  0.00     0.057 A 
ATOM     22  C   UNL A   1      35.085  20.615  24.775  1.00  0.00     0.123 A 
ATOM     23  C   UNL A   1      34.411  21.780  24.426  1.00  0.00     0.057 A 
BRANCH  19  24
ATOM     24  O   UNL A   1      32.528  18.065  24.362  1.00  0.00    -0.497 OA
ATOM     25  C   UNL A   1      32.519  17.420  25.630  1.00  0.00     0.278 C 
ENDBRANCH  19  24
BRANCH  22  26
ATOM     26  O   UNL A   1      36.389  20.554  25.189  1.00  0.00    -0.497 OA
ATOM     27  C   UNL A   1      36.957  21.788  25.620  1.00  0.00     0.278 C 
ENDBRANCH  22  26
ENDBRANCH   8  18
ENDBRANCH   6   7
ENDBRANCH   5   6
ENDBRANCH   3   5
ENDBRANCH   2   3
ENDBRANCH   1   2
BRANCH   1  28
ATOM     28  C   UNL A   1      34.872  30.346  27.255  1.00  0.00     0.275 C 
BRANCH  28  29
ATOM     29  O   UNL A   1      35.633  29.279  27.839  1.00  0.00    -0.458 OA
BRANCH  29  30
ATOM     30  C   UNL A   1      36.279  29.619  28.975  1.00  0.00     0.338 C 
ATOM     31  O   UNL A   1      35.868  30.335  29.867  1.00  0.00    -0.246 OA
BRANCH  30  32
ATOM     32  C   UNL A   1      37.671  29.190  28.985  1.00  0.00     0.060 A 
ATOM     33  C   UNL A   1      38.434  29.525  27.855  1.00  0.00     0.016 A 
ATOM     34  C   UNL A   1      38.144  28.333  29.979  1.00  0.00     0.016 A 
ATOM     35  C   UNL A   1      39.672  28.953  27.692  1.00  0.00     0.010 A 
ATOM     36  C   UNL A   1      39.379  27.752  29.810  1.00  0.00     0.010 A 
ATOM     37  C   UNL A   1      40.119  28.058  28.664  1.00  0.00    -0.014 A 
BRANCH  37  38
ATOM     38  C   UNL A   1      41.506  27.650  28.608  1.00  0.00     0.031 A 
ATOM     39  C   UNL A   1      41.681  26.363  27.884  1.00  0.00     0.074 A 
ATOM     40  C   UNL A   1      42.505  28.461  28.989  1.00  0.00     0.049 A 
ATOM     41  N   UNL A   1      42.117  25.245  28.357  1.00  0.00    -0.248 NA
ATOM     42  C   UNL A   1      41.104  26.248  26.531  1.00  0.00     0.031 C 
ATOM     43  C   UNL A   1      42.407  29.846  29.452  1.00  0.00     0.029 A 
ATOM     44  N   UNL A   1      43.843  28.263  28.888  1.00  0.00    -0.354 N 
ATOM     45  C   UNL A   1      42.091  24.354  27.290  1.00  0.00     0.074 A 
ATOM     46  C   UNL A   1      41.242  24.943  26.294  1.00  0.00     0.031 C 
ATOM     47  C   UNL A   1      43.620  30.430  29.332  1.00  0.00     0.029 A 
ATOM     48  C   UNL A   1      44.584  29.439  28.878  1.00  0.00     0.049 A 
ATOM     49  H   UNL A   1      44.251  27.369  28.827  1.00  0.00     0.167 HD
ATOM     50  C   UNL A   1      42.984  23.332  27.199  1.00  0.00     0.034 A 
ATOM     51  C   UNL A   1      45.853  29.589  28.411  1.00  0.00     0.034 A 
ATOM     52  C   UNL A   1      43.639  23.105  28.467  1.00  0.00     0.049 A 
ATOM     53  C   UNL A   1      46.468  28.231  28.400  1.00  0.00     0.074 A 
ATOM     54  C   UNL A   1      43.190  22.788  29.734  1.00  0.00     0.029 A 
ATOM     55  N   UNL A   1      44.911  23.609  28.633  1.00  0.00    -0.354 N 
ATOM     56  N   UNL A   1      46.687  27.539  29.487  1.00  0.00    -0.248 NA
ATOM     57  C   UNL A   1      46.360  27.431  27.185  1.00  0.00     0.031 C 
ATOM     58  C   UNL A   1      43.989  23.578  30.610  1.00  0.00     0.029 A 
ATOM     59  C   UNL A   1      44.941  24.256  29.845  1.00  0.00     0.049 A 
ATOM     60  H   UNL A   1      45.660  23.521  28.000  1.00  0.00     0.167 HD
ATOM     61  C   UNL A   1      46.290  26.244  29.180  1.00  0.00     0.074 A 
ATOM     62  C   UNL A   1      46.204  26.215  27.720  1.00  0.00     0.031 C 
ATOM     63  C   UNL A   1      45.773  25.412  30.135  1.00  0.00     0.034 A 
BRANCH  50  64
ATOM     64  C   UNL A   1      43.529  22.786  25.902  1.00  0.00     0.023 A 
ATOM     65  C   UNL A   1      43.645  21.389  25.790  1.00  0.00     0.031 A 
ATOM     66  C   UNL A   1      44.192  23.540  24.905  1.00  0.00     0.131 A 
ATOM     67  C   UNL A   1      44.453  20.810  24.799  1.00  0.00     0.055 A 
ATOM     68  C   UNL A   1      44.932  22.956  23.875  1.00  0.00     0.041 A 
ATOM     69  F   UNL A   1      44.253  24.876  24.924  1.00  0.00    -0.206 F 
ATOM     70  C   UNL A   1      45.093  21.584  23.835  1.00  0.00     0.022 A 
BRANCH  67  71
ATOM     71  S   UNL A   1      44.800  19.037  24.905  1.00  0.00     0.124 S 
ATOM     72  O   UNL A   1      44.978  18.686  23.501  1.00  0.00    -0.237 OA
ATOM     73  O   UNL A   1      46.001  19.016  25.733  1.00  0.00    -0.237 OA
ATOM     74  O   UNL A   1      43.598  18.496  25.536  1.00  0.00    -0.744 OA
ENDBRANCH  67  71
ENDBRANCH  50  64
BRANCH  51  75
ATOM     75  C   UNL A   1      46.397  30.770  27.674  1.00  0.00     0.023 A 
ATOM     76  C   UNL A   1      45.595  31.610  26.872  1.00  0.00     0.031 A 
ATOM     77  C   UNL A   1      47.717  31.219  27.924  1.00  0.00     0.131 A 
ATOM     78  C   UNL A   1      46.123  32.820  26.353  1.00  0.00     0.055 A 
ATOM     79  C   UNL A   1      48.235  32.404  27.398  1.00  0.00     0.041 A 
ATOM     80  F   UNL A   1      48.532  30.566  28.766  1.00  0.00    -0.206 F 
ATOM     81  C   UNL A   1      47.435  33.216  26.616  1.00  0.00     0.022 A 
BRANCH  78  82
ATOM     82  S   UNL A   1      45.066  33.964  25.405  1.00  0.00     0.124 S 
ATOM     83  O   UNL A   1      44.405  33.067  24.465  1.00  0.00    -0.237 OA
ATOM     84  O   UNL A   1      44.228  34.553  26.442  1.00  0.00    -0.237 OA
ATOM     85  O   UNL A   1      46.025  34.890  24.799  1.00  0.00    -0.744 OA
ENDBRANCH  78  82
ENDBRANCH  51  75
BRANCH  63  86
ATOM     86  C   UNL A   1      45.871  25.831  31.592  1.00  0.00     0.023 A 
ATOM     87  C   UNL A   1      44.774  26.223  32.394  1.00  0.00     0.031 A 
ATOM     88  C   UNL A   1      47.118  25.690  32.225  1.00  0.00     0.131 A 
ATOM     89  C   UNL A   1      44.955  26.473  33.769  1.00  0.00     0.055 A 
ATOM     90  C   UNL A   1      47.289  25.911  33.592  1.00  0.00     0.041 A 
ATOM     91  F   UNL A   1      48.194  25.289  31.529  1.00  0.00    -0.206 F 
ATOM     92  C   UNL A   1      46.208  26.312  34.369  1.00  0.00     0.022 A 
BRANCH  89  93
ATOM     93  S   UNL A   1      43.562  27.030  34.806  1.00  0.00     0.124 S 
ATOM     94  O   UNL A   1      42.860  25.794  35.127  1.00  0.00    -0.237 OA
ATOM     95  O   UNL A   1      44.240  27.690  35.919  1.00  0.00    -0.237 OA
ATOM     96  O   UNL A   1      42.826  27.937  33.922  1.00  0.00    -0.744 OA
ENDBRANCH  89  93
ENDBRANCH  63  86
ENDBRANCH  37  38
ENDBRANCH  30  32
ENDBRANCH  29  30
ENDBRANCH  28  29
ENDBRANCH   1  28
TORSDOF 19
ENDMDL
MODEL 2
REMARK VINA RESULT:     -12.4      2.269      6.833
REMARK SMILES COc1cc(OC)cc(-c2cc3nc(C)c(CCC(=O)OCCOC(=O)c4ccc(-c5c6nc(c(-c7cc(S(=O)(=O)[O-])ccc7F)c7ccc([nH]7)c(-c7cc(S(=O)(=O)[O-])ccc7F)c7nc(c(-c8cc(S(=O)(=O)[O-])ccc8F)c8ccc5[nH]8)C=C7)C=C6)cc4)c(C)n3n2)c1
REMARK SMILES IDX 22 1 21 2 19 3 20 4 18 5 17 6 16 7 10 8 11 9 93 10 12 11
REMARK SMILES IDX 92 12 13 13 90 14 14 15 91 16 15 17 9 18 3 19 4 20 94 21
REMARK SMILES IDX 5 22 8 23 2 24 1 25 6 26 7 27 23 28 24 29 25 30 26 31 27 32
REMARK SMILES IDX 28 33 89 34 29 35 88 36 30 37 31 38 32 39 82 40 33 41 87 42
REMARK SMILES IDX 81 43 83 44 34 45 86 46 80 47 79 48 35 50 67 51 47 52 66 53
REMARK SMILES IDX 48 54 51 55 65 56 84 57 49 58 50 59 64 61 85 62 52 63 36 64
REMARK SMILES IDX 37 65 45 66 38 67 44 68 46 69 43 70 39 71 40 72 41 73 42 74
REMARK SMILES IDX 68 75 69 76 77 77 70 78 76 79 78 80 75 81 71 82 72 83 73 84
REMARK SMILES IDX 74 85 53 86 54 87 62 88 55 89 61 90 63 91 60 92 56 93 57 94
REMARK SMILES IDX 58 95 59 96
REMARK H PARENT 83 49 51 60
REMARK Flexibility Score: inf
ROOT
ATOM      1  C   UNL A   1      32.294  30.793  26.879  1.00  0.00     0.274 C 
ENDROOT
BRANCH   1   2
ATOM      2  O   UNL A   1      31.568  30.412  25.691  1.00  0.00    -0.462 OA
BRANCH   2   3
ATOM      3  C   UNL A   1      31.728  29.138  25.252  1.00  0.00     0.306 C 
ATOM      4  O   UNL A   1      31.521  28.143  25.942  1.00  0.00    -0.252 OA
BRANCH   3   5
ATOM      5  C   UNL A   1      32.244  29.041  23.818  1.00  0.00     0.127 C 
BRANCH   5   6
ATOM      6  C   UNL A   1      31.392  28.358  22.724  1.00  0.00     0.051 C 
BRANCH   6   7
ATOM      7  C   UNL A   1      31.142  26.895  22.977  1.00  0.00    -0.005 A 
ATOM      8  C   UNL A   1      32.260  22.746  24.134  1.00  0.00     0.095 A 
ATOM      9  C   UNL A   1      30.993  23.128  24.620  1.00  0.00     0.080 A 
ATOM     10  N   UNL A   1      32.750  23.643  23.279  1.00  0.00    -0.166 NA
ATOM     11  C   UNL A   1      30.762  24.376  24.088  1.00  0.00     0.156 A 
ATOM     12  N   UNL A   1      31.848  24.653  23.262  1.00  0.00    -0.219 N 
ATOM     13  N   UNL A   1      29.718  25.243  24.214  1.00  0.00    -0.234 NA
ATOM     14  C   UNL A   1      31.990  25.897  22.635  1.00  0.00     0.046 A 
ATOM     15  C   UNL A   1      29.875  26.419  23.669  1.00  0.00     0.045 A 
ATOM     16  C   UNL A   1      33.178  26.017  21.723  1.00  0.00     0.067 C 
ATOM     17  C   UNL A   1      28.624  27.275  23.616  1.00  0.00     0.067 C 
BRANCH   8  18
ATOM     18  C   UNL A   1      33.015  21.538  24.399  1.00  0.00     0.009 A 
ATOM     19  C   UNL A   1      35.114  20.428  24.855  1.00  0.00     0.123 A 
ATOM     20  C   UNL A   1      34.480  19.197  24.651  1.00  0.00     0.092 A 
ATOM     21  C   UNL A   1      34.380  21.605  24.714  1.00  0.00     0.057 A 
ATOM     22  C   UNL A   1      33.124  19.128  24.325  1.00  0.00     0.123 A 
ATOM     23  C   UNL A   1      32.387  20.302  24.217  1.00  0.00     0.057 A 
BRANCH  19  24
ATOM     24  O   UNL A   1      36.454  20.351  25.121  1.00  0.00    -0.497 OA
ATOM     25  C   UNL A   1      37.250  21.429  24.642  1.00  0.00     0.278 C 
ENDBRANCH  19  24
BRANCH  22  26
ATOM     26  O   UNL A   1      32.627  17.867  24.132  1.00  0.00    -0.497 OA
ATOM     27  C   UNL A   1      33.499  16.956  23.467  1.00  0.00     0.278 C 
ENDBRANCH  22  26
ENDBRANCH   8  18
ENDBRANCH   6   7
ENDBRANCH   5   6
ENDBRANCH   3   5
ENDBRANCH   2   3
ENDBRANCH   1   2
BRANCH   1  28
ATOM     28  C   UNL A   1      33.783  30.459  26.768  1.00  0.00     0.275 C 
BRANCH  28  29
ATOM     29  O   UNL A   1      34.496  30.522  28.011  1.00  0.00    -0.458 OA
BRANCH  29  30
ATOM     30  C   UNL A   1      35.428  31.499  28.064  1.00  0.00     0.338 C 
ATOM     31  O   UNL A   1      35.278  32.672  27.786  1.00  0.00    -0.246 OA
BRANCH  30  32
ATOM     32  C   UNL A   1      36.769  30.989  28.321  1.00  0.00     0.060 A 
ATOM     33  C   UNL A   1      36.962  29.614  28.109  1.00  0.00     0.016 A 
ATOM     34  C   UNL A   1      37.733  31.795  28.925  1.00  0.00     0.016 A 
ATOM     35  C   UNL A   1      38.122  29.028  28.554  1.00  0.00     0.010 A 
ATOM     36  C   UNL A   1      38.889  31.205  29.380  1.00  0.00     0.010 A 
ATOM     37  C   UNL A   1      39.061  29.830  29.203  1.00  0.00    -0.014 A 
BRANCH  37  38
ATOM     38  C   UNL A   1      40.367  29.259  29.451  1.00  0.00     0.031 A 
ATOM     39  C   UNL A   1      40.636  29.089  30.903  1.00  0.00     0.074 A 
ATOM     40  C   UNL A   1      41.130  28.763  28.464  1.00  0.00     0.049 A 
ATOM     41  N   UNL A   1      41.546  29.669  31.610  1.00  0.00    -0.248 NA
ATOM     42  C   UNL A   1      39.642  28.352  31.708  1.00  0.00     0.031 C 
ATOM     43  C   UNL A   1      40.796  28.653  27.043  1.00  0.00     0.029 A 
ATOM     44  N   UNL A   1      42.310  28.102  28.556  1.00  0.00    -0.354 N 
ATOM     45  C   UNL A   1      41.383  29.178  32.901  1.00  0.00     0.074 A 
ATOM     46  C   UNL A   1      40.075  28.590  32.946  1.00  0.00     0.031 C 
ATOM     47  C   UNL A   1      41.617  27.744  26.473  1.00  0.00     0.029 A 
ATOM     48  C   UNL A   1      42.583  27.288  27.463  1.00  0.00     0.049 A 
ATOM     49  H   UNL A   1      42.917  28.191  29.325  1.00  0.00     0.167 HD
ATOM     50  C   UNL A   1      42.438  29.054  33.750  1.00  0.00     0.034 A 
ATOM     51  C   UNL A   1      43.453  26.242  27.433  1.00  0.00     0.034 A 
ATOM     52  C   UNL A   1      43.572  29.815  33.278  1.00  0.00     0.049 A 
ATOM     53  C   UNL A   1      44.404  26.444  28.563  1.00  0.00     0.074 A 
ATOM     54  C   UNL A   1      43.778  31.150  32.991  1.00  0.00     0.029 A 
ATOM     55  N   UNL A   1      44.582  29.132  32.635  1.00  0.00    -0.354 N 
ATOM     56  N   UNL A   1      45.234  27.451  28.626  1.00  0.00    -0.248 NA
ATOM     57  C   UNL A   1      44.082  25.843  29.853  1.00  0.00     0.031 C 
ATOM     58  C   UNL A   1      44.568  31.149  31.805  1.00  0.00     0.029 A 
ATOM     59  C   UNL A   1      44.882  29.826  31.487  1.00  0.00     0.049 A 
ATOM     60  H   UNL A   1      45.011  28.300  32.943  1.00  0.00     0.167 HD
ATOM     61  C   UNL A   1      45.172  27.892  29.941  1.00  0.00     0.074 A 
ATOM     62  C   UNL A   1      44.535  26.798  30.673  1.00  0.00     0.031 C 
ATOM     63  C   UNL A   1      45.357  29.210  30.260  1.00  0.00     0.034 A 
BRANCH  50  64
ATOM     64  C   UNL A   1      42.573  27.973  34.795  1.00  0.00     0.023 A 
ATOM     65  C   UNL A   1      43.354  26.852  34.464  1.00  0.00     0.031 A 
ATOM     66  C   UNL A   1      41.772  27.844  35.954  1.00  0.00     0.131 A 
ATOM     67  C   UNL A   1      43.253  25.660  35.199  1.00  0.00     0.055 A 
ATOM     68  C   UNL A   1      41.733  26.682  36.727  1.00  0.00     0.041 A 
ATOM     69  F   UNL A   1      40.906  28.785  36.349  1.00  0.00    -0.206 F 
ATOM     70  C   UNL A   1      42.451  25.569  36.334  1.00  0.00     0.022 A 
BRANCH  67  71
ATOM     71  S   UNL A   1      44.047  24.175  34.536  1.00  0.00     0.124 S 
ATOM     72  O   UNL A   1      43.910  24.384  33.099  1.00  0.00    -0.237 OA
ATOM     73  O   UNL A   1      45.396  24.288  35.080  1.00  0.00    -0.237 OA
ATOM     74  O   UNL A   1      43.241  23.088  35.088  1.00  0.00    -0.744 OA
ENDBRANCH  67  71
ENDBRANCH  50  64
BRANCH  51  75
ATOM     75  C   UNL A   1      43.268  24.951  26.702  1.00  0.00     0.023 A 
ATOM     76  C   UNL A   1      44.239  24.420  25.827  1.00  0.00     0.031 A 
ATOM     77  C   UNL A   1      42.186  24.097  27.027  1.00  0.00     0.131 A 
ATOM     78  C   UNL A   1      44.096  23.106  25.312  1.00  0.00     0.055 A 
ATOM     79  C   UNL A   1      42.043  22.810  26.506  1.00  0.00     0.041 A 
ATOM     80  F   UNL A   1      41.266  24.447  27.938  1.00  0.00    -0.206 F 
ATOM     81  C   UNL A   1      43.005  22.304  25.650  1.00  0.00     0.022 A 
BRANCH  78  82
ATOM     82  S   UNL A   1      45.395  22.371  24.266  1.00  0.00     0.124 S 
ATOM     83  O   UNL A   1      44.616  21.655  23.263  1.00  0.00    -0.237 OA
ATOM     84  O   UNL A   1      46.130  23.542  23.804  1.00  0.00    -0.237 OA
ATOM     85  O   UNL A   1      46.137  21.515  25.194  1.00  0.00    -0.744 OA
ENDBRANCH  78  82
ENDBRANCH  51  75
BRANCH  63  86
ATOM     86  C   UNL A   1      45.881  30.150  29.187  1.00  0.00     0.023 A 
ATOM     87  C   UNL A   1      45.071  30.960  28.358  1.00  0.00     0.031 A 
ATOM     88  C   UNL A   1      47.274  30.326  29.104  1.00  0.00     0.131 A 
ATOM     89  C   UNL A   1      45.664  31.889  27.479  1.00  0.00     0.055 A 
ATOM     90  C   UNL A   1      47.855  31.266  28.253  1.00  0.00     0.041 A 
ATOM     91  F   UNL A   1      48.099  29.612  29.887  1.00  0.00    -0.206 F 
ATOM     92  C   UNL A   1      47.052  32.047  27.431  1.00  0.00     0.022 A 
BRANCH  89  93
ATOM     93  S   UNL A   1      44.636  32.904  26.366  1.00  0.00     0.124 S 
ATOM     94  O   UNL A   1      43.837  31.919  25.647  1.00  0.00    -0.237 OA
ATOM     95  O   UNL A   1      43.909  33.761  27.299  1.00  0.00    -0.237 OA
ATOM     96  O   UNL A   1      45.622  33.606  25.542  1.00  0.00    -0.744 OA
ENDBRANCH  89  93
ENDBRANCH  63  86
ENDBRANCH  37  38
ENDBRANCH  30  32
ENDBRANCH  29  30
ENDBRANCH  28  29
ENDBRANCH   1  28
TORSDOF 19
ENDMDL
MODEL 3
REMARK VINA RESULT:     -12.1      2.638      7.357
REMARK SMILES COc1cc(OC)cc(-c2cc3nc(C)c(CCC(=O)OCCOC(=O)c4ccc(-c5c6nc(c(-c7cc(S(=O)(=O)[O-])ccc7F)c7ccc([nH]7)c(-c7cc(S(=O)(=O)[O-])ccc7F)c7nc(c(-c8cc(S(=O)(=O)[O-])ccc8F)c8ccc5[nH]8)C=C7)C=C6)cc4)c(C)n3n2)c1
REMARK SMILES IDX 22 1 21 2 19 3 20 4 18 5 17 6 16 7 10 8 11 9 93 10 12 11
REMARK SMILES IDX 92 12 13 13 90 14 14 15 91 16 15 17 9 18 3 19 4 20 94 21
REMARK SMILES IDX 5 22 8 23 2 24 1 25 6 26 7 27 23 28 24 29 25 30 26 31 27 32
REMARK SMILES IDX 28 33 89 34 29 35 88 36 30 37 31 38 32 39 82 40 33 41 87 42
REMARK SMILES IDX 81 43 83 44 34 45 86 46 80 47 79 48 35 50 67 51 47 52 66 53
REMARK SMILES IDX 48 54 51 55 65 56 84 57 49 58 50 59 64 61 85 62 52 63 36 64
REMARK SMILES IDX 37 65 45 66 38 67 44 68 46 69 43 70 39 71 40 72 41 73 42 74
REMARK SMILES IDX 68 75 69 76 77 77 70 78 76 79 78 80 75 81 71 82 72 83 73 84
REMARK SMILES IDX 74 85 53 86 54 87 62 88 55 89 61 90 63 91 60 92 56 93 57 94
REMARK SMILES IDX 58 95 59 96
REMARK H PARENT 83 49 51 60
REMARK Flexibility Score: inf
ROOT
ATOM      1  C   UNL A   1      33.992  29.715  27.146  1.00  0.00     0.274 C 
ENDROOT
BRANCH   1   2
ATOM      2  O   UNL A   1      32.557  29.797  27.012  1.00  0.00    -0.462 OA
BRANCH   2   3
ATOM      3  C   UNL A   1      32.071  30.187  25.806  1.00  0.00     0.306 C 
ATOM      4  O   UNL A   1      31.222  31.062  25.658  1.00  0.00    -0.252 OA
BRANCH   3   5
ATOM      5  C   UNL A   1      32.641  29.398  24.628  1.00  0.00     0.127 C 
BRANCH   5   6
ATOM      6  C   UNL A   1      31.735  28.995  23.444  1.00  0.00     0.051 C 
BRANCH   6   7
ATOM      7  C   UNL A   1      31.448  27.518  23.375  1.00  0.00    -0.005 A 
ATOM      8  C   UNL A   1      32.269  23.206  24.108  1.00  0.00     0.095 A 
ATOM      9  C   UNL A   1      30.911  23.542  24.278  1.00  0.00     0.080 A 
ATOM     10  N   UNL A   1      32.963  24.215  23.581  1.00  0.00    -0.166 NA
ATOM     11  C   UNL A   1      30.816  24.866  23.913  1.00  0.00     0.156 A 
ATOM     12  N   UNL A   1      32.085  25.240  23.478  1.00  0.00    -0.219 N 
ATOM     13  N   UNL A   1      29.764  25.732  23.882  1.00  0.00    -0.234 NA
ATOM     14  C   UNL A   1      32.376  26.564  23.126  1.00  0.00     0.046 A 
ATOM     15  C   UNL A   1      30.047  26.975  23.601  1.00  0.00     0.045 A 
ATOM     16  C   UNL A   1      33.769  26.794  22.613  1.00  0.00     0.067 C 
ATOM     17  C   UNL A   1      28.846  27.865  23.341  1.00  0.00     0.067 C 
BRANCH   8  18
ATOM     18  C   UNL A   1      32.940  21.950  24.373  1.00  0.00     0.009 A 
ATOM     19  C   UNL A   1      34.940  20.712  24.932  1.00  0.00     0.123 A 
ATOM     20  C   UNL A   1      34.264  19.526  24.626  1.00  0.00     0.092 A 
ATOM     21  C   UNL A   1      34.279  21.931  24.791  1.00  0.00     0.057 A 
ATOM     22  C   UNL A   1      32.935  19.543  24.197  1.00  0.00     0.123 A 
ATOM     23  C   UNL A   1      32.267  20.759  24.089  1.00  0.00     0.057 A 
BRANCH  19  24
ATOM     24  O   UNL A   1      36.251  20.553  25.293  1.00  0.00    -0.497 OA
ATOM     25  C   UNL A   1      37.192  21.367  24.605  1.00  0.00     0.278 C 
ENDBRANCH  19  24
BRANCH  22  26
ATOM     26  O   UNL A   1      32.392  18.319  23.910  1.00  0.00    -0.497 OA
ATOM     27  C   UNL A   1      32.403  17.947  22.534  1.00  0.00     0.278 C 
ENDBRANCH  22  26
ENDBRANCH   8  18
ENDBRANCH   6   7
ENDBRANCH   5   6
ENDBRANCH   3   5
ENDBRANCH   2   3
ENDBRANCH   1   2
BRANCH   1  28
ATOM     28  C   UNL A   1      34.596  31.042  27.612  1.00  0.00     0.275 C 
BRANCH  28  29
ATOM     29  O   UNL A   1      36.031  31.065  27.620  1.00  0.00    -0.458 OA
BRANCH  29  30
ATOM     30  C   UNL A   1      36.575  31.074  28.857  1.00  0.00     0.338 C 
ATOM     31  O   UNL A   1      36.285  31.807  29.781  1.00  0.00    -0.246 OA
BRANCH  30  32
ATOM     32  C   UNL A   1      37.740  30.206  28.969  1.00  0.00     0.060 A 
ATOM     33  C   UNL A   1      38.979  30.847  29.127  1.00  0.00     0.016 A 
ATOM     34  C   UNL A   1      37.631  28.835  28.734  1.00  0.00     0.016 A 
ATOM     35  C   UNL A   1      40.132  30.110  29.001  1.00  0.00     0.010 A 
ATOM     36  C   UNL A   1      38.785  28.101  28.596  1.00  0.00     0.010 A 
ATOM     37  C   UNL A   1      40.018  28.749  28.716  1.00  0.00    -0.014 A 
BRANCH  37  38
ATOM     38  C   UNL A   1      41.215  27.943  28.821  1.00  0.00     0.031 A 
ATOM     39  C   UNL A   1      41.838  28.041  30.167  1.00  0.00     0.074 A 
ATOM     40  C   UNL A   1      41.572  27.067  27.869  1.00  0.00     0.049 A 
ATOM     41  N   UNL A   1      42.998  28.520  30.467  1.00  0.00    -0.248 NA
ATOM     42  C   UNL A   1      40.988  27.771  31.343  1.00  0.00     0.031 C 
ATOM     43  C   UNL A   1      40.845  26.729  26.645  1.00  0.00     0.029 A 
ATOM     44  N   UNL A   1      42.591  26.172  27.880  1.00  0.00    -0.354 N 
ATOM     45  C   UNL A   1      43.111  28.386  31.846  1.00  0.00     0.074 A 
ATOM     46  C   UNL A   1      41.782  28.165  32.339  1.00  0.00     0.031 C 
ATOM     47  C   UNL A   1      41.297  25.541  26.185  1.00  0.00     0.029 A 
ATOM     48  C   UNL A   1      42.398  25.093  27.026  1.00  0.00     0.049 A 
ATOM     49  H   UNL A   1      43.392  26.277  28.441  1.00  0.00     0.167 HD
ATOM     50  C   UNL A   1      44.319  28.197  32.442  1.00  0.00     0.034 A 
ATOM     51  C   UNL A   1      43.020  23.885  27.098  1.00  0.00     0.034 A 
ATOM     52  C   UNL A   1      45.397  28.529  31.540  1.00  0.00     0.049 A 
ATOM     53  C   UNL A   1      44.266  24.092  27.890  1.00  0.00     0.074 A 
ATOM     54  C   UNL A   1      45.755  29.673  30.854  1.00  0.00     0.029 A 
ATOM     55  N   UNL A   1      46.049  27.492  30.908  1.00  0.00    -0.354 N 
ATOM     56  N   UNL A   1      45.250  24.851  27.485  1.00  0.00    -0.248 NA
ATOM     57  C   UNL A   1      44.209  23.893  29.334  1.00  0.00     0.031 C 
ATOM     58  C   UNL A   1      46.173  29.212  29.572  1.00  0.00     0.029 A 
ATOM     59  C   UNL A   1      46.141  27.816  29.575  1.00  0.00     0.049 A 
ATOM     60  H   UNL A   1      46.386  26.670  31.333  1.00  0.00     0.167 HD
ATOM     61  C   UNL A   1      45.636  25.575  28.605  1.00  0.00     0.074 A 
ATOM     62  C   UNL A   1      45.037  24.865  29.735  1.00  0.00     0.031 C 
ATOM     63  C   UNL A   1      46.138  26.843  28.495  1.00  0.00     0.034 A 
BRANCH  50  64
ATOM     64  C   UNL A   1      44.537  27.378  33.691  1.00  0.00     0.023 A 
ATOM     65  C   UNL A   1      44.708  25.992  33.529  1.00  0.00     0.031 A 
ATOM     66  C   UNL A   1      44.308  27.820  35.015  1.00  0.00     0.131 A 
ATOM     67  C   UNL A   1      44.560  25.116  34.617  1.00  0.00     0.055 A 
ATOM     68  C   UNL A   1      44.238  26.951  36.106  1.00  0.00     0.041 A 
ATOM     69  F   UNL A   1      44.037  29.093  35.322  1.00  0.00    -0.206 F 
ATOM     70  C   UNL A   1      44.332  25.586  35.907  1.00  0.00     0.022 A 
BRANCH  67  71
ATOM     71  S   UNL A   1      44.486  23.339  34.280  1.00  0.00     0.124 S 
ATOM     72  O   UNL A   1      44.155  23.321  32.860  1.00  0.00    -0.237 OA
ATOM     73  O   UNL A   1      45.835  22.911  34.634  1.00  0.00    -0.237 OA
ATOM     74  O   UNL A   1      43.429  22.871  35.174  1.00  0.00    -0.744 OA
ENDBRANCH  67  71
ENDBRANCH  50  64
BRANCH  51  75
ATOM     75  C   UNL A   1      42.409  22.550  26.816  1.00  0.00     0.023 A 
ATOM     76  C   UNL A   1      43.118  21.498  26.198  1.00  0.00     0.031 A 
ATOM     77  C   UNL A   1      41.142  22.219  27.355  1.00  0.00     0.131 A 
ATOM     78  C   UNL A   1      42.553  20.199  26.129  1.00  0.00     0.055 A 
ATOM     79  C   UNL A   1      40.584  20.941  27.270  1.00  0.00     0.041 A 
ATOM     80  F   UNL A   1      40.429  23.105  28.066  1.00  0.00    -0.206 F 
ATOM     81  C   UNL A   1      41.294  19.921  26.663  1.00  0.00     0.022 A 
BRANCH  78  82
ATOM     82  S   UNL A   1      43.501  18.808  25.428  1.00  0.00     0.124 S 
ATOM     83  O   UNL A   1      43.527  19.136  24.008  1.00  0.00    -0.237 OA
ATOM     84  O   UNL A   1      44.770  18.901  26.140  1.00  0.00    -0.237 OA
ATOM     85  O   UNL A   1      42.694  17.637  25.774  1.00  0.00    -0.744 OA
ENDBRANCH  78  82
ENDBRANCH  51  75
BRANCH  63  86
ATOM     86  C   UNL A   1      46.508  27.360  27.115  1.00  0.00     0.023 A 
ATOM     87  C   UNL A   1      47.774  27.200  26.506  1.00  0.00     0.031 A 
ATOM     88  C   UNL A   1      45.480  27.920  26.335  1.00  0.00     0.131 A 
ATOM     89  C   UNL A   1      47.976  27.608  25.172  1.00  0.00     0.055 A 
ATOM     90  C   UNL A   1      45.676  28.298  25.007  1.00  0.00     0.041 A 
ATOM     91  F   UNL A   1      44.246  28.070  26.842  1.00  0.00    -0.206 F 
ATOM     92  C   UNL A   1      46.928  28.151  24.422  1.00  0.00     0.022 A 
BRANCH  89  93
ATOM     93  S   UNL A   1      49.616  27.456  24.390  1.00  0.00     0.124 S 
ATOM     94  O   UNL A   1      49.991  26.072  24.649  1.00  0.00    -0.237 OA
ATOM     95  O   UNL A   1      49.334  27.794  22.996  1.00  0.00    -0.237 OA
ATOM     96  O   UNL A   1      50.423  28.449  25.102  1.00  0.00    -0.744 OA
ENDBRANCH  89  93
ENDBRANCH  63  86
ENDBRANCH  37  38
ENDBRANCH  30  32
ENDBRANCH  29  30
ENDBRANCH  28  29
ENDBRANCH   1  28
TORSDOF 19
ENDMDL
