MODEL 1
REMARK VINA RESULT:     -11.8      0.000      0.000
REMARK SMILES COc1c(N)cc(-c2ccccc2)cc1C(=O)OCCOC(=O)c1ccc(-c2c3nc(c(-c4cc(S(=O)(=O)[O-])ccc4F)c4ccc([nH]4)c(-c4cc(S(=O)(=O)[O-])ccc4F)c4nc(c(-c5cc(S(=O)(=O)[O-])ccc5F)c5ccc2[nH]5)C=C4)C=C3)cc1
REMARK SMILES IDX 20 1 19 2 18 3 16 4 17 5 15 6 3 7 4 8 6 9 14 10 7 11 2 12
REMARK SMILES IDX 1 13 5 14 8 17 9 18 13 19 10 20 12 21 11 22 21 23 22 24
REMARK SMILES IDX 23 25 24 26 25 27 86 28 26 29 85 30 27 31 28 32 29 33 79 34
REMARK SMILES IDX 30 35 84 36 78 37 80 38 31 39 83 40 77 41 76 42 32 44 64 45
REMARK SMILES IDX 44 46 63 47 45 48 48 49 62 50 81 51 46 52 47 53 61 55 82 56
REMARK SMILES IDX 49 57 33 58 34 59 42 60 35 61 41 62 43 63 40 64 36 65 37 66
REMARK SMILES IDX 38 67 39 68 65 69 66 70 74 71 67 72 73 73 75 74 72 75 68 76
REMARK SMILES IDX 69 77 70 78 71 79 50 80 51 81 59 82 52 83 58 84 60 85 57 86
REMARK SMILES IDX 53 87 54 88 55 89 56 90
REMARK H PARENT 5 15 5 16 80 43 48 54
REMARK Flexibility Score: inf
ROOT
ATOM      1  C   UNL A   1      36.715  20.430  25.001  1.00  0.00     0.275 C 
ENDROOT
BRANCH   1   2
ATOM      2  C   UNL A   1      35.394  21.194  24.973  1.00  0.00     0.275 C 
BRANCH   2   3
ATOM      3  O   UNL A   1      35.631  22.615  24.903  1.00  0.00    -0.458 OA
BRANCH   3   4
ATOM      4  C   UNL A   1      35.254  23.225  23.748  1.00  0.00     0.342 C 
ATOM      5  O   UNL A   1      35.812  23.140  22.671  1.00  0.00    -0.246 OA
BRANCH   4   6
ATOM      6  C   UNL A   1      33.966  23.930  23.924  1.00  0.00     0.104 A 
ATOM      7  C   UNL A   1      32.780  23.510  23.318  1.00  0.00     0.156 A 
ATOM      8  C   UNL A   1      31.569  24.166  23.618  1.00  0.00     0.076 A 
ATOM      9  C   UNL A   1      31.600  25.338  24.387  1.00  0.00     0.038 A 
ATOM     10  C   UNL A   1      33.949  25.036  24.785  1.00  0.00     0.028 A 
ATOM     11  C   UNL A   1      32.784  25.787  24.987  1.00  0.00    -0.015 A 
BRANCH   7  12
ATOM     12  O   UNL A   1      32.771  22.382  22.531  1.00  0.00    -0.494 OA
ATOM     13  C   UNL A   1      32.257  21.267  23.264  1.00  0.00     0.278 C 
ENDBRANCH   7  12
BRANCH   8  14
ATOM     14  N   UNL A   1      30.357  23.737  23.071  1.00  0.00    -0.396 N 
ATOM     15  H   UNL A   1      29.906  22.943  23.438  1.00  0.00     0.156 HD
ATOM     16  H   UNL A   1      29.955  24.230  22.319  1.00  0.00     0.156 HD
ENDBRANCH   8  14
BRANCH  11  17
ATOM     17  C   UNL A   1      32.818  26.991  25.828  1.00  0.00    -0.018 A 
ATOM     18  C   UNL A   1      33.832  27.948  25.673  1.00  0.00     0.009 A 
ATOM     19  C   UNL A   1      31.816  27.231  26.785  1.00  0.00     0.009 A 
ATOM     20  C   UNL A   1      33.841  29.113  26.444  1.00  0.00     0.001 A 
ATOM     21  C   UNL A   1      31.826  28.395  27.558  1.00  0.00     0.001 A 
ATOM     22  C   UNL A   1      32.837  29.336  27.385  1.00  0.00     0.000 A 
ENDBRANCH  11  17
ENDBRANCH   4   6
ENDBRANCH   3   4
ENDBRANCH   2   3
ENDBRANCH   1   2
BRANCH   1  23
ATOM     23  O   UNL A   1      37.799  21.372  24.988  1.00  0.00    -0.458 OA
BRANCH  23  24
ATOM     24  C   UNL A   1      38.863  21.057  25.761  1.00  0.00     0.338 C 
ATOM     25  O   UNL A   1      39.374  19.957  25.901  1.00  0.00    -0.246 OA
BRANCH  24  26
ATOM     26  C   UNL A   1      39.369  22.275  26.420  1.00  0.00     0.060 A 
ATOM     27  C   UNL A   1      38.821  23.510  26.084  1.00  0.00     0.016 A 
ATOM     28  C   UNL A   1      40.483  22.215  27.254  1.00  0.00     0.016 A 
ATOM     29  C   UNL A   1      39.464  24.688  26.457  1.00  0.00     0.010 A 
ATOM     30  C   UNL A   1      41.054  23.402  27.731  1.00  0.00     0.010 A 
ATOM     31  C   UNL A   1      40.599  24.657  27.282  1.00  0.00    -0.014 A 
BRANCH  31  32
ATOM     32  C   UNL A   1      41.358  25.913  27.587  1.00  0.00     0.031 A 
ATOM     33  C   UNL A   1      40.745  26.971  28.477  1.00  0.00     0.074 A 
ATOM     34  C   UNL A   1      42.603  26.112  27.110  1.00  0.00     0.049 A 
ATOM     35  N   UNL A   1      41.153  28.190  28.731  1.00  0.00    -0.248 NA
ATOM     36  C   UNL A   1      39.484  26.615  29.143  1.00  0.00     0.031 C 
ATOM     37  C   UNL A   1      43.347  25.180  26.261  1.00  0.00     0.029 A 
ATOM     38  N   UNL A   1      43.473  27.165  27.280  1.00  0.00    -0.354 N 
ATOM     39  C   UNL A   1      40.161  28.770  29.521  1.00  0.00     0.074 A 
ATOM     40  C   UNL A   1      39.125  27.771  29.679  1.00  0.00     0.031 C 
ATOM     41  C   UNL A   1      44.573  25.674  26.031  1.00  0.00     0.029 A 
ATOM     42  C   UNL A   1      44.675  26.999  26.634  1.00  0.00     0.049 A 
ATOM     43  H   UNL A   1      43.254  27.961  27.815  1.00  0.00     0.167 HD
ATOM     44  C   UNL A   1      40.120  30.013  30.068  1.00  0.00     0.034 A 
ATOM     45  C   UNL A   1      45.733  27.824  26.503  1.00  0.00     0.034 A 
ATOM     46  C   UNL A   1      41.188  30.981  29.955  1.00  0.00     0.049 A 
ATOM     47  C   UNL A   1      45.683  29.187  27.139  1.00  0.00     0.074 A 
ATOM     48  C   UNL A   1      41.253  32.263  30.476  1.00  0.00     0.029 A 
ATOM     49  N   UNL A   1      42.390  30.767  29.291  1.00  0.00    -0.354 N 
ATOM     50  N   UNL A   1      44.709  29.749  27.817  1.00  0.00    -0.248 NA
ATOM     51  C   UNL A   1      46.877  30.028  26.987  1.00  0.00     0.031 C 
ATOM     52  C   UNL A   1      42.470  32.839  30.087  1.00  0.00     0.029 A 
ATOM     53  C   UNL A   1      43.198  31.894  29.384  1.00  0.00     0.049 A 
ATOM     54  H   UNL A   1      42.634  29.937  28.821  1.00  0.00     0.167 HD
ATOM     55  C   UNL A   1      45.176  31.011  28.173  1.00  0.00     0.074 A 
ATOM     56  C   UNL A   1      46.529  31.111  27.667  1.00  0.00     0.031 C 
ATOM     57  C   UNL A   1      44.538  31.999  28.853  1.00  0.00     0.034 A 
BRANCH  44  58
ATOM     58  C   UNL A   1      38.846  30.409  30.786  1.00  0.00     0.023 A 
ATOM     59  C   UNL A   1      37.757  30.989  30.113  1.00  0.00     0.031 A 
ATOM     60  C   UNL A   1      38.749  30.268  32.183  1.00  0.00     0.131 A 
ATOM     61  C   UNL A   1      36.672  31.501  30.843  1.00  0.00     0.055 A 
ATOM     62  C   UNL A   1      37.622  30.692  32.893  1.00  0.00     0.041 A 
ATOM     63  F   UNL A   1      39.760  29.739  32.889  1.00  0.00    -0.206 F 
ATOM     64  C   UNL A   1      36.586  31.334  32.226  1.00  0.00     0.022 A 
BRANCH  61  65
ATOM     65  S   UNL A   1      35.476  32.561  29.981  1.00  0.00     0.124 S 
ATOM     66  O   UNL A   1      36.209  33.822  29.895  1.00  0.00    -0.237 OA
ATOM     67  O   UNL A   1      35.275  31.852  28.724  1.00  0.00    -0.237 OA
ATOM     68  O   UNL A   1      34.324  32.579  30.881  1.00  0.00    -0.744 OA
ENDBRANCH  61  65
ENDBRANCH  44  58
BRANCH  45  69
ATOM     69  C   UNL A   1      46.905  27.405  25.684  1.00  0.00     0.023 A 
ATOM     70  C   UNL A   1      47.040  27.798  24.343  1.00  0.00     0.031 A 
ATOM     71  C   UNL A   1      47.912  26.594  26.240  1.00  0.00     0.131 A 
ATOM     72  C   UNL A   1      48.144  27.360  23.596  1.00  0.00     0.055 A 
ATOM     73  C   UNL A   1      49.033  26.204  25.508  1.00  0.00     0.041 A 
ATOM     74  F   UNL A   1      47.830  26.193  27.519  1.00  0.00    -0.206 F 
ATOM     75  C   UNL A   1      49.150  26.581  24.174  1.00  0.00     0.022 A 
BRANCH  72  76
ATOM     76  S   UNL A   1      48.230  27.785  21.834  1.00  0.00     0.124 S 
ATOM     77  O   UNL A   1      49.374  28.688  21.800  1.00  0.00    -0.237 OA
ATOM     78  O   UNL A   1      48.424  26.479  21.214  1.00  0.00    -0.237 OA
ATOM     79  O   UNL A   1      46.934  28.408  21.572  1.00  0.00    -0.744 OA
ENDBRANCH  72  76
ENDBRANCH  45  69
BRANCH  57  80
ATOM     80  C   UNL A   1      45.325  33.262  29.110  1.00  0.00     0.023 A 
ATOM     81  C   UNL A   1      45.289  34.350  28.220  1.00  0.00     0.031 A 
ATOM     82  C   UNL A   1      46.161  33.359  30.237  1.00  0.00     0.131 A 
ATOM     83  C   UNL A   1      46.128  35.456  28.431  1.00  0.00     0.055 A 
ATOM     84  C   UNL A   1      46.948  34.487  30.474  1.00  0.00     0.041 A 
ATOM     85  F   UNL A   1      46.238  32.350  31.120  1.00  0.00    -0.206 F 
ATOM     86  C   UNL A   1      46.948  35.536  29.559  1.00  0.00     0.022 A 
BRANCH  83  87
ATOM     87  S   UNL A   1      46.229  36.732  27.144  1.00  0.00     0.124 S 
ATOM     88  O   UNL A   1      46.689  35.967  25.990  1.00  0.00    -0.237 OA
ATOM     89  O   UNL A   1      44.855  37.219  27.081  1.00  0.00    -0.237 OA
ATOM     90  O   UNL A   1      47.201  37.683  27.681  1.00  0.00    -0.744 OA
ENDBRANCH  83  87
ENDBRANCH  57  80
ENDBRANCH  31  32
ENDBRANCH  24  26
ENDBRANCH  23  24
ENDBRANCH   1  23
TORSDOF 17
ENDMDL
MODEL 2
REMARK VINA RESULT:     -11.6      5.094      7.588
REMARK SMILES COc1c(N)cc(-c2ccccc2)cc1C(=O)OCCOC(=O)c1ccc(-c2c3nc(c(-c4cc(S(=O)(=O)[O-])ccc4F)c4ccc([nH]4)c(-c4cc(S(=O)(=O)[O-])ccc4F)c4nc(c(-c5cc(S(=O)(=O)[O-])ccc5F)c5ccc2[nH]5)C=C4)C=C3)cc1
REMARK SMILES IDX 20 1 19 2 18 3 16 4 17 5 15 6 3 7 4 8 6 9 14 10 7 11 2 12
REMARK SMILES IDX 1 13 5 14 8 17 9 18 13 19 10 20 12 21 11 22 21 23 22 24
REMARK SMILES IDX 23 25 24 26 25 27 86 28 26 29 85 30 27 31 28 32 29 33 79 34
REMARK SMILES IDX 30 35 84 36 78 37 80 38 31 39 83 40 77 41 76 42 32 44 64 45
REMARK SMILES IDX 44 46 63 47 45 48 48 49 62 50 81 51 46 52 47 53 61 55 82 56
REMARK SMILES IDX 49 57 33 58 34 59 42 60 35 61 41 62 43 63 40 64 36 65 37 66
REMARK SMILES IDX 38 67 39 68 65 69 66 70 74 71 67 72 73 73 75 74 72 75 68 76
REMARK SMILES IDX 69 77 70 78 71 79 50 80 51 81 59 82 52 83 58 84 60 85 57 86
REMARK SMILES IDX 53 87 54 88 55 89 56 90
REMARK H PARENT 5 15 5 16 80 43 48 54
REMARK Flexibility Score: inf
ROOT
ATOM      1  C   UNL A   1      31.786  31.015  26.484  1.00  0.00     0.275 C 
ENDROOT
BRANCH   1   2
ATOM      2  C   UNL A   1      31.532  29.785  25.618  1.00  0.00     0.275 C 
BRANCH   2   3
ATOM      3  O   UNL A   1      32.520  28.767  25.879  1.00  0.00    -0.458 OA
BRANCH   3   4
ATOM      4  C   UNL A   1      32.044  27.507  26.061  1.00  0.00     0.342 C 
ATOM      5  O   UNL A   1      31.291  27.139  26.942  1.00  0.00    -0.246 OA
BRANCH   4   6
ATOM      6  C   UNL A   1      32.458  26.625  24.948  1.00  0.00     0.104 A 
ATOM      7  C   UNL A   1      31.781  26.572  23.728  1.00  0.00     0.156 A 
ATOM      8  C   UNL A   1      32.295  25.790  22.674  1.00  0.00     0.076 A 
ATOM      9  C   UNL A   1      33.385  24.942  22.922  1.00  0.00     0.038 A 
ATOM     10  C   UNL A   1      33.615  25.856  25.131  1.00  0.00     0.028 A 
ATOM     11  C   UNL A   1      34.064  24.967  24.147  1.00  0.00    -0.015 A 
BRANCH   7  12
ATOM     12  O   UNL A   1      30.688  27.378  23.511  1.00  0.00    -0.494 OA
ATOM     13  C   UNL A   1      29.484  26.693  23.867  1.00  0.00     0.278 C 
ENDBRANCH   7  12
BRANCH   8  14
ATOM     14  N   UNL A   1      31.673  25.757  21.424  1.00  0.00    -0.396 N 
ATOM     15  H   UNL A   1      32.202  25.565  20.616  1.00  0.00     0.156 HD
ATOM     16  H   UNL A   1      30.705  25.926  21.351  1.00  0.00     0.156 HD
ENDBRANCH   8  14
BRANCH  11  17
ATOM     17  C   UNL A   1      35.232  24.112  24.401  1.00  0.00    -0.018 A 
ATOM     18  C   UNL A   1      35.940  24.203  25.609  1.00  0.00     0.009 A 
ATOM     19  C   UNL A   1      35.648  23.158  23.455  1.00  0.00     0.009 A 
ATOM     20  C   UNL A   1      37.025  23.361  25.868  1.00  0.00     0.001 A 
ATOM     21  C   UNL A   1      36.735  22.319  23.713  1.00  0.00     0.001 A 
ATOM     22  C   UNL A   1      37.420  22.419  24.920  1.00  0.00     0.000 A 
ENDBRANCH  11  17
ENDBRANCH   4   6
ENDBRANCH   3   4
ENDBRANCH   2   3
ENDBRANCH   1   2
BRANCH   1  23
ATOM     23  O   UNL A   1      32.873  30.738  27.381  1.00  0.00    -0.458 OA
BRANCH  23  24
ATOM     24  C   UNL A   1      33.708  31.772  27.633  1.00  0.00     0.338 C 
ATOM     25  O   UNL A   1      33.423  32.959  27.665  1.00  0.00    -0.246 OA
BRANCH  24  26
ATOM     26  C   UNL A   1      35.060  31.255  27.911  1.00  0.00     0.060 A 
ATOM     27  C   UNL A   1      35.264  29.880  27.976  1.00  0.00     0.016 A 
ATOM     28  C   UNL A   1      36.091  32.127  28.254  1.00  0.00     0.016 A 
ATOM     29  C   UNL A   1      36.442  29.370  28.520  1.00  0.00     0.010 A 
ATOM     30  C   UNL A   1      37.320  31.608  28.683  1.00  0.00     0.010 A 
ATOM     31  C   UNL A   1      37.491  30.226  28.892  1.00  0.00    -0.014 A 
BRANCH  31  32
ATOM     32  C   UNL A   1      38.707  29.689  29.583  1.00  0.00     0.031 A 
ATOM     33  C   UNL A   1      39.049  30.153  30.982  1.00  0.00     0.074 A 
ATOM     34  C   UNL A   1      39.495  28.765  28.999  1.00  0.00     0.049 A 
ATOM     35  N   UNL A   1      40.132  29.946  31.690  1.00  0.00    -0.248 NA
ATOM     36  C   UNL A   1      38.049  30.992  31.656  1.00  0.00     0.031 C 
ATOM     37  C   UNL A   1      39.288  28.192  27.667  1.00  0.00     0.029 A 
ATOM     38  N   UNL A   1      40.628  28.132  29.455  1.00  0.00    -0.354 N 
ATOM     39  C   UNL A   1      39.975  30.691  32.859  1.00  0.00     0.074 A 
ATOM     40  C   UNL A   1      38.701  31.371  32.744  1.00  0.00     0.031 C 
ATOM     41  C   UNL A   1      40.225  27.260  27.437  1.00  0.00     0.029 A 
ATOM     42  C   UNL A   1      41.156  27.230  28.560  1.00  0.00     0.049 A 
ATOM     43  H   UNL A   1      41.023  28.308  30.338  1.00  0.00     0.167 HD
ATOM     44  C   UNL A   1      40.807  30.795  33.927  1.00  0.00     0.034 A 
ATOM     45  C   UNL A   1      42.278  26.485  28.610  1.00  0.00     0.034 A 
ATOM     46  C   UNL A   1      42.048  30.063  34.058  1.00  0.00     0.049 A 
ATOM     47  C   UNL A   1      43.176  26.590  29.813  1.00  0.00     0.074 A 
ATOM     48  C   UNL A   1      42.961  30.088  35.100  1.00  0.00     0.029 A 
ATOM     49  N   UNL A   1      42.541  29.158  33.125  1.00  0.00    -0.354 N 
ATOM     50  N   UNL A   1      43.052  27.354  30.873  1.00  0.00    -0.248 NA
ATOM     51  C   UNL A   1      44.367  25.731  29.823  1.00  0.00     0.031 C 
ATOM     52  C   UNL A   1      44.026  29.237  34.776  1.00  0.00     0.029 A 
ATOM     53  C   UNL A   1      43.746  28.625  33.565  1.00  0.00     0.049 A 
ATOM     54  H   UNL A   1      42.101  28.929  32.275  1.00  0.00     0.167 HD
ATOM     55  C   UNL A   1      44.152  27.067  31.677  1.00  0.00     0.074 A 
ATOM     56  C   UNL A   1      44.905  26.033  30.995  1.00  0.00     0.031 C 
ATOM     57  C   UNL A   1      44.509  27.614  32.868  1.00  0.00     0.034 A 
BRANCH  44  58
ATOM     58  C   UNL A   1      40.423  31.784  35.008  1.00  0.00     0.023 A 
ATOM     59  C   UNL A   1      39.556  31.443  36.060  1.00  0.00     0.031 A 
ATOM     60  C   UNL A   1      40.877  33.115  34.943  1.00  0.00     0.131 A 
ATOM     61  C   UNL A   1      39.087  32.436  36.935  1.00  0.00     0.055 A 
ATOM     62  C   UNL A   1      40.483  34.078  35.876  1.00  0.00     0.041 A 
ATOM     63  F   UNL A   1      41.692  33.512  33.954  1.00  0.00    -0.206 F 
ATOM     64  C   UNL A   1      39.565  33.747  36.866  1.00  0.00     0.022 A 
BRANCH  61  65
ATOM     65  S   UNL A   1      37.699  32.034  38.034  1.00  0.00     0.124 S 
ATOM     66  O   UNL A   1      38.298  32.234  39.351  1.00  0.00    -0.237 OA
ATOM     67  O   UNL A   1      36.691  33.009  37.635  1.00  0.00    -0.237 OA
ATOM     68  O   UNL A   1      37.390  30.645  37.702  1.00  0.00    -0.744 OA
ENDBRANCH  61  65
ENDBRANCH  44  58
BRANCH  45  69
ATOM     69  C   UNL A   1      42.646  25.619  27.455  1.00  0.00     0.023 A 
ATOM     70  C   UNL A   1      42.233  24.280  27.383  1.00  0.00     0.031 A 
ATOM     71  C   UNL A   1      43.428  26.128  26.401  1.00  0.00     0.131 A 
ATOM     72  C   UNL A   1      42.623  23.487  26.292  1.00  0.00     0.055 A 
ATOM     73  C   UNL A   1      43.769  25.351  25.294  1.00  0.00     0.041 A 
ATOM     74  F   UNL A   1      43.846  27.403  26.421  1.00  0.00    -0.206 F 
ATOM     75  C   UNL A   1      43.373  24.019  25.239  1.00  0.00     0.022 A 
BRANCH  72  76
ATOM     76  S   UNL A   1      42.175  21.729  26.286  1.00  0.00     0.124 S 
ATOM     77  O   UNL A   1      43.097  21.190  25.293  1.00  0.00    -0.237 OA
ATOM     78  O   UNL A   1      42.425  21.345  27.671  1.00  0.00    -0.237 OA
ATOM     79  O   UNL A   1      40.767  21.738  25.892  1.00  0.00    -0.744 OA
ENDBRANCH  72  76
ENDBRANCH  45  69
BRANCH  57  80
ATOM     80  C   UNL A   1      45.759  27.069  33.517  1.00  0.00     0.023 A 
ATOM     81  C   UNL A   1      45.719  25.964  34.387  1.00  0.00     0.031 A 
ATOM     82  C   UNL A   1      46.999  27.694  33.300  1.00  0.00     0.131 A 
ATOM     83  C   UNL A   1      46.881  25.565  35.065  1.00  0.00     0.055 A 
ATOM     84  C   UNL A   1      48.164  27.254  33.931  1.00  0.00     0.041 A 
ATOM     85  F   UNL A   1      47.098  28.755  32.482  1.00  0.00    -0.206 F 
ATOM     86  C   UNL A   1      48.106  26.196  34.833  1.00  0.00     0.022 A 
BRANCH  83  87
ATOM     87  S   UNL A   1      46.746  24.292  36.352  1.00  0.00     0.124 S 
ATOM     88  O   UNL A   1      45.367  23.841  36.193  1.00  0.00    -0.237 OA
ATOM     89  O   UNL A   1      47.779  23.340  35.956  1.00  0.00    -0.237 OA
ATOM     90  O   UNL A   1      47.018  25.024  37.588  1.00  0.00    -0.744 OA
ENDBRANCH  83  87
ENDBRANCH  57  80
ENDBRANCH  31  32
ENDBRANCH  24  26
ENDBRANCH  23  24
ENDBRANCH   1  23
TORSDOF 17
ENDMDL
MODEL 3
REMARK VINA RESULT:     -11.6      0.457      7.627
REMARK SMILES COc1c(N)cc(-c2ccccc2)cc1C(=O)OCCOC(=O)c1ccc(-c2c3nc(c(-c4cc(S(=O)(=O)[O-])ccc4F)c4ccc([nH]4)c(-c4cc(S(=O)(=O)[O-])ccc4F)c4nc(c(-c5cc(S(=O)(=O)[O-])ccc5F)c5ccc2[nH]5)C=C4)C=C3)cc1
REMARK SMILES IDX 20 1 19 2 18 3 16 4 17 5 15 6 3 7 4 8 6 9 14 10 7 11 2 12
REMARK SMILES IDX 1 13 5 14 8 17 9 18 13 19 10 20 12 21 11 22 21 23 22 24
REMARK SMILES IDX 23 25 24 26 25 27 86 28 26 29 85 30 27 31 28 32 29 33 79 34
REMARK SMILES IDX 30 35 84 36 78 37 80 38 31 39 83 40 77 41 76 42 32 44 64 45
REMARK SMILES IDX 44 46 63 47 45 48 48 49 62 50 81 51 46 52 47 53 61 55 82 56
REMARK SMILES IDX 49 57 33 58 34 59 42 60 35 61 41 62 43 63 40 64 36 65 37 66
REMARK SMILES IDX 38 67 39 68 65 69 66 70 74 71 67 72 73 73 75 74 72 75 68 76
REMARK SMILES IDX 69 77 70 78 71 79 50 80 51 81 59 82 52 83 58 84 60 85 57 86
REMARK SMILES IDX 53 87 54 88 55 89 56 90
REMARK H PARENT 5 15 5 16 80 43 48 54
REMARK Flexibility Score: inf
ROOT
ATOM      1  C   UNL A   1      36.912  20.416  25.142  1.00  0.00     0.275 C 
ENDROOT
BRANCH   1   2
ATOM      2  C   UNL A   1      35.580  21.068  24.781  1.00  0.00     0.275 C 
BRANCH   2   3
ATOM      3  O   UNL A   1      35.653  22.498  24.950  1.00  0.00    -0.458 OA
BRANCH   3   4
ATOM      4  C   UNL A   1      35.385  23.243  23.844  1.00  0.00     0.342 C 
ATOM      5  O   UNL A   1      36.040  23.278  22.821  1.00  0.00    -0.246 OA
BRANCH   4   6
ATOM      6  C   UNL A   1      34.086  23.937  23.983  1.00  0.00     0.104 A 
ATOM      7  C   UNL A   1      32.909  23.474  23.391  1.00  0.00     0.156 A 
ATOM      8  C   UNL A   1      31.688  24.125  23.655  1.00  0.00     0.076 A 
ATOM      9  C   UNL A   1      31.699  25.331  24.371  1.00  0.00     0.038 A 
ATOM     10  C   UNL A   1      34.049  25.081  24.793  1.00  0.00     0.028 A 
ATOM     11  C   UNL A   1      32.873  25.823  24.955  1.00  0.00    -0.015 A 
BRANCH   7  12
ATOM     12  O   UNL A   1      32.920  22.311  22.656  1.00  0.00    -0.494 OA
ATOM     13  C   UNL A   1      32.442  21.218  23.445  1.00  0.00     0.278 C 
ENDBRANCH   7  12
BRANCH   8  14
ATOM     14  N   UNL A   1      30.485  23.655  23.123  1.00  0.00    -0.396 N 
ATOM     15  H   UNL A   1      29.680  24.221  23.153  1.00  0.00     0.156 HD
ATOM     16  H   UNL A   1      30.443  22.759  22.717  1.00  0.00     0.156 HD
ENDBRANCH   8  14
BRANCH  11  17
ATOM     17  C   UNL A   1      32.885  27.064  25.741  1.00  0.00    -0.018 A 
ATOM     18  C   UNL A   1      31.755  27.466  26.468  1.00  0.00     0.009 A 
ATOM     19  C   UNL A   1      34.041  27.863  25.810  1.00  0.00     0.009 A 
ATOM     20  C   UNL A   1      31.780  28.625  27.249  1.00  0.00     0.001 A 
ATOM     21  C   UNL A   1      34.065  29.023  26.589  1.00  0.00     0.001 A 
ATOM     22  C   UNL A   1      32.935  29.401  27.309  1.00  0.00     0.000 A 
ENDBRANCH  11  17
ENDBRANCH   4   6
ENDBRANCH   3   4
ENDBRANCH   2   3
ENDBRANCH   1   2
BRANCH   1  23
ATOM     23  O   UNL A   1      37.956  21.397  25.033  1.00  0.00    -0.458 OA
BRANCH  23  24
ATOM     24  C   UNL A   1      39.055  21.174  25.790  1.00  0.00     0.338 C 
ATOM     25  O   UNL A   1      39.656  20.120  25.925  1.00  0.00    -0.246 OA
BRANCH  24  26
ATOM     26  C   UNL A   1      39.472  22.433  26.433  1.00  0.00     0.060 A 
ATOM     27  C   UNL A   1      38.745  23.595  26.193  1.00  0.00     0.016 A 
ATOM     28  C   UNL A   1      40.664  22.497  27.151  1.00  0.00     0.016 A 
ATOM     29  C   UNL A   1      39.273  24.838  26.538  1.00  0.00     0.010 A 
ATOM     30  C   UNL A   1      41.131  23.737  27.606  1.00  0.00     0.010 A 
ATOM     31  C   UNL A   1      40.482  24.933  27.245  1.00  0.00    -0.014 A 
BRANCH  31  32
ATOM     32  C   UNL A   1      41.107  26.268  27.513  1.00  0.00     0.031 A 
ATOM     33  C   UNL A   1      42.445  26.614  26.897  1.00  0.00     0.074 A 
ATOM     34  C   UNL A   1      40.486  27.195  28.270  1.00  0.00     0.049 A 
ATOM     35  N   UNL A   1      43.233  27.635  27.129  1.00  0.00    -0.248 NA
ATOM     36  C   UNL A   1      42.977  25.663  25.912  1.00  0.00     0.031 C 
ATOM     37  C   UNL A   1      39.181  27.029  28.913  1.00  0.00     0.029 A 
ATOM     38  N   UNL A   1      40.864  28.470  28.620  1.00  0.00    -0.354 N 
ATOM     39  C   UNL A   1      44.387  27.408  26.378  1.00  0.00     0.074 A 
ATOM     40  C   UNL A   1      44.196  26.138  25.707  1.00  0.00     0.031 C 
ATOM     41  C   UNL A   1      38.845  28.171  29.531  1.00  0.00     0.029 A 
ATOM     42  C   UNL A   1      39.946  29.121  29.411  1.00  0.00     0.049 A 
ATOM     43  H   UNL A   1      41.712  28.877  28.331  1.00  0.00     0.167 HD
ATOM     44  C   UNL A   1      45.495  28.183  26.255  1.00  0.00     0.034 A 
ATOM     45  C   UNL A   1      39.989  30.330  30.007  1.00  0.00     0.034 A 
ATOM     46  C   UNL A   1      45.649  29.478  26.881  1.00  0.00     0.049 A 
ATOM     47  C   UNL A   1      41.212  31.189  29.837  1.00  0.00     0.074 A 
ATOM     48  C   UNL A   1      46.725  30.348  26.816  1.00  0.00     0.029 A 
ATOM     49  N   UNL A   1      44.690  30.098  27.673  1.00  0.00    -0.354 N 
ATOM     50  N   UNL A   1      42.323  30.928  29.188  1.00  0.00    -0.248 NA
ATOM     51  C   UNL A   1      41.186  32.507  30.485  1.00  0.00     0.031 C 
ATOM     52  C   UNL A   1      46.436  31.470  27.604  1.00  0.00     0.029 A 
ATOM     53  C   UNL A   1      45.152  31.335  28.105  1.00  0.00     0.049 A 
ATOM     54  H   UNL A   1      43.810  29.716  27.896  1.00  0.00     0.167 HD
ATOM     55  C   UNL A   1      43.129  32.052  29.350  1.00  0.00     0.074 A 
ATOM     56  C   UNL A   1      42.360  33.004  30.126  1.00  0.00     0.031 C 
ATOM     57  C   UNL A   1      44.392  32.271  28.903  1.00  0.00     0.034 A 
BRANCH  44  58
ATOM     58  C   UNL A   1      46.650  27.614  25.455  1.00  0.00     0.023 A 
ATOM     59  C   UNL A   1      46.977  28.088  24.173  1.00  0.00     0.031 A 
ATOM     60  C   UNL A   1      47.391  26.528  25.959  1.00  0.00     0.131 A 
ATOM     61  C   UNL A   1      47.936  27.414  23.400  1.00  0.00     0.055 A 
ATOM     62  C   UNL A   1      48.413  25.925  25.221  1.00  0.00     0.041 A 
ATOM     63  F   UNL A   1      47.118  26.016  27.169  1.00  0.00    -0.206 F 
ATOM     64  C   UNL A   1      48.674  26.352  23.924  1.00  0.00     0.022 A 
BRANCH  61  65
ATOM     65  S   UNL A   1      48.062  27.821  21.635  1.00  0.00     0.124 S 
ATOM     66  O   UNL A   1      46.725  28.338  21.355  1.00  0.00    -0.237 OA
ATOM     67  O   UNL A   1      49.143  28.800  21.615  1.00  0.00    -0.237 OA
ATOM     68  O   UNL A   1      48.370  26.537  21.008  1.00  0.00    -0.744 OA
ENDBRANCH  61  65
ENDBRANCH  44  58
BRANCH  45  69
ATOM     69  C   UNL A   1      38.858  30.771  30.871  1.00  0.00     0.023 A 
ATOM     70  C   UNL A   1      37.716  31.381  30.328  1.00  0.00     0.031 A 
ATOM     71  C   UNL A   1      38.910  30.589  32.265  1.00  0.00     0.131 A 
ATOM     72  C   UNL A   1      36.683  31.809  31.176  1.00  0.00     0.055 A 
ATOM     73  C   UNL A   1      37.859  30.969  33.099  1.00  0.00     0.041 A 
ATOM     74  F   UNL A   1      39.980  30.009  32.833  1.00  0.00    -0.206 F 
ATOM     75  C   UNL A   1      36.740  31.591  32.556  1.00  0.00     0.022 A 
BRANCH  72  76
ATOM     76  S   UNL A   1      35.276  32.701  30.458  1.00  0.00     0.124 S 
ATOM     77  O   UNL A   1      34.931  31.850  29.325  1.00  0.00    -0.237 OA
ATOM     78  O   UNL A   1      34.325  32.714  31.565  1.00  0.00    -0.237 OA
ATOM     79  O   UNL A   1      35.841  34.004  30.112  1.00  0.00    -0.744 OA
ENDBRANCH  72  76
ENDBRANCH  45  69
BRANCH  57  80
ATOM     80  C   UNL A   1      45.001  33.616  29.222  1.00  0.00     0.023 A 
ATOM     81  C   UNL A   1      44.886  34.707  28.341  1.00  0.00     0.031 A 
ATOM     82  C   UNL A   1      45.747  33.795  30.400  1.00  0.00     0.131 A 
ATOM     83  C   UNL A   1      45.567  35.903  28.616  1.00  0.00     0.055 A 
ATOM     84  C   UNL A   1      46.373  35.007  30.697  1.00  0.00     0.041 A 
ATOM     85  F   UNL A   1      45.893  32.788  31.276  1.00  0.00    -0.206 F 
ATOM     86  C   UNL A   1      46.300  36.063  29.794  1.00  0.00     0.022 A 
BRANCH  83  87
ATOM     87  S   UNL A   1      45.589  37.204  27.350  1.00  0.00     0.124 S 
ATOM     88  O   UNL A   1      46.391  36.592  26.296  1.00  0.00    -0.237 OA
ATOM     89  O   UNL A   1      44.170  37.375  27.056  1.00  0.00    -0.237 OA
ATOM     90  O   UNL A   1      46.221  38.333  28.031  1.00  0.00    -0.744 OA
ENDBRANCH  83  87
ENDBRANCH  57  80
ENDBRANCH  31  32
ENDBRANCH  24  26
ENDBRANCH  23  24
ENDBRANCH   1  23
TORSDOF 17
ENDMDL
