MODEL 1
REMARK VINA RESULT:     -12.2      0.000      0.000
REMARK SMILES CCOC(=O)C1=NN(c2ccc([N+](=O)[O-])cc2C(F)(F)F)[C@@](C)(C(=O)OCCOC(=O)c2ccc(-c3c4nc(c(-c5cc(S(=O)(=O)[O-])ccc5F)c5ccc([nH]5)c(-c5cc(S(=O)(=O)[O-])ccc5F)c5nc(c(-c6cc(S(=O)(=O)[O-])ccc6F)c6ccc3[nH]6)C=C5)C=C4)cc2)C1
REMARK SMILES IDX 27 1 26 2 24 3 25 4 22 5 6 6 7 7 95 8 8 9 23 10 4 11 5 12
REMARK SMILES IDX 3 13 2 14 1 15 9 16 10 17 17 18 11 19 16 20 12 21 18 22
REMARK SMILES IDX 19 23 20 24 21 25 13 26 14 27 15 28 28 29 29 30 30 31 31 32
REMARK SMILES IDX 32 33 33 34 94 35 34 36 93 37 35 38 36 39 37 40 87 41 38 42
REMARK SMILES IDX 92 43 86 44 88 45 39 46 91 47 85 48 84 49 40 51 72 52 52 53
REMARK SMILES IDX 71 54 53 55 56 56 70 57 89 58 54 59 55 60 69 62 90 63 57 64
REMARK SMILES IDX 41 65 42 66 50 67 43 68 49 69 51 70 48 71 44 72 45 73 46 74
REMARK SMILES IDX 47 75 73 76 74 77 82 78 75 79 81 80 83 81 80 82 76 83 77 84
REMARK SMILES IDX 78 85 79 86 58 87 59 88 67 89 60 90 66 91 68 92 65 93 61 94
REMARK SMILES IDX 62 95 63 96 64 97
REMARK H PARENT 88 50 56 61
REMARK Flexibility Score: inf
ROOT
ATOM      1  C   UNL A   1      36.036  22.575  23.967  1.00  0.00     0.274 C 
ENDROOT
BRANCH   1   2
ATOM      2  O   UNL A   1      35.626  23.401  25.079  1.00  0.00    -0.460 OA
BRANCH   2   3
ATOM      3  C   UNL A   1      34.332  23.820  25.063  1.00  0.00     0.334 C 
ATOM      4  O   UNL A   1      33.926  24.722  24.331  1.00  0.00    -0.249 OA
BRANCH   3   5
ATOM      5  C   UNL A   1      33.419  23.166  26.117  1.00  0.00     0.163 C 
ATOM      6  C   UNL A   1      31.278  24.031  26.029  1.00  0.00     0.149 C 
ATOM      7  N   UNL A   1      31.187  22.913  25.381  1.00  0.00    -0.169 NA
ATOM      8  C   UNL A   1      32.543  24.244  26.795  1.00  0.00     0.108 C 
ATOM      9  N   UNL A   1      32.375  22.264  25.572  1.00  0.00    -0.247 N 
ATOM     10  C   UNL A   1      34.375  22.526  27.119  1.00  0.00     0.050 C 
BRANCH   6  11
ATOM     11  C   UNL A   1      30.161  25.039  26.053  1.00  0.00     0.354 C 
ATOM     12  O   UNL A   1      29.205  24.904  26.784  1.00  0.00    -0.245 OA
BRANCH  11  13
ATOM     13  O   UNL A   1      30.444  26.041  25.199  1.00  0.00    -0.461 OA
BRANCH  13  14
ATOM     14  C   UNL A   1      29.784  25.967  23.922  1.00  0.00     0.230 C 
ATOM     15  C   UNL A   1      29.528  27.370  23.407  1.00  0.00     0.049 C 
ENDBRANCH  13  14
ENDBRANCH  11  13
ENDBRANCH   6  11
BRANCH   9  16
ATOM     16  C   UNL A   1      32.444  20.973  25.084  1.00  0.00     0.073 A 
ATOM     17  C   UNL A   1      32.764  19.937  25.992  1.00  0.00     0.036 A 
ATOM     18  C   UNL A   1      32.410  20.657  23.712  1.00  0.00     0.088 A 
ATOM     19  C   UNL A   1      32.999  18.623  25.579  1.00  0.00     0.088 A 
ATOM     20  C   UNL A   1      32.599  19.317  23.297  1.00  0.00     0.101 A 
ATOM     21  C   UNL A   1      32.905  18.316  24.225  1.00  0.00     0.270 A 
BRANCH  18  22
ATOM     22  C   UNL A   1      32.256  21.689  22.620  1.00  0.00     0.418 C 
ATOM     23  F   UNL A   1      31.913  21.131  21.420  1.00  0.00    -0.166 F 
ATOM     24  F   UNL A   1      31.249  22.566  22.895  1.00  0.00    -0.166 F 
ATOM     25  F   UNL A   1      33.359  22.439  22.358  1.00  0.00    -0.166 F 
ENDBRANCH  18  22
BRANCH  21  26
ATOM     26  N   UNL A   1      33.174  16.952  23.759  1.00  0.00     0.062 N 
ATOM     27  O   UNL A   1      33.664  16.811  22.629  1.00  0.00    -0.258 OA
ATOM     28  O   UNL A   1      32.905  16.018  24.528  1.00  0.00    -0.258 OA
ENDBRANCH  21  26
ENDBRANCH   9  16
ENDBRANCH   3   5
ENDBRANCH   2   3
ENDBRANCH   1   2
BRANCH   1  29
ATOM     29  C   UNL A   1      37.065  21.531  24.394  1.00  0.00     0.275 C 
BRANCH  29  30
ATOM     30  O   UNL A   1      37.509  21.822  25.726  1.00  0.00    -0.458 OA
BRANCH  30  31
ATOM     31  C   UNL A   1      38.835  21.657  25.958  1.00  0.00     0.338 C 
ATOM     32  O   UNL A   1      39.500  20.671  25.689  1.00  0.00    -0.246 OA
BRANCH  31  33
ATOM     33  C   UNL A   1      39.380  22.872  26.603  1.00  0.00     0.060 A 
ATOM     34  C   UNL A   1      38.977  24.140  26.188  1.00  0.00     0.016 A 
ATOM     35  C   UNL A   1      40.380  22.751  27.566  1.00  0.00     0.016 A 
ATOM     36  C   UNL A   1      39.653  25.275  26.631  1.00  0.00     0.010 A 
ATOM     37  C   UNL A   1      40.968  23.900  28.107  1.00  0.00     0.010 A 
ATOM     38  C   UNL A   1      40.645  25.178  27.616  1.00  0.00    -0.014 A 
BRANCH  38  39
ATOM     39  C   UNL A   1      41.364  26.392  28.107  1.00  0.00     0.031 A 
ATOM     40  C   UNL A   1      40.621  27.443  28.896  1.00  0.00     0.074 A 
ATOM     41  C   UNL A   1      42.681  26.562  27.862  1.00  0.00     0.049 A 
ATOM     42  N   UNL A   1      40.991  28.659  29.209  1.00  0.00    -0.248 NA
ATOM     43  C   UNL A   1      39.286  27.077  29.394  1.00  0.00     0.031 C 
ATOM     44  C   UNL A   1      43.552  25.602  27.180  1.00  0.00     0.029 A 
ATOM     45  N   UNL A   1      43.521  27.612  28.154  1.00  0.00    -0.354 N 
ATOM     46  C   UNL A   1      39.919  29.219  29.899  1.00  0.00     0.074 A 
ATOM     47  C   UNL A   1      38.883  28.210  29.953  1.00  0.00     0.031 C 
ATOM     48  C   UNL A   1      44.800  26.087  27.136  1.00  0.00     0.029 A 
ATOM     49  C   UNL A   1      44.797  27.445  27.663  1.00  0.00     0.049 A 
ATOM     50  H   UNL A   1      43.238  28.404  28.663  1.00  0.00     0.167 HD
ATOM     51  C   UNL A   1      39.812  30.461  30.434  1.00  0.00     0.034 A 
ATOM     52  C   UNL A   1      45.829  28.307  27.561  1.00  0.00     0.034 A 
ATOM     53  C   UNL A   1      40.860  31.451  30.390  1.00  0.00     0.049 A 
ATOM     54  C   UNL A   1      45.643  29.721  28.035  1.00  0.00     0.074 A 
ATOM     55  C   UNL A   1      40.858  32.736  30.907  1.00  0.00     0.029 A 
ATOM     56  N   UNL A   1      42.099  31.270  29.791  1.00  0.00    -0.354 N 
ATOM     57  N   UNL A   1      44.596  30.266  28.610  1.00  0.00    -0.248 NA
ATOM     58  C   UNL A   1      46.763  30.644  27.819  1.00  0.00     0.031 C 
ATOM     59  C   UNL A   1      42.069  33.350  30.565  1.00  0.00     0.029 A 
ATOM     60  C   UNL A   1      42.854  32.428  29.891  1.00  0.00     0.049 A 
ATOM     61  H   UNL A   1      42.398  30.438  29.356  1.00  0.00     0.167 HD
ATOM     62  C   UNL A   1      44.934  31.598  28.824  1.00  0.00     0.074 A 
ATOM     63  C   UNL A   1      46.288  31.767  28.338  1.00  0.00     0.031 C 
ATOM     64  C   UNL A   1      44.191  32.592  29.373  1.00  0.00     0.034 A 
BRANCH  51  65
ATOM     65  C   UNL A   1      38.490  30.837  31.058  1.00  0.00     0.023 A 
ATOM     66  C   UNL A   1      37.472  31.466  30.323  1.00  0.00     0.031 A 
ATOM     67  C   UNL A   1      38.254  30.572  32.419  1.00  0.00     0.131 A 
ATOM     68  C   UNL A   1      36.288  31.862  30.964  1.00  0.00     0.055 A 
ATOM     69  C   UNL A   1      37.049  30.910  33.037  1.00  0.00     0.041 A 
ATOM     70  F   UNL A   1      39.199  29.988  33.174  1.00  0.00    -0.206 F 
ATOM     71  C   UNL A   1      36.062  31.570  32.311  1.00  0.00     0.022 A 
BRANCH  68  72
ATOM     72  S   UNL A   1      35.099  32.874  30.042  1.00  0.00     0.124 S 
ATOM     73  O   UNL A   1      34.208  33.333  31.107  1.00  0.00    -0.237 OA
ATOM     74  O   UNL A   1      35.953  33.893  29.443  1.00  0.00    -0.237 OA
ATOM     75  O   UNL A   1      34.499  31.928  29.103  1.00  0.00    -0.744 OA
ENDBRANCH  68  72
ENDBRANCH  51  65
BRANCH  52  76
ATOM     76  C   UNL A   1      47.085  27.890  26.871  1.00  0.00     0.023 A 
ATOM     77  C   UNL A   1      47.202  27.939  25.474  1.00  0.00     0.031 A 
ATOM     78  C   UNL A   1      48.187  27.419  27.610  1.00  0.00     0.131 A 
ATOM     79  C   UNL A   1      48.389  27.509  24.859  1.00  0.00     0.055 A 
ATOM     80  C   UNL A   1      49.382  27.042  26.997  1.00  0.00     0.041 A 
ATOM     81  F   UNL A   1      48.126  27.343  28.949  1.00  0.00    -0.206 F 
ATOM     82  C   UNL A   1      49.485  27.079  25.612  1.00  0.00     0.022 A 
BRANCH  79  83
ATOM     83  S   UNL A   1      48.462  27.458  23.047  1.00  0.00     0.124 S 
ATOM     84  O   UNL A   1      47.267  28.209  22.679  1.00  0.00    -0.237 OA
ATOM     85  O   UNL A   1      49.738  28.111  22.778  1.00  0.00    -0.237 OA
ATOM     86  O   UNL A   1      48.420  26.029  22.745  1.00  0.00    -0.744 OA
ENDBRANCH  79  83
ENDBRANCH  52  76
BRANCH  64  87
ATOM     87  C   UNL A   1      44.849  33.941  29.490  1.00  0.00     0.023 A 
ATOM     88  C   UNL A   1      44.607  34.958  28.551  1.00  0.00     0.031 A 
ATOM     89  C   UNL A   1      45.750  34.202  30.537  1.00  0.00     0.131 A 
ATOM     90  C   UNL A   1      45.298  36.176  28.650  1.00  0.00     0.055 A 
ATOM     91  C   UNL A   1      46.394  35.433  30.660  1.00  0.00     0.041 A 
ATOM     92  F   UNL A   1      46.019  33.260  31.456  1.00  0.00    -0.206 F 
ATOM     93  C   UNL A   1      46.178  36.424  29.706  1.00  0.00     0.022 A 
BRANCH  90  94
ATOM     94  S   UNL A   1      45.087  37.405  27.333  1.00  0.00     0.124 S 
ATOM     95  O   UNL A   1      45.177  38.660  28.074  1.00  0.00    -0.237 OA
ATOM     96  O   UNL A   1      46.205  37.108  26.444  1.00  0.00    -0.237 OA
ATOM     97  O   UNL A   1      43.766  37.101  26.788  1.00  0.00    -0.744 OA
ENDBRANCH  90  94
ENDBRANCH  64  87
ENDBRANCH  38  39
ENDBRANCH  31  33
ENDBRANCH  30  31
ENDBRANCH  29  30
ENDBRANCH   1  29
TORSDOF 20
ENDMDL
MODEL 2
REMARK VINA RESULT:     -12.2      2.190      4.231
REMARK SMILES CCOC(=O)C1=NN(c2ccc([N+](=O)[O-])cc2C(F)(F)F)[C@@](C)(C(=O)OCCOC(=O)c2ccc(-c3c4nc(c(-c5cc(S(=O)(=O)[O-])ccc5F)c5ccc([nH]5)c(-c5cc(S(=O)(=O)[O-])ccc5F)c5nc(c(-c6cc(S(=O)(=O)[O-])ccc6F)c6ccc3[nH]6)C=C5)C=C4)cc2)C1
REMARK SMILES IDX 27 1 26 2 24 3 25 4 22 5 6 6 7 7 95 8 8 9 23 10 4 11 5 12
REMARK SMILES IDX 3 13 2 14 1 15 9 16 10 17 17 18 11 19 16 20 12 21 18 22
REMARK SMILES IDX 19 23 20 24 21 25 13 26 14 27 15 28 28 29 29 30 30 31 31 32
REMARK SMILES IDX 32 33 33 34 94 35 34 36 93 37 35 38 36 39 37 40 87 41 38 42
REMARK SMILES IDX 92 43 86 44 88 45 39 46 91 47 85 48 84 49 40 51 72 52 52 53
REMARK SMILES IDX 71 54 53 55 56 56 70 57 89 58 54 59 55 60 69 62 90 63 57 64
REMARK SMILES IDX 41 65 42 66 50 67 43 68 49 69 51 70 48 71 44 72 45 73 46 74
REMARK SMILES IDX 47 75 73 76 74 77 82 78 75 79 81 80 83 81 80 82 76 83 77 84
REMARK SMILES IDX 78 85 79 86 58 87 59 88 67 89 60 90 66 91 68 92 65 93 61 94
REMARK SMILES IDX 62 95 63 96 64 97
REMARK H PARENT 88 50 56 61
REMARK Flexibility Score: inf
ROOT
ATOM      1  C   UNL A   1      36.538  22.768  23.395  1.00  0.00     0.274 C 
ENDROOT
BRANCH   1   2
ATOM      2  O   UNL A   1      35.206  23.153  22.988  1.00  0.00    -0.460 OA
BRANCH   2   3
ATOM      3  C   UNL A   1      34.627  24.148  23.714  1.00  0.00     0.334 C 
ATOM      4  O   UNL A   1      35.212  24.755  24.610  1.00  0.00    -0.249 OA
BRANCH   3   5
ATOM      5  C   UNL A   1      33.135  24.389  23.418  1.00  0.00     0.163 C 
ATOM      6  C   UNL A   1      31.788  23.084  24.768  1.00  0.00     0.149 C 
ATOM      7  N   UNL A   1      31.773  24.244  25.345  1.00  0.00    -0.169 NA
ATOM      8  C   UNL A   1      32.378  23.040  23.397  1.00  0.00     0.108 C 
ATOM      9  N   UNL A   1      32.391  25.106  24.483  1.00  0.00    -0.247 N 
ATOM     10  C   UNL A   1      33.110  25.054  22.045  1.00  0.00     0.050 C 
BRANCH   6  11
ATOM     11  C   UNL A   1      31.203  21.857  25.416  1.00  0.00     0.354 C 
ATOM     12  O   UNL A   1      30.311  21.939  26.231  1.00  0.00    -0.245 OA
BRANCH  11  13
ATOM     13  O   UNL A   1      31.800  20.760  24.915  1.00  0.00    -0.461 OA
BRANCH  13  14
ATOM     14  C   UNL A   1      32.859  20.211  25.723  1.00  0.00     0.230 C 
ATOM     15  C   UNL A   1      33.054  18.750  25.371  1.00  0.00     0.049 C 
ENDBRANCH  13  14
ENDBRANCH  11  13
ENDBRANCH   6  11
BRANCH   9  16
ATOM     16  C   UNL A   1      32.358  26.441  24.836  1.00  0.00     0.073 A 
ATOM     17  C   UNL A   1      33.251  26.884  25.839  1.00  0.00     0.036 A 
ATOM     18  C   UNL A   1      31.361  27.336  24.403  1.00  0.00     0.088 A 
ATOM     19  C   UNL A   1      33.202  28.176  26.370  1.00  0.00     0.088 A 
ATOM     20  C   UNL A   1      31.341  28.659  24.904  1.00  0.00     0.101 A 
ATOM     21  C   UNL A   1      32.246  29.066  25.890  1.00  0.00     0.270 A 
BRANCH  18  22
ATOM     22  C   UNL A   1      30.236  26.948  23.472  1.00  0.00     0.418 C 
ATOM     23  F   UNL A   1      29.184  27.818  23.534  1.00  0.00    -0.166 F 
ATOM     24  F   UNL A   1      30.632  26.974  22.167  1.00  0.00    -0.166 F 
ATOM     25  F   UNL A   1      29.692  25.721  23.684  1.00  0.00    -0.166 F 
ENDBRANCH  18  22
BRANCH  21  26
ATOM     26  N   UNL A   1      32.153  30.419  26.448  1.00  0.00     0.062 N 
ATOM     27  O   UNL A   1      31.367  31.214  25.914  1.00  0.00    -0.258 OA
ATOM     28  O   UNL A   1      32.860  30.685  27.431  1.00  0.00    -0.258 OA
ENDBRANCH  21  26
ENDBRANCH   9  16
ENDBRANCH   3   5
ENDBRANCH   2   3
ENDBRANCH   1   2
BRANCH   1  29
ATOM     29  C   UNL A   1      36.519  21.497  24.240  1.00  0.00     0.275 C 
BRANCH  29  30
ATOM     30  O   UNL A   1      37.010  21.795  25.554  1.00  0.00    -0.458 OA
BRANCH  30  31
ATOM     31  C   UNL A   1      38.308  21.482  25.788  1.00  0.00     0.338 C 
ATOM     32  O   UNL A   1      38.858  20.427  25.519  1.00  0.00    -0.246 OA
BRANCH  31  33
ATOM     33  C   UNL A   1      38.987  22.627  26.433  1.00  0.00     0.060 A 
ATOM     34  C   UNL A   1      38.585  23.935  26.166  1.00  0.00     0.016 A 
ATOM     35  C   UNL A   1      40.102  22.403  27.237  1.00  0.00     0.016 A 
ATOM     36  C   UNL A   1      39.362  25.011  26.588  1.00  0.00     0.010 A 
ATOM     37  C   UNL A   1      40.805  23.490  27.770  1.00  0.00     0.010 A 
ATOM     38  C   UNL A   1      40.473  24.810  27.417  1.00  0.00    -0.014 A 
BRANCH  38  39
ATOM     39  C   UNL A   1      41.303  25.960  27.887  1.00  0.00     0.031 A 
ATOM     40  C   UNL A   1      40.689  27.029  28.757  1.00  0.00     0.074 A 
ATOM     41  C   UNL A   1      42.607  26.056  27.549  1.00  0.00     0.049 A 
ATOM     42  N   UNL A   1      41.158  28.209  29.076  1.00  0.00    -0.248 NA
ATOM     43  C   UNL A   1      39.372  26.731  29.344  1.00  0.00     0.031 C 
ATOM     44  C   UNL A   1      43.362  25.066  26.777  1.00  0.00     0.029 A 
ATOM     45  N   UNL A   1      43.532  27.042  27.806  1.00  0.00    -0.354 N 
ATOM     46  C   UNL A   1      40.178  28.813  29.860  1.00  0.00     0.074 A 
ATOM     47  C   UNL A   1      39.085  27.868  29.962  1.00  0.00     0.031 C 
ATOM     48  C   UNL A   1      44.632  25.474  26.654  1.00  0.00     0.029 A 
ATOM     49  C   UNL A   1      44.756  26.811  27.216  1.00  0.00     0.049 A 
ATOM     50  H   UNL A   1      43.339  27.833  28.357  1.00  0.00     0.167 HD
ATOM     51  C   UNL A   1      40.190  30.040  30.435  1.00  0.00     0.034 A 
ATOM     52  C   UNL A   1      45.831  27.610  27.062  1.00  0.00     0.034 A 
ATOM     53  C   UNL A   1      41.294  30.965  30.340  1.00  0.00     0.049 A 
ATOM     54  C   UNL A   1      45.770  29.017  27.588  1.00  0.00     0.074 A 
ATOM     55  C   UNL A   1      41.412  32.229  30.892  1.00  0.00     0.029 A 
ATOM     56  N   UNL A   1      42.472  30.726  29.645  1.00  0.00    -0.354 N 
ATOM     57  N   UNL A   1      44.805  29.608  28.253  1.00  0.00    -0.248 NA
ATOM     58  C   UNL A   1      46.929  29.875  27.314  1.00  0.00     0.031 C 
ATOM     59  C   UNL A   1      42.631  32.778  30.477  1.00  0.00     0.029 A 
ATOM     60  C   UNL A   1      43.304  31.831  29.721  1.00  0.00     0.049 A 
ATOM     61  H   UNL A   1      42.684  29.891  29.167  1.00  0.00     0.167 HD
ATOM     62  C   UNL A   1      45.243  30.908  28.479  1.00  0.00     0.074 A 
ATOM     63  C   UNL A   1      46.567  31.009  27.898  1.00  0.00     0.031 C 
ATOM     64  C   UNL A   1      44.608  31.928  29.109  1.00  0.00     0.034 A 
BRANCH  51  65
ATOM     65  C   UNL A   1      38.944  30.477  31.166  1.00  0.00     0.023 A 
ATOM     66  C   UNL A   1      37.876  31.106  30.506  1.00  0.00     0.031 A 
ATOM     67  C   UNL A   1      38.834  30.273  32.554  1.00  0.00     0.131 A 
ATOM     68  C   UNL A   1      36.769  31.559  31.240  1.00  0.00     0.055 A 
ATOM     69  C   UNL A   1      37.703  30.668  33.269  1.00  0.00     0.041 A 
ATOM     70  F   UNL A   1      39.833  29.693  33.239  1.00  0.00    -0.206 F 
ATOM     71  C   UNL A   1      36.666  31.327  32.614  1.00  0.00     0.022 A 
BRANCH  68  72
ATOM     72  S   UNL A   1      35.521  32.568  30.394  1.00  0.00     0.124 S 
ATOM     73  O   UNL A   1      36.191  33.865  30.312  1.00  0.00    -0.237 OA
ATOM     74  O   UNL A   1      35.349  31.859  29.132  1.00  0.00    -0.237 OA
ATOM     75  O   UNL A   1      34.374  32.524  31.300  1.00  0.00    -0.744 OA
ENDBRANCH  68  72
ENDBRANCH  51  65
BRANCH  52  76
ATOM     76  C   UNL A   1      47.003  27.139  26.269  1.00  0.00     0.023 A 
ATOM     77  C   UNL A   1      48.108  26.535  26.886  1.00  0.00     0.031 A 
ATOM     78  C   UNL A   1      47.038  27.306  24.871  1.00  0.00     0.131 A 
ATOM     79  C   UNL A   1      49.208  26.133  26.110  1.00  0.00     0.055 A 
ATOM     80  C   UNL A   1      48.109  26.858  24.098  1.00  0.00     0.041 A 
ATOM     81  F   UNL A   1      46.011  27.887  24.230  1.00  0.00    -0.206 F 
ATOM     82  C   UNL A   1      49.207  26.274  24.719  1.00  0.00     0.022 A 
BRANCH  79  83
ATOM     83  S   UNL A   1      50.675  25.477  26.950  1.00  0.00     0.124 S 
ATOM     84  O   UNL A   1      50.119  24.341  27.677  1.00  0.00    -0.237 OA
ATOM     85  O   UNL A   1      51.548  25.155  25.827  1.00  0.00    -0.237 OA
ATOM     86  O   UNL A   1      51.119  26.594  27.781  1.00  0.00    -0.744 OA
ENDBRANCH  79  83
ENDBRANCH  52  76
BRANCH  64  87
ATOM     87  C   UNL A   1      45.358  33.229  29.214  1.00  0.00     0.023 A 
ATOM     88  C   UNL A   1      45.271  34.207  28.209  1.00  0.00     0.031 A 
ATOM     89  C   UNL A   1      46.192  33.480  30.318  1.00  0.00     0.131 A 
ATOM     90  C   UNL A   1      46.045  35.375  28.305  1.00  0.00     0.055 A 
ATOM     91  C   UNL A   1      46.918  34.665  30.432  1.00  0.00     0.041 A 
ATOM     92  F   UNL A   1      46.313  32.574  31.301  1.00  0.00    -0.206 F 
ATOM     93  C   UNL A   1      46.856  35.616  29.416  1.00  0.00     0.022 A 
BRANCH  90  94
ATOM     94  S   UNL A   1      46.036  36.542  26.916  1.00  0.00     0.124 S 
ATOM     95  O   UNL A   1      47.161  37.412  27.245  1.00  0.00    -0.237 OA
ATOM     96  O   UNL A   1      46.224  35.664  25.767  1.00  0.00    -0.237 OA
ATOM     97  O   UNL A   1      44.720  37.170  27.006  1.00  0.00    -0.744 OA
ENDBRANCH  90  94
ENDBRANCH  64  87
ENDBRANCH  38  39
ENDBRANCH  31  33
ENDBRANCH  30  31
ENDBRANCH  29  30
ENDBRANCH   1  29
TORSDOF 20
ENDMDL
MODEL 3
REMARK VINA RESULT:     -12.2      5.107     10.175
REMARK SMILES CCOC(=O)C1=NN(c2ccc([N+](=O)[O-])cc2C(F)(F)F)[C@@](C)(C(=O)OCCOC(=O)c2ccc(-c3c4nc(c(-c5cc(S(=O)(=O)[O-])ccc5F)c5ccc([nH]5)c(-c5cc(S(=O)(=O)[O-])ccc5F)c5nc(c(-c6cc(S(=O)(=O)[O-])ccc6F)c6ccc3[nH]6)C=C5)C=C4)cc2)C1
REMARK SMILES IDX 27 1 26 2 24 3 25 4 22 5 6 6 7 7 95 8 8 9 23 10 4 11 5 12
REMARK SMILES IDX 3 13 2 14 1 15 9 16 10 17 17 18 11 19 16 20 12 21 18 22
REMARK SMILES IDX 19 23 20 24 21 25 13 26 14 27 15 28 28 29 29 30 30 31 31 32
REMARK SMILES IDX 32 33 33 34 94 35 34 36 93 37 35 38 36 39 37 40 87 41 38 42
REMARK SMILES IDX 92 43 86 44 88 45 39 46 91 47 85 48 84 49 40 51 72 52 52 53
REMARK SMILES IDX 71 54 53 55 56 56 70 57 89 58 54 59 55 60 69 62 90 63 57 64
REMARK SMILES IDX 41 65 42 66 50 67 43 68 49 69 51 70 48 71 44 72 45 73 46 74
REMARK SMILES IDX 47 75 73 76 74 77 82 78 75 79 81 80 83 81 80 82 76 83 77 84
REMARK SMILES IDX 78 85 79 86 58 87 59 88 67 89 60 90 66 91 68 92 65 93 61 94
REMARK SMILES IDX 62 95 63 96 64 97
REMARK H PARENT 88 50 56 61
REMARK Flexibility Score: inf
ROOT
ATOM      1  C   UNL A   1      31.980  28.167  26.917  1.00  0.00     0.274 C 
ENDROOT
BRANCH   1   2
ATOM      2  O   UNL A   1      33.128  27.703  26.172  1.00  0.00    -0.460 OA
BRANCH   2   3
ATOM      3  C   UNL A   1      32.896  26.695  25.289  1.00  0.00     0.334 C 
ATOM      4  O   UNL A   1      32.579  25.557  25.635  1.00  0.00    -0.249 OA
BRANCH   3   5
ATOM      5  C   UNL A   1      33.174  27.040  23.814  1.00  0.00     0.163 C 
ATOM      6  C   UNL A   1      33.087  25.156  22.479  1.00  0.00     0.149 C 
ATOM      7  N   UNL A   1      31.931  25.715  22.302  1.00  0.00    -0.169 NA
ATOM      8  C   UNL A   1      34.110  25.977  23.193  1.00  0.00     0.108 C 
ATOM      9  N   UNL A   1      32.001  26.936  22.912  1.00  0.00    -0.247 N 
ATOM     10  C   UNL A   1      33.847  28.409  23.853  1.00  0.00     0.050 C 
BRANCH   6  11
ATOM     11  C   UNL A   1      33.403  23.781  21.955  1.00  0.00     0.354 C 
ATOM     12  O   UNL A   1      33.251  23.501  20.786  1.00  0.00    -0.245 OA
BRANCH  11  13
ATOM     13  O   UNL A   1      33.878  23.019  22.957  1.00  0.00    -0.461 OA
BRANCH  13  14
ATOM     14  C   UNL A   1      32.881  22.470  23.840  1.00  0.00     0.230 C 
ATOM     15  C   UNL A   1      32.132  21.363  23.126  1.00  0.00     0.049 C 
ENDBRANCH  13  14
ENDBRANCH  11  13
ENDBRANCH   6  11
BRANCH   9  16
ATOM     16  C   UNL A   1      30.916  27.770  22.722  1.00  0.00     0.073 A 
ATOM     17  C   UNL A   1      31.140  29.019  22.099  1.00  0.00     0.036 A 
ATOM     18  C   UNL A   1      29.647  27.536  23.285  1.00  0.00     0.088 A 
ATOM     19  C   UNL A   1      30.144  29.992  21.987  1.00  0.00     0.088 A 
ATOM     20  C   UNL A   1      28.623  28.500  23.130  1.00  0.00     0.101 A 
ATOM     21  C   UNL A   1      28.879  29.722  22.499  1.00  0.00     0.270 A 
BRANCH  18  22
ATOM     22  C   UNL A   1      29.316  26.328  24.129  1.00  0.00     0.418 C 
ATOM     23  F   UNL A   1      29.909  26.374  25.360  1.00  0.00    -0.166 F 
ATOM     24  F   UNL A   1      27.980  26.247  24.391  1.00  0.00    -0.166 F 
ATOM     25  F   UNL A   1      29.679  25.126  23.608  1.00  0.00    -0.166 F 
ENDBRANCH  18  22
BRANCH  21  26
ATOM     26  N   UNL A   1      27.821  30.736  22.422  1.00  0.00     0.062 N 
ATOM     27  O   UNL A   1      26.957  30.741  23.310  1.00  0.00    -0.258 OA
ATOM     28  O   UNL A   1      27.860  31.536  21.477  1.00  0.00    -0.258 OA
ENDBRANCH  21  26
ENDBRANCH   9  16
ENDBRANCH   3   5
ENDBRANCH   2   3
ENDBRANCH   1   2
BRANCH   1  29
ATOM     29  C   UNL A   1      31.852  29.686  26.858  1.00  0.00     0.275 C 
BRANCH  29  30
ATOM     30  O   UNL A   1      33.110  30.253  26.468  1.00  0.00    -0.458 OA
BRANCH  30  31
ATOM     31  C   UNL A   1      33.573  31.263  27.245  1.00  0.00     0.338 C 
ATOM     32  O   UNL A   1      32.982  32.292  27.524  1.00  0.00    -0.246 OA
BRANCH  31  33
ATOM     33  C   UNL A   1      34.934  30.935  27.725  1.00  0.00     0.060 A 
ATOM     34  C   UNL A   1      35.284  29.622  28.031  1.00  0.00     0.016 A 
ATOM     35  C   UNL A   1      35.844  31.962  27.967  1.00  0.00     0.016 A 
ATOM     36  C   UNL A   1      36.478  29.346  28.693  1.00  0.00     0.010 A 
ATOM     37  C   UNL A   1      37.098  31.665  28.513  1.00  0.00     0.010 A 
ATOM     38  C   UNL A   1      37.417  30.359  28.926  1.00  0.00    -0.014 A 
BRANCH  38  39
ATOM     39  C   UNL A   1      38.706  30.069  29.622  1.00  0.00     0.031 A 
ATOM     40  C   UNL A   1      39.692  29.101  29.015  1.00  0.00     0.074 A 
ATOM     41  C   UNL A   1      39.011  30.670  30.793  1.00  0.00     0.049 A 
ATOM     42  N   UNL A   1      40.744  28.540  29.556  1.00  0.00    -0.248 NA
ATOM     43  C   UNL A   1      39.462  28.711  27.615  1.00  0.00     0.031 C 
ATOM     44  C   UNL A   1      38.196  31.684  31.467  1.00  0.00     0.029 A 
ATOM     45  N   UNL A   1      40.090  30.510  31.631  1.00  0.00    -0.354 N 
ATOM     46  C   UNL A   1      41.274  27.698  28.583  1.00  0.00     0.074 A 
ATOM     47  C   UNL A   1      40.421  27.818  27.418  1.00  0.00     0.031 C 
ATOM     48  C   UNL A   1      38.815  32.077  32.588  1.00  0.00     0.029 A 
ATOM     49  C   UNL A   1      40.000  31.254  32.788  1.00  0.00     0.049 A 
ATOM     50  H   UNL A   1      40.851  29.922  31.426  1.00  0.00     0.167 HD
ATOM     51  C   UNL A   1      42.367  26.898  28.657  1.00  0.00     0.034 A 
ATOM     52  C   UNL A   1      40.729  31.223  33.922  1.00  0.00     0.034 A 
ATOM     53  C   UNL A   1      43.218  26.802  29.818  1.00  0.00     0.049 A 
ATOM     54  C   UNL A   1      41.852  30.231  34.035  1.00  0.00     0.074 A 
ATOM     55  C   UNL A   1      44.354  26.030  29.995  1.00  0.00     0.029 A 
ATOM     56  N   UNL A   1      43.027  27.500  31.003  1.00  0.00    -0.354 N 
ATOM     57  N   UNL A   1      42.292  29.378  33.140  1.00  0.00    -0.248 NA
ATOM     58  C   UNL A   1      42.555  30.174  35.322  1.00  0.00     0.031 C 
ATOM     59  C   UNL A   1      44.809  26.212  31.306  1.00  0.00     0.029 A 
ATOM     60  C   UNL A   1      43.998  27.149  31.927  1.00  0.00     0.049 A 
ATOM     61  H   UNL A   1      42.304  28.150  31.163  1.00  0.00     0.167 HD
ATOM     62  C   UNL A   1      43.326  28.682  33.758  1.00  0.00     0.074 A 
ATOM     63  C   UNL A   1      43.458  29.231  35.092  1.00  0.00     0.031 C 
ATOM     64  C   UNL A   1      44.097  27.680  33.265  1.00  0.00     0.034 A 
BRANCH  51  65
ATOM     65  C   UNL A   1      42.664  26.017  27.469  1.00  0.00     0.023 A 
ATOM     66  C   UNL A   1      42.175  24.703  27.375  1.00  0.00     0.031 A 
ATOM     67  C   UNL A   1      43.467  26.499  26.418  1.00  0.00     0.131 A 
ATOM     68  C   UNL A   1      42.539  23.898  26.285  1.00  0.00     0.055 A 
ATOM     69  C   UNL A   1      43.772  25.714  25.305  1.00  0.00     0.041 A 
ATOM     70  F   UNL A   1      43.976  27.740  26.464  1.00  0.00    -0.206 F 
ATOM     71  C   UNL A   1      43.318  24.400  25.240  1.00  0.00     0.022 A 
BRANCH  68  72
ATOM     72  S   UNL A   1      42.081  22.143  26.313  1.00  0.00     0.124 S 
ATOM     73  O   UNL A   1      40.628  22.211  26.162  1.00  0.00    -0.237 OA
ATOM     74  O   UNL A   1      42.815  21.609  25.172  1.00  0.00    -0.237 OA
ATOM     75  O   UNL A   1      42.543  21.689  27.624  1.00  0.00    -0.744 OA
ENDBRANCH  68  72
ENDBRANCH  51  65
BRANCH  52  76
ATOM     76  C   UNL A   1      40.338  32.073  35.084  1.00  0.00     0.023 A 
ATOM     77  C   UNL A   1      39.347  31.664  35.988  1.00  0.00     0.031 A 
ATOM     78  C   UNL A   1      40.947  33.325  35.295  1.00  0.00     0.131 A 
ATOM     79  C   UNL A   1      38.983  32.506  37.052  1.00  0.00     0.055 A 
ATOM     80  C   UNL A   1      40.620  34.134  36.383  1.00  0.00     0.041 A 
ATOM     81  F   UNL A   1      41.895  33.770  34.455  1.00  0.00    -0.206 F 
ATOM     82  C   UNL A   1      39.626  33.728  37.266  1.00  0.00     0.022 A 
BRANCH  79  83
ATOM     83  S   UNL A   1      37.607  32.009  38.125  1.00  0.00     0.124 S 
ATOM     84  O   UNL A   1      38.176  32.213  39.452  1.00  0.00    -0.237 OA
ATOM     85  O   UNL A   1      36.560  32.942  37.725  1.00  0.00    -0.237 OA
ATOM     86  O   UNL A   1      37.372  30.616  37.753  1.00  0.00    -0.744 OA
ENDBRANCH  79  83
ENDBRANCH  52  76
BRANCH  64  87
ATOM     87  C   UNL A   1      45.162  27.136  34.180  1.00  0.00     0.023 A 
ATOM     88  C   UNL A   1      44.910  26.049  35.033  1.00  0.00     0.031 A 
ATOM     89  C   UNL A   1      46.435  27.732  34.218  1.00  0.00     0.131 A 
ATOM     90  C   UNL A   1      45.904  25.619  35.926  1.00  0.00     0.055 A 
ATOM     91  C   UNL A   1      47.436  27.267  35.071  1.00  0.00     0.041 A 
ATOM     92  F   UNL A   1      46.724  28.778  33.426  1.00  0.00    -0.206 F 
ATOM     93  C   UNL A   1      47.169  26.212  35.939  1.00  0.00     0.022 A 
BRANCH  90  94
ATOM     94  S   UNL A   1      45.495  24.322  37.126  1.00  0.00     0.124 S 
ATOM     95  O   UNL A   1      44.224  24.798  37.664  1.00  0.00    -0.237 OA
ATOM     96  O   UNL A   1      45.425  23.130  36.288  1.00  0.00    -0.237 OA
ATOM     97  O   UNL A   1      46.617  24.356  38.061  1.00  0.00    -0.744 OA
ENDBRANCH  90  94
ENDBRANCH  64  87
ENDBRANCH  38  39
ENDBRANCH  31  33
ENDBRANCH  30  31
ENDBRANCH  29  30
ENDBRANCH   1  29
TORSDOF 20
ENDMDL
