MODEL 1
REMARK VINA RESULT:     -14.0      0.000      0.000
REMARK SMILES Cc1c(CC(=O)OCCOC(=O)c2ccc(-c3c4nc(c(-c5cc(S(=O)(=O)[O-])ccc5F)c5ccc([nH]5)c(-c5cc(S(=O)(=O)[O-])ccc5F)c5nc(c(-c6cc(S(=O)(=O)[O-])ccc6F)c6ccc3[nH]6)C=C5)C=C4)cc2)cc(-c2ccccc2)cc1-c1ccccc1
REMARK SMILES IDX 9 1 8 2 7 3 5 4 6 5 4 6 3 7 1 8 2 9 85 10 76 11 84 12 77 13
REMARK SMILES IDX 86 14 87 15 91 16 88 17 90 18 89 19 78 20 79 21 83 22 80 23
REMARK SMILES IDX 82 24 81 25 10 26 11 27 12 28 13 29 14 30 75 31 15 32 74 33
REMARK SMILES IDX 16 34 17 35 18 36 68 37 19 38 73 39 67 40 69 41 20 42 72 43
REMARK SMILES IDX 66 44 65 45 21 47 53 48 33 49 52 50 34 51 37 52 51 53 70 54
REMARK SMILES IDX 35 55 36 56 50 58 71 59 38 60 22 61 23 62 31 63 24 64 30 65
REMARK SMILES IDX 32 66 29 67 25 68 26 69 27 70 28 71 54 72 55 73 63 74 56 75
REMARK SMILES IDX 62 76 64 77 61 78 57 79 58 80 59 81 60 82 39 83 40 84 48 85
REMARK SMILES IDX 41 86 47 87 49 88 46 89 42 90 43 91 44 92 45 93
REMARK H PARENT 69 46 37 57
REMARK Flexibility Score: inf
ROOT
ATOM      1  C   UNL A   1      42.320  21.885  26.024  1.00  0.00     0.275 C 
ENDROOT
BRANCH   1   2
ATOM      2  C   UNL A   1      42.096  20.617  26.852  1.00  0.00     0.274 C 
BRANCH   2   3
ATOM      3  O   UNL A   1      40.709  20.555  27.225  1.00  0.00    -0.462 OA
BRANCH   3   4
ATOM      4  C   UNL A   1      39.765  20.331  26.149  1.00  0.00     0.310 C 
ATOM      5  O   UNL A   1      40.025  19.158  25.741  1.00  0.00    -0.252 OA
BRANCH   4   6
ATOM      6  C   UNL A   1      38.247  21.742  25.515  1.00  0.00     0.158 C 
BRANCH   6   7
ATOM      7  C   UNL A   1      36.544  21.643  25.178  1.00  0.00    -0.033 A 
ATOM      8  C   UNL A   1      36.215  24.169  25.430  1.00  0.00     0.045 C 
ATOM      9  C   UNL A   1      35.673  22.769  25.282  1.00  0.00    -0.039 A 
ATOM     10  C   UNL A   1      34.268  22.557  25.207  1.00  0.00    -0.015 A 
ATOM     11  C   UNL A   1      35.991  20.445  24.692  1.00  0.00     0.013 A 
ATOM     12  C   UNL A   1      33.776  21.245  25.066  1.00  0.00     0.017 A 
ATOM     13  C   UNL A   1      34.631  20.179  24.810  1.00  0.00    -0.017 A 
BRANCH  10  14
ATOM     14  C   UNL A   1      33.285  23.648  25.276  1.00  0.00    -0.018 A 
ATOM     15  C   UNL A   1      33.004  24.439  24.153  1.00  0.00     0.009 A 
ATOM     16  C   UNL A   1      32.617  23.932  26.480  1.00  0.00     0.009 A 
ATOM     17  C   UNL A   1      32.064  25.469  24.225  1.00  0.00     0.001 A 
ATOM     18  C   UNL A   1      31.665  24.949  26.548  1.00  0.00     0.001 A 
ATOM     19  C   UNL A   1      31.389  25.717  25.420  1.00  0.00     0.000 A 
ENDBRANCH  10  14
BRANCH  13  20
ATOM     20  C   UNL A   1      34.171  18.788  24.775  1.00  0.00    -0.018 A 
ATOM     21  C   UNL A   1      32.886  18.471  25.254  1.00  0.00     0.009 A 
ATOM     22  C   UNL A   1      34.985  17.746  24.329  1.00  0.00     0.009 A 
ATOM     23  C   UNL A   1      32.449  17.151  25.349  1.00  0.00     0.001 A 
ATOM     24  C   UNL A   1      34.538  16.423  24.396  1.00  0.00     0.001 A 
ATOM     25  C   UNL A   1      33.278  16.125  24.918  1.00  0.00     0.000 A 
ENDBRANCH  13  20
ENDBRANCH   6   7
ENDBRANCH   4   6
ENDBRANCH   3   4
ENDBRANCH   2   3
ENDBRANCH   1   2
BRANCH   1  26
ATOM     26  O   UNL A   1      41.469  23.049  26.249  1.00  0.00    -0.458 OA
BRANCH  26  27
ATOM     27  C   UNL A   1      41.493  24.013  27.196  1.00  0.00     0.338 C 
ATOM     28  O   UNL A   1      42.224  23.980  28.177  1.00  0.00    -0.246 OA
BRANCH  27  29
ATOM     29  C   UNL A   1      40.477  25.079  27.148  1.00  0.00     0.060 A 
ATOM     30  C   UNL A   1      40.911  26.411  26.006  1.00  0.00     0.016 A 
ATOM     31  C   UNL A   1      39.433  25.400  28.582  1.00  0.00     0.016 A 
ATOM     32  C   UNL A   1      40.525  28.128  26.463  1.00  0.00     0.010 A 
ATOM     33  C   UNL A   1      39.021  27.104  29.008  1.00  0.00     0.010 A 
ATOM     34  C   UNL A   1      39.680  28.457  28.003  1.00  0.00    -0.014 A 
BRANCH  34  35
ATOM     35  C   UNL A   1      39.975  29.630  28.808  1.00  0.00     0.031 A 
ATOM     36  C   UNL A   1      38.941  30.658  28.866  1.00  0.00     0.074 A 
ATOM     37  C   UNL A   1      41.062  29.622  29.620  1.00  0.00     0.049 A 
ATOM     38  N   UNL A   1      39.158  31.864  29.230  1.00  0.00    -0.248 NA
ATOM     39  C   UNL A   1      37.569  30.451  28.404  1.00  0.00     0.031 C 
ATOM     40  C   UNL A   1      41.335  30.446  30.794  1.00  0.00     0.029 A 
ATOM     41  N   UNL A   1      42.224  28.880  29.535  1.00  0.00    -0.354 N 
ATOM     42  C   UNL A   1      37.925  32.426  29.452  1.00  0.00     0.074 A 
ATOM     43  C   UNL A   1      37.006  31.624  28.700  1.00  0.00     0.031 C 
ATOM     44  C   UNL A   1      42.645  30.359  31.103  1.00  0.00     0.029 A 
ATOM     45  C   UNL A   1      43.296  29.583  30.064  1.00  0.00     0.049 A 
ATOM     46  H   UNL A   1      42.283  27.976  29.152  1.00  0.00     0.167 HD
ATOM     47  C   UNL A   1      37.828  33.372  30.421  1.00  0.00     0.034 A 
ATOM     48  C   UNL A   1      44.305  30.016  29.245  1.00  0.00     0.034 A 
ATOM     49  C   UNL A   1      39.170  33.752  30.885  1.00  0.00     0.049 A 
ATOM     50  C   UNL A   1      44.185  31.521  28.991  1.00  0.00     0.074 A 
ATOM     51  C   UNL A   1      39.922  33.524  32.023  1.00  0.00     0.029 A 
ATOM     52  N   UNL A   1      40.072  34.186  29.931  1.00  0.00    -0.354 N 
ATOM     53  N   UNL A   1      43.243  32.271  29.506  1.00  0.00    -0.248 NA
ATOM     54  C   UNL A   1      45.065  32.296  28.121  1.00  0.00     0.031 C 
ATOM     55  C   UNL A   1      41.302  33.743  31.684  1.00  0.00     0.029 A 
ATOM     56  C   UNL A   1      41.377  34.162  30.365  1.00  0.00     0.049 A 
ATOM     57  H   UNL A   1      39.807  34.482  29.030  1.00  0.00     0.167 HD
ATOM     58  C   UNL A   1      43.323  33.552  29.040  1.00  0.00     0.074 A 
ATOM     59  C   UNL A   1      44.477  33.508  28.147  1.00  0.00     0.031 C 
ATOM     60  C   UNL A   1      42.424  34.526  29.409  1.00  0.00     0.034 A 
BRANCH  47  61
ATOM     61  C   UNL A   1      36.548  33.826  31.073  1.00  0.00     0.023 A 
ATOM     62  C   UNL A   1      35.558  34.364  30.233  1.00  0.00     0.031 A 
ATOM     63  C   UNL A   1      36.247  33.855  32.455  1.00  0.00     0.131 A 
ATOM     64  C   UNL A   1      34.365  34.893  30.751  1.00  0.00     0.055 A 
ATOM     65  C   UNL A   1      35.035  34.335  32.967  1.00  0.00     0.041 A 
ATOM     66  F   UNL A   1      37.114  33.476  33.400  1.00  0.00    -0.206 F 
ATOM     67  C   UNL A   1      34.086  34.866  32.115  1.00  0.00     0.022 A 
BRANCH  64  68
ATOM     68  S   UNL A   1      33.197  35.663  29.606  1.00  0.00     0.124 S 
ATOM     69  O   UNL A   1      32.418  36.517  30.497  1.00  0.00    -0.237 OA
ATOM     70  O   UNL A   1      34.088  36.341  28.670  1.00  0.00    -0.237 OA
ATOM     71  O   UNL A   1      32.468  34.524  29.051  1.00  0.00    -0.744 OA
ENDBRANCH  64  68
ENDBRANCH  47  61
BRANCH  48  72
ATOM     72  C   UNL A   1      44.742  28.943  28.287  1.00  0.00     0.023 A 
ATOM     73  C   UNL A   1      45.560  27.918  28.827  1.00  0.00     0.031 A 
ATOM     74  C   UNL A   1      44.061  28.655  27.097  1.00  0.00     0.131 A 
ATOM     75  C   UNL A   1      45.511  26.611  28.313  1.00  0.00     0.055 A 
ATOM     76  C   UNL A   1      44.078  27.364  26.537  1.00  0.00     0.041 A 
ATOM     77  F   UNL A   1      43.237  29.558  26.543  1.00  0.00    -0.206 F 
ATOM     78  C   UNL A   1      44.758  26.326  27.175  1.00  0.00     0.022 A 
BRANCH  75  79
ATOM     79  S   UNL A   1      46.200  25.250  29.311  1.00  0.00     0.124 S 
ATOM     80  O   UNL A   1      46.214  25.835  30.648  1.00  0.00    -0.237 OA
ATOM     81  O   UNL A   1      45.239  24.168  29.109  1.00  0.00    -0.237 OA
ATOM     82  O   UNL A   1      47.516  25.021  28.719  1.00  0.00    -0.744 OA
ENDBRANCH  75  79
ENDBRANCH  48  72
BRANCH  60  83
ATOM     83  C   UNL A   1      42.442  35.938  28.851  1.00  0.00     0.023 A 
ATOM     84  C   UNL A   1      42.917  37.007  29.613  1.00  0.00     0.031 A 
ATOM     85  C   UNL A   1      41.952  36.280  27.563  1.00  0.00     0.131 A 
ATOM     86  C   UNL A   1      43.037  38.291  29.057  1.00  0.00     0.055 A 
ATOM     87  C   UNL A   1      41.960  37.580  27.057  1.00  0.00     0.041 A 
ATOM     88  F   UNL A   1      41.484  35.374  26.696  1.00  0.00    -0.206 F 
ATOM     89  C   UNL A   1      42.539  38.595  27.794  1.00  0.00     0.022 A 
BRANCH  86  90
ATOM     90  S   UNL A   1      43.971  39.524  29.986  1.00  0.00     0.124 S 
ATOM     91  O   UNL A   1      42.920  40.261  30.681  1.00  0.00    -0.237 OA
ATOM     92  O   UNL A   1      44.813  38.678  30.828  1.00  0.00    -0.237 OA
ATOM     93  O   UNL A   1      44.679  40.271  28.950  1.00  0.00    -0.744 OA
ENDBRANCH  86  90
ENDBRANCH  60  83
ENDBRANCH  34  35
ENDBRANCH  27  29
ENDBRANCH  26  27
ENDBRANCH   1  26
TORSDOF 17
ENDMDL
MODEL 2
REMARK VINA RESULT:     -13.8      1.709      2.148
REMARK SMILES Cc1c(CC(=O)OCCOC(=O)c2ccc(-c3c4nc(c(-c5cc(S(=O)(=O)[O-])ccc5F)c5ccc([nH]5)c(-c5cc(S(=O)(=O)[O-])ccc5F)c5nc(c(-c6cc(S(=O)(=O)[O-])ccc6F)c6ccc3[nH]6)C=C5)C=C4)cc2)cc(-c2ccccc2)cc1-c1ccccc1
REMARK SMILES IDX 9 1 8 2 7 3 5 4 6 5 4 6 3 7 1 8 2 9 85 10 76 11 84 12 77 13
REMARK SMILES IDX 86 14 87 15 91 16 88 17 90 18 89 19 78 20 79 21 83 22 80 23
REMARK SMILES IDX 82 24 81 25 10 26 11 27 12 28 13 29 14 30 75 31 15 32 74 33
REMARK SMILES IDX 16 34 17 35 18 36 68 37 19 38 73 39 67 40 69 41 20 42 72 43
REMARK SMILES IDX 66 44 65 45 21 47 53 48 33 49 52 50 34 51 37 52 51 53 70 54
REMARK SMILES IDX 35 55 36 56 50 58 71 59 38 60 22 61 23 62 31 63 24 64 30 65
REMARK SMILES IDX 32 66 29 67 25 68 26 69 27 70 28 71 54 72 55 73 63 74 56 75
REMARK SMILES IDX 62 76 64 77 61 78 57 79 58 80 59 81 60 82 39 83 40 84 48 85
REMARK SMILES IDX 41 86 47 87 49 88 46 89 42 90 43 91 44 92 45 93
REMARK H PARENT 69 46 37 57
REMARK Flexibility Score: inf
ROOT
ATOM      1  C   UNL A   1      42.620  21.036  25.748  1.00  0.00     0.275 C 
ENDROOT
BRANCH   1   2
ATOM      2  C   UNL A   1      42.266  19.915  26.729  1.00  0.00     0.274 C 
BRANCH   2   3
ATOM      3  O   UNL A   1      40.914  20.113  27.178  1.00  0.00    -0.462 OA
BRANCH   3   4
ATOM      4  C   UNL A   1      39.884  20.025  26.164  1.00  0.00     0.310 C 
ATOM      5  O   UNL A   1      40.016  18.859  25.681  1.00  0.00    -0.252 OA
BRANCH   4   6
ATOM      6  C   UNL A   1      38.450  21.586  25.713  1.00  0.00     0.158 C 
BRANCH   6   7
ATOM      7  C   UNL A   1      36.756  21.621  25.322  1.00  0.00    -0.033 A 
ATOM      8  C   UNL A   1      36.608  24.160  25.611  1.00  0.00     0.045 C 
ATOM      9  C   UNL A   1      35.968  22.807  25.419  1.00  0.00    -0.039 A 
ATOM     10  C   UNL A   1      34.555  22.702  25.297  1.00  0.00    -0.015 A 
ATOM     11  C   UNL A   1      36.132  20.476  24.797  1.00  0.00     0.013 A 
ATOM     12  C   UNL A   1      33.971  21.433  25.117  1.00  0.00     0.017 A 
ATOM     13  C   UNL A   1      34.752  20.310  24.868  1.00  0.00    -0.017 A 
BRANCH  10  14
ATOM     14  C   UNL A   1      33.653  23.863  25.357  1.00  0.00    -0.018 A 
ATOM     15  C   UNL A   1      32.703  23.986  26.381  1.00  0.00     0.009 A 
ATOM     16  C   UNL A   1      33.714  24.866  24.375  1.00  0.00     0.009 A 
ATOM     17  C   UNL A   1      31.855  25.094  26.435  1.00  0.00     0.001 A 
ATOM     18  C   UNL A   1      32.880  25.982  24.438  1.00  0.00     0.001 A 
ATOM     19  C   UNL A   1      31.951  26.095  25.469  1.00  0.00     0.000 A 
ENDBRANCH  10  14
BRANCH  13  20
ATOM     20  C   UNL A   1      34.191  18.958  24.793  1.00  0.00    -0.018 A 
ATOM     21  C   UNL A   1      32.940  18.694  25.381  1.00  0.00     0.009 A 
ATOM     22  C   UNL A   1      34.879  17.899  24.201  1.00  0.00     0.009 A 
ATOM     23  C   UNL A   1      32.420  17.402  25.437  1.00  0.00     0.001 A 
ATOM     24  C   UNL A   1      34.347  16.606  24.230  1.00  0.00     0.001 A 
ATOM     25  C   UNL A   1      33.127  16.356  24.859  1.00  0.00     0.000 A 
ENDBRANCH  13  20
ENDBRANCH   6   7
ENDBRANCH   4   6
ENDBRANCH   3   4
ENDBRANCH   2   3
ENDBRANCH   1   2
BRANCH   1  26
ATOM     26  O   UNL A   1      41.917  22.312  25.830  1.00  0.00    -0.458 OA
BRANCH  26  27
ATOM     27  C   UNL A   1      42.097  23.390  26.626  1.00  0.00     0.338 C 
ATOM     28  O   UNL A   1      43.009  23.487  27.436  1.00  0.00    -0.246 OA
BRANCH  27  29
ATOM     29  C   UNL A   1      41.058  24.433  26.651  1.00  0.00     0.060 A 
ATOM     30  C   UNL A   1      41.545  25.931  25.765  1.00  0.00     0.016 A 
ATOM     31  C   UNL A   1      39.889  24.514  28.022  1.00  0.00     0.016 A 
ATOM     32  C   UNL A   1      41.072  27.551  26.440  1.00  0.00     0.010 A 
ATOM     33  C   UNL A   1      39.392  26.126  28.662  1.00  0.00     0.010 A 
ATOM     34  C   UNL A   1      40.093  27.628  27.933  1.00  0.00    -0.014 A 
BRANCH  34  35
ATOM     35  C   UNL A   1      40.285  28.668  28.928  1.00  0.00     0.031 A 
ATOM     36  C   UNL A   1      39.312  29.756  28.929  1.00  0.00     0.074 A 
ATOM     37  C   UNL A   1      41.192  28.480  29.919  1.00  0.00     0.049 A 
ATOM     38  N   UNL A   1      39.515  30.889  29.485  1.00  0.00    -0.248 NA
ATOM     39  C   UNL A   1      38.047  29.711  28.196  1.00  0.00     0.031 C 
ATOM     40  C   UNL A   1      41.273  29.133  31.223  1.00  0.00     0.029 A 
ATOM     41  N   UNL A   1      42.309  27.669  29.953  1.00  0.00    -0.354 N 
ATOM     42  C   UNL A   1      38.293  31.511  29.547  1.00  0.00     0.074 A 
ATOM     43  C   UNL A   1      37.498  30.878  28.537  1.00  0.00     0.031 C 
ATOM     44  C   UNL A   1      42.492  28.911  31.756  1.00  0.00     0.029 A 
ATOM     45  C   UNL A   1      43.293  28.221  30.762  1.00  0.00     0.049 A 
ATOM     46  H   UNL A   1      42.396  26.816  29.471  1.00  0.00     0.167 HD
ATOM     47  C   UNL A   1      38.058  32.337  30.598  1.00  0.00     0.034 A 
ATOM     48  C   UNL A   1      44.461  28.673  30.210  1.00  0.00     0.034 A 
ATOM     49  C   UNL A   1      39.301  32.556  31.350  1.00  0.00     0.049 A 
ATOM     50  C   UNL A   1      44.469  30.202  30.141  1.00  0.00     0.074 A 
ATOM     51  C   UNL A   1      39.806  32.136  32.567  1.00  0.00     0.029 A 
ATOM     52  N   UNL A   1      40.392  33.034  30.647  1.00  0.00    -0.354 N 
ATOM     53  N   UNL A   1      43.485  30.952  30.568  1.00  0.00    -0.248 NA
ATOM     54  C   UNL A   1      45.539  31.009  29.561  1.00  0.00     0.031 C 
ATOM     55  C   UNL A   1      41.235  32.291  32.523  1.00  0.00     0.029 A 
ATOM     56  C   UNL A   1      41.586  32.859  31.309  1.00  0.00     0.049 A 
ATOM     57  H   UNL A   1      40.322  33.456  29.760  1.00  0.00     0.167 HD
ATOM     58  C   UNL A   1      43.718  32.271  30.299  1.00  0.00     0.074 A 
ATOM     59  C   UNL A   1      45.019  32.249  29.639  1.00  0.00     0.031 C 
ATOM     60  C   UNL A   1      42.815  33.258  30.621  1.00  0.00     0.034 A 
BRANCH  47  61
ATOM     61  C   UNL A   1      36.700  32.804  31.055  1.00  0.00     0.023 A 
ATOM     62  C   UNL A   1      35.925  33.523  30.129  1.00  0.00     0.031 A 
ATOM     63  C   UNL A   1      36.134  32.678  32.346  1.00  0.00     0.131 A 
ATOM     64  C   UNL A   1      34.682  34.073  30.483  1.00  0.00     0.055 A 
ATOM     65  C   UNL A   1      34.872  33.183  32.684  1.00  0.00     0.041 A 
ATOM     66  F   UNL A   1      36.777  32.113  33.374  1.00  0.00    -0.206 F 
ATOM     67  C   UNL A   1      34.140  33.893  31.752  1.00  0.00     0.022 A 
BRANCH  64  68
ATOM     68  S   UNL A   1      33.806  35.074  29.260  1.00  0.00     0.124 S 
ATOM     69  O   UNL A   1      34.832  35.275  28.242  1.00  0.00    -0.237 OA
ATOM     70  O   UNL A   1      32.690  34.208  28.897  1.00  0.00    -0.237 OA
ATOM     71  O   UNL A   1      33.438  36.275  30.008  1.00  0.00    -0.744 OA
ENDBRANCH  64  68
ENDBRANCH  47  61
BRANCH  48  72
ATOM     72  C   UNL A   1      45.022  27.693  29.215  1.00  0.00     0.023 A 
ATOM     73  C   UNL A   1      45.086  28.137  27.869  1.00  0.00     0.031 A 
ATOM     74  C   UNL A   1      45.857  26.628  29.577  1.00  0.00     0.131 A 
ATOM     75  C   UNL A   1      46.096  27.676  27.008  1.00  0.00     0.055 A 
ATOM     76  C   UNL A   1      46.814  26.113  28.685  1.00  0.00     0.041 A 
ATOM     77  F   UNL A   1      45.883  26.177  30.841  1.00  0.00    -0.206 F 
ATOM     78  C   UNL A   1      46.973  26.673  27.416  1.00  0.00     0.022 A 
BRANCH  75  79
ATOM     79  S   UNL A   1      46.426  28.601  25.471  1.00  0.00     0.124 S 
ATOM     80  O   UNL A   1      45.499  27.971  24.537  1.00  0.00    -0.237 OA
ATOM     81  O   UNL A   1      46.110  29.980  25.837  1.00  0.00    -0.237 OA
ATOM     82  O   UNL A   1      47.840  28.343  25.211  1.00  0.00    -0.744 OA
ENDBRANCH  75  79
ENDBRANCH  48  72
BRANCH  60  83
ATOM     83  C   UNL A   1      43.012  34.721  30.270  1.00  0.00     0.023 A 
ATOM     84  C   UNL A   1      43.283  35.669  31.259  1.00  0.00     0.031 A 
ATOM     85  C   UNL A   1      42.897  35.235  28.951  1.00  0.00     0.131 A 
ATOM     86  C   UNL A   1      43.575  37.000  30.920  1.00  0.00     0.055 A 
ATOM     87  C   UNL A   1      43.069  36.583  28.633  1.00  0.00     0.041 A 
ATOM     88  F   UNL A   1      42.666  34.461  27.884  1.00  0.00    -0.206 F 
ATOM     89  C   UNL A   1      43.445  37.473  29.618  1.00  0.00     0.022 A 
BRANCH  86  90
ATOM     90  S   UNL A   1      44.245  38.067  32.212  1.00  0.00     0.124 S 
ATOM     91  O   UNL A   1      45.659  37.704  32.222  1.00  0.00    -0.237 OA
ATOM     92  O   UNL A   1      43.937  39.393  31.684  1.00  0.00    -0.237 OA
ATOM     93  O   UNL A   1      43.492  37.681  33.402  1.00  0.00    -0.744 OA
ENDBRANCH  86  90
ENDBRANCH  60  83
ENDBRANCH  34  35
ENDBRANCH  27  29
ENDBRANCH  26  27
ENDBRANCH   1  26
TORSDOF 17
ENDMDL
MODEL 3
REMARK VINA RESULT:     -13.7      4.128     10.978
REMARK SMILES Cc1c(CC(=O)OCCOC(=O)c2ccc(-c3c4nc(c(-c5cc(S(=O)(=O)[O-])ccc5F)c5ccc([nH]5)c(-c5cc(S(=O)(=O)[O-])ccc5F)c5nc(c(-c6cc(S(=O)(=O)[O-])ccc6F)c6ccc3[nH]6)C=C5)C=C4)cc2)cc(-c2ccccc2)cc1-c1ccccc1
REMARK SMILES IDX 9 1 8 2 7 3 5 4 6 5 4 6 3 7 1 8 2 9 85 10 76 11 84 12 77 13
REMARK SMILES IDX 86 14 87 15 91 16 88 17 90 18 89 19 78 20 79 21 83 22 80 23
REMARK SMILES IDX 82 24 81 25 10 26 11 27 12 28 13 29 14 30 75 31 15 32 74 33
REMARK SMILES IDX 16 34 17 35 18 36 68 37 19 38 73 39 67 40 69 41 20 42 72 43
REMARK SMILES IDX 66 44 65 45 21 47 53 48 33 49 52 50 34 51 37 52 51 53 70 54
REMARK SMILES IDX 35 55 36 56 50 58 71 59 38 60 22 61 23 62 31 63 24 64 30 65
REMARK SMILES IDX 32 66 29 67 25 68 26 69 27 70 28 71 54 72 55 73 63 74 56 75
REMARK SMILES IDX 62 76 64 77 61 78 57 79 58 80 59 81 60 82 39 83 40 84 48 85
REMARK SMILES IDX 41 86 47 87 49 88 46 89 42 90 43 91 44 92 45 93
REMARK H PARENT 69 46 37 57
REMARK Flexibility Score: inf
ROOT
ATOM      1  C   UNL A   1      35.915  34.643  28.901  1.00  0.00     0.275 C 
ENDROOT
BRANCH   1   2
ATOM      2  C   UNL A   1      34.498  34.855  28.360  1.00  0.00     0.274 C 
BRANCH   2   3
ATOM      3  O   UNL A   1      34.265  33.903  27.308  1.00  0.00    -0.462 OA
BRANCH   3   4
ATOM      4  C   UNL A   1      33.080  33.081  27.438  1.00  0.00     0.310 C 
ATOM      5  O   UNL A   1      32.147  33.908  27.675  1.00  0.00    -0.252 OA
BRANCH   4   6
ATOM      6  C   UNL A   1      33.028  30.928  27.194  1.00  0.00     0.158 C 
BRANCH   6   7
ATOM      7  C   UNL A   1      32.265  29.838  26.075  1.00  0.00    -0.033 A 
ATOM      8  C   UNL A   1      33.852  27.917  26.663  1.00  0.00     0.045 C 
ATOM      9  C   UNL A   1      32.775  28.533  25.804  1.00  0.00    -0.039 A 
ATOM     10  C   UNL A   1      32.224  27.794  24.720  1.00  0.00    -0.015 A 
ATOM     11  C   UNL A   1      31.045  30.190  25.471  1.00  0.00     0.013 A 
ATOM     12  C   UNL A   1      31.218  28.381  23.927  1.00  0.00     0.017 A 
ATOM     13  C   UNL A   1      30.622  29.582  24.293  1.00  0.00    -0.017 A 
BRANCH  10  14
ATOM     14  C   UNL A   1      32.658  26.433  24.370  1.00  0.00    -0.018 A 
ATOM     15  C   UNL A   1      32.261  25.329  25.138  1.00  0.00     0.009 A 
ATOM     16  C   UNL A   1      33.498  26.213  23.264  1.00  0.00     0.009 A 
ATOM     17  C   UNL A   1      32.671  24.040  24.795  1.00  0.00     0.001 A 
ATOM     18  C   UNL A   1      33.894  24.924  22.911  1.00  0.00     0.001 A 
ATOM     19  C   UNL A   1      33.480  23.837  23.677  1.00  0.00     0.000 A 
ENDBRANCH  10  14
BRANCH  13  20
ATOM     20  C   UNL A   1      29.659  30.280  23.437  1.00  0.00    -0.018 A 
ATOM     21  C   UNL A   1      29.546  29.915  22.082  1.00  0.00     0.009 A 
ATOM     22  C   UNL A   1      28.879  31.339  23.902  1.00  0.00     0.009 A 
ATOM     23  C   UNL A   1      28.731  30.625  21.202  1.00  0.00     0.001 A 
ATOM     24  C   UNL A   1      28.039  32.035  23.029  1.00  0.00     0.001 A 
ATOM     25  C   UNL A   1      27.976  31.687  21.678  1.00  0.00     0.000 A 
ENDBRANCH  13  20
ENDBRANCH   6   7
ENDBRANCH   4   6
ENDBRANCH   3   4
ENDBRANCH   2   3
ENDBRANCH   1   2
BRANCH   1  26
ATOM     26  O   UNL A   1      36.157  33.597  29.889  1.00  0.00    -0.458 OA
BRANCH  26  27
ATOM     27  C   UNL A   1      35.407  32.547  30.292  1.00  0.00     0.338 C 
ATOM     28  O   UNL A   1      34.522  32.631  31.133  1.00  0.00    -0.246 OA
BRANCH  27  29
ATOM     29  C   UNL A   1      35.772  31.197  29.829  1.00  0.00     0.060 A 
ATOM     30  C   UNL A   1      36.239  30.094  31.182  1.00  0.00     0.016 A 
ATOM     31  C   UNL A   1      36.443  30.958  28.173  1.00  0.00     0.016 A 
ATOM     32  C   UNL A   1      37.604  28.918  30.932  1.00  0.00     0.010 A 
ATOM     33  C   UNL A   1      37.770  29.761  27.924  1.00  0.00     0.010 A 
ATOM     34  C   UNL A   1      38.417  28.842  29.343  1.00  0.00    -0.014 A 
BRANCH  34  35
ATOM     35  C   UNL A   1      39.843  28.595  29.218  1.00  0.00     0.031 A 
ATOM     36  C   UNL A   1      40.241  27.231  28.883  1.00  0.00     0.074 A 
ATOM     37  C   UNL A   1      40.700  29.646  29.198  1.00  0.00     0.049 A 
ATOM     38  N   UNL A   1      41.420  26.771  29.066  1.00  0.00    -0.248 NA
ATOM     39  C   UNL A   1      39.308  26.209  28.410  1.00  0.00     0.031 C 
ATOM     40  C   UNL A   1      42.062  29.709  28.675  1.00  0.00     0.029 A 
ATOM     41  N   UNL A   1      40.548  30.921  29.707  1.00  0.00    -0.354 N 
ATOM     42  C   UNL A   1      41.486  25.596  28.359  1.00  0.00     0.074 A 
ATOM     43  C   UNL A   1      40.126  25.177  28.197  1.00  0.00     0.031 C 
ATOM     44  C   UNL A   1      42.670  30.816  29.148  1.00  0.00     0.029 A 
ATOM     45  C   UNL A   1      41.772  31.443  30.100  1.00  0.00     0.049 A 
ATOM     46  H   UNL A   1      39.689  31.395  29.780  1.00  0.00     0.167 HD
ATOM     47  C   UNL A   1      42.684  25.250  27.822  1.00  0.00     0.034 A 
ATOM     48  C   UNL A   1      42.029  31.665  31.427  1.00  0.00     0.034 A 
ATOM     49  C   UNL A   1      43.736  26.145  28.325  1.00  0.00     0.049 A 
ATOM     50  C   UNL A   1      42.960  30.585  31.984  1.00  0.00     0.074 A 
ATOM     51  C   UNL A   1      44.480  27.185  27.801  1.00  0.00     0.029 A 
ATOM     52  N   UNL A   1      43.878  26.247  29.697  1.00  0.00    -0.354 N 
ATOM     53  N   UNL A   1      43.439  29.600  31.267  1.00  0.00    -0.248 NA
ATOM     54  C   UNL A   1      43.394  30.491  33.375  1.00  0.00     0.031 C 
ATOM     55  C   UNL A   1      44.985  27.958  28.904  1.00  0.00     0.029 A 
ATOM     56  C   UNL A   1      44.599  27.352  30.088  1.00  0.00     0.049 A 
ATOM     57  H   UNL A   1      43.501  25.595  30.331  1.00  0.00     0.167 HD
ATOM     58  C   UNL A   1      44.163  28.736  32.039  1.00  0.00     0.074 A 
ATOM     59  C   UNL A   1      44.082  29.333  33.368  1.00  0.00     0.031 C 
ATOM     60  C   UNL A   1      44.745  27.601  31.523  1.00  0.00     0.034 A 
BRANCH  47  61
ATOM     61  C   UNL A   1      42.889  24.238  26.724  1.00  0.00     0.023 A 
ATOM     62  C   UNL A   1      42.392  22.943  26.946  1.00  0.00     0.031 A 
ATOM     63  C   UNL A   1      43.603  24.410  25.515  1.00  0.00     0.131 A 
ATOM     64  C   UNL A   1      42.605  21.906  26.023  1.00  0.00     0.055 A 
ATOM     65  C   UNL A   1      43.771  23.389  24.570  1.00  0.00     0.041 A 
ATOM     66  F   UNL A   1      44.227  25.548  25.190  1.00  0.00    -0.206 F 
ATOM     67  C   UNL A   1      43.277  22.125  24.824  1.00  0.00     0.022 A 
BRANCH  64  68
ATOM     68  S   UNL A   1      42.024  20.247  26.444  1.00  0.00     0.124 S 
ATOM     69  O   UNL A   1      42.343  20.166  27.865  1.00  0.00    -0.237 OA
ATOM     70  O   UNL A   1      40.610  20.321  26.098  1.00  0.00    -0.237 OA
ATOM     71  O   UNL A   1      42.827  19.380  25.583  1.00  0.00    -0.744 OA
ENDBRANCH  64  68
ENDBRANCH  47  61
BRANCH  48  72
ATOM     72  C   UNL A   1      40.873  32.341  32.111  1.00  0.00     0.023 A 
ATOM     73  C   UNL A   1      40.038  31.508  32.899  1.00  0.00     0.031 A 
ATOM     74  C   UNL A   1      40.842  33.716  32.383  1.00  0.00     0.131 A 
ATOM     75  C   UNL A   1      39.386  32.012  34.037  1.00  0.00     0.055 A 
ATOM     76  C   UNL A   1      40.121  34.230  33.476  1.00  0.00     0.041 A 
ATOM     77  F   UNL A   1      41.631  34.566  31.708  1.00  0.00    -0.206 F 
ATOM     78  C   UNL A   1      39.436  33.372  34.338  1.00  0.00     0.022 A 
BRANCH  75  79
ATOM     79  S   UNL A   1      38.724  30.835  35.262  1.00  0.00     0.124 S 
ATOM     80  O   UNL A   1      38.553  29.629  34.457  1.00  0.00    -0.237 OA
ATOM     81  O   UNL A   1      39.780  30.773  36.270  1.00  0.00    -0.237 OA
ATOM     82  O   UNL A   1      37.484  31.463  35.708  1.00  0.00    -0.744 OA
ENDBRANCH  75  79
ENDBRANCH  48  72
BRANCH  60  83
ATOM     83  C   UNL A   1      45.493  26.586  32.367  1.00  0.00     0.023 A 
ATOM     84  C   UNL A   1      44.822  25.789  33.298  1.00  0.00     0.031 A 
ATOM     85  C   UNL A   1      46.900  26.401  32.312  1.00  0.00     0.131 A 
ATOM     86  C   UNL A   1      45.496  24.775  33.997  1.00  0.00     0.055 A 
ATOM     87  C   UNL A   1      47.586  25.474  33.097  1.00  0.00     0.041 A 
ATOM     88  F   UNL A   1      47.690  27.065  31.460  1.00  0.00    -0.206 F 
ATOM     89  C   UNL A   1      46.878  24.626  33.925  1.00  0.00     0.022 A 
BRANCH  86  90
ATOM     90  S   UNL A   1      44.499  23.579  34.910  1.00  0.00     0.124 S 
ATOM     91  O   UNL A   1      44.997  23.726  36.274  1.00  0.00    -0.237 OA
ATOM     92  O   UNL A   1      43.149  24.084  34.671  1.00  0.00    -0.237 OA
ATOM     93  O   UNL A   1      44.811  22.307  34.264  1.00  0.00    -0.744 OA
ENDBRANCH  86  90
ENDBRANCH  60  83
ENDBRANCH  34  35
ENDBRANCH  27  29
ENDBRANCH  26  27
ENDBRANCH   1  26
TORSDOF 17
ENDMDL
