MODEL 1
REMARK VINA RESULT:     -11.4      0.000      0.000
REMARK SMILES O=C(/C=N/O)Nc1cccc(C(=O)OCCOC(=O)c2ccc(-c3c4nc(c(-c5cc(S(=O)(=O)[O-])ccc5F)c5ccc([nH]5)c(-c5cc(S(=O)(=O)[O-])ccc5F)c5nc(c(-c6cc(S(=O)(=O)[O-])ccc6F)c6ccc3[nH]6)C=C5)C=C4)cc2)c1
REMARK SMILES IDX 15 1 14 2 12 3 13 4 11 5 7 6 8 7 83 8 9 9 10 10 6 11 1 12
REMARK SMILES IDX 2 13 3 15 4 16 5 17 16 19 17 20 18 21 19 22 20 23 21 24
REMARK SMILES IDX 82 25 22 26 81 27 23 28 24 29 25 30 75 31 26 32 80 33 74 34
REMARK SMILES IDX 76 35 27 36 79 37 73 38 72 39 28 41 60 42 40 43 59 44 41 45
REMARK SMILES IDX 44 46 58 47 77 48 42 49 43 50 57 52 78 53 45 54 29 55 30 56
REMARK SMILES IDX 38 57 31 58 37 59 39 60 36 61 32 62 33 63 34 64 35 65 61 66
REMARK SMILES IDX 62 67 70 68 63 69 69 70 71 71 68 72 64 73 65 74 66 75 67 76
REMARK SMILES IDX 46 77 47 78 55 79 48 80 54 81 56 82 53 83 49 84 50 85 51 86
REMARK SMILES IDX 52 87
REMARK H PARENT 6 14 5 18 76 40 44 51
REMARK Flexibility Score: inf
ROOT
ATOM      1  C   UNL A   1      32.374  31.286  26.535  1.00  0.00     0.275 C 
ENDROOT
BRANCH   1   2
ATOM      2  O   UNL A   1      31.430  30.199  26.573  1.00  0.00    -0.458 OA
BRANCH   2   3
ATOM      3  C   UNL A   1      31.875  28.993  26.133  1.00  0.00     0.338 C 
ATOM      4  O   UNL A   1      32.583  28.216  26.743  1.00  0.00    -0.246 OA
BRANCH   3   5
ATOM      5  C   UNL A   1      31.278  28.684  24.807  1.00  0.00     0.062 A 
ATOM      6  C   UNL A   1      30.057  29.333  22.819  1.00  0.00     0.042 A 
ATOM      7  C   UNL A   1      29.997  27.989  22.429  1.00  0.00     0.026 A 
ATOM      8  C   UNL A   1      30.663  29.672  24.031  1.00  0.00     0.041 A 
ATOM      9  C   UNL A   1      30.649  27.010  23.176  1.00  0.00     0.003 A 
ATOM     10  C   UNL A   1      31.328  27.365  24.338  1.00  0.00     0.016 A 
BRANCH   6  11
ATOM     11  N   UNL A   1      29.515  30.285  21.939  1.00  0.00    -0.321 N 
ATOM     12  O   UNL A   1      27.265  30.393  22.614  1.00  0.00    -0.268 OA
ATOM     13  C   UNL A   1      28.210  30.724  21.912  1.00  0.00     0.270 C 
ATOM     14  H   UNL A   1      30.128  30.677  21.278  1.00  0.00     0.170 HD
BRANCH  13  15
ATOM     15  C   UNL A   1      27.969  31.821  20.908  1.00  0.00     0.225 C 
ATOM     16  N   UNL A   1      27.660  33.016  21.298  1.00  0.00    -0.092 NA
BRANCH  16  17
ATOM     17  O   UNL A   1      27.504  33.828  20.167  1.00  0.00    -0.411 OA
ATOM     18  H   UNL A   1      26.930  34.568  20.198  1.00  0.00     0.330 HD
ENDBRANCH  16  17
ENDBRANCH  13  15
ENDBRANCH   6  11
ENDBRANCH   3   5
ENDBRANCH   2   3
ENDBRANCH   1   2
BRANCH   1  19
ATOM     19  C   UNL A   1      31.803  32.537  27.205  1.00  0.00     0.275 C 
BRANCH  19  20
ATOM     20  O   UNL A   1      32.773  33.601  27.170  1.00  0.00    -0.458 OA
BRANCH  20  21
ATOM     21  C   UNL A   1      33.330  33.917  28.361  1.00  0.00     0.338 C 
ATOM     22  O   UNL A   1      32.880  34.657  29.219  1.00  0.00    -0.246 OA
BRANCH  21  23
ATOM     23  C   UNL A   1      34.558  33.130  28.549  1.00  0.00     0.060 A 
ATOM     24  C   UNL A   1      34.420  31.845  29.063  1.00  0.00     0.016 A 
ATOM     25  C   UNL A   1      35.822  33.692  28.390  1.00  0.00     0.016 A 
ATOM     26  C   UNL A   1      35.533  31.130  29.492  1.00  0.00     0.010 A 
ATOM     27  C   UNL A   1      36.951  32.952  28.775  1.00  0.00     0.010 A 
ATOM     28  C   UNL A   1      36.814  31.683  29.375  1.00  0.00    -0.014 A 
BRANCH  28  29
ATOM     29  C   UNL A   1      37.971  30.997  30.023  1.00  0.00     0.031 A 
ATOM     30  C   UNL A   1      38.255  31.243  31.485  1.00  0.00     0.074 A 
ATOM     31  C   UNL A   1      38.712  30.095  29.348  1.00  0.00     0.049 A 
ATOM     32  N   UNL A   1      39.254  30.830  32.223  1.00  0.00    -0.248 NA
ATOM     33  C   UNL A   1      37.284  32.079  32.205  1.00  0.00     0.031 C 
ATOM     34  C   UNL A   1      38.504  29.702  27.954  1.00  0.00     0.029 A 
ATOM     35  N   UNL A   1      39.778  29.327  29.753  1.00  0.00    -0.354 N 
ATOM     36  C   UNL A   1      39.057  31.393  33.481  1.00  0.00     0.074 A 
ATOM     37  C   UNL A   1      37.859  32.200  33.391  1.00  0.00     0.031 C 
ATOM     38  C   UNL A   1      39.386  28.740  27.633  1.00  0.00     0.029 A 
ATOM     39  C   UNL A   1      40.268  28.497  28.771  1.00  0.00     0.049 A 
ATOM     40  H   UNL A   1      40.155  29.367  30.662  1.00  0.00     0.167 HD
ATOM     41  C   UNL A   1      39.800  31.246  34.607  1.00  0.00     0.034 A 
ATOM     42  C   UNL A   1      41.323  27.657  28.776  1.00  0.00     0.034 A 
ATOM     43  C   UNL A   1      40.972  30.406  34.695  1.00  0.00     0.049 A 
ATOM     44  C   UNL A   1      42.162  27.541  30.024  1.00  0.00     0.074 A 
ATOM     45  C   UNL A   1      41.813  30.204  35.776  1.00  0.00     0.029 A 
ATOM     46  N   UNL A   1      41.461  29.614  33.664  1.00  0.00    -0.354 N 
ATOM     47  N   UNL A   1      42.013  28.145  31.182  1.00  0.00    -0.248 NA
ATOM     48  C   UNL A   1      43.313  26.630  29.966  1.00  0.00     0.031 C 
ATOM     49  C   UNL A   1      42.835  29.331  35.386  1.00  0.00     0.029 A 
ATOM     50  C   UNL A   1      42.593  28.930  34.082  1.00  0.00     0.049 A 
ATOM     51  H   UNL A   1      41.061  29.548  32.766  1.00  0.00     0.167 HD
ATOM     52  C   UNL A   1      43.036  27.663  31.995  1.00  0.00     0.074 A 
ATOM     53  C   UNL A   1      43.781  26.708  31.202  1.00  0.00     0.031 C 
ATOM     54  C   UNL A   1      43.331  27.980  33.281  1.00  0.00     0.034 A 
BRANCH  41  55
ATOM     55  C   UNL A   1      39.394  32.065  35.811  1.00  0.00     0.023 A 
ATOM     56  C   UNL A   1      38.655  31.514  36.874  1.00  0.00     0.031 A 
ATOM     57  C   UNL A   1      39.699  33.437  35.868  1.00  0.00     0.131 A 
ATOM     58  C   UNL A   1      38.171  32.346  37.896  1.00  0.00     0.055 A 
ATOM     59  C   UNL A   1      39.290  34.242  36.934  1.00  0.00     0.041 A 
ATOM     60  F   UNL A   1      40.383  34.027  34.874  1.00  0.00    -0.206 F 
ATOM     61  C   UNL A   1      38.505  33.700  37.947  1.00  0.00     0.022 A 
BRANCH  58  62
ATOM     62  S   UNL A   1      36.961  31.667  39.065  1.00  0.00     0.124 S 
ATOM     63  O   UNL A   1      37.706  31.715  40.321  1.00  0.00    -0.237 OA
ATOM     64  O   UNL A   1      35.848  32.601  38.946  1.00  0.00    -0.237 OA
ATOM     65  O   UNL A   1      36.706  30.322  38.553  1.00  0.00    -0.744 OA
ENDBRANCH  58  62
ENDBRANCH  41  55
BRANCH  42  66
ATOM     66  C   UNL A   1      41.684  26.885  27.551  1.00  0.00     0.023 A 
ATOM     67  C   UNL A   1      41.500  25.494  27.487  1.00  0.00     0.031 A 
ATOM     68  C   UNL A   1      42.270  27.523  26.443  1.00  0.00     0.131 A 
ATOM     69  C   UNL A   1      41.938  24.782  26.359  1.00  0.00     0.055 A 
ATOM     70  C   UNL A   1      42.652  26.818  25.301  1.00  0.00     0.041 A 
ATOM     71  F   UNL A   1      42.473  28.851  26.452  1.00  0.00    -0.206 F 
ATOM     72  C   UNL A   1      42.498  25.436  25.259  1.00  0.00     0.022 A 
BRANCH  69  73
ATOM     73  S   UNL A   1      41.840  22.970  26.381  1.00  0.00     0.124 S 
ATOM     74  O   UNL A   1      42.608  22.616  25.193  1.00  0.00    -0.237 OA
ATOM     75  O   UNL A   1      42.456  22.649  27.665  1.00  0.00    -0.237 OA
ATOM     76  O   UNL A   1      40.405  22.706  26.300  1.00  0.00    -0.744 OA
ENDBRANCH  69  73
ENDBRANCH  42  66
BRANCH  54  77
ATOM     77  C   UNL A   1      44.474  27.233  33.925  1.00  0.00     0.023 A 
ATOM     78  C   UNL A   1      44.308  25.948  34.475  1.00  0.00     0.031 A 
ATOM     79  C   UNL A   1      45.742  27.832  34.018  1.00  0.00     0.131 A 
ATOM     80  C   UNL A   1      45.375  25.334  35.149  1.00  0.00     0.055 A 
ATOM     81  C   UNL A   1      46.815  27.191  34.639  1.00  0.00     0.041 A 
ATOM     82  F   UNL A   1      45.957  29.058  33.512  1.00  0.00    -0.206 F 
ATOM     83  C   UNL A   1      46.631  25.942  35.223  1.00  0.00     0.022 A 
BRANCH  80  84
ATOM     84  S   UNL A   1      45.070  23.774  36.026  1.00  0.00     0.124 S 
ATOM     85  O   UNL A   1      43.767  23.380  35.503  1.00  0.00    -0.237 OA
ATOM     86  O   UNL A   1      46.202  22.955  35.603  1.00  0.00    -0.237 OA
ATOM     87  O   UNL A   1      45.081  24.165  37.434  1.00  0.00    -0.744 OA
ENDBRANCH  80  84
ENDBRANCH  54  77
ENDBRANCH  28  29
ENDBRANCH  21  23
ENDBRANCH  20  21
ENDBRANCH  19  20
ENDBRANCH   1  19
TORSDOF 17
ENDMDL
MODEL 2
REMARK VINA RESULT:     -11.4      2.014      2.413
REMARK SMILES O=C(/C=N/O)Nc1cccc(C(=O)OCCOC(=O)c2ccc(-c3c4nc(c(-c5cc(S(=O)(=O)[O-])ccc5F)c5ccc([nH]5)c(-c5cc(S(=O)(=O)[O-])ccc5F)c5nc(c(-c6cc(S(=O)(=O)[O-])ccc6F)c6ccc3[nH]6)C=C5)C=C4)cc2)c1
REMARK SMILES IDX 15 1 14 2 12 3 13 4 11 5 7 6 8 7 83 8 9 9 10 10 6 11 1 12
REMARK SMILES IDX 2 13 3 15 4 16 5 17 16 19 17 20 18 21 19 22 20 23 21 24
REMARK SMILES IDX 82 25 22 26 81 27 23 28 24 29 25 30 75 31 26 32 80 33 74 34
REMARK SMILES IDX 76 35 27 36 79 37 73 38 72 39 28 41 60 42 40 43 59 44 41 45
REMARK SMILES IDX 44 46 58 47 77 48 42 49 43 50 57 52 78 53 45 54 29 55 30 56
REMARK SMILES IDX 38 57 31 58 37 59 39 60 36 61 32 62 33 63 34 64 35 65 61 66
REMARK SMILES IDX 62 67 70 68 63 69 69 70 71 71 68 72 64 73 65 74 66 75 67 76
REMARK SMILES IDX 46 77 47 78 55 79 48 80 54 81 56 82 53 83 49 84 50 85 51 86
REMARK SMILES IDX 52 87
REMARK H PARENT 6 14 5 18 76 40 44 51
REMARK Flexibility Score: inf
ROOT
ATOM      1  C   UNL A   1      32.478  29.535  25.489  1.00  0.00     0.275 C 
ENDROOT
BRANCH   1   2
ATOM      2  O   UNL A   1      31.622  28.381  25.600  1.00  0.00    -0.458 OA
BRANCH   2   3
ATOM      3  C   UNL A   1      31.427  27.659  24.466  1.00  0.00     0.338 C 
ATOM      4  O   UNL A   1      32.206  26.871  23.966  1.00  0.00    -0.246 OA
BRANCH   3   5
ATOM      5  C   UNL A   1      30.048  27.878  23.955  1.00  0.00     0.062 A 
ATOM      6  C   UNL A   1      28.351  29.276  22.940  1.00  0.00     0.042 A 
ATOM      7  C   UNL A   1      27.393  28.292  23.210  1.00  0.00     0.026 A 
ATOM      8  C   UNL A   1      29.673  29.083  23.352  1.00  0.00     0.041 A 
ATOM      9  C   UNL A   1      27.773  27.073  23.768  1.00  0.00     0.003 A 
ATOM     10  C   UNL A   1      29.108  26.850  24.096  1.00  0.00     0.016 A 
BRANCH   6  11
ATOM     11  N   UNL A   1      27.927  30.414  22.234  1.00  0.00    -0.321 N 
ATOM     12  O   UNL A   1      29.602  30.665  20.602  1.00  0.00    -0.268 OA
ATOM     13  C   UNL A   1      28.564  30.993  21.158  1.00  0.00     0.270 C 
ATOM     14  H   UNL A   1      27.093  30.839  22.536  1.00  0.00     0.170 HD
BRANCH  13  15
ATOM     15  C   UNL A   1      27.802  32.150  20.565  1.00  0.00     0.225 C 
ATOM     16  N   UNL A   1      27.738  33.285  21.185  1.00  0.00    -0.092 NA
BRANCH  16  17
ATOM     17  O   UNL A   1      26.982  34.173  20.410  1.00  0.00    -0.411 OA
ATOM     18  H   UNL A   1      26.618  33.890  19.594  1.00  0.00     0.330 HD
ENDBRANCH  16  17
ENDBRANCH  13  15
ENDBRANCH   6  11
ENDBRANCH   3   5
ENDBRANCH   2   3
ENDBRANCH   1   2
BRANCH   1  19
ATOM     19  C   UNL A   1      31.993  30.672  26.389  1.00  0.00     0.275 C 
BRANCH  19  20
ATOM     20  O   UNL A   1      32.802  30.738  27.579  1.00  0.00    -0.458 OA
BRANCH  20  21
ATOM     21  C   UNL A   1      33.609  31.819  27.671  1.00  0.00     0.338 C 
ATOM     22  O   UNL A   1      33.282  32.994  27.663  1.00  0.00    -0.246 OA
BRANCH  21  23
ATOM     23  C   UNL A   1      34.991  31.376  27.903  1.00  0.00     0.060 A 
ATOM     24  C   UNL A   1      35.205  30.012  28.067  1.00  0.00     0.016 A 
ATOM     25  C   UNL A   1      36.026  32.281  28.128  1.00  0.00     0.016 A 
ATOM     26  C   UNL A   1      36.430  29.536  28.523  1.00  0.00     0.010 A 
ATOM     27  C   UNL A   1      37.277  31.799  28.539  1.00  0.00     0.010 A 
ATOM     28  C   UNL A   1      37.478  30.426  28.788  1.00  0.00    -0.014 A 
BRANCH  28  29
ATOM     29  C   UNL A   1      38.709  29.927  29.469  1.00  0.00     0.031 A 
ATOM     30  C   UNL A   1      39.027  30.399  30.867  1.00  0.00     0.074 A 
ATOM     31  C   UNL A   1      39.495  28.996  28.891  1.00  0.00     0.049 A 
ATOM     32  N   UNL A   1      40.082  30.171  31.606  1.00  0.00    -0.248 NA
ATOM     33  C   UNL A   1      38.019  31.254  31.510  1.00  0.00     0.031 C 
ATOM     34  C   UNL A   1      39.268  28.394  27.577  1.00  0.00     0.029 A 
ATOM     35  N   UNL A   1      40.633  28.375  29.347  1.00  0.00    -0.354 N 
ATOM     36  C   UNL A   1      39.888  30.890  32.782  1.00  0.00     0.074 A 
ATOM     37  C   UNL A   1      38.626  31.586  32.639  1.00  0.00     0.031 C 
ATOM     38  C   UNL A   1      40.212  27.465  27.350  1.00  0.00     0.029 A 
ATOM     39  C   UNL A   1      41.152  27.453  28.467  1.00  0.00     0.049 A 
ATOM     40  H   UNL A   1      41.040  28.572  30.222  1.00  0.00     0.167 HD
ATOM     41  C   UNL A   1      40.682  30.961  33.881  1.00  0.00     0.034 A 
ATOM     42  C   UNL A   1      42.271  26.703  28.538  1.00  0.00     0.034 A 
ATOM     43  C   UNL A   1      41.920  30.232  34.028  1.00  0.00     0.049 A 
ATOM     44  C   UNL A   1      43.162  26.828  29.748  1.00  0.00     0.074 A 
ATOM     45  C   UNL A   1      42.815  30.249  35.084  1.00  0.00     0.029 A 
ATOM     46  N   UNL A   1      42.433  29.340  33.094  1.00  0.00    -0.354 N 
ATOM     47  N   UNL A   1      43.009  27.578  30.816  1.00  0.00    -0.248 NA
ATOM     48  C   UNL A   1      44.380  26.006  29.761  1.00  0.00     0.031 C 
ATOM     49  C   UNL A   1      43.888  29.408  34.770  1.00  0.00     0.029 A 
ATOM     50  C   UNL A   1      43.631  28.808  33.548  1.00  0.00     0.049 A 
ATOM     51  H   UNL A   1      42.006  29.117  32.234  1.00  0.00     0.167 HD
ATOM     52  C   UNL A   1      44.096  27.294  31.638  1.00  0.00     0.074 A 
ATOM     53  C   UNL A   1      44.886  26.294  30.950  1.00  0.00     0.031 C 
ATOM     54  C   UNL A   1      44.413  27.812  32.852  1.00  0.00     0.034 A 
BRANCH  41  55
ATOM     55  C   UNL A   1      40.256  31.911  34.978  1.00  0.00     0.023 A 
ATOM     56  C   UNL A   1      39.436  31.499  36.044  1.00  0.00     0.031 A 
ATOM     57  C   UNL A   1      40.628  33.266  34.922  1.00  0.00     0.131 A 
ATOM     58  C   UNL A   1      38.943  32.447  36.954  1.00  0.00     0.055 A 
ATOM     59  C   UNL A   1      40.206  34.188  35.883  1.00  0.00     0.041 A 
ATOM     60  F   UNL A   1      41.392  33.725  33.918  1.00  0.00    -0.206 F 
ATOM     61  C   UNL A   1      39.342  33.784  36.896  1.00  0.00     0.022 A 
BRANCH  58  62
ATOM     62  S   UNL A   1      37.641  31.941  38.112  1.00  0.00     0.124 S 
ATOM     63  O   UNL A   1      36.613  32.946  37.856  1.00  0.00    -0.237 OA
ATOM     64  O   UNL A   1      37.334  30.585  37.669  1.00  0.00    -0.237 OA
ATOM     65  O   UNL A   1      38.287  32.040  39.419  1.00  0.00    -0.744 OA
ENDBRANCH  58  62
ENDBRANCH  41  55
BRANCH  42  66
ATOM     66  C   UNL A   1      42.647  25.794  27.415  1.00  0.00     0.023 A 
ATOM     67  C   UNL A   1      42.139  24.487  27.337  1.00  0.00     0.031 A 
ATOM     68  C   UNL A   1      43.565  26.203  26.432  1.00  0.00     0.131 A 
ATOM     69  C   UNL A   1      42.584  23.623  26.324  1.00  0.00     0.055 A 
ATOM     70  C   UNL A   1      43.962  25.359  25.394  1.00  0.00     0.041 A 
ATOM     71  F   UNL A   1      44.086  27.440  26.462  1.00  0.00    -0.206 F 
ATOM     72  C   UNL A   1      43.480  24.054  25.343  1.00  0.00     0.022 A 
BRANCH  69  73
ATOM     73  S   UNL A   1      42.037  21.892  26.352  1.00  0.00     0.124 S 
ATOM     74  O   UNL A   1      40.609  22.027  26.091  1.00  0.00    -0.237 OA
ATOM     75  O   UNL A   1      42.834  21.305  25.280  1.00  0.00    -0.237 OA
ATOM     76  O   UNL A   1      42.387  21.448  27.700  1.00  0.00    -0.744 OA
ENDBRANCH  69  73
ENDBRANCH  42  66
BRANCH  54  77
ATOM     77  C   UNL A   1      45.636  27.251  33.538  1.00  0.00     0.023 A 
ATOM     78  C   UNL A   1      46.913  27.812  33.357  1.00  0.00     0.031 A 
ATOM     79  C   UNL A   1      45.523  26.116  34.359  1.00  0.00     0.131 A 
ATOM     80  C   UNL A   1      48.034  27.198  33.937  1.00  0.00     0.055 A 
ATOM     81  C   UNL A   1      46.634  25.544  34.981  1.00  0.00     0.041 A 
ATOM     82  F   UNL A   1      44.328  25.539  34.565  1.00  0.00    -0.206 F 
ATOM     83  C   UNL A   1      47.901  26.075  34.758  1.00  0.00     0.022 A 
BRANCH  80  84
ATOM     84  S   UNL A   1      49.686  27.820  33.515  1.00  0.00     0.124 S 
ATOM     85  O   UNL A   1      50.532  27.110  34.469  1.00  0.00    -0.237 OA
ATOM     86  O   UNL A   1      49.821  27.418  32.119  1.00  0.00    -0.237 OA
ATOM     87  O   UNL A   1      49.577  29.261  33.737  1.00  0.00    -0.744 OA
ENDBRANCH  80  84
ENDBRANCH  54  77
ENDBRANCH  28  29
ENDBRANCH  21  23
ENDBRANCH  20  21
ENDBRANCH  19  20
ENDBRANCH   1  19
TORSDOF 17
ENDMDL
MODEL 3
REMARK VINA RESULT:     -11.3      2.378      2.777
REMARK SMILES O=C(/C=N/O)Nc1cccc(C(=O)OCCOC(=O)c2ccc(-c3c4nc(c(-c5cc(S(=O)(=O)[O-])ccc5F)c5ccc([nH]5)c(-c5cc(S(=O)(=O)[O-])ccc5F)c5nc(c(-c6cc(S(=O)(=O)[O-])ccc6F)c6ccc3[nH]6)C=C5)C=C4)cc2)c1
REMARK SMILES IDX 15 1 14 2 12 3 13 4 11 5 7 6 8 7 83 8 9 9 10 10 6 11 1 12
REMARK SMILES IDX 2 13 3 15 4 16 5 17 16 19 17 20 18 21 19 22 20 23 21 24
REMARK SMILES IDX 82 25 22 26 81 27 23 28 24 29 25 30 75 31 26 32 80 33 74 34
REMARK SMILES IDX 76 35 27 36 79 37 73 38 72 39 28 41 60 42 40 43 59 44 41 45
REMARK SMILES IDX 44 46 58 47 77 48 42 49 43 50 57 52 78 53 45 54 29 55 30 56
REMARK SMILES IDX 38 57 31 58 37 59 39 60 36 61 32 62 33 63 34 64 35 65 61 66
REMARK SMILES IDX 62 67 70 68 63 69 69 70 71 71 68 72 64 73 65 74 66 75 67 76
REMARK SMILES IDX 46 77 47 78 55 79 48 80 54 81 56 82 53 83 49 84 50 85 51 86
REMARK SMILES IDX 52 87
REMARK H PARENT 6 14 5 18 76 40 44 51
REMARK Flexibility Score: inf
ROOT
ATOM      1  C   UNL A   1      33.311  29.294  25.199  1.00  0.00     0.275 C 
ENDROOT
BRANCH   1   2
ATOM      2  O   UNL A   1      32.627  28.749  24.053  1.00  0.00    -0.458 OA
BRANCH   2   3
ATOM      3  C   UNL A   1      31.973  27.573  24.240  1.00  0.00     0.338 C 
ATOM      4  O   UNL A   1      32.421  26.571  24.761  1.00  0.00    -0.246 OA
BRANCH   3   5
ATOM      5  C   UNL A   1      30.556  27.705  23.810  1.00  0.00     0.062 A 
ATOM      6  C   UNL A   1      28.753  28.945  22.773  1.00  0.00     0.042 A 
ATOM      7  C   UNL A   1      27.844  27.979  23.220  1.00  0.00     0.026 A 
ATOM      8  C   UNL A   1      30.106  28.826  23.105  1.00  0.00     0.041 A 
ATOM      9  C   UNL A   1      28.297  26.839  23.882  1.00  0.00     0.003 A 
ATOM     10  C   UNL A   1      29.657  26.681  24.134  1.00  0.00     0.016 A 
BRANCH   6  11
ATOM     11  N   UNL A   1      28.248  29.986  21.977  1.00  0.00    -0.321 N 
ATOM     12  O   UNL A   1      28.694  31.895  23.276  1.00  0.00    -0.268 OA
ATOM     13  C   UNL A   1      28.263  31.330  22.282  1.00  0.00     0.270 C 
ATOM     14  H   UNL A   1      27.845  29.732  21.116  1.00  0.00     0.170 HD
BRANCH  13  15
ATOM     15  C   UNL A   1      27.727  32.199  21.175  1.00  0.00     0.225 C 
ATOM     16  N   UNL A   1      27.691  33.487  21.305  1.00  0.00    -0.092 NA
BRANCH  16  17
ATOM     17  O   UNL A   1      27.160  34.040  20.133  1.00  0.00    -0.411 OA
ATOM     18  H   UNL A   1      26.318  34.452  20.149  1.00  0.00     0.330 HD
ENDBRANCH  16  17
ENDBRANCH  13  15
ENDBRANCH   6  11
ENDBRANCH   3   5
ENDBRANCH   2   3
ENDBRANCH   1   2
BRANCH   1  19
ATOM     19  C   UNL A   1      32.407  30.248  25.980  1.00  0.00     0.275 C 
BRANCH  19  20
ATOM     20  O   UNL A   1      32.891  30.390  27.329  1.00  0.00    -0.458 OA
BRANCH  20  21
ATOM     21  C   UNL A   1      33.610  31.510  27.571  1.00  0.00     0.338 C 
ATOM     22  O   UNL A   1      33.213  32.663  27.575  1.00  0.00    -0.246 OA
BRANCH  21  23
ATOM     23  C   UNL A   1      34.979  31.135  27.957  1.00  0.00     0.060 A 
ATOM     24  C   UNL A   1      35.214  29.798  28.257  1.00  0.00     0.016 A 
ATOM     25  C   UNL A   1      35.965  32.091  28.187  1.00  0.00     0.016 A 
ATOM     26  C   UNL A   1      36.406  29.404  28.855  1.00  0.00     0.010 A 
ATOM     27  C   UNL A   1      37.189  31.688  28.742  1.00  0.00     0.010 A 
ATOM     28  C   UNL A   1      37.403  30.349  29.127  1.00  0.00    -0.014 A 
BRANCH  28  29
ATOM     29  C   UNL A   1      38.584  29.951  29.950  1.00  0.00     0.031 A 
ATOM     30  C   UNL A   1      38.678  30.413  31.384  1.00  0.00     0.074 A 
ATOM     31  C   UNL A   1      39.523  29.116  29.462  1.00  0.00     0.049 A 
ATOM     32  N   UNL A   1      39.651  30.267  32.246  1.00  0.00    -0.248 NA
ATOM     33  C   UNL A   1      37.520  31.151  31.908  1.00  0.00     0.031 C 
ATOM     34  C   UNL A   1      39.521  28.531  28.120  1.00  0.00     0.029 A 
ATOM     35  N   UNL A   1      40.652  28.595  30.048  1.00  0.00    -0.354 N 
ATOM     36  C   UNL A   1      39.243  30.933  33.399  1.00  0.00     0.074 A 
ATOM     37  C   UNL A   1      37.947  31.508  33.109  1.00  0.00     0.031 C 
ATOM     38  C   UNL A   1      40.572  27.702  28.001  1.00  0.00     0.029 A 
ATOM     39  C   UNL A   1      41.364  27.751  29.227  1.00  0.00     0.049 A 
ATOM     40  H   UNL A   1      40.926  28.805  30.970  1.00  0.00     0.167 HD
ATOM     41  C   UNL A   1      39.884  31.050  34.590  1.00  0.00     0.034 A 
ATOM     42  C   UNL A   1      42.533  27.109  29.427  1.00  0.00     0.034 A 
ATOM     43  C   UNL A   1      41.160  30.439  34.881  1.00  0.00     0.049 A 
ATOM     44  C   UNL A   1      43.251  27.287  30.741  1.00  0.00     0.074 A 
ATOM     45  C   UNL A   1      41.911  30.512  36.042  1.00  0.00     0.029 A 
ATOM     46  N   UNL A   1      41.870  29.625  34.006  1.00  0.00    -0.354 N 
ATOM     47  N   UNL A   1      42.893  27.989  31.793  1.00  0.00    -0.248 NA
ATOM     48  C   UNL A   1      44.532  26.585  30.895  1.00  0.00     0.031 C 
ATOM     49  C   UNL A   1      43.092  29.787  35.852  1.00  0.00     0.029 A 
ATOM     50  C   UNL A   1      43.049  29.199  34.599  1.00  0.00     0.049 A 
ATOM     51  H   UNL A   1      41.577  29.386  33.096  1.00  0.00     0.167 HD
ATOM     52  C   UNL A   1      43.893  27.788  32.741  1.00  0.00     0.074 A 
ATOM     53  C   UNL A   1      44.857  26.887  32.143  1.00  0.00     0.031 C 
ATOM     54  C   UNL A   1      44.005  28.301  33.993  1.00  0.00     0.034 A 
BRANCH  41  55
ATOM     55  C   UNL A   1      39.234  31.924  35.638  1.00  0.00     0.023 A 
ATOM     56  C   UNL A   1      38.644  31.387  36.797  1.00  0.00     0.031 A 
ATOM     57  C   UNL A   1      39.151  33.315  35.445  1.00  0.00     0.131 A 
ATOM     58  C   UNL A   1      37.922  32.220  37.665  1.00  0.00     0.055 A 
ATOM     59  C   UNL A   1      38.507  34.150  36.361  1.00  0.00     0.041 A 
ATOM     60  F   UNL A   1      39.677  33.886  34.350  1.00  0.00    -0.206 F 
ATOM     61  C   UNL A   1      37.870  33.601  37.469  1.00  0.00     0.022 A 
BRANCH  58  62
ATOM     62  S   UNL A   1      36.910  31.451  38.961  1.00  0.00     0.124 S 
ATOM     63  O   UNL A   1      35.726  32.307  38.955  1.00  0.00    -0.237 OA
ATOM     64  O   UNL A   1      36.722  30.097  38.453  1.00  0.00    -0.237 OA
ATOM     65  O   UNL A   1      37.743  31.560  40.156  1.00  0.00    -0.744 OA
ENDBRANCH  58  62
ENDBRANCH  41  55
BRANCH  42  66
ATOM     66  C   UNL A   1      43.133  26.271  28.347  1.00  0.00     0.023 A 
ATOM     67  C   UNL A   1      44.195  26.749  27.561  1.00  0.00     0.031 A 
ATOM     68  C   UNL A   1      42.615  24.998  28.049  1.00  0.00     0.131 A 
ATOM     69  C   UNL A   1      44.675  25.977  26.491  1.00  0.00     0.055 A 
ATOM     70  C   UNL A   1      43.133  24.211  27.020  1.00  0.00     0.041 A 
ATOM     71  F   UNL A   1      41.597  24.495  28.766  1.00  0.00    -0.206 F 
ATOM     72  C   UNL A   1      44.162  24.706  26.225  1.00  0.00     0.022 A 
BRANCH  69  73
ATOM     73  S   UNL A   1      45.930  26.695  25.394  1.00  0.00     0.124 S 
ATOM     74  O   UNL A   1      47.001  27.010  26.333  1.00  0.00    -0.237 OA
ATOM     75  O   UNL A   1      46.188  25.596  24.469  1.00  0.00    -0.237 OA
ATOM     76  O   UNL A   1      45.250  27.850  24.810  1.00  0.00    -0.744 OA
ENDBRANCH  69  73
ENDBRANCH  42  66
BRANCH  54  77
ATOM     77  C   UNL A   1      45.182  27.841  34.818  1.00  0.00     0.023 A 
ATOM     78  C   UNL A   1      46.400  28.546  34.835  1.00  0.00     0.031 A 
ATOM     79  C   UNL A   1      45.093  26.659  35.573  1.00  0.00     0.131 A 
ATOM     80  C   UNL A   1      47.497  28.028  35.541  1.00  0.00     0.055 A 
ATOM     81  C   UNL A   1      46.170  26.179  36.320  1.00  0.00     0.041 A 
ATOM     82  F   UNL A   1      43.955  25.946  35.592  1.00  0.00    -0.206 F 
ATOM     83  C   UNL A   1      47.386  26.856  36.293  1.00  0.00     0.022 A 
BRANCH  80  84
ATOM     84  S   UNL A   1      49.108  28.847  35.373  1.00  0.00     0.124 S 
ATOM     85  O   UNL A   1      50.036  27.750  35.626  1.00  0.00    -0.237 OA
ATOM     86  O   UNL A   1      49.063  29.341  34.001  1.00  0.00    -0.237 OA
ATOM     87  O   UNL A   1      49.076  29.882  36.405  1.00  0.00    -0.744 OA
ENDBRANCH  80  84
ENDBRANCH  54  77
ENDBRANCH  28  29
ENDBRANCH  21  23
ENDBRANCH  20  21
ENDBRANCH  19  20
ENDBRANCH   1  19
TORSDOF 17
ENDMDL
