MODEL 1
REMARK VINA RESULT:     -13.7      0.000      0.000
REMARK SMILES CC(=O)Nc1cnc(N2CC=C(c3ccccc3C)CC2)c(C(=O)OCCOC(=O)c2ccc(-c3c4nc(c(-c5cc(S(=O)(=O)[O-])ccc5F)c5ccc([nH]5)c(-c5cc(S(=O)(=O)[O-])ccc5F)c5nc(c(-c6cc(S(=O)(=O)[O-])ccc6F)c6ccc3[nH]6)C=C5)C=C4)cc2)c1
REMARK SMILES IDX 27 1 26 2 25 3 23 4 24 5 22 6 5 7 6 8 94 9 7 10 8 11 4 12
REMARK SMILES IDX 1 13 2 14 3 15 9 17 10 18 21 19 11 20 20 21 12 22 13 23
REMARK SMILES IDX 14 24 18 25 15 26 17 27 19 28 16 29 28 30 29 31 30 32 31 33
REMARK SMILES IDX 32 34 93 35 33 36 92 37 34 38 35 39 36 40 86 41 37 42 91 43
REMARK SMILES IDX 85 44 87 45 38 46 90 47 84 48 83 49 39 51 71 52 51 53 70 54
REMARK SMILES IDX 52 55 55 56 69 57 88 58 53 59 54 60 68 62 89 63 56 64 40 65
REMARK SMILES IDX 41 66 49 67 42 68 48 69 50 70 47 71 43 72 44 73 45 74 46 75
REMARK SMILES IDX 72 76 73 77 81 78 74 79 80 80 82 81 79 82 75 83 76 84 77 85
REMARK SMILES IDX 78 86 57 87 58 88 66 89 59 90 65 91 67 92 64 93 60 94 61 95
REMARK SMILES IDX 62 96 63 97
REMARK H PARENT 4 16 87 50 55 61
REMARK Flexibility Score: inf
ROOT
ATOM      1  C   UNL A   1      32.306  32.275  26.839  1.00  0.00     0.275 C 
ENDROOT
BRANCH   1   2
ATOM      2  C   UNL A   1      32.567  30.762  27.018  1.00  0.00     0.275 C 
BRANCH   2   3
ATOM      3  O   UNL A   1      32.571  29.925  25.835  1.00  0.00    -0.458 OA
BRANCH   3   4
ATOM      4  C   UNL A   1      31.838  28.787  25.822  1.00  0.00     0.342 C 
ATOM      5  O   UNL A   1      31.493  28.147  26.813  1.00  0.00    -0.246 OA
BRANCH   4   6
ATOM      6  C   UNL A   1      31.193  28.626  24.502  1.00  0.00     0.104 A 
ATOM      7  C   UNL A   1      29.999  29.905  22.800  1.00  0.00     0.060 A 
ATOM      8  C   UNL A   1      29.557  28.694  22.321  1.00  0.00     0.139 A 
ATOM      9  C   UNL A   1      30.829  29.867  23.911  1.00  0.00     0.047 A 
ATOM     10  N   UNL A   1      29.966  27.506  22.804  1.00  0.00    -0.236 NA
ATOM     11  C   UNL A   1      30.792  27.428  23.887  1.00  0.00     0.143 A 
BRANCH   7  12
ATOM     12  N   UNL A   1      29.495  31.084  22.237  1.00  0.00    -0.325 N 
ATOM     13  C   UNL A   1      27.525  31.379  23.700  1.00  0.00     0.114 C 
ATOM     14  C   UNL A   1      28.307  31.718  22.459  1.00  0.00     0.221 C 
ATOM     15  O   UNL A   1      27.953  32.617  21.695  1.00  0.00    -0.275 OA
ATOM     16  H   UNL A   1      30.087  31.521  21.581  1.00  0.00     0.169 HD
ENDBRANCH   7  12
BRANCH  11  17
ATOM     17  N   UNL A   1      31.143  26.126  24.186  1.00  0.00    -0.352 N 
ATOM     18  C   UNL A   1      32.447  25.724  23.624  1.00  0.00     0.146 C 
ATOM     19  C   UNL A   1      30.520  25.273  25.192  1.00  0.00     0.123 C 
ATOM     20  C   UNL A   1      32.794  24.282  23.849  1.00  0.00    -0.002 C 
ATOM     21  C   UNL A   1      30.577  23.789  24.809  1.00  0.00     0.057 C 
ATOM     22  C   UNL A   1      31.952  23.374  24.364  1.00  0.00    -0.041 C 
BRANCH  22  23
ATOM     23  C   UNL A   1      32.323  21.948  24.450  1.00  0.00    -0.020 A 
ATOM     24  C   UNL A   1      32.124  21.106  23.346  1.00  0.00     0.008 A 
ATOM     25  C   UNL A   1      32.886  21.408  25.623  1.00  0.00    -0.044 A 
ATOM     26  C   UNL A   1      32.513  19.767  23.377  1.00  0.00     0.001 A 
ATOM     27  C   UNL A   1      33.297  20.063  25.633  1.00  0.00     0.004 A 
ATOM     28  C   UNL A   1      33.094  22.241  26.857  1.00  0.00     0.045 C 
ATOM     29  C   UNL A   1      33.113  19.248  24.517  1.00  0.00     0.000 A 
ENDBRANCH  22  23
ENDBRANCH  11  17
ENDBRANCH   4   6
ENDBRANCH   3   4
ENDBRANCH   2   3
ENDBRANCH   1   2
BRANCH   1  30
ATOM     30  O   UNL A   1      32.087  32.990  28.067  1.00  0.00    -0.458 OA
BRANCH  30  31
ATOM     31  C   UNL A   1      32.828  34.116  28.185  1.00  0.00     0.338 C 
ATOM     32  O   UNL A   1      32.359  35.255  28.129  1.00  0.00    -0.246 OA
BRANCH  31  33
ATOM     33  C   UNL A   1      34.105  33.715  28.811  1.00  0.00     0.060 A 
ATOM     34  C   UNL A   1      34.132  32.670  29.762  1.00  0.00     0.016 A 
ATOM     35  C   UNL A   1      35.280  34.130  28.174  1.00  0.00     0.016 A 
ATOM     36  C   UNL A   1      35.304  31.979  30.007  1.00  0.00     0.010 A 
ATOM     37  C   UNL A   1      36.417  33.388  28.347  1.00  0.00     0.010 A 
ATOM     38  C   UNL A   1      36.435  32.362  29.300  1.00  0.00    -0.014 A 
BRANCH  38  39
ATOM     39  C   UNL A   1      37.764  32.098  29.788  1.00  0.00     0.031 A 
ATOM     40  C   UNL A   1      38.534  30.923  29.384  1.00  0.00     0.074 A 
ATOM     41  C   UNL A   1      38.260  33.184  30.418  1.00  0.00     0.049 A 
ATOM     42  N   UNL A   1      39.523  30.465  30.065  1.00  0.00    -0.248 NA
ATOM     43  C   UNL A   1      38.232  30.126  28.194  1.00  0.00     0.031 C 
ATOM     44  C   UNL A   1      39.626  33.593  30.656  1.00  0.00     0.029 A 
ATOM     45  N   UNL A   1      37.506  34.173  31.062  1.00  0.00    -0.354 N 
ATOM     46  C   UNL A   1      40.211  29.625  29.221  1.00  0.00     0.074 A 
ATOM     47  C   UNL A   1      39.289  29.303  28.156  1.00  0.00     0.031 C 
ATOM     48  C   UNL A   1      39.616  34.543  31.614  1.00  0.00     0.029 A 
ATOM     49  C   UNL A   1      38.257  34.622  32.140  1.00  0.00     0.049 A 
ATOM     50  H   UNL A   1      36.611  34.490  30.798  1.00  0.00     0.167 HD
ATOM     51  C   UNL A   1      41.556  29.491  29.377  1.00  0.00     0.034 A 
ATOM     52  C   UNL A   1      37.852  34.341  33.418  1.00  0.00     0.034 A 
ATOM     53  C   UNL A   1      42.045  30.370  30.436  1.00  0.00     0.049 A 
ATOM     54  C   UNL A   1      38.810  33.371  34.092  1.00  0.00     0.074 A 
ATOM     55  C   UNL A   1      42.622  31.630  30.435  1.00  0.00     0.029 A 
ATOM     56  N   UNL A   1      41.645  30.134  31.733  1.00  0.00    -0.354 N 
ATOM     57  N   UNL A   1      39.774  32.754  33.468  1.00  0.00    -0.248 NA
ATOM     58  C   UNL A   1      38.692  32.947  35.484  1.00  0.00     0.031 C 
ATOM     59  C   UNL A   1      42.519  32.160  31.755  1.00  0.00     0.029 A 
ATOM     60  C   UNL A   1      41.898  31.215  32.550  1.00  0.00     0.049 A 
ATOM     61  H   UNL A   1      41.228  29.296  32.038  1.00  0.00     0.167 HD
ATOM     62  C   UNL A   1      40.403  31.895  34.317  1.00  0.00     0.074 A 
ATOM     63  C   UNL A   1      39.667  32.024  35.564  1.00  0.00     0.031 C 
ATOM     64  C   UNL A   1      41.470  31.134  33.934  1.00  0.00     0.034 A 
BRANCH  51  65
ATOM     65  C   UNL A   1      42.475  28.835  28.386  1.00  0.00     0.023 A 
ATOM     66  C   UNL A   1      42.508  27.427  28.337  1.00  0.00     0.031 A 
ATOM     67  C   UNL A   1      43.298  29.503  27.463  1.00  0.00     0.131 A 
ATOM     68  C   UNL A   1      43.364  26.739  27.466  1.00  0.00     0.055 A 
ATOM     69  C   UNL A   1      44.178  28.818  26.610  1.00  0.00     0.041 A 
ATOM     70  F   UNL A   1      43.257  30.838  27.327  1.00  0.00    -0.206 F 
ATOM     71  C   UNL A   1      44.219  27.427  26.613  1.00  0.00     0.022 A 
BRANCH  68  72
ATOM     72  S   UNL A   1      43.306  24.929  27.466  1.00  0.00     0.124 S 
ATOM     73  O   UNL A   1      41.896  24.669  27.195  1.00  0.00    -0.237 OA
ATOM     74  O   UNL A   1      44.239  24.589  26.398  1.00  0.00    -0.237 OA
ATOM     75  O   UNL A   1      43.753  24.577  28.812  1.00  0.00    -0.744 OA
ENDBRANCH  68  72
ENDBRANCH  51  65
BRANCH  52  76
ATOM     76  C   UNL A   1      36.360  34.306  33.597  1.00  0.00     0.023 A 
ATOM     77  C   UNL A   1      35.633  35.506  33.410  1.00  0.00     0.031 A 
ATOM     78  C   UNL A   1      35.642  33.100  33.561  1.00  0.00     0.131 A 
ATOM     79  C   UNL A   1      34.281  35.463  33.035  1.00  0.00     0.055 A 
ATOM     80  C   UNL A   1      34.284  33.068  33.240  1.00  0.00     0.041 A 
ATOM     81  F   UNL A   1      36.261  31.919  33.700  1.00  0.00    -0.206 F 
ATOM     82  C   UNL A   1      33.614  34.245  32.919  1.00  0.00     0.022 A 
BRANCH  79  83
ATOM     83  S   UNL A   1      33.468  36.985  32.460  1.00  0.00     0.124 S 
ATOM     84  O   UNL A   1      33.582  36.859  31.011  1.00  0.00    -0.237 OA
ATOM     85  O   UNL A   1      32.124  36.853  33.013  1.00  0.00    -0.237 OA
ATOM     86  O   UNL A   1      34.275  38.042  33.064  1.00  0.00    -0.744 OA
ENDBRANCH  79  83
ENDBRANCH  52  76
BRANCH  64  87
ATOM     87  C   UNL A   1      42.203  30.236  34.880  1.00  0.00     0.023 A 
ATOM     88  C   UNL A   1      41.617  29.048  35.330  1.00  0.00     0.031 A 
ATOM     89  C   UNL A   1      43.462  30.568  35.426  1.00  0.00     0.131 A 
ATOM     90  C   UNL A   1      42.316  28.195  36.188  1.00  0.00     0.055 A 
ATOM     91  C   UNL A   1      44.103  29.773  36.374  1.00  0.00     0.041 A 
ATOM     92  F   UNL A   1      44.149  31.649  35.028  1.00  0.00    -0.206 F 
ATOM     93  C   UNL A   1      43.539  28.563  36.745  1.00  0.00     0.022 A 
BRANCH  90  94
ATOM     94  S   UNL A   1      41.644  26.540  36.454  1.00  0.00     0.124 S 
ATOM     95  O   UNL A   1      40.663  26.759  37.510  1.00  0.00    -0.237 OA
ATOM     96  O   UNL A   1      41.097  26.235  35.134  1.00  0.00    -0.237 OA
ATOM     97  O   UNL A   1      42.814  25.753  36.838  1.00  0.00    -0.744 OA
ENDBRANCH  90  94
ENDBRANCH  64  87
ENDBRANCH  38  39
ENDBRANCH  31  33
ENDBRANCH  30  31
ENDBRANCH   1  30
TORSDOF 17
ENDMDL
MODEL 2
REMARK VINA RESULT:     -13.6      3.603     10.243
REMARK SMILES CC(=O)Nc1cnc(N2CC=C(c3ccccc3C)CC2)c(C(=O)OCCOC(=O)c2ccc(-c3c4nc(c(-c5cc(S(=O)(=O)[O-])ccc5F)c5ccc([nH]5)c(-c5cc(S(=O)(=O)[O-])ccc5F)c5nc(c(-c6cc(S(=O)(=O)[O-])ccc6F)c6ccc3[nH]6)C=C5)C=C4)cc2)c1
REMARK SMILES IDX 27 1 26 2 25 3 23 4 24 5 22 6 5 7 6 8 94 9 7 10 8 11 4 12
REMARK SMILES IDX 1 13 2 14 3 15 9 17 10 18 21 19 11 20 20 21 12 22 13 23
REMARK SMILES IDX 14 24 18 25 15 26 17 27 19 28 16 29 28 30 29 31 30 32 31 33
REMARK SMILES IDX 32 34 93 35 33 36 92 37 34 38 35 39 36 40 86 41 37 42 91 43
REMARK SMILES IDX 85 44 87 45 38 46 90 47 84 48 83 49 39 51 71 52 51 53 70 54
REMARK SMILES IDX 52 55 55 56 69 57 88 58 53 59 54 60 68 62 89 63 56 64 40 65
REMARK SMILES IDX 41 66 49 67 42 68 48 69 50 70 47 71 43 72 44 73 45 74 46 75
REMARK SMILES IDX 72 76 73 77 81 78 74 79 80 80 82 81 79 82 75 83 76 84 77 85
REMARK SMILES IDX 78 86 57 87 58 88 66 89 59 90 65 91 67 92 64 93 60 94 61 95
REMARK SMILES IDX 62 96 63 97
REMARK H PARENT 4 16 87 50 55 61
REMARK Flexibility Score: inf
ROOT
ATOM      1  C   UNL A   1      38.386  21.620  25.747  1.00  0.00     0.275 C 
ENDROOT
BRANCH   1   2
ATOM      2  C   UNL A   1      36.943  21.553  25.199  1.00  0.00     0.275 C 
BRANCH   2   3
ATOM      3  O   UNL A   1      35.943  22.414  25.800  1.00  0.00    -0.458 OA
BRANCH   3   4
ATOM      4  C   UNL A   1      34.816  21.869  26.312  1.00  0.00     0.342 C 
ATOM      5  O   UNL A   1      34.600  21.661  27.504  1.00  0.00    -0.246 OA
BRANCH   4   6
ATOM      6  C   UNL A   1      33.740  21.908  25.299  1.00  0.00     0.104 A 
ATOM      7  C   UNL A   1      32.613  20.488  23.666  1.00  0.00     0.060 A 
ATOM      8  C   UNL A   1      32.166  21.651  23.087  1.00  0.00     0.139 A 
ATOM      9  C   UNL A   1      33.415  20.621  24.790  1.00  0.00     0.047 A 
ATOM     10  N   UNL A   1      32.380  22.874  23.608  1.00  0.00    -0.236 NA
ATOM     11  C   UNL A   1      33.153  23.046  24.720  1.00  0.00     0.143 A 
BRANCH   7  12
ATOM     12  N   UNL A   1      32.351  19.267  23.030  1.00  0.00    -0.325 N 
ATOM     13  C   UNL A   1      33.789  17.812  24.417  1.00  0.00     0.114 C 
ATOM     14  C   UNL A   1      32.959  18.055  23.185  1.00  0.00     0.221 C 
ATOM     15  O   UNL A   1      32.736  17.161  22.367  1.00  0.00    -0.275 OA
ATOM     16  H   UNL A   1      31.618  19.287  22.372  1.00  0.00     0.169 HD
ENDBRANCH   7  12
BRANCH  11  17
ATOM     17  N   UNL A   1      33.197  24.364  25.129  1.00  0.00    -0.352 N 
ATOM     18  C   UNL A   1      32.154  24.710  26.114  1.00  0.00     0.146 C 
ATOM     19  C   UNL A   1      34.297  25.298  24.915  1.00  0.00     0.123 C 
ATOM     20  C   UNL A   1      32.121  26.162  26.489  1.00  0.00    -0.002 C 
ATOM     21  C   UNL A   1      33.810  26.747  24.791  1.00  0.00     0.057 C 
ATOM     22  C   UNL A   1      32.847  27.114  25.885  1.00  0.00    -0.041 C 
BRANCH  22  23
ATOM     23  C   UNL A   1      32.679  28.539  26.230  1.00  0.00    -0.020 A 
ATOM     24  C   UNL A   1      33.476  29.115  27.231  1.00  0.00     0.008 A 
ATOM     25  C   UNL A   1      31.733  29.346  25.568  1.00  0.00    -0.044 A 
ATOM     26  C   UNL A   1      33.380  30.471  27.543  1.00  0.00     0.001 A 
ATOM     27  C   UNL A   1      31.663  30.717  25.874  1.00  0.00     0.004 A 
ATOM     28  C   UNL A   1      30.820  28.790  24.512  1.00  0.00     0.045 C 
ATOM     29  C   UNL A   1      32.482  31.276  26.854  1.00  0.00     0.000 A 
ENDBRANCH  22  23
ENDBRANCH  11  17
ENDBRANCH   4   6
ENDBRANCH   3   4
ENDBRANCH   2   3
ENDBRANCH   1   2
BRANCH   1  30
ATOM     30  O   UNL A   1      38.786  22.920  26.211  1.00  0.00    -0.458 OA
BRANCH  30  31
ATOM     31  C   UNL A   1      40.119  23.044  26.415  1.00  0.00     0.338 C 
ATOM     32  O   UNL A   1      40.967  22.359  25.839  1.00  0.00    -0.246 OA
BRANCH  31  33
ATOM     33  C   UNL A   1      40.326  24.363  27.048  1.00  0.00     0.060 A 
ATOM     34  C   UNL A   1      40.777  25.457  26.277  1.00  0.00     0.016 A 
ATOM     35  C   UNL A   1      39.722  24.568  28.294  1.00  0.00     0.016 A 
ATOM     36  C   UNL A   1      40.543  26.753  26.699  1.00  0.00     0.010 A 
ATOM     37  C   UNL A   1      39.407  25.846  28.667  1.00  0.00     0.010 A 
ATOM     38  C   UNL A   1      39.869  26.924  27.900  1.00  0.00    -0.014 A 
BRANCH  38  39
ATOM     39  C   UNL A   1      39.996  28.129  28.680  1.00  0.00     0.031 A 
ATOM     40  C   UNL A   1      38.977  29.176  28.685  1.00  0.00     0.074 A 
ATOM     41  C   UNL A   1      41.011  28.015  29.563  1.00  0.00     0.049 A 
ATOM     42  N   UNL A   1      39.217  30.387  29.043  1.00  0.00    -0.248 NA
ATOM     43  C   UNL A   1      37.596  28.966  28.245  1.00  0.00     0.031 C 
ATOM     44  C   UNL A   1      41.247  28.693  30.818  1.00  0.00     0.029 A 
ATOM     45  N   UNL A   1      42.144  27.208  29.409  1.00  0.00    -0.354 N 
ATOM     46  C   UNL A   1      37.992  30.967  29.276  1.00  0.00     0.074 A 
ATOM     47  C   UNL A   1      37.029  30.127  28.600  1.00  0.00     0.031 C 
ATOM     48  C   UNL A   1      42.540  28.507  31.154  1.00  0.00     0.029 A 
ATOM     49  C   UNL A   1      43.202  27.866  30.022  1.00  0.00     0.049 A 
ATOM     50  H   UNL A   1      42.183  26.336  28.951  1.00  0.00     0.167 HD
ATOM     51  C   UNL A   1      37.894  31.945  30.217  1.00  0.00     0.034 A 
ATOM     52  C   UNL A   1      44.217  28.384  29.262  1.00  0.00     0.034 A 
ATOM     53  C   UNL A   1      39.178  32.156  30.880  1.00  0.00     0.049 A 
ATOM     54  C   UNL A   1      44.204  29.904  29.298  1.00  0.00     0.074 A 
ATOM     55  C   UNL A   1      39.723  31.692  32.066  1.00  0.00     0.029 A 
ATOM     56  N   UNL A   1      40.231  32.656  30.145  1.00  0.00    -0.354 N 
ATOM     57  N   UNL A   1      43.244  30.608  29.829  1.00  0.00    -0.248 NA
ATOM     58  C   UNL A   1      45.212  30.741  28.654  1.00  0.00     0.031 C 
ATOM     59  C   UNL A   1      41.135  31.888  32.006  1.00  0.00     0.029 A 
ATOM     60  C   UNL A   1      41.435  32.483  30.794  1.00  0.00     0.049 A 
ATOM     61  H   UNL A   1      40.135  33.084  29.264  1.00  0.00     0.167 HD
ATOM     62  C   UNL A   1      43.477  31.935  29.635  1.00  0.00     0.074 A 
ATOM     63  C   UNL A   1      44.708  31.970  28.861  1.00  0.00     0.031 C 
ATOM     64  C   UNL A   1      42.642  32.905  30.109  1.00  0.00     0.034 A 
BRANCH  51  65
ATOM     65  C   UNL A   1      36.604  32.479  30.770  1.00  0.00     0.023 A 
ATOM     66  C   UNL A   1      35.861  33.380  29.981  1.00  0.00     0.031 A 
ATOM     67  C   UNL A   1      36.039  32.137  32.011  1.00  0.00     0.131 A 
ATOM     68  C   UNL A   1      34.666  33.951  30.439  1.00  0.00     0.055 A 
ATOM     69  C   UNL A   1      34.857  32.729  32.485  1.00  0.00     0.041 A 
ATOM     70  F   UNL A   1      36.587  31.194  32.792  1.00  0.00    -0.206 F 
ATOM     71  C   UNL A   1      34.166  33.647  31.701  1.00  0.00     0.022 A 
BRANCH  68  72
ATOM     72  S   UNL A   1      33.778  35.075  29.332  1.00  0.00     0.124 S 
ATOM     73  O   UNL A   1      33.484  36.201  30.212  1.00  0.00    -0.237 OA
ATOM     74  O   UNL A   1      34.761  35.319  28.283  1.00  0.00    -0.237 OA
ATOM     75  O   UNL A   1      32.614  34.292  28.919  1.00  0.00    -0.744 OA
ENDBRANCH  68  72
ENDBRANCH  51  65
BRANCH  52  76
ATOM     76  C   UNL A   1      44.539  27.577  28.035  1.00  0.00     0.023 A 
ATOM     77  C   UNL A   1      45.054  26.270  28.206  1.00  0.00     0.031 A 
ATOM     78  C   UNL A   1      44.007  27.906  26.778  1.00  0.00     0.131 A 
ATOM     79  C   UNL A   1      44.876  25.302  27.206  1.00  0.00     0.055 A 
ATOM     80  C   UNL A   1      43.883  26.951  25.766  1.00  0.00     0.041 A 
ATOM     81  F   UNL A   1      43.474  29.112  26.542  1.00  0.00    -0.206 F 
ATOM     82  C   UNL A   1      44.263  25.633  25.999  1.00  0.00     0.022 A 
BRANCH  79  83
ATOM     83  S   UNL A   1      45.225  23.557  27.582  1.00  0.00     0.124 S 
ATOM     84  O   UNL A   1      46.491  23.348  26.889  1.00  0.00    -0.237 OA
ATOM     85  O   UNL A   1      45.281  23.554  29.040  1.00  0.00    -0.237 OA
ATOM     86  O   UNL A   1      44.076  22.858  27.014  1.00  0.00    -0.744 OA
ENDBRANCH  79  83
ENDBRANCH  52  76
BRANCH  64  87
ATOM     87  C   UNL A   1      42.927  34.365  29.952  1.00  0.00     0.023 A 
ATOM     88  C   UNL A   1      42.928  34.956  28.684  1.00  0.00     0.031 A 
ATOM     89  C   UNL A   1      43.286  35.194  31.037  1.00  0.00     0.131 A 
ATOM     90  C   UNL A   1      43.162  36.327  28.542  1.00  0.00     0.055 A 
ATOM     91  C   UNL A   1      43.637  36.533  30.877  1.00  0.00     0.041 A 
ATOM     92  F   UNL A   1      43.264  34.757  32.305  1.00  0.00    -0.206 F 
ATOM     93  C   UNL A   1      43.554  37.115  29.622  1.00  0.00     0.022 A 
BRANCH  90  94
ATOM     94  S   UNL A   1      42.816  37.074  26.935  1.00  0.00     0.124 S 
ATOM     95  O   UNL A   1      43.968  37.946  26.733  1.00  0.00    -0.237 OA
ATOM     96  O   UNL A   1      42.757  35.894  26.075  1.00  0.00    -0.237 OA
ATOM     97  O   UNL A   1      41.541  37.756  27.142  1.00  0.00    -0.744 OA
ENDBRANCH  90  94
ENDBRANCH  64  87
ENDBRANCH  38  39
ENDBRANCH  31  33
ENDBRANCH  30  31
ENDBRANCH   1  30
TORSDOF 17
ENDMDL
MODEL 3
REMARK VINA RESULT:     -13.5      3.897      5.337
REMARK SMILES CC(=O)Nc1cnc(N2CC=C(c3ccccc3C)CC2)c(C(=O)OCCOC(=O)c2ccc(-c3c4nc(c(-c5cc(S(=O)(=O)[O-])ccc5F)c5ccc([nH]5)c(-c5cc(S(=O)(=O)[O-])ccc5F)c5nc(c(-c6cc(S(=O)(=O)[O-])ccc6F)c6ccc3[nH]6)C=C5)C=C4)cc2)c1
REMARK SMILES IDX 27 1 26 2 25 3 23 4 24 5 22 6 5 7 6 8 94 9 7 10 8 11 4 12
REMARK SMILES IDX 1 13 2 14 3 15 9 17 10 18 21 19 11 20 20 21 12 22 13 23
REMARK SMILES IDX 14 24 18 25 15 26 17 27 19 28 16 29 28 30 29 31 30 32 31 33
REMARK SMILES IDX 32 34 93 35 33 36 92 37 34 38 35 39 36 40 86 41 37 42 91 43
REMARK SMILES IDX 85 44 87 45 38 46 90 47 84 48 83 49 39 51 71 52 51 53 70 54
REMARK SMILES IDX 52 55 55 56 69 57 88 58 53 59 54 60 68 62 89 63 56 64 40 65
REMARK SMILES IDX 41 66 49 67 42 68 48 69 50 70 47 71 43 72 44 73 45 74 46 75
REMARK SMILES IDX 72 76 73 77 81 78 74 79 80 80 82 81 79 82 75 83 76 84 77 85
REMARK SMILES IDX 78 86 57 87 58 88 66 89 59 90 65 91 67 92 64 93 60 94 61 95
REMARK SMILES IDX 62 96 63 97
REMARK H PARENT 4 16 87 50 55 61
REMARK Flexibility Score: inf
ROOT
ATOM      1  C   UNL A   1      33.950  30.600  27.284  1.00  0.00     0.275 C 
ENDROOT
BRANCH   1   2
ATOM      2  C   UNL A   1      32.756  29.620  27.243  1.00  0.00     0.275 C 
BRANCH   2   3
ATOM      3  O   UNL A   1      32.933  28.356  26.554  1.00  0.00    -0.458 OA
BRANCH   3   4
ATOM      4  C   UNL A   1      31.852  27.590  26.281  1.00  0.00     0.342 C 
ATOM      5  O   UNL A   1      31.017  27.212  27.101  1.00  0.00    -0.246 OA
BRANCH   4   6
ATOM      6  C   UNL A   1      31.600  27.585  24.825  1.00  0.00     0.104 A 
ATOM      7  C   UNL A   1      30.746  29.011  23.038  1.00  0.00     0.060 A 
ATOM      8  C   UNL A   1      30.598  27.858  22.303  1.00  0.00     0.139 A 
ATOM      9  C   UNL A   1      31.254  28.868  24.321  1.00  0.00     0.047 A 
ATOM     10  N   UNL A   1      31.009  26.647  22.724  1.00  0.00    -0.236 NA
ATOM     11  C   UNL A   1      31.526  26.469  23.974  1.00  0.00     0.143 A 
BRANCH   7  12
ATOM     12  N   UNL A   1      30.266  30.218  22.513  1.00  0.00    -0.325 N 
ATOM     13  C   UNL A   1      27.887  29.969  23.135  1.00  0.00     0.114 C 
ATOM     14  C   UNL A   1      28.981  30.650  22.357  1.00  0.00     0.221 C 
ATOM     15  O   UNL A   1      28.761  31.645  21.665  1.00  0.00    -0.275 OA
ATOM     16  H   UNL A   1      30.960  30.848  22.211  1.00  0.00     0.169 HD
ENDBRANCH   7  12
BRANCH  11  17
ATOM     17  N   UNL A   1      31.944  25.170  24.188  1.00  0.00    -0.352 N 
ATOM     18  C   UNL A   1      32.971  24.716  23.230  1.00  0.00     0.146 C 
ATOM     19  C   UNL A   1      31.697  24.369  25.382  1.00  0.00     0.123 C 
ATOM     20  C   UNL A   1      33.358  23.276  23.382  1.00  0.00    -0.002 C 
ATOM     21  C   UNL A   1      31.602  22.872  25.065  1.00  0.00     0.057 C 
ATOM     22  C   UNL A   1      32.735  22.408  24.192  1.00  0.00    -0.041 C 
BRANCH  22  23
ATOM     23  C   UNL A   1      33.098  20.977  24.205  1.00  0.00    -0.020 A 
ATOM     24  C   UNL A   1      32.287  20.044  23.542  1.00  0.00     0.008 A 
ATOM     25  C   UNL A   1      34.255  20.521  24.868  1.00  0.00    -0.044 A 
ATOM     26  C   UNL A   1      32.630  18.693  23.489  1.00  0.00     0.001 A 
ATOM     27  C   UNL A   1      34.603  19.161  24.787  1.00  0.00     0.004 A 
ATOM     28  C   UNL A   1      35.150  21.457  25.630  1.00  0.00     0.045 C 
ATOM     29  C   UNL A   1      33.797  18.253  24.101  1.00  0.00     0.000 A 
ENDBRANCH  22  23
ENDBRANCH  11  17
ENDBRANCH   4   6
ENDBRANCH   3   4
ENDBRANCH   2   3
ENDBRANCH   1   2
BRANCH   1  30
ATOM     30  O   UNL A   1      35.185  30.013  27.729  1.00  0.00    -0.458 OA
BRANCH  30  31
ATOM     31  C   UNL A   1      36.087  30.913  28.187  1.00  0.00     0.338 C 
ATOM     32  O   UNL A   1      35.794  32.057  28.542  1.00  0.00    -0.246 OA
BRANCH  31  33
ATOM     33  C   UNL A   1      37.286  30.143  28.579  1.00  0.00     0.060 A 
ATOM     34  C   UNL A   1      37.231  29.254  29.674  1.00  0.00     0.016 A 
ATOM     35  C   UNL A   1      38.314  30.050  27.633  1.00  0.00     0.016 A 
ATOM     36  C   UNL A   1      38.140  28.216  29.777  1.00  0.00     0.010 A 
ATOM     37  C   UNL A   1      39.154  28.971  27.684  1.00  0.00     0.010 A 
ATOM     38  C   UNL A   1      39.098  28.101  28.780  1.00  0.00    -0.014 A 
BRANCH  38  39
ATOM     39  C   UNL A   1      40.352  27.428  29.004  1.00  0.00     0.031 A 
ATOM     40  C   UNL A   1      40.601  26.058  28.562  1.00  0.00     0.074 A 
ATOM     41  C   UNL A   1      41.294  28.306  29.410  1.00  0.00     0.049 A 
ATOM     42  N   UNL A   1      41.525  25.316  29.061  1.00  0.00    -0.248 NA
ATOM     43  C   UNL A   1      39.801  25.377  27.542  1.00  0.00     0.031 C 
ATOM     44  C   UNL A   1      42.736  28.251  29.318  1.00  0.00     0.029 A 
ATOM     45  N   UNL A   1      41.056  29.502  30.099  1.00  0.00    -0.354 N 
ATOM     46  C   UNL A   1      41.703  24.279  28.177  1.00  0.00     0.074 A 
ATOM     47  C   UNL A   1      40.509  24.253  27.363  1.00  0.00     0.031 C 
ATOM     48  C   UNL A   1      43.242  29.173  30.161  1.00  0.00     0.029 A 
ATOM     49  C   UNL A   1      42.135  29.705  30.950  1.00  0.00     0.049 A 
ATOM     50  H   UNL A   1      40.270  30.088  29.999  1.00  0.00     0.167 HD
ATOM     51  C   UNL A   1      42.936  23.717  28.060  1.00  0.00     0.034 A 
ATOM     52  C   UNL A   1      41.965  29.600  32.305  1.00  0.00     0.034 A 
ATOM     53  C   UNL A   1      43.904  24.411  28.905  1.00  0.00     0.049 A 
ATOM     54  C   UNL A   1      42.697  28.385  32.853  1.00  0.00     0.074 A 
ATOM     55  C   UNL A   1      44.831  25.412  28.664  1.00  0.00     0.029 A 
ATOM     56  N   UNL A   1      43.757  24.348  30.273  1.00  0.00    -0.354 N 
ATOM     57  N   UNL A   1      43.251  27.473  32.104  1.00  0.00    -0.248 NA
ATOM     58  C   UNL A   1      42.774  28.054  34.273  1.00  0.00     0.031 C 
ATOM     59  C   UNL A   1      45.204  25.976  29.920  1.00  0.00     0.029 A 
ATOM     60  C   UNL A   1      44.516  25.304  30.914  1.00  0.00     0.049 A 
ATOM     61  H   UNL A   1      43.179  23.699  30.737  1.00  0.00     0.167 HD
ATOM     62  C   UNL A   1      43.755  26.475  32.880  1.00  0.00     0.074 A 
ATOM     63  C   UNL A   1      43.401  26.865  34.235  1.00  0.00     0.031 C 
ATOM     64  C   UNL A   1      44.412  25.398  32.357  1.00  0.00     0.034 A 
BRANCH  51  65
ATOM     65  C   UNL A   1      43.351  22.774  26.966  1.00  0.00     0.023 A 
ATOM     66  C   UNL A   1      42.861  21.454  27.001  1.00  0.00     0.031 A 
ATOM     67  C   UNL A   1      44.173  23.097  25.873  1.00  0.00     0.131 A 
ATOM     68  C   UNL A   1      43.228  20.505  26.038  1.00  0.00     0.055 A 
ATOM     69  C   UNL A   1      44.568  22.141  24.923  1.00  0.00     0.041 A 
ATOM     70  F   UNL A   1      44.595  24.354  25.663  1.00  0.00    -0.206 F 
ATOM     71  C   UNL A   1      44.100  20.833  25.006  1.00  0.00     0.022 A 
BRANCH  68  72
ATOM     72  S   UNL A   1      42.517  18.843  26.162  1.00  0.00     0.124 S 
ATOM     73  O   UNL A   1      41.151  19.061  25.697  1.00  0.00    -0.237 OA
ATOM     74  O   UNL A   1      43.382  18.069  25.279  1.00  0.00    -0.237 OA
ATOM     75  O   UNL A   1      42.644  18.528  27.584  1.00  0.00    -0.744 OA
ENDBRANCH  68  72
ENDBRANCH  51  65
BRANCH  52  76
ATOM     76  C   UNL A   1      40.620  30.059  32.794  1.00  0.00     0.023 A 
ATOM     77  C   UNL A   1      40.322  31.442  32.743  1.00  0.00     0.031 A 
ATOM     78  C   UNL A   1      39.543  29.168  32.930  1.00  0.00     0.131 A 
ATOM     79  C   UNL A   1      38.991  31.877  32.661  1.00  0.00     0.055 A 
ATOM     80  C   UNL A   1      38.220  29.613  32.902  1.00  0.00     0.041 A 
ATOM     81  F   UNL A   1      39.737  27.843  32.956  1.00  0.00    -0.206 F 
ATOM     82  C   UNL A   1      37.941  30.962  32.709  1.00  0.00     0.022 A 
BRANCH  79  83
ATOM     83  S   UNL A   1      38.646  33.614  32.244  1.00  0.00     0.124 S 
ATOM     84  O   UNL A   1      39.849  33.991  31.510  1.00  0.00    -0.237 OA
ATOM     85  O   UNL A   1      37.419  33.512  31.461  1.00  0.00    -0.237 OA
ATOM     86  O   UNL A   1      38.485  34.243  33.551  1.00  0.00    -0.744 OA
ENDBRANCH  79  83
ENDBRANCH  52  76
BRANCH  64  87
ATOM     87  C   UNL A   1      45.021  24.332  33.211  1.00  0.00     0.023 A 
ATOM     88  C   UNL A   1      46.353  24.429  33.627  1.00  0.00     0.031 A 
ATOM     89  C   UNL A   1      44.330  23.153  33.570  1.00  0.00     0.131 A 
ATOM     90  C   UNL A   1      46.911  23.448  34.452  1.00  0.00     0.055 A 
ATOM     91  C   UNL A   1      44.927  22.122  34.291  1.00  0.00     0.041 A 
ATOM     92  F   UNL A   1      43.033  22.972  33.281  1.00  0.00    -0.206 F 
ATOM     93  C   UNL A   1      46.223  22.275  34.758  1.00  0.00     0.022 A 
BRANCH  90  94
ATOM     94  S   UNL A   1      48.507  23.804  35.216  1.00  0.00     0.124 S 
ATOM     95  O   UNL A   1      49.430  23.710  34.090  1.00  0.00    -0.237 OA
ATOM     96  O   UNL A   1      48.283  25.150  35.740  1.00  0.00    -0.237 OA
ATOM     97  O   UNL A   1      48.643  22.759  36.228  1.00  0.00    -0.744 OA
ENDBRANCH  90  94
ENDBRANCH  64  87
ENDBRANCH  38  39
ENDBRANCH  31  33
ENDBRANCH  30  31
ENDBRANCH   1  30
TORSDOF 17
ENDMDL
