MODEL 1
REMARK VINA RESULT:     -10.9      0.000      0.000
REMARK SMILES O=C(OCCOC(=O)[C@H]1CCN1C(=O)OCC1c2ccccc2-c2ccccc21)c1ccc(-c2c3nc(c(-c4cc(S(=O)(=O)[O-])ccc4F)c4ccc([nH]4)c(-c4cc(S(=O)(=O)[O-])ccc4F)c4nc(c(-c5cc(S(=O)(=O)[O-])ccc5F)c5ccc2[nH]5)C=C4)C=C3)cc1
REMARK SMILES IDX 5 1 4 2 3 3 2 4 1 5 30 6 31 7 92 8 32 9 91 10 33 11 34 12
REMARK SMILES IDX 35 13 85 14 36 15 90 16 84 17 86 18 37 19 89 20 83 21 82 22
REMARK SMILES IDX 38 24 70 25 50 26 69 27 51 28 54 29 68 30 87 31 52 32 53 33
REMARK SMILES IDX 67 35 88 36 55 37 39 38 40 39 48 40 41 41 47 42 49 43 46 44
REMARK SMILES IDX 42 45 43 46 44 47 45 48 71 49 72 50 80 51 73 52 79 53 81 54
REMARK SMILES IDX 78 55 74 56 75 57 76 58 77 59 56 60 57 61 65 62 58 63 64 64
REMARK SMILES IDX 66 65 63 66 59 67 60 68 61 69 62 70 6 71 7 72 8 73 9 74
REMARK SMILES IDX 10 75 12 76 11 77 13 78 14 79 15 80 16 81 17 82 18 83 29 84
REMARK SMILES IDX 19 85 23 86 24 87 28 88 20 89 22 90 25 91 27 92 21 93 26 94
REMARK H PARENT 86 23 54 34
REMARK Flexibility Score: inf
ROOT
ATOM      1  C   UNL A   1      41.259  20.100  26.946  1.00  0.00     0.274 C 
ENDROOT
BRANCH   1   2
ATOM      2  C   UNL A   1      40.649  21.469  27.249  1.00  0.00     0.275 C 
BRANCH   2   3
ATOM      3  O   UNL A   1      39.524  21.806  26.422  1.00  0.00    -0.458 OA
BRANCH   3   4
ATOM      4  C   UNL A   1      38.844  22.973  26.327  1.00  0.00     0.338 C 
ATOM      5  O   UNL A   1      37.884  23.022  25.559  1.00  0.00    -0.246 OA
BRANCH   4   6
ATOM      6  C   UNL A   1      39.269  24.244  27.004  1.00  0.00     0.060 A 
ATOM      7  C   UNL A   1      39.177  24.569  28.360  1.00  0.00     0.016 A 
ATOM      8  C   UNL A   1      39.835  25.202  26.158  1.00  0.00     0.016 A 
ATOM      9  C   UNL A   1      39.702  25.776  28.856  1.00  0.00     0.010 A 
ATOM     10  C   UNL A   1      40.421  26.363  26.650  1.00  0.00     0.010 A 
ATOM     11  C   UNL A   1      40.325  26.683  27.999  1.00  0.00    -0.014 A 
BRANCH  11  12
ATOM     12  C   UNL A   1      40.715  28.044  28.431  1.00  0.00     0.031 A 
ATOM     13  C   UNL A   1      42.178  28.409  28.384  1.00  0.00     0.074 A 
ATOM     14  C   UNL A   1      39.796  28.905  28.905  1.00  0.00     0.049 A 
ATOM     15  N   UNL A   1      42.762  29.542  28.672  1.00  0.00    -0.248 NA
ATOM     16  C   UNL A   1      43.115  27.338  27.998  1.00  0.00     0.031 C 
ATOM     17  C   UNL A   1      38.373  28.610  29.085  1.00  0.00     0.029 A 
ATOM     18  N   UNL A   1      39.921  30.203  29.330  1.00  0.00    -0.354 N 
ATOM     19  C   UNL A   1      44.123  29.319  28.485  1.00  0.00     0.074 A 
ATOM     20  C   UNL A   1      44.288  27.920  28.173  1.00  0.00     0.031 C 
ATOM     21  C   UNL A   1      37.754  29.706  29.561  1.00  0.00     0.029 A 
ATOM     22  C   UNL A   1      38.734  30.776  29.725  1.00  0.00     0.049 A 
ATOM     23  H   UNL A   1      40.782  30.680  29.351  1.00  0.00     0.167 HD
ATOM     24  C   UNL A   1      45.139  30.215  28.514  1.00  0.00     0.034 A 
ATOM     25  C   UNL A   1      38.479  32.032  30.148  1.00  0.00     0.034 A 
ATOM     26  C   UNL A   1      44.942  31.606  28.823  1.00  0.00     0.049 A 
ATOM     27  C   UNL A   1      39.626  33.019  30.174  1.00  0.00     0.074 A 
ATOM     28  C   UNL A   1      45.871  32.629  28.843  1.00  0.00     0.029 A 
ATOM     29  N   UNL A   1      43.719  32.162  29.176  1.00  0.00    -0.354 N 
ATOM     30  N   UNL A   1      40.891  32.824  29.874  1.00  0.00    -0.248 NA
ATOM     31  C   UNL A   1      39.307  34.399  30.560  1.00  0.00     0.031 C 
ATOM     32  C   UNL A   1      45.220  33.793  29.265  1.00  0.00     0.029 A 
ATOM     33  C   UNL A   1      43.872  33.512  29.439  1.00  0.00     0.049 A 
ATOM     34  H   UNL A   1      42.869  31.670  29.232  1.00  0.00     0.167 HD
ATOM     35  C   UNL A   1      41.507  34.067  29.994  1.00  0.00     0.074 A 
ATOM     36  C   UNL A   1      40.470  35.004  30.376  1.00  0.00     0.031 C 
ATOM     37  C   UNL A   1      42.807  34.413  29.806  1.00  0.00     0.034 A 
BRANCH  24  38
ATOM     38  C   UNL A   1      46.523  29.700  28.204  1.00  0.00     0.023 A 
ATOM     39  C   UNL A   1      47.379  29.243  29.225  1.00  0.00     0.031 A 
ATOM     40  C   UNL A   1      47.021  29.715  26.890  1.00  0.00     0.131 A 
ATOM     41  C   UNL A   1      48.708  28.908  28.932  1.00  0.00     0.055 A 
ATOM     42  C   UNL A   1      48.321  29.299  26.592  1.00  0.00     0.041 A 
ATOM     43  F   UNL A   1      46.262  30.160  25.878  1.00  0.00    -0.206 F 
ATOM     44  C   UNL A   1      49.179  28.909  27.618  1.00  0.00     0.022 A 
BRANCH  41  45
ATOM     45  S   UNL A   1      49.851  28.616  30.310  1.00  0.00     0.124 S 
ATOM     46  O   UNL A   1      51.140  28.915  29.691  1.00  0.00    -0.237 OA
ATOM     47  O   UNL A   1      49.389  29.569  31.312  1.00  0.00    -0.237 OA
ATOM     48  O   UNL A   1      49.637  27.208  30.642  1.00  0.00    -0.744 OA
ENDBRANCH  41  45
ENDBRANCH  24  38
BRANCH  25  49
ATOM     49  C   UNL A   1      37.101  32.450  30.545  1.00  0.00     0.023 A 
ATOM     50  C   UNL A   1      36.182  32.920  29.593  1.00  0.00     0.031 A 
ATOM     51  C   UNL A   1      36.701  32.454  31.893  1.00  0.00     0.131 A 
ATOM     52  C   UNL A   1      34.939  33.433  30.002  1.00  0.00     0.055 A 
ATOM     53  C   UNL A   1      35.444  32.915  32.293  1.00  0.00     0.041 A 
ATOM     54  F   UNL A   1      37.533  32.008  32.849  1.00  0.00    -0.206 F 
ATOM     55  C   UNL A   1      34.561  33.426  31.346  1.00  0.00     0.022 A 
BRANCH  52  56
ATOM     56  S   UNL A   1      33.869  34.213  28.762  1.00  0.00     0.124 S 
ATOM     57  O   UNL A   1      32.780  34.725  29.587  1.00  0.00    -0.237 OA
ATOM     58  O   UNL A   1      34.760  35.213  28.182  1.00  0.00    -0.237 OA
ATOM     59  O   UNL A   1      33.514  33.108  27.875  1.00  0.00    -0.744 OA
ENDBRANCH  52  56
ENDBRANCH  25  49
BRANCH  37  60
ATOM     60  C   UNL A   1      43.156  35.871  29.960  1.00  0.00     0.023 A 
ATOM     61  C   UNL A   1      42.972  36.787  28.912  1.00  0.00     0.031 A 
ATOM     62  C   UNL A   1      43.668  36.348  31.180  1.00  0.00     0.131 A 
ATOM     63  C   UNL A   1      43.351  38.125  29.084  1.00  0.00     0.055 A 
ATOM     64  C   UNL A   1      43.982  37.693  31.366  1.00  0.00     0.041 A 
ATOM     65  F   UNL A   1      43.861  35.512  32.213  1.00  0.00    -0.206 F 
ATOM     66  C   UNL A   1      43.836  38.589  30.310  1.00  0.00     0.022 A 
BRANCH  63  67
ATOM     67  S   UNL A   1      43.284  39.233  27.651  1.00  0.00     0.124 S 
ATOM     68  O   UNL A   1      42.263  38.599  26.825  1.00  0.00    -0.237 OA
ATOM     69  O   UNL A   1      42.913  40.506  28.259  1.00  0.00    -0.237 OA
ATOM     70  O   UNL A   1      44.642  39.176  27.112  1.00  0.00    -0.744 OA
ENDBRANCH  63  67
ENDBRANCH  37  60
ENDBRANCH  11  12
ENDBRANCH   4   6
ENDBRANCH   3   4
ENDBRANCH   2   3
ENDBRANCH   1   2
BRANCH   1  71
ATOM     71  O   UNL A   1      42.266  20.173  25.922  1.00  0.00    -0.461 OA
BRANCH  71  72
ATOM     72  C   UNL A   1      43.083  19.081  25.764  1.00  0.00     0.329 C 
ATOM     73  O   UNL A   1      42.644  17.933  25.712  1.00  0.00    -0.250 OA
BRANCH  72  74
ATOM     74  C   UNL A   1      44.607  19.493  25.713  1.00  0.00     0.200 C 
ATOM     75  C   UNL A   1      45.579  18.422  25.173  1.00  0.00     0.059 C 
ATOM     76  N   UNL A   1      45.018  20.274  24.547  1.00  0.00    -0.294 N 
ATOM     77  C   UNL A   1      45.498  19.128  23.809  1.00  0.00     0.127 C 
BRANCH  76  78
ATOM     78  C   UNL A   1      44.991  21.591  24.207  1.00  0.00     0.410 C 
ATOM     79  O   UNL A   1      44.081  22.098  23.563  1.00  0.00    -0.224 OA
BRANCH  78  80
ATOM     80  O   UNL A   1      46.085  22.257  24.650  1.00  0.00    -0.448 OA
BRANCH  80  81
ATOM     81  C   UNL A   1      46.323  23.609  24.183  1.00  0.00     0.248 C 
BRANCH  81  82
ATOM     82  C   UNL A   1      46.081  24.759  25.196  1.00  0.00     0.088 C 
ATOM     83  C   UNL A   1      45.152  24.445  26.356  1.00  0.00    -0.029 A 
ATOM     84  C   UNL A   1      47.375  25.081  25.927  1.00  0.00    -0.029 A 
ATOM     85  C   UNL A   1      43.773  24.333  26.359  1.00  0.00     0.005 A 
ATOM     86  C   UNL A   1      45.897  24.318  27.550  1.00  0.00    -0.014 A 
ATOM     87  C   UNL A   1      47.262  24.732  27.288  1.00  0.00    -0.014 A 
ATOM     88  C   UNL A   1      48.538  25.616  25.394  1.00  0.00     0.005 A 
ATOM     89  C   UNL A   1      43.144  23.948  27.545  1.00  0.00     0.000 A 
ATOM     90  C   UNL A   1      45.279  23.918  28.722  1.00  0.00     0.009 A 
ATOM     91  C   UNL A   1      48.354  24.868  28.125  1.00  0.00     0.009 A 
ATOM     92  C   UNL A   1      49.633  25.759  26.241  1.00  0.00     0.000 A 
ATOM     93  C   UNL A   1      43.895  23.710  28.708  1.00  0.00     0.001 A 
ATOM     94  C   UNL A   1      49.545  25.375  27.591  1.00  0.00     0.001 A 
ENDBRANCH  81  82
ENDBRANCH  80  81
ENDBRANCH  78  80
ENDBRANCH  76  78
ENDBRANCH  72  74
ENDBRANCH  71  72
ENDBRANCH   1  71
TORSDOF 18
ENDMDL
MODEL 2
REMARK VINA RESULT:     -10.9      4.025      7.507
REMARK SMILES O=C(OCCOC(=O)[C@H]1CCN1C(=O)OCC1c2ccccc2-c2ccccc21)c1ccc(-c2c3nc(c(-c4cc(S(=O)(=O)[O-])ccc4F)c4ccc([nH]4)c(-c4cc(S(=O)(=O)[O-])ccc4F)c4nc(c(-c5cc(S(=O)(=O)[O-])ccc5F)c5ccc2[nH]5)C=C4)C=C3)cc1
REMARK SMILES IDX 5 1 4 2 3 3 2 4 1 5 30 6 31 7 92 8 32 9 91 10 33 11 34 12
REMARK SMILES IDX 35 13 85 14 36 15 90 16 84 17 86 18 37 19 89 20 83 21 82 22
REMARK SMILES IDX 38 24 70 25 50 26 69 27 51 28 54 29 68 30 87 31 52 32 53 33
REMARK SMILES IDX 67 35 88 36 55 37 39 38 40 39 48 40 41 41 47 42 49 43 46 44
REMARK SMILES IDX 42 45 43 46 44 47 45 48 71 49 72 50 80 51 73 52 79 53 81 54
REMARK SMILES IDX 78 55 74 56 75 57 76 58 77 59 56 60 57 61 65 62 58 63 64 64
REMARK SMILES IDX 66 65 63 66 59 67 60 68 61 69 62 70 6 71 7 72 8 73 9 74
REMARK SMILES IDX 10 75 12 76 11 77 13 78 14 79 15 80 16 81 17 82 18 83 29 84
REMARK SMILES IDX 19 85 23 86 24 87 28 88 20 89 22 90 25 91 27 92 21 93 26 94
REMARK H PARENT 86 23 54 34
REMARK Flexibility Score: inf
ROOT
ATOM      1  C   UNL A   1      36.721  22.053  25.582  1.00  0.00     0.274 C 
ENDROOT
BRANCH   1   2
ATOM      2  C   UNL A   1      37.890  21.123  25.259  1.00  0.00     0.275 C 
BRANCH   2   3
ATOM      3  O   UNL A   1      38.821  20.952  26.340  1.00  0.00    -0.458 OA
BRANCH   3   4
ATOM      4  C   UNL A   1      40.050  21.492  26.511  1.00  0.00     0.338 C 
ATOM      5  O   UNL A   1      41.021  20.735  26.496  1.00  0.00    -0.246 OA
BRANCH   4   6
ATOM      6  C   UNL A   1      40.289  22.936  26.846  1.00  0.00     0.060 A 
ATOM      7  C   UNL A   1      39.677  24.061  26.287  1.00  0.00     0.016 A 
ATOM      8  C   UNL A   1      41.234  23.160  27.851  1.00  0.00     0.016 A 
ATOM      9  C   UNL A   1      39.950  25.353  26.772  1.00  0.00     0.010 A 
ATOM     10  C   UNL A   1      41.454  24.425  28.385  1.00  0.00     0.010 A 
ATOM     11  C   UNL A   1      40.845  25.542  27.825  1.00  0.00    -0.014 A 
BRANCH  11  12
ATOM     12  C   UNL A   1      41.313  26.883  28.239  1.00  0.00     0.031 A 
ATOM     13  C   UNL A   1      42.746  27.253  27.947  1.00  0.00     0.074 A 
ATOM     14  C   UNL A   1      40.499  27.719  28.908  1.00  0.00     0.049 A 
ATOM     15  N   UNL A   1      43.378  28.374  28.175  1.00  0.00    -0.248 NA
ATOM     16  C   UNL A   1      43.593  26.203  27.352  1.00  0.00     0.031 C 
ATOM     17  C   UNL A   1      39.130  27.413  29.327  1.00  0.00     0.029 A 
ATOM     18  N   UNL A   1      40.705  28.997  29.360  1.00  0.00    -0.354 N 
ATOM     19  C   UNL A   1      44.682  28.164  27.737  1.00  0.00     0.074 A 
ATOM     20  C   UNL A   1      44.782  26.780  27.339  1.00  0.00     0.031 C 
ATOM     21  C   UNL A   1      38.612  28.485  29.954  1.00  0.00     0.029 A 
ATOM     22  C   UNL A   1      39.612  29.550  29.987  1.00  0.00     0.049 A 
ATOM     23  H   UNL A   1      41.559  29.475  29.248  1.00  0.00     0.167 HD
ATOM     24  C   UNL A   1      45.692  29.060  27.623  1.00  0.00     0.034 A 
ATOM     25  C   UNL A   1      39.443  30.784  30.504  1.00  0.00     0.034 A 
ATOM     26  C   UNL A   1      45.561  30.435  28.023  1.00  0.00     0.049 A 
ATOM     27  C   UNL A   1      40.581  31.773  30.367  1.00  0.00     0.074 A 
ATOM     28  C   UNL A   1      46.484  31.458  27.922  1.00  0.00     0.029 A 
ATOM     29  N   UNL A   1      44.424  30.972  28.614  1.00  0.00    -0.354 N 
ATOM     30  N   UNL A   1      41.771  31.595  29.836  1.00  0.00    -0.248 NA
ATOM     31  C   UNL A   1      40.344  33.133  30.865  1.00  0.00     0.031 C 
ATOM     32  C   UNL A   1      45.925  32.601  28.505  1.00  0.00     0.029 A 
ATOM     33  C   UNL A   1      44.629  32.309  28.905  1.00  0.00     0.049 A 
ATOM     34  H   UNL A   1      43.596  30.475  28.800  1.00  0.00     0.167 HD
ATOM     35  C   UNL A   1      42.405  32.833  29.899  1.00  0.00     0.074 A 
ATOM     36  C   UNL A   1      41.459  33.749  30.502  1.00  0.00     0.031 C 
ATOM     37  C   UNL A   1      43.652  33.191  29.496  1.00  0.00     0.034 A 
BRANCH  24  38
ATOM     38  C   UNL A   1      46.995  28.563  27.047  1.00  0.00     0.023 A 
ATOM     39  C   UNL A   1      47.167  28.402  25.659  1.00  0.00     0.031 A 
ATOM     40  C   UNL A   1      48.059  28.191  27.886  1.00  0.00     0.131 A 
ATOM     41  C   UNL A   1      48.331  27.802  25.158  1.00  0.00     0.055 A 
ATOM     42  C   UNL A   1      49.251  27.671  27.375  1.00  0.00     0.041 A 
ATOM     43  F   UNL A   1      47.948  28.300  29.218  1.00  0.00    -0.206 F 
ATOM     44  C   UNL A   1      49.386  27.457  26.005  1.00  0.00     0.022 A 
BRANCH  41  45
ATOM     45  S   UNL A   1      48.382  27.342  23.404  1.00  0.00     0.124 S 
ATOM     46  O   UNL A   1      47.257  28.105  22.867  1.00  0.00    -0.237 OA
ATOM     47  O   UNL A   1      49.708  27.793  22.997  1.00  0.00    -0.237 OA
ATOM     48  O   UNL A   1      48.194  25.893  23.422  1.00  0.00    -0.744 OA
ENDBRANCH  41  45
ENDBRANCH  24  38
BRANCH  25  49
ATOM     49  C   UNL A   1      38.160  31.181  31.160  1.00  0.00     0.023 A 
ATOM     50  C   UNL A   1      37.130  31.795  30.429  1.00  0.00     0.031 A 
ATOM     51  C   UNL A   1      37.969  31.017  32.544  1.00  0.00     0.131 A 
ATOM     52  C   UNL A   1      35.988  32.281  31.088  1.00  0.00     0.055 A 
ATOM     53  C   UNL A   1      36.809  31.453  33.189  1.00  0.00     0.041 A 
ATOM     54  F   UNL A   1      38.915  30.429  33.295  1.00  0.00    -0.206 F 
ATOM     55  C   UNL A   1      35.817  32.106  32.463  1.00  0.00     0.022 A 
BRANCH  52  56
ATOM     56  S   UNL A   1      34.779  33.244  30.138  1.00  0.00     0.124 S 
ATOM     57  O   UNL A   1      35.635  34.210  29.459  1.00  0.00    -0.237 OA
ATOM     58  O   UNL A   1      34.174  32.218  29.295  1.00  0.00    -0.237 OA
ATOM     59  O   UNL A   1      33.903  33.800  31.167  1.00  0.00    -0.744 OA
ENDBRANCH  52  56
ENDBRANCH  25  49
BRANCH  37  60
ATOM     60  C   UNL A   1      44.031  34.640  29.649  1.00  0.00     0.023 A 
ATOM     61  C   UNL A   1      43.589  35.617  28.742  1.00  0.00     0.031 A 
ATOM     62  C   UNL A   1      44.836  35.049  30.727  1.00  0.00     0.131 A 
ATOM     63  C   UNL A   1      44.000  36.947  28.898  1.00  0.00     0.055 A 
ATOM     64  C   UNL A   1      45.189  36.384  30.913  1.00  0.00     0.041 A 
ATOM     65  F   UNL A   1      45.283  34.154  31.623  1.00  0.00    -0.206 F 
ATOM     66  C   UNL A   1      44.781  37.341  29.988  1.00  0.00     0.022 A 
BRANCH  63  67
ATOM     67  S   UNL A   1      43.574  38.141  27.602  1.00  0.00     0.124 S 
ATOM     68  O   UNL A   1      44.882  38.677  27.243  1.00  0.00    -0.237 OA
ATOM     69  O   UNL A   1      42.933  37.297  26.599  1.00  0.00    -0.237 OA
ATOM     70  O   UNL A   1      42.683  39.079  28.282  1.00  0.00    -0.744 OA
ENDBRANCH  63  67
ENDBRANCH  37  60
ENDBRANCH  11  12
ENDBRANCH   4   6
ENDBRANCH   3   4
ENDBRANCH   2   3
ENDBRANCH   1   2
BRANCH   1  71
ATOM     71  O   UNL A   1      35.480  21.337  25.702  1.00  0.00    -0.461 OA
BRANCH  71  72
ATOM     72  C   UNL A   1      34.495  21.910  26.468  1.00  0.00     0.329 C 
ATOM     73  O   UNL A   1      34.208  21.494  27.590  1.00  0.00    -0.250 OA
BRANCH  72  74
ATOM     74  C   UNL A   1      33.779  23.096  25.710  1.00  0.00     0.200 C 
ATOM     75  C   UNL A   1      33.451  22.849  24.222  1.00  0.00     0.059 C 
ATOM     76  N   UNL A   1      32.330  23.182  25.885  1.00  0.00    -0.294 N 
ATOM     77  C   UNL A   1      32.028  22.471  24.663  1.00  0.00     0.127 C 
BRANCH  76  78
ATOM     78  C   UNL A   1      31.499  23.717  26.821  1.00  0.00     0.410 C 
ATOM     79  O   UNL A   1      30.811  23.036  27.572  1.00  0.00    -0.224 OA
BRANCH  78  80
ATOM     80  O   UNL A   1      31.516  25.071  26.808  1.00  0.00    -0.448 OA
BRANCH  80  81
ATOM     81  C   UNL A   1      30.426  25.782  26.168  1.00  0.00     0.248 C 
BRANCH  81  82
ATOM     82  C   UNL A   1      30.798  27.017  25.304  1.00  0.00     0.088 C 
ATOM     83  C   UNL A   1      31.820  27.968  25.903  1.00  0.00    -0.029 A 
ATOM     84  C   UNL A   1      31.515  26.563  24.042  1.00  0.00    -0.029 A 
ATOM     85  C   UNL A   1      31.655  28.895  26.916  1.00  0.00     0.005 A 
ATOM     86  C   UNL A   1      33.054  27.838  25.228  1.00  0.00    -0.014 A 
ATOM     87  C   UNL A   1      32.858  26.990  24.068  1.00  0.00    -0.014 A 
ATOM     88  C   UNL A   1      30.994  25.820  22.994  1.00  0.00     0.005 A 
ATOM     89  C   UNL A   1      32.777  29.602  27.355  1.00  0.00     0.000 A 
ATOM     90  C   UNL A   1      34.172  28.524  25.673  1.00  0.00     0.009 A 
ATOM     91  C   UNL A   1      33.717  26.618  23.051  1.00  0.00     0.009 A 
ATOM     92  C   UNL A   1      31.860  25.455  21.966  1.00  0.00     0.000 A 
ATOM     93  C   UNL A   1      34.032  29.392  26.761  1.00  0.00     0.001 A 
ATOM     94  C   UNL A   1      33.212  25.839  22.002  1.00  0.00     0.001 A 
ENDBRANCH  81  82
ENDBRANCH  80  81
ENDBRANCH  78  80
ENDBRANCH  76  78
ENDBRANCH  72  74
ENDBRANCH  71  72
ENDBRANCH   1  71
TORSDOF 18
ENDMDL
MODEL 3
REMARK VINA RESULT:     -10.8      4.259      7.989
REMARK SMILES O=C(OCCOC(=O)[C@H]1CCN1C(=O)OCC1c2ccccc2-c2ccccc21)c1ccc(-c2c3nc(c(-c4cc(S(=O)(=O)[O-])ccc4F)c4ccc([nH]4)c(-c4cc(S(=O)(=O)[O-])ccc4F)c4nc(c(-c5cc(S(=O)(=O)[O-])ccc5F)c5ccc2[nH]5)C=C4)C=C3)cc1
REMARK SMILES IDX 5 1 4 2 3 3 2 4 1 5 30 6 31 7 92 8 32 9 91 10 33 11 34 12
REMARK SMILES IDX 35 13 85 14 36 15 90 16 84 17 86 18 37 19 89 20 83 21 82 22
REMARK SMILES IDX 38 24 70 25 50 26 69 27 51 28 54 29 68 30 87 31 52 32 53 33
REMARK SMILES IDX 67 35 88 36 55 37 39 38 40 39 48 40 41 41 47 42 49 43 46 44
REMARK SMILES IDX 42 45 43 46 44 47 45 48 71 49 72 50 80 51 73 52 79 53 81 54
REMARK SMILES IDX 78 55 74 56 75 57 76 58 77 59 56 60 57 61 65 62 58 63 64 64
REMARK SMILES IDX 66 65 63 66 59 67 60 68 61 69 62 70 6 71 7 72 8 73 9 74
REMARK SMILES IDX 10 75 12 76 11 77 13 78 14 79 15 80 16 81 17 82 18 83 29 84
REMARK SMILES IDX 19 85 23 86 24 87 28 88 20 89 22 90 25 91 27 92 21 93 26 94
REMARK H PARENT 86 23 54 34
REMARK Flexibility Score: inf
ROOT
ATOM      1  C   UNL A   1      36.757  22.503  23.729  1.00  0.00     0.274 C 
ENDROOT
BRANCH   1   2
ATOM      2  C   UNL A   1      37.121  21.359  24.677  1.00  0.00     0.275 C 
BRANCH   2   3
ATOM      3  O   UNL A   1      37.748  21.785  25.897  1.00  0.00    -0.458 OA
BRANCH   3   4
ATOM      4  C   UNL A   1      39.063  21.836  26.216  1.00  0.00     0.338 C 
ATOM      5  O   UNL A   1      39.722  20.802  26.121  1.00  0.00    -0.246 OA
BRANCH   4   6
ATOM      6  C   UNL A   1      39.733  23.046  26.802  1.00  0.00     0.060 A 
ATOM      7  C   UNL A   1      40.610  23.101  27.889  1.00  0.00     0.016 A 
ATOM      8  C   UNL A   1      39.442  24.252  26.160  1.00  0.00     0.016 A 
ATOM      9  C   UNL A   1      41.226  24.308  28.266  1.00  0.00     0.010 A 
ATOM     10  C   UNL A   1      40.101  25.434  26.479  1.00  0.00     0.010 A 
ATOM     11  C   UNL A   1      40.970  25.485  27.562  1.00  0.00    -0.014 A 
BRANCH  11  12
ATOM     12  C   UNL A   1      41.434  26.809  28.033  1.00  0.00     0.031 A 
ATOM     13  C   UNL A   1      42.877  27.178  27.798  1.00  0.00     0.074 A 
ATOM     14  C   UNL A   1      40.604  27.630  28.702  1.00  0.00     0.049 A 
ATOM     15  N   UNL A   1      43.509  28.285  28.082  1.00  0.00    -0.248 NA
ATOM     16  C   UNL A   1      43.736  26.140  27.197  1.00  0.00     0.031 C 
ATOM     17  C   UNL A   1      39.220  27.320  29.068  1.00  0.00     0.029 A 
ATOM     18  N   UNL A   1      40.804  28.891  29.202  1.00  0.00    -0.354 N 
ATOM     19  C   UNL A   1      44.825  28.080  27.679  1.00  0.00     0.074 A 
ATOM     20  C   UNL A   1      44.928  26.709  27.240  1.00  0.00     0.031 C 
ATOM     21  C   UNL A   1      38.690  28.376  29.712  1.00  0.00     0.029 A 
ATOM     22  C   UNL A   1      39.694  29.431  29.811  1.00  0.00     0.049 A 
ATOM     23  H   UNL A   1      41.664  29.366  29.131  1.00  0.00     0.167 HD
ATOM     24  C   UNL A   1      45.844  28.972  27.625  1.00  0.00     0.034 A 
ATOM     25  C   UNL A   1      39.518  30.651  30.361  1.00  0.00     0.034 A 
ATOM     26  C   UNL A   1      45.709  30.334  28.064  1.00  0.00     0.049 A 
ATOM     27  C   UNL A   1      40.665  31.634  30.291  1.00  0.00     0.074 A 
ATOM     28  C   UNL A   1      46.641  31.354  28.025  1.00  0.00     0.029 A 
ATOM     29  N   UNL A   1      44.557  30.861  28.636  1.00  0.00    -0.354 N 
ATOM     30  N   UNL A   1      41.871  31.464  29.793  1.00  0.00    -0.248 NA
ATOM     31  C   UNL A   1      40.421  32.980  30.824  1.00  0.00     0.031 C 
ATOM     32  C   UNL A   1      46.072  32.482  28.626  1.00  0.00     0.029 A 
ATOM     33  C   UNL A   1      44.761  32.186  28.975  1.00  0.00     0.049 A 
ATOM     34  H   UNL A   1      43.720  30.364  28.779  1.00  0.00     0.167 HD
ATOM     35  C   UNL A   1      42.510  32.695  29.915  1.00  0.00     0.074 A 
ATOM     36  C   UNL A   1      41.551  33.599  30.516  1.00  0.00     0.031 C 
ATOM     37  C   UNL A   1      43.771  33.056  29.563  1.00  0.00     0.034 A 
BRANCH  24  38
ATOM     38  C   UNL A   1      47.161  28.483  27.075  1.00  0.00     0.023 A 
ATOM     39  C   UNL A   1      47.345  28.274  25.695  1.00  0.00     0.031 A 
ATOM     40  C   UNL A   1      48.228  28.168  27.933  1.00  0.00     0.131 A 
ATOM     41  C   UNL A   1      48.525  27.682  25.224  1.00  0.00     0.055 A 
ATOM     42  C   UNL A   1      49.435  27.657  27.448  1.00  0.00     0.041 A 
ATOM     43  F   UNL A   1      48.107  28.325  29.260  1.00  0.00    -0.206 F 
ATOM     44  C   UNL A   1      49.583  27.395  26.088  1.00  0.00     0.022 A 
BRANCH  41  45
ATOM     45  S   UNL A   1      48.598  27.158  23.489  1.00  0.00     0.124 S 
ATOM     46  O   UNL A   1      47.955  25.847  23.550  1.00  0.00    -0.237 OA
ATOM     47  O   UNL A   1      47.843  28.205  22.809  1.00  0.00    -0.237 OA
ATOM     48  O   UNL A   1      50.030  27.131  23.196  1.00  0.00    -0.744 OA
ENDBRANCH  41  45
ENDBRANCH  24  38
BRANCH  25  49
ATOM     49  C   UNL A   1      38.217  31.036  30.988  1.00  0.00     0.023 A 
ATOM     50  C   UNL A   1      37.225  31.703  30.251  1.00  0.00     0.031 A 
ATOM     51  C   UNL A   1      37.972  30.807  32.354  1.00  0.00     0.131 A 
ATOM     52  C   UNL A   1      36.066  32.174  30.892  1.00  0.00     0.055 A 
ATOM     53  C   UNL A   1      36.794  31.230  32.977  1.00  0.00     0.041 A 
ATOM     54  F   UNL A   1      38.879  30.166  33.109  1.00  0.00    -0.206 F 
ATOM     55  C   UNL A   1      35.841  31.934  32.248  1.00  0.00     0.022 A 
BRANCH  52  56
ATOM     56  S   UNL A   1      34.908  33.204  29.947  1.00  0.00     0.124 S 
ATOM     57  O   UNL A   1      35.815  34.106  29.246  1.00  0.00    -0.237 OA
ATOM     58  O   UNL A   1      34.227  32.210  29.124  1.00  0.00    -0.237 OA
ATOM     59  O   UNL A   1      34.084  33.826  30.981  1.00  0.00    -0.744 OA
ENDBRANCH  52  56
ENDBRANCH  25  49
BRANCH  37  60
ATOM     60  C   UNL A   1      44.155  34.498  29.774  1.00  0.00     0.023 A 
ATOM     61  C   UNL A   1      44.042  35.448  28.746  1.00  0.00     0.031 A 
ATOM     62  C   UNL A   1      44.628  34.926  31.027  1.00  0.00     0.131 A 
ATOM     63  C   UNL A   1      44.450  36.768  28.972  1.00  0.00     0.055 A 
ATOM     64  C   UNL A   1      44.971  36.255  31.266  1.00  0.00     0.041 A 
ATOM     65  F   UNL A   1      44.752  34.056  32.043  1.00  0.00    -0.206 F 
ATOM     66  C   UNL A   1      44.895  37.184  30.231  1.00  0.00     0.022 A 
BRANCH  63  67
ATOM     67  S   UNL A   1      44.476  37.918  27.571  1.00  0.00     0.124 S 
ATOM     68  O   UNL A   1      43.117  37.794  27.054  1.00  0.00    -0.237 OA
ATOM     69  O   UNL A   1      44.800  39.187  28.214  1.00  0.00    -0.237 OA
ATOM     70  O   UNL A   1      45.522  37.377  26.705  1.00  0.00    -0.744 OA
ENDBRANCH  63  67
ENDBRANCH  37  60
ENDBRANCH  11  12
ENDBRANCH   4   6
ENDBRANCH   3   4
ENDBRANCH   2   3
ENDBRANCH   1   2
BRANCH   1  71
ATOM     71  O   UNL A   1      36.397  23.699  24.441  1.00  0.00    -0.461 OA
BRANCH  71  72
ATOM     72  C   UNL A   1      35.068  24.041  24.465  1.00  0.00     0.329 C 
ATOM     73  O   UNL A   1      34.547  24.585  25.438  1.00  0.00    -0.250 OA
BRANCH  72  74
ATOM     74  C   UNL A   1      34.326  23.606  23.140  1.00  0.00     0.200 C 
ATOM     75  C   UNL A   1      33.162  22.607  23.314  1.00  0.00     0.059 C 
ATOM     76  N   UNL A   1      33.300  24.525  22.653  1.00  0.00    -0.294 N 
ATOM     77  C   UNL A   1      32.207  23.811  23.275  1.00  0.00     0.127 C 
BRANCH  76  78
ATOM     78  C   UNL A   1      33.294  25.654  21.893  1.00  0.00     0.410 C 
ATOM     79  O   UNL A   1      33.196  25.638  20.673  1.00  0.00    -0.224 OA
BRANCH  78  80
ATOM     80  O   UNL A   1      33.424  26.776  22.641  1.00  0.00    -0.448 OA
BRANCH  80  81
ATOM     81  C   UNL A   1      32.397  27.796  22.563  1.00  0.00     0.248 C 
BRANCH  81  82
ATOM     82  C   UNL A   1      31.394  27.882  23.744  1.00  0.00     0.088 C 
ATOM     83  C   UNL A   1      31.941  28.442  25.046  1.00  0.00    -0.029 A 
ATOM     84  C   UNL A   1      30.302  28.890  23.420  1.00  0.00    -0.029 A 
ATOM     85  C   UNL A   1      32.772  27.836  25.971  1.00  0.00     0.005 A 
ATOM     86  C   UNL A   1      31.430  29.741  25.266  1.00  0.00    -0.014 A 
ATOM     87  C   UNL A   1      30.405  30.006  24.275  1.00  0.00    -0.014 A 
ATOM     88  C   UNL A   1      29.335  28.801  22.432  1.00  0.00     0.005 A 
ATOM     89  C   UNL A   1      33.212  28.592  27.060  1.00  0.00     0.000 A 
ATOM     90  C   UNL A   1      31.879  30.499  26.334  1.00  0.00     0.009 A 
ATOM     91  C   UNL A   1      29.556  31.083  24.103  1.00  0.00     0.009 A 
ATOM     92  C   UNL A   1      28.476  29.884  22.266  1.00  0.00     0.000 A 
ATOM     93  C   UNL A   1      32.795  29.924  27.221  1.00  0.00     0.001 A 
ATOM     94  C   UNL A   1      28.595  31.020  23.085  1.00  0.00     0.001 A 
ENDBRANCH  81  82
ENDBRANCH  80  81
ENDBRANCH  78  80
ENDBRANCH  76  78
ENDBRANCH  72  74
ENDBRANCH  71  72
ENDBRANCH   1  71
TORSDOF 18
ENDMDL
