MODEL 1
REMARK VINA RESULT:     -12.4      0.000      0.000
REMARK SMILES O=C(Cn1cc(/C=C(/Cl)c2nnc(C(=O)Nc3ccc(Cl)cc3)s2)nn1)OCCOC(=O)c1ccc(-c2c3nc(c(-c4cc(S(=O)(=O)[O-])ccc4F)c4ccc([nH]4)c(-c4cc(S(=O)(=O)[O-])ccc4F)c4nc(c(-c5cc(S(=O)(=O)[O-])ccc5F)c5ccc2[nH]5)C=C4)C=C3)cc1
REMARK SMILES IDX 28 1 27 2 2 3 1 4 3 5 4 6 5 7 26 8 6 9 25 10 7 11 8 12 9 13
REMARK SMILES IDX 10 14 11 15 24 16 12 17 13 18 14 19 15 20 16 21 17 23 18 24
REMARK SMILES IDX 23 25 19 26 22 27 20 28 21 29 29 30 30 31 31 32 32 33 33 34
REMARK SMILES IDX 34 35 95 36 35 37 94 38 36 39 37 40 38 41 88 42 39 43 93 44
REMARK SMILES IDX 87 45 89 46 40 47 92 48 86 49 85 50 41 52 73 53 53 54 72 55
REMARK SMILES IDX 54 56 57 57 71 58 90 59 55 60 56 61 70 63 91 64 58 65 42 66
REMARK SMILES IDX 43 67 51 68 44 69 50 70 52 71 49 72 45 73 46 74 47 75 48 76
REMARK SMILES IDX 74 77 75 78 83 79 76 80 82 81 84 82 81 83 77 84 78 85 79 86
REMARK SMILES IDX 80 87 59 88 60 89 68 90 61 91 67 92 69 93 66 94 62 95 63 96
REMARK SMILES IDX 64 97 65 98
REMARK H PARENT 16 22 89 51 57 62
REMARK Flexibility Score: inf
ROOT
ATOM      1  C   UNL A   1      35.906  33.348  29.689  1.00  0.00     0.274 C 
ENDROOT
BRANCH   1   2
ATOM      2  O   UNL A   1      34.499  33.068  29.506  1.00  0.00    -0.461 OA
BRANCH   2   3
ATOM      3  C   UNL A   1      33.789  32.926  28.361  1.00  0.00     0.327 C 
ATOM      4  O   UNL A   1      32.759  33.590  28.218  1.00  0.00    -0.250 OA
BRANCH   3   5
ATOM      5  C   UNL A   1      34.204  31.967  27.285  1.00  0.00     0.268 C 
BRANCH   5   6
ATOM      6  N   UNL A   1      33.652  30.642  27.380  1.00  0.00    -0.241 N 
ATOM      7  C   UNL A   1      32.425  30.200  26.958  1.00  0.00     0.139 A 
ATOM      8  N   UNL A   1      34.463  29.613  27.648  1.00  0.00    -0.066 NA
ATOM      9  C   UNL A   1      32.488  28.844  27.146  1.00  0.00     0.107 A 
ATOM     10  N   UNL A   1      33.742  28.514  27.555  1.00  0.00    -0.131 NA
BRANCH   9  11
ATOM     11  C   UNL A   1      31.447  27.882  26.989  1.00  0.00     0.055 C 
ATOM     12  C   UNL A   1      31.299  27.003  25.976  1.00  0.00     0.081 C 
ATOM     13  Cl  UNL A   1      30.033  25.828  26.012  1.00  0.00    -0.081 Cl
BRANCH  12  14
ATOM     14  C   UNL A   1      32.197  26.979  24.874  1.00  0.00     0.159 A 
ATOM     15  N   UNL A   1      33.484  26.681  24.879  1.00  0.00    -0.137 NA
ATOM     16  S   UNL A   1      31.597  27.109  23.256  1.00  0.00    -0.086 S 
ATOM     17  N   UNL A   1      33.883  26.146  23.662  1.00  0.00    -0.133 NA
ATOM     18  C   UNL A   1      32.872  26.053  22.812  1.00  0.00     0.206 A 
BRANCH  18  19
ATOM     19  C   UNL A   1      32.948  25.229  21.611  1.00  0.00     0.286 C 
ATOM     20  O   UNL A   1      32.911  25.731  20.479  1.00  0.00    -0.266 OA
ATOM     21  N   UNL A   1      33.285  23.873  21.631  1.00  0.00    -0.320 N 
ATOM     22  H   UNL A   1      33.619  23.548  20.764  1.00  0.00     0.170 HD
BRANCH  21  23
ATOM     23  C   UNL A   1      33.252  22.871  22.614  1.00  0.00     0.041 A 
ATOM     24  C   UNL A   1      34.225  22.730  23.598  1.00  0.00     0.027 A 
ATOM     25  C   UNL A   1      32.141  22.021  22.667  1.00  0.00     0.027 A 
ATOM     26  C   UNL A   1      34.222  21.639  24.471  1.00  0.00     0.022 A 
ATOM     27  C   UNL A   1      32.097  20.964  23.586  1.00  0.00     0.022 A 
ATOM     28  C   UNL A   1      33.168  20.739  24.441  1.00  0.00     0.041 A 
ATOM     29  Cl  UNL A   1      33.191  19.364  25.472  1.00  0.00    -0.084 Cl
ENDBRANCH  21  23
ENDBRANCH  18  19
ENDBRANCH  12  14
ENDBRANCH   9  11
ENDBRANCH   5   6
ENDBRANCH   3   5
ENDBRANCH   2   3
ENDBRANCH   1   2
BRANCH   1  30
ATOM     30  C   UNL A   1      36.645  32.311  30.523  1.00  0.00     0.275 C 
BRANCH  30  31
ATOM     31  O   UNL A   1      36.842  31.132  29.764  1.00  0.00    -0.458 OA
BRANCH  31  32
ATOM     32  C   UNL A   1      36.796  29.967  30.466  1.00  0.00     0.338 C 
ATOM     33  O   UNL A   1      36.137  29.726  31.440  1.00  0.00    -0.246 OA
BRANCH  32  34
ATOM     34  C   UNL A   1      37.705  29.036  29.778  1.00  0.00     0.060 A 
ATOM     35  C   UNL A   1      38.233  27.998  30.539  1.00  0.00     0.016 A 
ATOM     36  C   UNL A   1      38.176  29.345  28.488  1.00  0.00     0.016 A 
ATOM     37  C   UNL A   1      39.437  27.474  30.136  1.00  0.00     0.010 A 
ATOM     38  C   UNL A   1      39.370  28.826  28.088  1.00  0.00     0.010 A 
ATOM     39  C   UNL A   1      40.032  28.003  28.987  1.00  0.00    -0.014 A 
BRANCH  39  40
ATOM     40  C   UNL A   1      41.420  27.719  28.738  1.00  0.00     0.031 A 
ATOM     41  C   UNL A   1      41.615  26.462  28.005  1.00  0.00     0.074 A 
ATOM     42  C   UNL A   1      42.378  28.605  29.068  1.00  0.00     0.049 A 
ATOM     43  N   UNL A   1      42.018  25.339  28.488  1.00  0.00    -0.248 NA
ATOM     44  C   UNL A   1      41.073  26.376  26.640  1.00  0.00     0.031 C 
ATOM     45  C   UNL A   1      42.226  29.984  29.545  1.00  0.00     0.029 A 
ATOM     46  N   UNL A   1      43.720  28.476  28.941  1.00  0.00    -0.354 N 
ATOM     47  C   UNL A   1      42.054  24.479  27.402  1.00  0.00     0.074 A 
ATOM     48  C   UNL A   1      41.214  25.071  26.399  1.00  0.00     0.031 C 
ATOM     49  C   UNL A   1      43.415  30.624  29.440  1.00  0.00     0.029 A 
ATOM     50  C   UNL A   1      44.427  29.670  29.016  1.00  0.00     0.049 A 
ATOM     51  H   UNL A   1      44.160  27.606  28.808  1.00  0.00     0.167 HD
ATOM     52  C   UNL A   1      43.028  23.536  27.305  1.00  0.00     0.034 A 
ATOM     53  C   UNL A   1      45.729  29.853  28.664  1.00  0.00     0.034 A 
ATOM     54  C   UNL A   1      43.654  23.306  28.593  1.00  0.00     0.049 A 
ATOM     55  C   UNL A   1      46.370  28.509  28.708  1.00  0.00     0.074 A 
ATOM     56  C   UNL A   1      43.181  22.935  29.839  1.00  0.00     0.029 A 
ATOM     57  N   UNL A   1      44.896  23.861  28.822  1.00  0.00    -0.354 N 
ATOM     58  N   UNL A   1      46.508  27.824  29.813  1.00  0.00    -0.248 NA
ATOM     59  C   UNL A   1      46.371  27.708  27.491  1.00  0.00     0.031 C 
ATOM     60  C   UNL A   1      43.919  23.731  30.765  1.00  0.00     0.029 A 
ATOM     61  C   UNL A   1      44.859  24.478  30.050  1.00  0.00     0.049 A 
ATOM     62  H   UNL A   1      45.670  23.822  28.216  1.00  0.00     0.167 HD
ATOM     63  C   UNL A   1      46.175  26.518  29.479  1.00  0.00     0.074 A 
ATOM     64  C   UNL A   1      46.193  26.490  28.015  1.00  0.00     0.031 C 
ATOM     65  C   UNL A   1      45.623  25.666  30.395  1.00  0.00     0.034 A 
BRANCH  52  66
ATOM     66  C   UNL A   1      43.677  23.138  26.000  1.00  0.00     0.023 A 
ATOM     67  C   UNL A   1      43.679  21.767  25.693  1.00  0.00     0.031 A 
ATOM     68  C   UNL A   1      44.522  23.946  25.201  1.00  0.00     0.131 A 
ATOM     69  C   UNL A   1      44.563  21.246  24.735  1.00  0.00     0.055 A 
ATOM     70  C   UNL A   1      45.345  23.431  24.198  1.00  0.00     0.041 A 
ATOM     71  F   UNL A   1      44.682  25.259  25.396  1.00  0.00    -0.206 F 
ATOM     72  C   UNL A   1      45.397  22.068  23.985  1.00  0.00     0.022 A 
BRANCH  69  73
ATOM     73  S   UNL A   1      44.736  19.450  24.633  1.00  0.00     0.124 S 
ATOM     74  O   UNL A   1      43.605  19.002  25.439  1.00  0.00    -0.237 OA
ATOM     75  O   UNL A   1      44.634  19.222  23.196  1.00  0.00    -0.237 OA
ATOM     76  O   UNL A   1      46.054  19.205  25.213  1.00  0.00    -0.744 OA
ENDBRANCH  69  73
ENDBRANCH  52  66
BRANCH  53  77
ATOM     77  C   UNL A   1      46.285  31.023  27.923  1.00  0.00     0.023 A 
ATOM     78  C   UNL A   1      45.535  31.774  26.992  1.00  0.00     0.031 A 
ATOM     79  C   UNL A   1      47.535  31.565  28.309  1.00  0.00     0.131 A 
ATOM     80  C   UNL A   1      46.045  32.997  26.487  1.00  0.00     0.055 A 
ATOM     81  C   UNL A   1      48.033  32.768  27.804  1.00  0.00     0.041 A 
ATOM     82  F   UNL A   1      48.285  30.983  29.256  1.00  0.00    -0.206 F 
ATOM     83  C   UNL A   1      47.285  33.495  26.895  1.00  0.00     0.022 A 
BRANCH  80  84
ATOM     84  S   UNL A   1      45.058  34.013  25.338  1.00  0.00     0.124 S 
ATOM     85  O   UNL A   1      44.162  34.722  26.243  1.00  0.00    -0.237 OA
ATOM     86  O   UNL A   1      46.078  34.814  24.671  1.00  0.00    -0.237 OA
ATOM     87  O   UNL A   1      44.404  33.022  24.480  1.00  0.00    -0.744 OA
ENDBRANCH  80  84
ENDBRANCH  53  77
BRANCH  65  88
ATOM     88  C   UNL A   1      45.623  26.083  31.857  1.00  0.00     0.023 A 
ATOM     89  C   UNL A   1      44.519  26.653  32.538  1.00  0.00     0.031 A 
ATOM     90  C   UNL A   1      46.762  25.769  32.618  1.00  0.00     0.131 A 
ATOM     91  C   UNL A   1      44.594  26.899  33.925  1.00  0.00     0.055 A 
ATOM     92  C   UNL A   1      46.824  25.995  33.993  1.00  0.00     0.041 A 
ATOM     93  F   UNL A   1      47.831  25.199  32.040  1.00  0.00    -0.206 F 
ATOM     94  C   UNL A   1      45.741  26.567  34.651  1.00  0.00     0.022 A 
BRANCH  91  95
ATOM     95  S   UNL A   1      43.199  27.669  34.812  1.00  0.00     0.124 S 
ATOM     96  O   UNL A   1      43.736  27.917  36.145  1.00  0.00    -0.237 OA
ATOM     97  O   UNL A   1      42.924  28.855  34.004  1.00  0.00    -0.237 OA
ATOM     98  O   UNL A   1      42.154  26.645  34.760  1.00  0.00    -0.744 OA
ENDBRANCH  91  95
ENDBRANCH  65  88
ENDBRANCH  39  40
ENDBRANCH  32  34
ENDBRANCH  31  32
ENDBRANCH  30  31
ENDBRANCH   1  30
TORSDOF 19
ENDMDL
MODEL 2
REMARK VINA RESULT:     -12.2      2.968      8.401
REMARK SMILES O=C(Cn1cc(/C=C(/Cl)c2nnc(C(=O)Nc3ccc(Cl)cc3)s2)nn1)OCCOC(=O)c1ccc(-c2c3nc(c(-c4cc(S(=O)(=O)[O-])ccc4F)c4ccc([nH]4)c(-c4cc(S(=O)(=O)[O-])ccc4F)c4nc(c(-c5cc(S(=O)(=O)[O-])ccc5F)c5ccc2[nH]5)C=C4)C=C3)cc1
REMARK SMILES IDX 28 1 27 2 2 3 1 4 3 5 4 6 5 7 26 8 6 9 25 10 7 11 8 12 9 13
REMARK SMILES IDX 10 14 11 15 24 16 12 17 13 18 14 19 15 20 16 21 17 23 18 24
REMARK SMILES IDX 23 25 19 26 22 27 20 28 21 29 29 30 30 31 31 32 32 33 33 34
REMARK SMILES IDX 34 35 95 36 35 37 94 38 36 39 37 40 38 41 88 42 39 43 93 44
REMARK SMILES IDX 87 45 89 46 40 47 92 48 86 49 85 50 41 52 73 53 53 54 72 55
REMARK SMILES IDX 54 56 57 57 71 58 90 59 55 60 56 61 70 63 91 64 58 65 42 66
REMARK SMILES IDX 43 67 51 68 44 69 50 70 52 71 49 72 45 73 46 74 47 75 48 76
REMARK SMILES IDX 74 77 75 78 83 79 76 80 82 81 84 82 81 83 77 84 78 85 79 86
REMARK SMILES IDX 80 87 59 88 60 89 68 90 61 91 67 92 69 93 66 94 62 95 63 96
REMARK SMILES IDX 64 97 65 98
REMARK H PARENT 16 22 89 51 57 62
REMARK Flexibility Score: inf
ROOT
ATOM      1  C   UNL A   1      42.072  18.859  26.003  1.00  0.00     0.274 C 
ENDROOT
BRANCH   1   2
ATOM      2  O   UNL A   1      41.104  19.791  25.471  1.00  0.00    -0.461 OA
BRANCH   2   3
ATOM      3  C   UNL A   1      39.784  19.917  25.748  1.00  0.00     0.327 C 
ATOM      4  O   UNL A   1      39.025  18.996  25.436  1.00  0.00    -0.250 OA
BRANCH   3   5
ATOM      5  C   UNL A   1      39.223  21.151  26.390  1.00  0.00     0.268 C 
BRANCH   5   6
ATOM      6  N   UNL A   1      38.364  21.953  25.562  1.00  0.00    -0.241 N 
ATOM      7  C   UNL A   1      37.403  21.536  24.677  1.00  0.00     0.139 A 
ATOM      8  N   UNL A   1      38.237  23.259  25.823  1.00  0.00    -0.066 NA
ATOM      9  C   UNL A   1      36.792  22.700  24.292  1.00  0.00     0.107 A 
ATOM     10  N   UNL A   1      37.310  23.730  25.013  1.00  0.00    -0.131 NA
BRANCH   9  11
ATOM     11  C   UNL A   1      35.794  22.882  23.290  1.00  0.00     0.055 C 
ATOM     12  C   UNL A   1      34.471  23.066  23.483  1.00  0.00     0.081 C 
ATOM     13  Cl  UNL A   1      33.425  23.387  22.146  1.00  0.00    -0.081 Cl
BRANCH  12  14
ATOM     14  C   UNL A   1      33.900  23.048  24.785  1.00  0.00     0.159 A 
ATOM     15  N   UNL A   1      34.231  23.787  25.828  1.00  0.00    -0.137 NA
ATOM     16  S   UNL A   1      32.444  22.163  25.088  1.00  0.00    -0.086 S 
ATOM     17  N   UNL A   1      33.145  23.986  26.670  1.00  0.00    -0.133 NA
ATOM     18  C   UNL A   1      32.051  23.400  26.206  1.00  0.00     0.206 A 
BRANCH  18  19
ATOM     19  C   UNL A   1      30.724  23.734  26.713  1.00  0.00     0.286 C 
ATOM     20  O   UNL A   1      30.135  22.995  27.514  1.00  0.00    -0.266 OA
ATOM     21  N   UNL A   1      30.121  24.979  26.523  1.00  0.00    -0.320 N 
ATOM     22  H   UNL A   1      29.414  25.167  27.181  1.00  0.00     0.170 HD
BRANCH  21  23
ATOM     23  C   UNL A   1      30.299  26.022  25.599  1.00  0.00     0.041 A 
ATOM     24  C   UNL A   1      31.205  27.062  25.784  1.00  0.00     0.027 A 
ATOM     25  C   UNL A   1      29.598  25.972  24.390  1.00  0.00     0.027 A 
ATOM     26  C   UNL A   1      31.252  28.147  24.904  1.00  0.00     0.022 A 
ATOM     27  C   UNL A   1      29.691  27.024  23.469  1.00  0.00     0.022 A 
ATOM     28  C   UNL A   1      30.468  28.138  23.761  1.00  0.00     0.041 A 
ATOM     29  Cl  UNL A   1      30.481  29.498  22.709  1.00  0.00    -0.084 Cl
ENDBRANCH  21  23
ENDBRANCH  18  19
ENDBRANCH  12  14
ENDBRANCH   9  11
ENDBRANCH   5   6
ENDBRANCH   3   5
ENDBRANCH   2   3
ENDBRANCH   1   2
BRANCH   1  30
ATOM     30  C   UNL A   1      43.463  18.989  25.399  1.00  0.00     0.275 C 
BRANCH  30  31
ATOM     31  O   UNL A   1      43.649  20.297  24.891  1.00  0.00    -0.458 OA
BRANCH  31  32
ATOM     32  C   UNL A   1      44.870  20.549  24.346  1.00  0.00     0.338 C 
ATOM     33  O   UNL A   1      45.592  19.774  23.780  1.00  0.00    -0.246 OA
BRANCH  32  34
ATOM     34  C   UNL A   1      45.132  21.980  24.568  1.00  0.00     0.060 A 
ATOM     35  C   UNL A   1      46.247  22.303  25.335  1.00  0.00     0.016 A 
ATOM     36  C   UNL A   1      44.159  22.932  24.208  1.00  0.00     0.016 A 
ATOM     37  C   UNL A   1      46.223  23.504  26.002  1.00  0.00     0.010 A 
ATOM     38  C   UNL A   1      44.136  24.123  24.869  1.00  0.00     0.010 A 
ATOM     39  C   UNL A   1      45.099  24.319  25.847  1.00  0.00    -0.014 A 
BRANCH  39  40
ATOM     40  C   UNL A   1      44.898  25.398  26.778  1.00  0.00     0.031 A 
ATOM     41  C   UNL A   1      46.020  26.345  26.792  1.00  0.00     0.074 A 
ATOM     42  C   UNL A   1      43.738  25.529  27.447  1.00  0.00     0.049 A 
ATOM     43  N   UNL A   1      46.938  26.443  27.690  1.00  0.00    -0.248 NA
ATOM     44  C   UNL A   1      46.295  27.099  25.559  1.00  0.00     0.031 C 
ATOM     45  C   UNL A   1      42.489  24.781  27.270  1.00  0.00     0.029 A 
ATOM     46  N   UNL A   1      43.407  26.453  28.379  1.00  0.00    -0.354 N 
ATOM     47  C   UNL A   1      47.743  27.486  27.260  1.00  0.00     0.074 A 
ATOM     48  C   UNL A   1      47.477  27.641  25.858  1.00  0.00     0.031 C 
ATOM     49  C   UNL A   1      41.485  25.437  27.900  1.00  0.00     0.029 A 
ATOM     50  C   UNL A   1      42.044  26.568  28.624  1.00  0.00     0.049 A 
ATOM     51  H   UNL A   1      44.078  26.999  28.847  1.00  0.00     0.167 HD
ATOM     52  C   UNL A   1      48.302  28.338  28.160  1.00  0.00     0.034 A 
ATOM     53  C   UNL A   1      41.434  27.578  29.302  1.00  0.00     0.034 A 
ATOM     54  C   UNL A   1      48.297  27.759  29.490  1.00  0.00     0.049 A 
ATOM     55  C   UNL A   1      42.482  28.205  30.155  1.00  0.00     0.074 A 
ATOM     56  C   UNL A   1      48.797  26.588  30.030  1.00  0.00     0.029 A 
ATOM     57  N   UNL A   1      47.354  28.205  30.391  1.00  0.00    -0.354 N 
ATOM     58  N   UNL A   1      43.072  27.572  31.135  1.00  0.00    -0.248 NA
ATOM     59  C   UNL A   1      43.244  29.317  29.601  1.00  0.00     0.031 C 
ATOM     60  C   UNL A   1      47.792  26.143  30.940  1.00  0.00     0.029 A 
ATOM     61  C   UNL A   1      46.777  27.102  30.975  1.00  0.00     0.049 A 
ATOM     62  H   UNL A   1      47.133  29.146  30.584  1.00  0.00     0.167 HD
ATOM     63  C   UNL A   1      44.416  27.906  31.030  1.00  0.00     0.074 A 
ATOM     64  C   UNL A   1      44.447  29.057  30.127  1.00  0.00     0.031 C 
ATOM     65  C   UNL A   1      45.398  27.042  31.432  1.00  0.00     0.034 A 
BRANCH  52  66
ATOM     66  C   UNL A   1      48.467  29.820  27.915  1.00  0.00     0.023 A 
ATOM     67  C   UNL A   1      47.287  30.564  27.755  1.00  0.00     0.031 A 
ATOM     68  C   UNL A   1      49.664  30.482  27.551  1.00  0.00     0.131 A 
ATOM     69  C   UNL A   1      47.313  31.833  27.155  1.00  0.00     0.055 A 
ATOM     70  C   UNL A   1      49.691  31.775  27.023  1.00  0.00     0.041 A 
ATOM     71  F   UNL A   1      50.867  29.900  27.588  1.00  0.00    -0.206 F 
ATOM     72  C   UNL A   1      48.507  32.444  26.788  1.00  0.00     0.022 A 
BRANCH  69  73
ATOM     73  S   UNL A   1      45.735  32.581  26.689  1.00  0.00     0.124 S 
ATOM     74  O   UNL A   1      44.930  32.330  27.880  1.00  0.00    -0.237 OA
ATOM     75  O   UNL A   1      46.121  33.967  26.450  1.00  0.00    -0.237 OA
ATOM     76  O   UNL A   1      45.344  31.826  25.500  1.00  0.00    -0.744 OA
ENDBRANCH  69  73
ENDBRANCH  52  66
BRANCH  53  77
ATOM     77  C   UNL A   1      40.150  28.240  28.927  1.00  0.00     0.023 A 
ATOM     78  C   UNL A   1      39.221  28.717  29.877  1.00  0.00     0.031 A 
ATOM     79  C   UNL A   1      39.927  28.621  27.582  1.00  0.00     0.131 A 
ATOM     80  C   UNL A   1      38.131  29.525  29.465  1.00  0.00     0.055 A 
ATOM     81  C   UNL A   1      38.849  29.414  27.182  1.00  0.00     0.041 A 
ATOM     82  F   UNL A   1      40.799  28.302  26.613  1.00  0.00    -0.206 F 
ATOM     83  C   UNL A   1      37.949  29.877  28.125  1.00  0.00     0.022 A 
BRANCH  80  84
ATOM     84  S   UNL A   1      36.963  30.207  30.689  1.00  0.00     0.124 S 
ATOM     85  O   UNL A   1      35.898  30.732  29.842  1.00  0.00    -0.237 OA
ATOM     86  O   UNL A   1      36.636  29.037  31.496  1.00  0.00    -0.237 OA
ATOM     87  O   UNL A   1      37.752  31.226  31.384  1.00  0.00    -0.744 OA
ENDBRANCH  80  84
ENDBRANCH  53  77
BRANCH  65  88
ATOM     88  C   UNL A   1      44.995  25.821  32.244  1.00  0.00     0.023 A 
ATOM     89  C   UNL A   1      44.752  25.819  33.638  1.00  0.00     0.031 A 
ATOM     90  C   UNL A   1      44.727  24.636  31.537  1.00  0.00     0.131 A 
ATOM     91  C   UNL A   1      44.274  24.653  34.272  1.00  0.00     0.055 A 
ATOM     92  C   UNL A   1      44.234  23.492  32.163  1.00  0.00     0.041 A 
ATOM     93  F   UNL A   1      44.906  24.582  30.207  1.00  0.00    -0.206 F 
ATOM     94  C   UNL A   1      44.012  23.493  33.535  1.00  0.00     0.022 A 
BRANCH  91  95
ATOM     95  S   UNL A   1      43.994  24.616  36.073  1.00  0.00     0.124 S 
ATOM     96  O   UNL A   1      42.542  24.553  36.193  1.00  0.00    -0.237 OA
ATOM     97  O   UNL A   1      44.721  23.418  36.484  1.00  0.00    -0.237 OA
ATOM     98  O   UNL A   1      44.586  25.873  36.536  1.00  0.00    -0.744 OA
ENDBRANCH  91  95
ENDBRANCH  65  88
ENDBRANCH  39  40
ENDBRANCH  32  34
ENDBRANCH  31  32
ENDBRANCH  30  31
ENDBRANCH   1  30
TORSDOF 19
ENDMDL
MODEL 3
REMARK VINA RESULT:     -12.1      3.340      8.685
REMARK SMILES O=C(Cn1cc(/C=C(/Cl)c2nnc(C(=O)Nc3ccc(Cl)cc3)s2)nn1)OCCOC(=O)c1ccc(-c2c3nc(c(-c4cc(S(=O)(=O)[O-])ccc4F)c4ccc([nH]4)c(-c4cc(S(=O)(=O)[O-])ccc4F)c4nc(c(-c5cc(S(=O)(=O)[O-])ccc5F)c5ccc2[nH]5)C=C4)C=C3)cc1
REMARK SMILES IDX 28 1 27 2 2 3 1 4 3 5 4 6 5 7 26 8 6 9 25 10 7 11 8 12 9 13
REMARK SMILES IDX 10 14 11 15 24 16 12 17 13 18 14 19 15 20 16 21 17 23 18 24
REMARK SMILES IDX 23 25 19 26 22 27 20 28 21 29 29 30 30 31 31 32 32 33 33 34
REMARK SMILES IDX 34 35 95 36 35 37 94 38 36 39 37 40 38 41 88 42 39 43 93 44
REMARK SMILES IDX 87 45 89 46 40 47 92 48 86 49 85 50 41 52 73 53 53 54 72 55
REMARK SMILES IDX 54 56 57 57 71 58 90 59 55 60 56 61 70 63 91 64 58 65 42 66
REMARK SMILES IDX 43 67 51 68 44 69 50 70 52 71 49 72 45 73 46 74 47 75 48 76
REMARK SMILES IDX 74 77 75 78 83 79 76 80 82 81 84 82 81 83 77 84 78 85 79 86
REMARK SMILES IDX 80 87 59 88 60 89 68 90 61 91 67 92 69 93 66 94 62 95 63 96
REMARK SMILES IDX 64 97 65 98
REMARK H PARENT 16 22 89 51 57 62
REMARK Flexibility Score: inf
ROOT
ATOM      1  C   UNL A   1      37.762  23.185  25.494  1.00  0.00     0.274 C 
ENDROOT
BRANCH   1   2
ATOM      2  O   UNL A   1      36.476  23.307  24.844  1.00  0.00    -0.461 OA
BRANCH   2   3
ATOM      3  C   UNL A   1      36.162  23.220  23.529  1.00  0.00     0.327 C 
ATOM      4  O   UNL A   1      36.974  22.698  22.761  1.00  0.00    -0.250 OA
BRANCH   3   5
ATOM      5  C   UNL A   1      34.876  23.766  22.984  1.00  0.00     0.268 C 
BRANCH   5   6
ATOM      6  N   UNL A   1      33.674  23.157  23.486  1.00  0.00    -0.241 N 
ATOM      7  C   UNL A   1      33.126  23.262  24.738  1.00  0.00     0.139 A 
ATOM      8  N   UNL A   1      32.795  22.637  22.623  1.00  0.00    -0.066 NA
ATOM      9  C   UNL A   1      31.921  22.621  24.618  1.00  0.00     0.107 A 
ATOM     10  N   UNL A   1      31.740  22.262  23.319  1.00  0.00    -0.131 NA
BRANCH   9  11
ATOM     11  C   UNL A   1      30.975  22.320  25.642  1.00  0.00     0.055 C 
ATOM     12  C   UNL A   1      30.299  23.200  26.410  1.00  0.00     0.081 C 
ATOM     13  Cl  UNL A   1      29.102  22.650  27.528  1.00  0.00    -0.081 Cl
BRANCH  12  14
ATOM     14  C   UNL A   1      30.510  24.601  26.297  1.00  0.00     0.159 A 
ATOM     15  N   UNL A   1      31.397  25.344  26.933  1.00  0.00    -0.137 NA
ATOM     16  S   UNL A   1      29.731  25.503  25.041  1.00  0.00    -0.086 S 
ATOM     17  N   UNL A   1      31.763  26.450  26.177  1.00  0.00    -0.133 NA
ATOM     18  C   UNL A   1      31.144  26.471  25.007  1.00  0.00     0.206 A 
BRANCH  18  19
ATOM     19  C   UNL A   1      31.596  27.322  23.911  1.00  0.00     0.286 C 
ATOM     20  O   UNL A   1      31.517  26.952  22.732  1.00  0.00    -0.266 OA
ATOM     21  N   UNL A   1      31.933  28.667  24.073  1.00  0.00    -0.320 N 
ATOM     22  H   UNL A   1      31.888  29.179  23.233  1.00  0.00     0.170 HD
BRANCH  21  23
ATOM     23  C   UNL A   1      32.324  29.453  25.170  1.00  0.00     0.041 A 
ATOM     24  C   UNL A   1      31.497  30.398  25.769  1.00  0.00     0.027 A 
ATOM     25  C   UNL A   1      33.575  29.216  25.751  1.00  0.00     0.027 A 
ATOM     26  C   UNL A   1      31.975  31.248  26.770  1.00  0.00     0.022 A 
ATOM     27  C   UNL A   1      34.036  30.021  26.802  1.00  0.00     0.022 A 
ATOM     28  C   UNL A   1      33.259  31.076  27.264  1.00  0.00     0.041 A 
ATOM     29  Cl  UNL A   1      33.868  32.158  28.452  1.00  0.00    -0.084 Cl
ENDBRANCH  21  23
ENDBRANCH  18  19
ENDBRANCH  12  14
ENDBRANCH   9  11
ENDBRANCH   5   6
ENDBRANCH   3   5
ENDBRANCH   2   3
ENDBRANCH   1   2
BRANCH   1  30
ATOM     30  C   UNL A   1      38.091  21.776  25.966  1.00  0.00     0.275 C 
BRANCH  30  31
ATOM     31  O   UNL A   1      39.086  21.207  25.135  1.00  0.00    -0.458 OA
BRANCH  31  32
ATOM     32  C   UNL A   1      39.909  20.306  25.735  1.00  0.00     0.338 C 
ATOM     33  O   UNL A   1      39.835  19.108  25.698  1.00  0.00    -0.246 OA
BRANCH  32  34
ATOM     34  C   UNL A   1      40.940  21.092  26.433  1.00  0.00     0.060 A 
ATOM     35  C   UNL A   1      40.985  20.978  27.819  1.00  0.00     0.016 A 
ATOM     36  C   UNL A   1      41.666  22.072  25.730  1.00  0.00     0.016 A 
ATOM     37  C   UNL A   1      41.507  22.038  28.519  1.00  0.00     0.010 A 
ATOM     38  C   UNL A   1      42.183  23.124  26.425  1.00  0.00     0.010 A 
ATOM     39  C   UNL A   1      41.971  23.139  27.795  1.00  0.00    -0.014 A 
BRANCH  39  40
ATOM     40  C   UNL A   1      42.202  24.375  28.494  1.00  0.00     0.031 A 
ATOM     41  C   UNL A   1      41.193  25.395  28.184  1.00  0.00     0.074 A 
ATOM     42  C   UNL A   1      43.187  24.481  29.405  1.00  0.00     0.049 A 
ATOM     43  N   UNL A   1      41.337  26.417  27.414  1.00  0.00    -0.248 NA
ATOM     44  C   UNL A   1      39.801  25.121  28.573  1.00  0.00     0.031 C 
ATOM     45  C   UNL A   1      44.044  23.426  29.956  1.00  0.00     0.029 A 
ATOM     46  N   UNL A   1      43.561  25.573  30.113  1.00  0.00    -0.354 N 
ATOM     47  C   UNL A   1      40.118  27.073  27.464  1.00  0.00     0.074 A 
ATOM     48  C   UNL A   1      39.167  26.107  27.936  1.00  0.00     0.031 C 
ATOM     49  C   UNL A   1      44.663  23.891  31.067  1.00  0.00     0.029 A 
ATOM     50  C   UNL A   1      44.348  25.301  31.226  1.00  0.00     0.049 A 
ATOM     51  H   UNL A   1      43.297  26.486  29.860  1.00  0.00     0.167 HD
ATOM     52  C   UNL A   1      40.067  28.431  27.433  1.00  0.00     0.034 A 
ATOM     53  C   UNL A   1      44.634  26.168  32.236  1.00  0.00     0.034 A 
ATOM     54  C   UNL A   1      41.309  28.982  26.926  1.00  0.00     0.049 A 
ATOM     55  C   UNL A   1      44.420  27.537  31.689  1.00  0.00     0.074 A 
ATOM     56  C   UNL A   1      42.031  28.811  25.758  1.00  0.00     0.029 A 
ATOM     57  N   UNL A   1      42.198  29.525  27.829  1.00  0.00    -0.354 N 
ATOM     58  N   UNL A   1      45.147  28.037  30.723  1.00  0.00    -0.248 NA
ATOM     59  C   UNL A   1      43.099  28.135  31.830  1.00  0.00     0.031 C 
ATOM     60  C   UNL A   1      43.397  28.782  26.169  1.00  0.00     0.029 A 
ATOM     61  C   UNL A   1      43.445  29.022  27.544  1.00  0.00     0.049 A 
ATOM     62  H   UNL A   1      41.979  30.160  28.549  1.00  0.00     0.167 HD
ATOM     63  C   UNL A   1      44.246  28.676  29.881  1.00  0.00     0.074 A 
ATOM     64  C   UNL A   1      43.014  28.785  30.663  1.00  0.00     0.031 C 
ATOM     65  C   UNL A   1      44.480  28.783  28.538  1.00  0.00     0.034 A 
BRANCH  52  66
ATOM     66  C   UNL A   1      39.077  29.248  28.230  1.00  0.00     0.023 A 
ATOM     67  C   UNL A   1      39.258  29.268  29.623  1.00  0.00     0.031 A 
ATOM     68  C   UNL A   1      37.839  29.754  27.765  1.00  0.00     0.131 A 
ATOM     69  C   UNL A   1      38.215  29.655  30.478  1.00  0.00     0.055 A 
ATOM     70  C   UNL A   1      36.832  30.208  28.619  1.00  0.00     0.041 A 
ATOM     71  F   UNL A   1      37.483  29.756  26.477  1.00  0.00    -0.206 F 
ATOM     72  C   UNL A   1      37.002  30.126  29.986  1.00  0.00     0.022 A 
BRANCH  69  73
ATOM     73  S   UNL A   1      38.412  29.343  32.247  1.00  0.00     0.124 S 
ATOM     74  O   UNL A   1      37.192  28.601  32.550  1.00  0.00    -0.237 OA
ATOM     75  O   UNL A   1      39.655  28.581  32.278  1.00  0.00    -0.237 OA
ATOM     76  O   UNL A   1      38.486  30.685  32.819  1.00  0.00    -0.744 OA
ENDBRANCH  69  73
ENDBRANCH  52  66
BRANCH  53  77
ATOM     77  C   UNL A   1      44.668  25.842  33.692  1.00  0.00     0.023 A 
ATOM     78  C   UNL A   1      43.603  26.129  34.573  1.00  0.00     0.031 A 
ATOM     79  C   UNL A   1      45.698  25.012  34.198  1.00  0.00     0.131 A 
ATOM     80  C   UNL A   1      43.605  25.603  35.890  1.00  0.00     0.055 A 
ATOM     81  C   UNL A   1      45.696  24.501  35.498  1.00  0.00     0.041 A 
ATOM     82  F   UNL A   1      46.709  24.600  33.418  1.00  0.00    -0.206 F 
ATOM     83  C   UNL A   1      44.643  24.788  36.348  1.00  0.00     0.022 A 
BRANCH  80  84
ATOM     84  S   UNL A   1      42.202  25.908  37.015  1.00  0.00     0.124 S 
ATOM     85  O   UNL A   1      41.496  24.633  36.982  1.00  0.00    -0.237 OA
ATOM     86  O   UNL A   1      42.871  26.249  38.265  1.00  0.00    -0.237 OA
ATOM     87  O   UNL A   1      41.490  27.019  36.382  1.00  0.00    -0.744 OA
ENDBRANCH  80  84
ENDBRANCH  53  77
BRANCH  65  88
ATOM     88  C   UNL A   1      45.864  28.428  28.017  1.00  0.00     0.023 A 
ATOM     89  C   UNL A   1      46.278  27.129  27.633  1.00  0.00     0.031 A 
ATOM     90  C   UNL A   1      46.758  29.487  27.787  1.00  0.00     0.131 A 
ATOM     91  C   UNL A   1      47.550  26.933  27.058  1.00  0.00     0.055 A 
ATOM     92  C   UNL A   1      48.008  29.293  27.199  1.00  0.00     0.041 A 
ATOM     93  F   UNL A   1      46.415  30.748  28.099  1.00  0.00    -0.206 F 
ATOM     94  C   UNL A   1      48.411  28.012  26.838  1.00  0.00     0.022 A 
BRANCH  91  95
ATOM     95  S   UNL A   1      48.117  25.263  26.595  1.00  0.00     0.124 S 
ATOM     96  O   UNL A   1      47.595  25.086  25.245  1.00  0.00    -0.237 OA
ATOM     97  O   UNL A   1      49.570  25.378  26.707  1.00  0.00    -0.237 OA
ATOM     98  O   UNL A   1      47.499  24.400  27.603  1.00  0.00    -0.744 OA
ENDBRANCH  91  95
ENDBRANCH  65  88
ENDBRANCH  39  40
ENDBRANCH  32  34
ENDBRANCH  31  32
ENDBRANCH  30  31
ENDBRANCH   1  30
TORSDOF 19
ENDMDL
