MODEL 1
REMARK VINA RESULT:     -12.4      0.000      0.000
REMARK SMILES CC1=CC2=[NH+]C(=O)C[C@@](C)(C(=O)OCCOC(=O)c3ccc(-c4c5nc(c(-c6cc(S(=O)(=O)[O-])ccc6F)c6ccc([nH]6)c(-c6cc(S(=O)(=O)[O-])ccc6F)c6nc(c(-c7cc(S(=O)(=O)[O-])ccc7F)c7ccc4[nH]7)C=C6)C=C5)cc3)N2C=C1
REMARK SMILES IDX 16 1 15 2 14 3 13 4 11 5 12 6 9 7 1 8 2 9 3 10 84 11 4 12
REMARK SMILES IDX 83 13 5 14 82 15 6 16 7 18 8 19 10 20 17 21 18 22 19 23
REMARK SMILES IDX 20 24 81 25 21 26 80 27 22 28 23 29 24 30 74 31 25 32 79 33
REMARK SMILES IDX 73 34 75 35 26 36 78 37 72 38 71 39 27 41 59 42 39 43 58 44
REMARK SMILES IDX 40 45 43 46 57 47 76 48 41 49 42 50 56 52 77 53 44 54 28 55
REMARK SMILES IDX 29 56 37 57 30 58 36 59 38 60 35 61 31 62 32 63 33 64 34 65
REMARK SMILES IDX 60 66 61 67 69 68 62 69 68 70 70 71 67 72 63 73 64 74 65 75
REMARK SMILES IDX 66 76 45 77 46 78 54 79 47 80 53 81 55 82 52 83 48 84 49 85
REMARK SMILES IDX 50 86 51 87
REMARK H PARENT 5 17 75 40 43 51
REMARK Flexibility Score: inf
ROOT
ATOM      1  O   UNL A   1      36.775  21.531  24.949  1.00  0.00    -0.458 OA
ENDROOT
BRANCH   1   2
ATOM      2  C   UNL A   1      35.600  21.079  25.672  1.00  0.00     0.275 C 
BRANCH   2   3
ATOM      3  C   UNL A   1      34.547  20.476  24.694  1.00  0.00     0.274 C 
BRANCH   3   4
ATOM      4  O   UNL A   1      33.481  21.432  24.436  1.00  0.00    -0.459 OA
BRANCH   4   5
ATOM      5  C   UNL A   1      32.333  21.391  25.211  1.00  0.00     0.355 C 
ATOM      6  O   UNL A   1      31.585  20.428  25.259  1.00  0.00    -0.247 OA
BRANCH   5   7
ATOM      7  C   UNL A   1      32.256  22.707  26.060  1.00  0.00     0.216 C 
ATOM      8  C   UNL A   1      33.769  27.761  23.769  1.00  0.00     0.045 C 
ATOM      9  C   UNL A   1      33.682  26.321  24.184  1.00  0.00    -0.039 C 
ATOM     10  C   UNL A   1      32.809  25.525  23.544  1.00  0.00     0.102 C 
ATOM     11  C   UNL A   1      34.379  25.812  25.372  1.00  0.00     0.047 C 
ATOM     12  C   UNL A   1      32.163  24.658  24.558  1.00  0.00     0.282 C 
ATOM     13  C   UNL A   1      34.060  24.593  25.877  1.00  0.00     0.202 C 
ATOM     14  N   UNL A   1      30.915  24.929  24.792  1.00  0.00    -0.210 N 
ATOM     15  N   UNL A   1      32.943  23.879  25.410  1.00  0.00    -0.217 N 
ATOM     16  C   UNL A   1      30.423  24.393  25.944  1.00  0.00     0.312 C 
ATOM     17  H   UNL A   1      30.368  25.479  24.186  1.00  0.00     0.315 HD
ATOM     18  O   UNL A   1      29.692  24.961  26.734  1.00  0.00    -0.247 OA
ATOM     19  C   UNL A   1      30.742  22.960  26.081  1.00  0.00     0.193 C 
ATOM     20  C   UNL A   1      32.742  22.460  27.488  1.00  0.00     0.076 C 
ENDBRANCH   5   7
ENDBRANCH   4   5
ENDBRANCH   3   4
ENDBRANCH   2   3
ENDBRANCH   1   2
BRANCH   1  21
ATOM     21  C   UNL A   1      38.003  21.090  25.379  1.00  0.00     0.338 C 
ATOM     22  O   UNL A   1      38.477  19.997  25.120  1.00  0.00    -0.246 OA
BRANCH  21  23
ATOM     23  C   UNL A   1      38.732  22.174  26.131  1.00  0.00     0.060 A 
ATOM     24  C   UNL A   1      38.281  23.476  26.039  1.00  0.00     0.016 A 
ATOM     25  C   UNL A   1      39.939  21.969  26.822  1.00  0.00     0.016 A 
ATOM     26  C   UNL A   1      39.091  24.532  26.468  1.00  0.00     0.010 A 
ATOM     27  C   UNL A   1      40.685  23.064  27.368  1.00  0.00     0.010 A 
ATOM     28  C   UNL A   1      40.298  24.397  27.158  1.00  0.00    -0.014 A 
BRANCH  28  29
ATOM     29  C   UNL A   1      41.083  25.661  27.524  1.00  0.00     0.031 A 
ATOM     30  C   UNL A   1      40.520  26.707  28.477  1.00  0.00     0.074 A 
ATOM     31  C   UNL A   1      42.376  25.849  27.140  1.00  0.00     0.049 A 
ATOM     32  N   UNL A   1      40.967  27.913  28.750  1.00  0.00    -0.248 NA
ATOM     33  C   UNL A   1      39.303  26.353  29.218  1.00  0.00     0.031 C 
ATOM     34  C   UNL A   1      43.167  24.930  26.316  1.00  0.00     0.029 A 
ATOM     35  N   UNL A   1      43.291  26.847  27.436  1.00  0.00    -0.354 N 
ATOM     36  C   UNL A   1      40.042  28.491  29.620  1.00  0.00     0.074 A 
ATOM     37  C   UNL A   1      39.020  27.487  29.845  1.00  0.00     0.031 C 
ATOM     38  C   UNL A   1      44.451  25.310  26.312  1.00  0.00     0.029 A 
ATOM     39  C   UNL A   1      44.559  26.623  26.928  1.00  0.00     0.049 A 
ATOM     40  H   UNL A   1      43.060  27.646  27.963  1.00  0.00     0.167 HD
ATOM     41  C   UNL A   1      40.031  29.740  30.163  1.00  0.00     0.034 A 
ATOM     42  C   UNL A   1      45.670  27.393  26.868  1.00  0.00     0.034 A 
ATOM     43  C   UNL A   1      41.088  30.719  29.999  1.00  0.00     0.049 A 
ATOM     44  C   UNL A   1      45.602  28.807  27.390  1.00  0.00     0.074 A 
ATOM     45  C   UNL A   1      41.129  32.031  30.447  1.00  0.00     0.029 A 
ATOM     46  N   UNL A   1      42.302  30.489  29.365  1.00  0.00    -0.354 N 
ATOM     47  N   UNL A   1      44.632  29.405  28.037  1.00  0.00    -0.248 NA
ATOM     48  C   UNL A   1      46.769  29.663  27.133  1.00  0.00     0.031 C 
ATOM     49  C   UNL A   1      42.329  32.614  30.019  1.00  0.00     0.029 A 
ATOM     50  C   UNL A   1      43.082  31.641  29.386  1.00  0.00     0.049 A 
ATOM     51  H   UNL A   1      42.571  29.634  28.958  1.00  0.00     0.167 HD
ATOM     52  C   UNL A   1      45.076  30.705  28.267  1.00  0.00     0.074 A 
ATOM     53  C   UNL A   1      46.420  30.787  27.737  1.00  0.00     0.031 C 
ATOM     54  C   UNL A   1      44.419  31.741  28.849  1.00  0.00     0.034 A 
BRANCH  41  55
ATOM     55  C   UNL A   1      38.770  30.172  30.886  1.00  0.00     0.023 A 
ATOM     56  C   UNL A   1      37.699  30.817  30.245  1.00  0.00     0.031 A 
ATOM     57  C   UNL A   1      38.667  29.959  32.276  1.00  0.00     0.131 A 
ATOM     58  C   UNL A   1      36.618  31.301  31.005  1.00  0.00     0.055 A 
ATOM     59  C   UNL A   1      37.551  30.363  33.010  1.00  0.00     0.041 A 
ATOM     60  F   UNL A   1      39.663  29.363  32.952  1.00  0.00    -0.206 F 
ATOM     61  C   UNL A   1      36.526  31.056  32.378  1.00  0.00     0.022 A 
BRANCH  58  62
ATOM     62  S   UNL A   1      35.415  32.403  30.209  1.00  0.00     0.124 S 
ATOM     63  O   UNL A   1      34.987  31.597  29.068  1.00  0.00    -0.237 OA
ATOM     64  O   UNL A   1      34.424  32.601  31.261  1.00  0.00    -0.237 OA
ATOM     65  O   UNL A   1      36.204  33.585  29.866  1.00  0.00    -0.744 OA
ENDBRANCH  58  62
ENDBRANCH  41  55
BRANCH  42  66
ATOM     66  C   UNL A   1      46.914  26.921  26.165  1.00  0.00     0.023 A 
ATOM     67  C   UNL A   1      47.943  26.253  26.856  1.00  0.00     0.031 A 
ATOM     68  C   UNL A   1      47.143  27.225  24.808  1.00  0.00     0.131 A 
ATOM     69  C   UNL A   1      49.155  25.958  26.205  1.00  0.00     0.055 A 
ATOM     70  C   UNL A   1      48.312  26.850  24.144  1.00  0.00     0.041 A 
ATOM     71  F   UNL A   1      46.224  27.897  24.096  1.00  0.00    -0.206 F 
ATOM     72  C   UNL A   1      49.335  26.228  24.848  1.00  0.00     0.022 A 
BRANCH  69  73
ATOM     73  S   UNL A   1      50.551  25.334  27.185  1.00  0.00     0.124 S 
ATOM     74  O   UNL A   1      50.919  26.514  27.958  1.00  0.00    -0.237 OA
ATOM     75  O   UNL A   1      49.936  24.242  27.931  1.00  0.00    -0.237 OA
ATOM     76  O   UNL A   1      51.521  24.923  26.171  1.00  0.00    -0.744 OA
ENDBRANCH  69  73
ENDBRANCH  42  66
BRANCH  54  77
ATOM     77  C   UNL A   1      45.176  33.046  28.981  1.00  0.00     0.023 A 
ATOM     78  C   UNL A   1      45.173  34.015  27.959  1.00  0.00     0.031 A 
ATOM     79  C   UNL A   1      45.963  33.301  30.120  1.00  0.00     0.131 A 
ATOM     80  C   UNL A   1      46.001  35.144  28.058  1.00  0.00     0.055 A 
ATOM     81  C   UNL A   1      46.725  34.464  30.246  1.00  0.00     0.041 A 
ATOM     82  F   UNL A   1      46.016  32.413  31.126  1.00  0.00    -0.206 F 
ATOM     83  C   UNL A   1      46.763  35.384  29.203  1.00  0.00     0.022 A 
BRANCH  80  84
ATOM     84  S   UNL A   1      46.183  36.223  26.608  1.00  0.00     0.124 S 
ATOM     85  O   UNL A   1      47.535  36.743  26.785  1.00  0.00    -0.237 OA
ATOM     86  O   UNL A   1      45.999  35.290  25.501  1.00  0.00    -0.237 OA
ATOM     87  O   UNL A   1      45.114  37.205  26.775  1.00  0.00    -0.744 OA
ENDBRANCH  80  84
ENDBRANCH  54  77
ENDBRANCH  28  29
ENDBRANCH  21  23
ENDBRANCH   1  21
TORSDOF 14
ENDMDL
MODEL 2
REMARK VINA RESULT:     -12.3      1.127      1.761
REMARK SMILES CC1=CC2=[NH+]C(=O)C[C@@](C)(C(=O)OCCOC(=O)c3ccc(-c4c5nc(c(-c6cc(S(=O)(=O)[O-])ccc6F)c6ccc([nH]6)c(-c6cc(S(=O)(=O)[O-])ccc6F)c6nc(c(-c7cc(S(=O)(=O)[O-])ccc7F)c7ccc4[nH]7)C=C6)C=C5)cc3)N2C=C1
REMARK SMILES IDX 16 1 15 2 14 3 13 4 11 5 12 6 9 7 1 8 2 9 3 10 84 11 4 12
REMARK SMILES IDX 83 13 5 14 82 15 6 16 7 18 8 19 10 20 17 21 18 22 19 23
REMARK SMILES IDX 20 24 81 25 21 26 80 27 22 28 23 29 24 30 74 31 25 32 79 33
REMARK SMILES IDX 73 34 75 35 26 36 78 37 72 38 71 39 27 41 59 42 39 43 58 44
REMARK SMILES IDX 40 45 43 46 57 47 76 48 41 49 42 50 56 52 77 53 44 54 28 55
REMARK SMILES IDX 29 56 37 57 30 58 36 59 38 60 35 61 31 62 32 63 33 64 34 65
REMARK SMILES IDX 60 66 61 67 69 68 62 69 68 70 70 71 67 72 63 73 64 74 65 75
REMARK SMILES IDX 66 76 45 77 46 78 54 79 47 80 53 81 55 82 52 83 48 84 49 85
REMARK SMILES IDX 50 86 51 87
REMARK H PARENT 5 17 75 40 43 51
REMARK Flexibility Score: inf
ROOT
ATOM      1  O   UNL A   1      36.598  21.600  24.819  1.00  0.00    -0.458 OA
ENDROOT
BRANCH   1   2
ATOM      2  C   UNL A   1      35.385  21.037  25.388  1.00  0.00     0.275 C 
BRANCH   2   3
ATOM      3  C   UNL A   1      34.248  22.103  25.427  1.00  0.00     0.274 C 
BRANCH   3   4
ATOM      4  O   UNL A   1      33.553  22.157  24.149  1.00  0.00    -0.459 OA
BRANCH   4   5
ATOM      5  C   UNL A   1      33.732  23.259  23.329  1.00  0.00     0.355 C 
ATOM      6  O   UNL A   1      34.701  23.410  22.602  1.00  0.00    -0.247 OA
BRANCH   5   7
ATOM      7  C   UNL A   1      32.456  24.165  23.423  1.00  0.00     0.216 C 
ATOM      8  C   UNL A   1      32.345  28.708  26.949  1.00  0.00     0.045 C 
ATOM      9  C   UNL A   1      32.544  27.358  26.323  1.00  0.00    -0.039 C 
ATOM     10  C   UNL A   1      33.562  27.199  25.460  1.00  0.00     0.102 C 
ATOM     11  C   UNL A   1      31.565  26.275  26.485  1.00  0.00     0.047 C 
ATOM     12  C   UNL A   1      33.071  26.370  24.333  1.00  0.00     0.282 C 
ATOM     13  C   UNL A   1      31.628  25.178  25.689  1.00  0.00     0.202 C 
ATOM     14  N   UNL A   1      32.928  27.007  23.210  1.00  0.00    -0.210 N 
ATOM     15  N   UNL A   1      32.491  25.128  24.580  1.00  0.00    -0.217 N 
ATOM     16  C   UNL A   1      32.160  26.365  22.286  1.00  0.00     0.312 C 
ATOM     17  H   UNL A   1      33.341  27.884  23.041  1.00  0.00     0.315 HD
ATOM     18  O   UNL A   1      31.323  26.886  21.574  1.00  0.00    -0.247 OA
ATOM     19  C   UNL A   1      32.552  24.953  22.110  1.00  0.00     0.193 C 
ATOM     20  C   UNL A   1      31.186  23.315  23.405  1.00  0.00     0.076 C 
ENDBRANCH   5   7
ENDBRANCH   4   5
ENDBRANCH   3   4
ENDBRANCH   2   3
ENDBRANCH   1   2
BRANCH   1  21
ATOM     21  C   UNL A   1      37.802  21.112  25.265  1.00  0.00     0.338 C 
ATOM     22  O   UNL A   1      38.239  20.003  25.009  1.00  0.00    -0.246 OA
BRANCH  21  23
ATOM     23  C   UNL A   1      38.560  22.166  26.031  1.00  0.00     0.060 A 
ATOM     24  C   UNL A   1      38.100  23.468  26.016  1.00  0.00     0.016 A 
ATOM     25  C   UNL A   1      39.798  21.938  26.658  1.00  0.00     0.016 A 
ATOM     26  C   UNL A   1      38.924  24.509  26.456  1.00  0.00     0.010 A 
ATOM     27  C   UNL A   1      40.562  23.013  27.218  1.00  0.00     0.010 A 
ATOM     28  C   UNL A   1      40.161  24.351  27.084  1.00  0.00    -0.014 A 
BRANCH  28  29
ATOM     29  C   UNL A   1      40.957  25.603  27.470  1.00  0.00     0.031 A 
ATOM     30  C   UNL A   1      40.394  26.648  28.424  1.00  0.00     0.074 A 
ATOM     31  C   UNL A   1      42.258  25.777  27.105  1.00  0.00     0.049 A 
ATOM     32  N   UNL A   1      40.853  27.847  28.712  1.00  0.00    -0.248 NA
ATOM     33  C   UNL A   1      39.164  26.304  29.145  1.00  0.00     0.031 C 
ATOM     34  C   UNL A   1      43.048  24.854  26.285  1.00  0.00     0.029 A 
ATOM     35  N   UNL A   1      43.181  26.761  27.421  1.00  0.00    -0.354 N 
ATOM     36  C   UNL A   1      39.923  28.430  29.574  1.00  0.00     0.074 A 
ATOM     37  C   UNL A   1      38.886  27.438  29.777  1.00  0.00     0.031 C 
ATOM     38  C   UNL A   1      44.337  25.218  26.301  1.00  0.00     0.029 A 
ATOM     39  C   UNL A   1      44.452  26.525  26.928  1.00  0.00     0.049 A 
ATOM     40  H   UNL A   1      42.953  27.560  27.951  1.00  0.00     0.167 HD
ATOM     41  C   UNL A   1      39.921  29.675  30.126  1.00  0.00     0.034 A 
ATOM     42  C   UNL A   1      45.574  27.281  26.888  1.00  0.00     0.034 A 
ATOM     43  C   UNL A   1      40.992  30.641  29.983  1.00  0.00     0.049 A 
ATOM     44  C   UNL A   1      45.517  28.692  27.420  1.00  0.00     0.074 A 
ATOM     45  C   UNL A   1      41.043  31.950  30.442  1.00  0.00     0.029 A 
ATOM     46  N   UNL A   1      42.211  30.402  29.364  1.00  0.00    -0.354 N 
ATOM     47  N   UNL A   1      44.545  29.298  28.059  1.00  0.00    -0.248 NA
ATOM     48  C   UNL A   1      46.698  29.535  27.185  1.00  0.00     0.031 C 
ATOM     49  C   UNL A   1      42.256  32.521  30.034  1.00  0.00     0.029 A 
ATOM     50  C   UNL A   1      43.005  31.543  29.403  1.00  0.00     0.049 A 
ATOM     51  H   UNL A   1      42.475  29.546  28.954  1.00  0.00     0.167 HD
ATOM     52  C   UNL A   1      45.003  30.591  28.304  1.00  0.00     0.074 A 
ATOM     53  C   UNL A   1      46.354  30.660  27.793  1.00  0.00     0.031 C 
ATOM     54  C   UNL A   1      44.351  31.631  28.885  1.00  0.00     0.034 A 
BRANCH  41  55
ATOM     55  C   UNL A   1      38.655  30.117  30.835  1.00  0.00     0.023 A 
ATOM     56  C   UNL A   1      37.607  30.792  30.187  1.00  0.00     0.031 A 
ATOM     57  C   UNL A   1      38.526  29.884  32.220  1.00  0.00     0.131 A 
ATOM     58  C   UNL A   1      36.522  31.282  30.938  1.00  0.00     0.055 A 
ATOM     59  C   UNL A   1      37.405  30.296  32.942  1.00  0.00     0.041 A 
ATOM     60  F   UNL A   1      39.500  29.259  32.901  1.00  0.00    -0.206 F 
ATOM     61  C   UNL A   1      36.403  31.017  32.305  1.00  0.00     0.022 A 
BRANCH  58  62
ATOM     62  S   UNL A   1      35.351  32.418  30.141  1.00  0.00     0.124 S 
ATOM     63  O   UNL A   1      36.203  33.572  29.865  1.00  0.00    -0.237 OA
ATOM     64  O   UNL A   1      34.910  31.654  28.980  1.00  0.00    -0.237 OA
ATOM     65  O   UNL A   1      34.332  32.637  31.167  1.00  0.00    -0.744 OA
ENDBRANCH  58  62
ENDBRANCH  41  55
BRANCH  42  66
ATOM     66  C   UNL A   1      46.821  26.799  26.199  1.00  0.00     0.023 A 
ATOM     67  C   UNL A   1      47.866  26.181  26.912  1.00  0.00     0.031 A 
ATOM     68  C   UNL A   1      47.036  27.045  24.828  1.00  0.00     0.131 A 
ATOM     69  C   UNL A   1      49.078  25.877  26.265  1.00  0.00     0.055 A 
ATOM     70  C   UNL A   1      48.206  26.660  24.172  1.00  0.00     0.041 A 
ATOM     71  F   UNL A   1      46.101  27.669  24.092  1.00  0.00    -0.206 F 
ATOM     72  C   UNL A   1      49.245  26.088  24.896  1.00  0.00     0.022 A 
BRANCH  69  73
ATOM     73  S   UNL A   1      50.492  25.322  27.262  1.00  0.00     0.124 S 
ATOM     74  O   UNL A   1      51.450  24.944  26.230  1.00  0.00    -0.237 OA
ATOM     75  O   UNL A   1      50.813  26.521  28.030  1.00  0.00    -0.237 OA
ATOM     76  O   UNL A   1      49.943  24.215  28.043  1.00  0.00    -0.744 OA
ENDBRANCH  69  73
ENDBRANCH  42  66
BRANCH  54  77
ATOM     77  C   UNL A   1      45.122  32.925  29.037  1.00  0.00     0.023 A 
ATOM     78  C   UNL A   1      45.146  33.901  28.022  1.00  0.00     0.031 A 
ATOM     79  C   UNL A   1      45.895  33.162  30.189  1.00  0.00     0.131 A 
ATOM     80  C   UNL A   1      45.987  35.019  28.141  1.00  0.00     0.055 A 
ATOM     81  C   UNL A   1      46.670  34.314  30.335  1.00  0.00     0.041 A 
ATOM     82  F   UNL A   1      45.922  32.267  31.190  1.00  0.00    -0.206 F 
ATOM     83  C   UNL A   1      46.735  35.241  29.298  1.00  0.00     0.022 A 
BRANCH  80  84
ATOM     84  S   UNL A   1      46.204  36.104  26.700  1.00  0.00     0.124 S 
ATOM     85  O   UNL A   1      45.098  37.042  26.859  1.00  0.00    -0.237 OA
ATOM     86  O   UNL A   1      47.539  36.649  26.919  1.00  0.00    -0.237 OA
ATOM     87  O   UNL A   1      46.085  35.192  25.564  1.00  0.00    -0.744 OA
ENDBRANCH  80  84
ENDBRANCH  54  77
ENDBRANCH  28  29
ENDBRANCH  21  23
ENDBRANCH   1  21
TORSDOF 14
ENDMDL
MODEL 3
REMARK VINA RESULT:     -12.3      4.828      9.922
REMARK SMILES CC1=CC2=[NH+]C(=O)C[C@@](C)(C(=O)OCCOC(=O)c3ccc(-c4c5nc(c(-c6cc(S(=O)(=O)[O-])ccc6F)c6ccc([nH]6)c(-c6cc(S(=O)(=O)[O-])ccc6F)c6nc(c(-c7cc(S(=O)(=O)[O-])ccc7F)c7ccc4[nH]7)C=C6)C=C5)cc3)N2C=C1
REMARK SMILES IDX 16 1 15 2 14 3 13 4 11 5 12 6 9 7 1 8 2 9 3 10 84 11 4 12
REMARK SMILES IDX 83 13 5 14 82 15 6 16 7 18 8 19 10 20 17 21 18 22 19 23
REMARK SMILES IDX 20 24 81 25 21 26 80 27 22 28 23 29 24 30 74 31 25 32 79 33
REMARK SMILES IDX 73 34 75 35 26 36 78 37 72 38 71 39 27 41 59 42 39 43 58 44
REMARK SMILES IDX 40 45 43 46 57 47 76 48 41 49 42 50 56 52 77 53 44 54 28 55
REMARK SMILES IDX 29 56 37 57 30 58 36 59 38 60 35 61 31 62 32 63 33 64 34 65
REMARK SMILES IDX 60 66 61 67 69 68 62 69 68 70 70 71 67 72 63 73 64 74 65 75
REMARK SMILES IDX 66 76 45 77 46 78 54 79 47 80 53 81 55 82 52 83 48 84 49 85
REMARK SMILES IDX 50 86 51 87
REMARK H PARENT 5 17 75 40 43 51
REMARK Flexibility Score: inf
ROOT
ATOM      1  O   UNL A   1      32.145  29.571  26.431  1.00  0.00    -0.458 OA
ENDROOT
BRANCH   1   2
ATOM      2  C   UNL A   1      31.669  29.411  25.068  1.00  0.00     0.275 C 
BRANCH   2   3
ATOM      3  C   UNL A   1      32.640  28.511  24.246  1.00  0.00     0.274 C 
BRANCH   3   4
ATOM      4  O   UNL A   1      32.676  27.163  24.794  1.00  0.00    -0.459 OA
BRANCH   4   5
ATOM      5  C   UNL A   1      32.870  26.090  23.939  1.00  0.00     0.355 C 
ATOM      6  O   UNL A   1      33.743  26.056  23.086  1.00  0.00    -0.247 OA
BRANCH   5   7
ATOM      7  C   UNL A   1      31.879  24.944  24.342  1.00  0.00     0.216 C 
ATOM      8  C   UNL A   1      33.665  19.481  24.580  1.00  0.00     0.045 C 
ATOM      9  C   UNL A   1      33.407  20.912  24.202  1.00  0.00    -0.039 C 
ATOM     10  C   UNL A   1      34.093  21.874  24.843  1.00  0.00     0.102 C 
ATOM     11  C   UNL A   1      32.314  21.291  23.299  1.00  0.00     0.047 C 
ATOM     12  C   UNL A   1      33.153  22.985  25.124  1.00  0.00     0.282 C 
ATOM     13  C   UNL A   1      31.932  22.589  23.201  1.00  0.00     0.202 C 
ATOM     14  N   UNL A   1      32.837  23.129  26.375  1.00  0.00    -0.210 N 
ATOM     15  N   UNL A   1      32.427  23.565  24.086  1.00  0.00    -0.217 N 
ATOM     16  C   UNL A   1      31.731  23.892  26.598  1.00  0.00     0.312 C 
ATOM     17  H   UNL A   1      33.355  22.718  27.104  1.00  0.00     0.315 HD
ATOM     18  O   UNL A   1      30.852  23.649  27.404  1.00  0.00    -0.247 OA
ATOM     19  C   UNL A   1      31.766  25.167  25.856  1.00  0.00     0.193 C 
ATOM     20  C   UNL A   1      30.510  25.161  23.699  1.00  0.00     0.076 C 
ENDBRANCH   5   7
ENDBRANCH   4   5
ENDBRANCH   3   4
ENDBRANCH   2   3
ENDBRANCH   1   2
BRANCH   1  21
ATOM     21  C   UNL A   1      32.599  30.810  26.811  1.00  0.00     0.338 C 
ATOM     22  O   UNL A   1      31.925  31.826  26.814  1.00  0.00    -0.246 OA
BRANCH  21  23
ATOM     23  C   UNL A   1      34.016  30.731  27.321  1.00  0.00     0.060 A 
ATOM     24  C   UNL A   1      34.579  29.492  27.552  1.00  0.00     0.016 A 
ATOM     25  C   UNL A   1      34.769  31.852  27.713  1.00  0.00     0.016 A 
ATOM     26  C   UNL A   1      35.758  29.383  28.295  1.00  0.00     0.010 A 
ATOM     27  C   UNL A   1      36.041  31.712  28.358  1.00  0.00     0.010 A 
ATOM     28  C   UNL A   1      36.551  30.454  28.715  1.00  0.00    -0.014 A 
BRANCH  28  29
ATOM     29  C   UNL A   1      37.798  30.162  29.557  1.00  0.00     0.031 A 
ATOM     30  C   UNL A   1      38.990  29.404  28.989  1.00  0.00     0.074 A 
ATOM     31  C   UNL A   1      37.972  30.687  30.802  1.00  0.00     0.049 A 
ATOM     32  N   UNL A   1      40.041  28.915  29.611  1.00  0.00    -0.248 NA
ATOM     33  C   UNL A   1      39.006  29.168  27.540  1.00  0.00     0.031 C 
ATOM     34  C   UNL A   1      37.015  31.540  31.513  1.00  0.00     0.029 A 
ATOM     35  N   UNL A   1      39.042  30.640  31.682  1.00  0.00    -0.354 N 
ATOM     36  C   UNL A   1      40.792  28.238  28.648  1.00  0.00     0.074 A 
ATOM     37  C   UNL A   1      40.082  28.405  27.395  1.00  0.00     0.031 C 
ATOM     38  C   UNL A   1      37.588  32.053  32.609  1.00  0.00     0.029 A 
ATOM     39  C   UNL A   1      38.868  31.399  32.826  1.00  0.00     0.049 A 
ATOM     40  H   UNL A   1      39.855  30.112  31.508  1.00  0.00     0.167 HD
ATOM     41  C   UNL A   1      41.947  27.532  28.795  1.00  0.00     0.034 A 
ATOM     42  C   UNL A   1      39.586  31.511  33.968  1.00  0.00     0.034 A 
ATOM     43  C   UNL A   1      42.696  27.426  30.031  1.00  0.00     0.049 A 
ATOM     44  C   UNL A   1      40.808  30.644  34.144  1.00  0.00     0.074 A 
ATOM     45  C   UNL A   1      43.832  26.673  30.292  1.00  0.00     0.029 A 
ATOM     46  N   UNL A   1      42.410  28.112  31.204  1.00  0.00    -0.354 N 
ATOM     47  N   UNL A   1      41.392  29.849  33.280  1.00  0.00    -0.248 NA
ATOM     48  C   UNL A   1      41.445  30.661  35.469  1.00  0.00     0.031 C 
ATOM     49  C   UNL A   1      44.184  26.845  31.637  1.00  0.00     0.029 A 
ATOM     50  C   UNL A   1      43.328  27.778  32.194  1.00  0.00     0.049 A 
ATOM     51  H   UNL A   1      41.664  28.744  31.317  1.00  0.00     0.167 HD
ATOM     52  C   UNL A   1      42.465  29.276  33.959  1.00  0.00     0.074 A 
ATOM     53  C   UNL A   1      42.479  29.857  35.284  1.00  0.00     0.031 C 
ATOM     54  C   UNL A   1      43.347  28.339  33.525  1.00  0.00     0.034 A 
BRANCH  41  55
ATOM     55  C   UNL A   1      42.408  26.703  27.611  1.00  0.00     0.023 A 
ATOM     56  C   UNL A   1      41.996  25.377  27.394  1.00  0.00     0.031 A 
ATOM     57  C   UNL A   1      43.325  27.261  26.697  1.00  0.00     0.131 A 
ATOM     58  C   UNL A   1      42.566  24.632  26.345  1.00  0.00     0.055 A 
ATOM     59  C   UNL A   1      43.819  26.543  25.607  1.00  0.00     0.041 A 
ATOM     60  F   UNL A   1      43.771  28.518  26.858  1.00  0.00    -0.206 F 
ATOM     61  C   UNL A   1      43.455  25.213  25.437  1.00  0.00     0.022 A 
BRANCH  58  62
ATOM     62  S   UNL A   1      42.263  22.843  26.281  1.00  0.00     0.124 S 
ATOM     63  O   UNL A   1      40.818  22.782  26.483  1.00  0.00    -0.237 OA
ATOM     64  O   UNL A   1      42.740  22.489  24.949  1.00  0.00    -0.237 OA
ATOM     65  O   UNL A   1      43.062  22.319  27.388  1.00  0.00    -0.744 OA
ENDBRANCH  58  62
ENDBRANCH  41  55
BRANCH  42  66
ATOM     66  C   UNL A   1      39.111  32.365  35.113  1.00  0.00     0.023 A 
ATOM     67  C   UNL A   1      39.575  33.681  35.293  1.00  0.00     0.031 A 
ATOM     68  C   UNL A   1      38.264  31.840  36.109  1.00  0.00     0.131 A 
ATOM     69  C   UNL A   1      39.229  34.399  36.452  1.00  0.00     0.055 A 
ATOM     70  C   UNL A   1      37.850  32.589  37.211  1.00  0.00     0.041 A 
ATOM     71  F   UNL A   1      37.814  30.577  36.026  1.00  0.00    -0.206 F 
ATOM     72  C   UNL A   1      38.349  33.872  37.398  1.00  0.00     0.022 A 
BRANCH  69  73
ATOM     73  S   UNL A   1      40.046  35.988  36.780  1.00  0.00     0.124 S 
ATOM     74  O   UNL A   1      41.434  35.576  36.949  1.00  0.00    -0.237 OA
ATOM     75  O   UNL A   1      39.742  36.743  35.569  1.00  0.00    -0.237 OA
ATOM     76  O   UNL A   1      39.384  36.467  37.992  1.00  0.00    -0.744 OA
ENDBRANCH  69  73
ENDBRANCH  42  66
BRANCH  54  77
ATOM     77  C   UNL A   1      44.434  27.920  34.492  1.00  0.00     0.023 A 
ATOM     78  C   UNL A   1      44.184  27.027  35.552  1.00  0.00     0.031 A 
ATOM     79  C   UNL A   1      45.726  28.468  34.391  1.00  0.00     0.131 A 
ATOM     80  C   UNL A   1      45.178  26.777  36.511  1.00  0.00     0.055 A 
ATOM     81  C   UNL A   1      46.735  28.154  35.304  1.00  0.00     0.041 A 
ATOM     82  F   UNL A   1      46.027  29.333  33.409  1.00  0.00    -0.206 F 
ATOM     83  C   UNL A   1      46.458  27.320  36.384  1.00  0.00     0.022 A 
BRANCH  80  84
ATOM     84  S   UNL A   1      44.734  25.848  38.007  1.00  0.00     0.124 S 
ATOM     85  O   UNL A   1      44.759  24.470  37.527  1.00  0.00    -0.237 OA
ATOM     86  O   UNL A   1      45.798  26.220  38.933  1.00  0.00    -0.237 OA
ATOM     87  O   UNL A   1      43.408  26.362  38.348  1.00  0.00    -0.744 OA
ENDBRANCH  80  84
ENDBRANCH  54  77
ENDBRANCH  28  29
ENDBRANCH  21  23
ENDBRANCH   1  21
TORSDOF 14
ENDMDL
