MODEL 1
REMARK VINA RESULT:     -11.5      0.000      0.000
REMARK SMILES C[NH+](C)[C@@H]1CC[N@@H+](Cc2ccc(C(=O)OCCOC(=O)c3ccc(-c4c5nc(c(-c6cc(S(=O)(=O)[O-])ccc6F)c6ccc([nH]6)c(-c6cc(S(=O)(=O)[O-])ccc6F)c6nc(c(-c7cc(S(=O)(=O)[O-])ccc7F)c7ccc4[nH]7)C=C6)C=C5)cc3)cn2)C1
REMARK SMILES IDX 16 1 15 2 13 3 14 4 12 5 9 6 10 7 85 8 11 9 84 10 8 11 7 12
REMARK SMILES IDX 4 13 5 14 86 15 6 16 2 18 1 19 3 20 17 22 18 23 19 24 20 25
REMARK SMILES IDX 21 26 22 27 83 28 23 29 82 30 24 31 25 32 26 33 76 34 27 35
REMARK SMILES IDX 81 36 75 37 77 38 28 39 80 40 74 41 73 42 29 44 61 45 41 46
REMARK SMILES IDX 60 47 42 48 45 49 59 50 78 51 43 52 44 53 58 55 79 56 46 57
REMARK SMILES IDX 30 58 31 59 39 60 32 61 38 62 40 63 37 64 33 65 34 66 35 67
REMARK SMILES IDX 36 68 62 69 63 70 71 71 64 72 70 73 72 74 69 75 65 76 66 77
REMARK SMILES IDX 67 78 68 79 47 80 48 81 56 82 49 83 55 84 57 85 54 86 50 87
REMARK SMILES IDX 51 88 52 89 53 90
REMARK H PARENT 7 17 2 21 77 43 45 54
REMARK Flexibility Score: inf
ROOT
ATOM      1  C   UNL A   1      31.533  29.708  24.594  1.00  0.00     0.275 C 
ENDROOT
BRANCH   1   2
ATOM      2  O   UNL A   1      30.239  29.544  23.985  1.00  0.00    -0.458 OA
BRANCH   2   3
ATOM      3  C   UNL A   1      30.201  28.716  22.915  1.00  0.00     0.339 C 
ATOM      4  O   UNL A   1      29.956  29.037  21.762  1.00  0.00    -0.246 OA
BRANCH   3   5
ATOM      5  C   UNL A   1      30.556  27.340  23.298  1.00  0.00     0.078 A 
ATOM      6  C   UNL A   1      31.041  24.658  23.622  1.00  0.00     0.095 A 
ATOM      7  C   UNL A   1      30.267  25.327  24.572  1.00  0.00     0.031 A 
ATOM      8  N   UNL A   1      31.655  25.302  22.606  1.00  0.00    -0.254 NA
ATOM      9  C   UNL A   1      30.025  26.691  24.409  1.00  0.00     0.019 A 
ATOM     10  C   UNL A   1      31.378  26.612  22.452  1.00  0.00     0.127 A 
BRANCH   6  11
ATOM     11  C   UNL A   1      31.025  23.145  23.534  1.00  0.00     0.319 C 
BRANCH  11  12
ATOM     12  N   UNL A   1      32.274  22.504  23.063  1.00  0.00    -0.325 N 
ATOM     13  C   UNL A   1      33.087  20.688  24.487  1.00  0.00     0.245 C 
ATOM     14  C   UNL A   1      32.306  20.092  23.304  1.00  0.00     0.132 C 
ATOM     15  C   UNL A   1      33.264  22.182  24.099  1.00  0.00     0.328 C 
ATOM     16  C   UNL A   1      32.056  21.246  22.341  1.00  0.00     0.269 C 
ATOM     17  H   UNL A   1      32.637  23.241  22.456  1.00  0.00     0.348 HD
BRANCH  13  18
ATOM     18  N   UNL A   1      34.239  19.934  25.037  1.00  0.00    -0.333 N 
ATOM     19  C   UNL A   1      34.374  18.572  24.522  1.00  0.00     0.332 C 
ATOM     20  C   UNL A   1      35.515  20.630  25.001  1.00  0.00     0.332 C 
ATOM     21  H   UNL A   1      33.984  19.860  26.022  1.00  0.00     0.348 HD
ENDBRANCH  13  18
ENDBRANCH  11  12
ENDBRANCH   6  11
ENDBRANCH   3   5
ENDBRANCH   2   3
ENDBRANCH   1   2
BRANCH   1  22
ATOM     22  C   UNL A   1      31.415  30.508  25.892  1.00  0.00     0.275 C 
BRANCH  22  23
ATOM     23  O   UNL A   1      32.591  30.345  26.709  1.00  0.00    -0.458 OA
BRANCH  23  24
ATOM     24  C   UNL A   1      33.140  31.499  27.157  1.00  0.00     0.338 C 
ATOM     25  O   UNL A   1      32.591  32.583  27.259  1.00  0.00    -0.246 OA
BRANCH  24  26
ATOM     26  C   UNL A   1      34.514  31.262  27.621  1.00  0.00     0.060 A 
ATOM     27  C   UNL A   1      34.888  29.954  27.908  1.00  0.00     0.016 A 
ATOM     28  C   UNL A   1      35.362  32.314  27.951  1.00  0.00     0.016 A 
ATOM     29  C   UNL A   1      36.038  29.692  28.640  1.00  0.00     0.010 A 
ATOM     30  C   UNL A   1      36.591  32.036  28.566  1.00  0.00     0.010 A 
ATOM     31  C   UNL A   1      36.928  30.724  28.956  1.00  0.00    -0.014 A 
BRANCH  31  32
ATOM     32  C   UNL A   1      38.189  30.428  29.701  1.00  0.00     0.031 A 
ATOM     33  C   UNL A   1      39.253  29.559  29.079  1.00  0.00     0.074 A 
ATOM     34  C   UNL A   1      38.393  30.945  30.931  1.00  0.00     0.049 A 
ATOM     35  N   UNL A   1      40.318  29.028  29.625  1.00  0.00    -0.248 NA
ATOM     36  C   UNL A   1      39.085  29.230  27.656  1.00  0.00     0.031 C 
ATOM     37  C   UNL A   1      37.482  31.855  31.631  1.00  0.00     0.029 A 
ATOM     38  N   UNL A   1      39.434  30.791  31.814  1.00  0.00    -0.354 N 
ATOM     39  C   UNL A   1      40.918  28.262  28.629  1.00  0.00     0.074 A 
ATOM     40  C   UNL A   1      40.078  28.376  27.455  1.00  0.00     0.031 C 
ATOM     41  C   UNL A   1      38.023  32.214  32.803  1.00  0.00     0.029 A 
ATOM     42  C   UNL A   1      39.259  31.469  32.999  1.00  0.00     0.049 A 
ATOM     43  H   UNL A   1      40.231  30.246  31.616  1.00  0.00     0.167 HD
ATOM     44  C   UNL A   1      42.063  27.534  28.691  1.00  0.00     0.034 A 
ATOM     45  C   UNL A   1      39.975  31.455  34.141  1.00  0.00     0.034 A 
ATOM     46  C   UNL A   1      42.902  27.461  29.867  1.00  0.00     0.049 A 
ATOM     47  C   UNL A   1      41.187  30.565  34.220  1.00  0.00     0.074 A 
ATOM     48  C   UNL A   1      44.085  26.762  30.040  1.00  0.00     0.029 A 
ATOM     49  N   UNL A   1      42.651  28.112  31.069  1.00  0.00    -0.354 N 
ATOM     50  N   UNL A   1      41.708  29.792  33.295  1.00  0.00    -0.248 NA
ATOM     51  C   UNL A   1      41.901  30.536  35.503  1.00  0.00     0.031 C 
ATOM     52  C   UNL A   1      44.504  26.927  31.365  1.00  0.00     0.029 A 
ATOM     53  C   UNL A   1      43.636  27.802  31.997  1.00  0.00     0.049 A 
ATOM     54  H   UNL A   1      41.884  28.706  31.239  1.00  0.00     0.167 HD
ATOM     55  C   UNL A   1      42.828  29.207  33.877  1.00  0.00     0.074 A 
ATOM     56  C   UNL A   1      42.915  29.730  35.225  1.00  0.00     0.031 C 
ATOM     57  C   UNL A   1      43.707  28.322  33.343  1.00  0.00     0.034 A 
BRANCH  44  58
ATOM     58  C   UNL A   1      42.436  26.712  27.477  1.00  0.00     0.023 A 
ATOM     59  C   UNL A   1      42.043  25.370  27.331  1.00  0.00     0.031 A 
ATOM     60  C   UNL A   1      43.239  27.272  26.465  1.00  0.00     0.131 A 
ATOM     61  C   UNL A   1      42.521  24.612  26.249  1.00  0.00     0.055 A 
ATOM     62  C   UNL A   1      43.633  26.539  25.343  1.00  0.00     0.041 A 
ATOM     63  F   UNL A   1      43.667  28.541  26.554  1.00  0.00    -0.206 F 
ATOM     64  C   UNL A   1      43.290  25.195  25.239  1.00  0.00     0.022 A 
BRANCH  61  65
ATOM     65  S   UNL A   1      42.265  22.817  26.268  1.00  0.00     0.124 S 
ATOM     66  O   UNL A   1      40.835  22.726  26.554  1.00  0.00    -0.237 OA
ATOM     67  O   UNL A   1      42.676  22.425  24.925  1.00  0.00    -0.237 OA
ATOM     68  O   UNL A   1      43.138  22.357  27.347  1.00  0.00    -0.744 OA
ENDBRANCH  61  65
ENDBRANCH  44  58
BRANCH  45  69
ATOM     69  C   UNL A   1      39.532  32.251  35.323  1.00  0.00     0.023 A 
ATOM     70  C   UNL A   1      38.810  31.652  36.367  1.00  0.00     0.031 A 
ATOM     71  C   UNL A   1      39.787  33.633  35.409  1.00  0.00     0.131 A 
ATOM     72  C   UNL A   1      38.334  32.437  37.429  1.00  0.00     0.055 A 
ATOM     73  C   UNL A   1      39.370  34.396  36.501  1.00  0.00     0.041 A 
ATOM     74  F   UNL A   1      40.467  34.261  34.436  1.00  0.00    -0.206 F 
ATOM     75  C   UNL A   1      38.626  33.801  37.512  1.00  0.00     0.022 A 
BRANCH  72  76
ATOM     76  S   UNL A   1      37.239  31.668  38.653  1.00  0.00     0.124 S 
ATOM     77  O   UNL A   1      36.059  32.522  38.572  1.00  0.00    -0.237 OA
ATOM     78  O   UNL A   1      37.093  30.317  38.124  1.00  0.00    -0.237 OA
ATOM     79  O   UNL A   1      37.998  31.770  39.898  1.00  0.00    -0.744 OA
ENDBRANCH  72  76
ENDBRANCH  45  69
BRANCH  57  80
ATOM     80  C   UNL A   1      44.872  27.908  34.211  1.00  0.00     0.023 A 
ATOM     81  C   UNL A   1      44.840  26.740  34.991  1.00  0.00     0.031 A 
ATOM     82  C   UNL A   1      46.024  28.713  34.271  1.00  0.00     0.131 A 
ATOM     83  C   UNL A   1      45.914  26.439  35.843  1.00  0.00     0.055 A 
ATOM     84  C   UNL A   1      47.118  28.373  35.068  1.00  0.00     0.041 A 
ATOM     85  F   UNL A   1      46.107  29.845  33.553  1.00  0.00    -0.206 F 
ATOM     86  C   UNL A   1      47.060  27.238  35.872  1.00  0.00     0.022 A 
BRANCH  83  87
ATOM     87  S   UNL A   1      45.751  25.046  36.993  1.00  0.00     0.124 S 
ATOM     88  O   UNL A   1      45.776  25.719  38.289  1.00  0.00    -0.237 OA
ATOM     89  O   UNL A   1      44.470  24.465  36.602  1.00  0.00    -0.237 OA
ATOM     90  O   UNL A   1      46.921  24.221  36.701  1.00  0.00    -0.744 OA
ENDBRANCH  83  87
ENDBRANCH  57  80
ENDBRANCH  31  32
ENDBRANCH  24  26
ENDBRANCH  23  24
ENDBRANCH  22  23
ENDBRANCH   1  22
TORSDOF 17
ENDMDL
MODEL 2
REMARK VINA RESULT:     -11.4      5.146     10.344
REMARK SMILES C[NH+](C)[C@@H]1CC[N@@H+](Cc2ccc(C(=O)OCCOC(=O)c3ccc(-c4c5nc(c(-c6cc(S(=O)(=O)[O-])ccc6F)c6ccc([nH]6)c(-c6cc(S(=O)(=O)[O-])ccc6F)c6nc(c(-c7cc(S(=O)(=O)[O-])ccc7F)c7ccc4[nH]7)C=C6)C=C5)cc3)cn2)C1
REMARK SMILES IDX 16 1 15 2 13 3 14 4 12 5 9 6 10 7 85 8 11 9 84 10 8 11 7 12
REMARK SMILES IDX 4 13 5 14 86 15 6 16 2 18 1 19 3 20 17 22 18 23 19 24 20 25
REMARK SMILES IDX 21 26 22 27 83 28 23 29 82 30 24 31 25 32 26 33 76 34 27 35
REMARK SMILES IDX 81 36 75 37 77 38 28 39 80 40 74 41 73 42 29 44 61 45 41 46
REMARK SMILES IDX 60 47 42 48 45 49 59 50 78 51 43 52 44 53 58 55 79 56 46 57
REMARK SMILES IDX 30 58 31 59 39 60 32 61 38 62 40 63 37 64 33 65 34 66 35 67
REMARK SMILES IDX 36 68 62 69 63 70 71 71 64 72 70 73 72 74 69 75 65 76 66 77
REMARK SMILES IDX 67 78 68 79 47 80 48 81 56 82 49 83 55 84 57 85 54 86 50 87
REMARK SMILES IDX 51 88 52 89 53 90
REMARK H PARENT 7 17 2 21 77 43 45 54
REMARK Flexibility Score: inf
ROOT
ATOM      1  C   UNL A   1      35.141  20.976  24.604  1.00  0.00     0.275 C 
ENDROOT
BRANCH   1   2
ATOM      2  O   UNL A   1      35.009  22.397  24.793  1.00  0.00    -0.458 OA
BRANCH   2   3
ATOM      3  C   UNL A   1      35.068  23.141  23.664  1.00  0.00     0.339 C 
ATOM      4  O   UNL A   1      35.874  23.010  22.755  1.00  0.00    -0.246 OA
BRANCH   3   5
ATOM      5  C   UNL A   1      33.979  24.129  23.624  1.00  0.00     0.078 A 
ATOM      6  C   UNL A   1      32.001  25.961  23.108  1.00  0.00     0.095 A 
ATOM      7  C   UNL A   1      33.065  26.327  23.936  1.00  0.00     0.031 A 
ATOM      8  N   UNL A   1      31.848  24.704  22.639  1.00  0.00    -0.254 NA
ATOM      9  C   UNL A   1      34.067  25.393  24.200  1.00  0.00     0.019 A 
ATOM     10  C   UNL A   1      32.846  23.831  22.882  1.00  0.00     0.127 A 
BRANCH   6  11
ATOM     11  C   UNL A   1      31.104  27.013  22.487  1.00  0.00     0.319 C 
BRANCH  11  12
ATOM     12  N   UNL A   1      30.377  27.893  23.431  1.00  0.00    -0.325 N 
ATOM     13  C   UNL A   1      29.200  29.764  22.380  1.00  0.00     0.245 C 
ATOM     14  C   UNL A   1      28.204  28.621  22.639  1.00  0.00     0.132 C 
ATOM     15  C   UNL A   1      30.468  29.335  23.169  1.00  0.00     0.328 C 
ATOM     16  C   UNL A   1      28.940  27.612  23.512  1.00  0.00     0.269 C 
ATOM     17  H   UNL A   1      30.865  27.668  24.299  1.00  0.00     0.348 HD
BRANCH  13  18
ATOM     18  N   UNL A   1      28.723  31.164  22.469  1.00  0.00    -0.333 N 
ATOM     19  C   UNL A   1      28.313  31.748  21.193  1.00  0.00     0.332 C 
ATOM     20  C   UNL A   1      27.727  31.420  23.498  1.00  0.00     0.332 C 
ATOM     21  H   UNL A   1      29.568  31.650  22.766  1.00  0.00     0.348 HD
ENDBRANCH  13  18
ENDBRANCH  11  12
ENDBRANCH   6  11
ENDBRANCH   3   5
ENDBRANCH   2   3
ENDBRANCH   1   2
BRANCH   1  22
ATOM     22  C   UNL A   1      36.550  20.515  24.982  1.00  0.00     0.275 C 
BRANCH  22  23
ATOM     23  O   UNL A   1      37.246  21.532  25.727  1.00  0.00    -0.458 OA
BRANCH  23  24
ATOM     24  C   UNL A   1      38.563  21.294  25.928  1.00  0.00     0.338 C 
ATOM     25  O   UNL A   1      39.198  20.320  25.560  1.00  0.00    -0.246 OA
BRANCH  24  26
ATOM     26  C   UNL A   1      39.193  22.445  26.590  1.00  0.00     0.060 A 
ATOM     27  C   UNL A   1      38.756  23.717  26.239  1.00  0.00     0.016 A 
ATOM     28  C   UNL A   1      40.316  22.294  27.397  1.00  0.00     0.016 A 
ATOM     29  C   UNL A   1      39.504  24.838  26.573  1.00  0.00     0.010 A 
ATOM     30  C   UNL A   1      40.991  23.437  27.851  1.00  0.00     0.010 A 
ATOM     31  C   UNL A   1      40.618  24.724  27.412  1.00  0.00    -0.014 A 
BRANCH  31  32
ATOM     32  C   UNL A   1      41.390  25.941  27.808  1.00  0.00     0.031 A 
ATOM     33  C   UNL A   1      40.738  27.015  28.642  1.00  0.00     0.074 A 
ATOM     34  C   UNL A   1      42.679  26.082  27.436  1.00  0.00     0.049 A 
ATOM     35  N   UNL A   1      41.163  28.221  28.924  1.00  0.00    -0.248 NA
ATOM     36  C   UNL A   1      39.424  26.695  29.218  1.00  0.00     0.031 C 
ATOM     37  C   UNL A   1      43.460  25.094  26.686  1.00  0.00     0.029 A 
ATOM     38  N   UNL A   1      43.570  27.108  27.641  1.00  0.00    -0.354 N 
ATOM     39  C   UNL A   1      40.149  28.821  29.666  1.00  0.00     0.074 A 
ATOM     40  C   UNL A   1      39.077  27.852  29.761  1.00  0.00     0.031 C 
ATOM     41  C   UNL A   1      44.716  25.537  26.539  1.00  0.00     0.029 A 
ATOM     42  C   UNL A   1      44.805  26.889  27.073  1.00  0.00     0.049 A 
ATOM     43  H   UNL A   1      43.346  27.922  28.148  1.00  0.00     0.167 HD
ATOM     44  C   UNL A   1      40.120  30.062  30.216  1.00  0.00     0.034 A 
ATOM     45  C   UNL A   1      45.874  27.700  26.939  1.00  0.00     0.034 A 
ATOM     46  C   UNL A   1      41.216  31.001  30.132  1.00  0.00     0.049 A 
ATOM     47  C   UNL A   1      45.783  29.105  27.471  1.00  0.00     0.074 A 
ATOM     48  C   UNL A   1      41.299  32.280  30.656  1.00  0.00     0.029 A 
ATOM     49  N   UNL A   1      42.425  30.762  29.488  1.00  0.00    -0.354 N 
ATOM     50  N   UNL A   1      44.794  29.685  28.111  1.00  0.00    -0.248 NA
ATOM     51  C   UNL A   1      46.948  29.971  27.249  1.00  0.00     0.031 C 
ATOM     52  C   UNL A   1      42.519  32.840  30.263  1.00  0.00     0.029 A 
ATOM     53  C   UNL A   1      43.241  31.881  29.571  1.00  0.00     0.049 A 
ATOM     54  H   UNL A   1      42.666  29.921  29.037  1.00  0.00     0.167 HD
ATOM     55  C   UNL A   1      45.231  30.975  28.395  1.00  0.00     0.074 A 
ATOM     56  C   UNL A   1      46.577  31.081  27.870  1.00  0.00     0.031 C 
ATOM     57  C   UNL A   1      44.579  31.979  29.035  1.00  0.00     0.034 A 
BRANCH  44  58
ATOM     58  C   UNL A   1      38.839  30.496  30.896  1.00  0.00     0.023 A 
ATOM     59  C   UNL A   1      37.747  31.013  30.178  1.00  0.00     0.031 A 
ATOM     60  C   UNL A   1      38.727  30.429  32.298  1.00  0.00     0.131 A 
ATOM     61  C   UNL A   1      36.631  31.520  30.865  1.00  0.00     0.055 A 
ATOM     62  C   UNL A   1      37.576  30.849  32.969  1.00  0.00     0.041 A 
ATOM     63  F   UNL A   1      39.742  29.966  33.045  1.00  0.00    -0.206 F 
ATOM     64  C   UNL A   1      36.527  31.416  32.254  1.00  0.00     0.022 A 
BRANCH  61  65
ATOM     65  S   UNL A   1      35.398  32.470  29.934  1.00  0.00     0.124 S 
ATOM     66  O   UNL A   1      36.150  33.675  29.593  1.00  0.00    -0.237 OA
ATOM     67  O   UNL A   1      35.082  31.577  28.826  1.00  0.00    -0.237 OA
ATOM     68  O   UNL A   1      34.320  32.671  30.900  1.00  0.00    -0.744 OA
ENDBRANCH  61  65
ENDBRANCH  44  58
BRANCH  45  69
ATOM     69  C   UNL A   1      47.093  27.233  26.216  1.00  0.00     0.023 A 
ATOM     70  C   UNL A   1      48.085  26.493  26.878  1.00  0.00     0.031 A 
ATOM     71  C   UNL A   1      47.306  27.555  24.862  1.00  0.00     0.131 A 
ATOM     72  C   UNL A   1      49.261  26.135  26.199  1.00  0.00     0.055 A 
ATOM     73  C   UNL A   1      48.446  27.138  24.173  1.00  0.00     0.041 A 
ATOM     74  F   UNL A   1      46.395  28.267  24.180  1.00  0.00    -0.206 F 
ATOM     75  C   UNL A   1      49.438  26.435  24.846  1.00  0.00     0.022 A 
BRANCH  72  76
ATOM     76  S   UNL A   1      50.601  25.355  27.138  1.00  0.00     0.124 S 
ATOM     77  O   UNL A   1      51.027  26.446  28.008  1.00  0.00    -0.237 OA
ATOM     78  O   UNL A   1      49.911  24.247  27.788  1.00  0.00    -0.237 OA
ATOM     79  O   UNL A   1      51.561  24.970  26.105  1.00  0.00    -0.744 OA
ENDBRANCH  72  76
ENDBRANCH  45  69
BRANCH  57  80
ATOM     80  C   UNL A   1      45.346  33.263  29.248  1.00  0.00     0.023 A 
ATOM     81  C   UNL A   1      45.377  34.280  28.279  1.00  0.00     0.031 A 
ATOM     82  C   UNL A   1      46.073  33.459  30.436  1.00  0.00     0.131 A 
ATOM     83  C   UNL A   1      46.167  35.420  28.488  1.00  0.00     0.055 A 
ATOM     84  C   UNL A   1      46.803  34.625  30.668  1.00  0.00     0.041 A 
ATOM     85  F   UNL A   1      46.086  32.518  31.394  1.00  0.00    -0.206 F 
ATOM     86  C   UNL A   1      46.865  35.608  29.684  1.00  0.00     0.022 A 
BRANCH  83  87
ATOM     87  S   UNL A   1      46.358  36.610  27.131  1.00  0.00     0.124 S 
ATOM     88  O   UNL A   1      45.182  37.457  27.304  1.00  0.00    -0.237 OA
ATOM     89  O   UNL A   1      47.642  37.232  27.440  1.00  0.00    -0.237 OA
ATOM     90  O   UNL A   1      46.347  35.771  25.935  1.00  0.00    -0.744 OA
ENDBRANCH  83  87
ENDBRANCH  57  80
ENDBRANCH  31  32
ENDBRANCH  24  26
ENDBRANCH  23  24
ENDBRANCH  22  23
ENDBRANCH   1  22
TORSDOF 17
ENDMDL
MODEL 3
REMARK VINA RESULT:     -11.3      1.311      1.890
REMARK SMILES C[NH+](C)[C@@H]1CC[N@@H+](Cc2ccc(C(=O)OCCOC(=O)c3ccc(-c4c5nc(c(-c6cc(S(=O)(=O)[O-])ccc6F)c6ccc([nH]6)c(-c6cc(S(=O)(=O)[O-])ccc6F)c6nc(c(-c7cc(S(=O)(=O)[O-])ccc7F)c7ccc4[nH]7)C=C6)C=C5)cc3)cn2)C1
REMARK SMILES IDX 16 1 15 2 13 3 14 4 12 5 9 6 10 7 85 8 11 9 84 10 8 11 7 12
REMARK SMILES IDX 4 13 5 14 86 15 6 16 2 18 1 19 3 20 17 22 18 23 19 24 20 25
REMARK SMILES IDX 21 26 22 27 83 28 23 29 82 30 24 31 25 32 26 33 76 34 27 35
REMARK SMILES IDX 81 36 75 37 77 38 28 39 80 40 74 41 73 42 29 44 61 45 41 46
REMARK SMILES IDX 60 47 42 48 45 49 59 50 78 51 43 52 44 53 58 55 79 56 46 57
REMARK SMILES IDX 30 58 31 59 39 60 32 61 38 62 40 63 37 64 33 65 34 66 35 67
REMARK SMILES IDX 36 68 62 69 63 70 71 71 64 72 70 73 72 74 69 75 65 76 66 77
REMARK SMILES IDX 67 78 68 79 47 80 48 81 56 82 49 83 55 84 57 85 54 86 50 87
REMARK SMILES IDX 51 88 52 89 53 90
REMARK H PARENT 7 17 2 21 77 43 45 54
REMARK Flexibility Score: inf
ROOT
ATOM      1  C   UNL A   1      31.616  28.901  25.267  1.00  0.00     0.275 C 
ENDROOT
BRANCH   1   2
ATOM      2  O   UNL A   1      32.519  27.822  25.571  1.00  0.00    -0.458 OA
BRANCH   2   3
ATOM      3  C   UNL A   1      32.015  26.849  26.364  1.00  0.00     0.339 C 
ATOM      4  O   UNL A   1      31.187  26.996  27.251  1.00  0.00    -0.246 OA
BRANCH   3   5
ATOM      5  C   UNL A   1      32.553  25.531  25.992  1.00  0.00     0.078 A 
ATOM      6  C   UNL A   1      33.529  22.979  25.730  1.00  0.00     0.095 A 
ATOM      7  C   UNL A   1      34.310  24.052  25.295  1.00  0.00     0.031 A 
ATOM      8  N   UNL A   1      32.264  23.139  26.173  1.00  0.00    -0.254 NA
ATOM      9  C   UNL A   1      33.811  25.348  25.424  1.00  0.00     0.019 A 
ATOM     10  C   UNL A   1      31.818  24.402  26.319  1.00  0.00     0.127 A 
BRANCH   6  11
ATOM     11  C   UNL A   1      34.146  21.615  25.965  1.00  0.00     0.319 C 
BRANCH  11  12
ATOM     12  N   UNL A   1      34.389  20.790  24.760  1.00  0.00    -0.325 N 
ATOM     13  C   UNL A   1      33.541  18.499  24.905  1.00  0.00     0.245 C 
ATOM     14  C   UNL A   1      32.528  19.365  24.138  1.00  0.00     0.132 C 
ATOM     15  C   UNL A   1      34.802  19.401  25.001  1.00  0.00     0.328 C 
ATOM     16  C   UNL A   1      33.229  20.691  23.868  1.00  0.00     0.269 C 
ATOM     17  H   UNL A   1      35.159  21.310  24.337  1.00  0.00     0.348 HD
BRANCH  13  18
ATOM     18  N   UNL A   1      33.689  17.072  24.532  1.00  0.00    -0.333 N 
ATOM     19  C   UNL A   1      33.510  16.795  23.108  1.00  0.00     0.332 C 
ATOM     20  C   UNL A   1      34.884  16.415  25.041  1.00  0.00     0.332 C 
ATOM     21  H   UNL A   1      32.903  16.649  25.024  1.00  0.00     0.348 HD
ENDBRANCH  13  18
ENDBRANCH  11  12
ENDBRANCH   6  11
ENDBRANCH   3   5
ENDBRANCH   2   3
ENDBRANCH   1   2
BRANCH   1  22
ATOM     22  C   UNL A   1      32.287  30.251  25.527  1.00  0.00     0.275 C 
BRANCH  22  23
ATOM     23  O   UNL A   1      32.432  30.493  26.940  1.00  0.00    -0.458 OA
BRANCH  23  24
ATOM     24  C   UNL A   1      33.094  31.629  27.260  1.00  0.00     0.338 C 
ATOM     25  O   UNL A   1      32.645  32.762  27.272  1.00  0.00    -0.246 OA
BRANCH  24  26
ATOM     26  C   UNL A   1      34.458  31.314  27.708  1.00  0.00     0.060 A 
ATOM     27  C   UNL A   1      34.747  29.995  28.037  1.00  0.00     0.016 A 
ATOM     28  C   UNL A   1      35.383  32.316  27.982  1.00  0.00     0.016 A 
ATOM     29  C   UNL A   1      35.892  29.680  28.757  1.00  0.00     0.010 A 
ATOM     30  C   UNL A   1      36.603  31.976  28.585  1.00  0.00     0.010 A 
ATOM     31  C   UNL A   1      36.857  30.658  29.018  1.00  0.00    -0.014 A 
BRANCH  31  32
ATOM     32  C   UNL A   1      38.110  30.303  29.751  1.00  0.00     0.031 A 
ATOM     33  C   UNL A   1      39.112  29.363  29.130  1.00  0.00     0.074 A 
ATOM     34  C   UNL A   1      38.362  30.830  30.968  1.00  0.00     0.049 A 
ATOM     35  N   UNL A   1      40.153  28.780  29.672  1.00  0.00    -0.248 NA
ATOM     36  C   UNL A   1      38.904  29.018  27.716  1.00  0.00     0.031 C 
ATOM     37  C   UNL A   1      37.515  31.803  31.663  1.00  0.00     0.029 A 
ATOM     38  N   UNL A   1      39.405  30.630  31.839  1.00  0.00    -0.354 N 
ATOM     39  C   UNL A   1      40.692  27.963  28.682  1.00  0.00     0.074 A 
ATOM     40  C   UNL A   1      39.842  28.105  27.518  1.00  0.00     0.031 C 
ATOM     41  C   UNL A   1      38.094  32.150  32.821  1.00  0.00     0.029 A 
ATOM     42  C   UNL A   1      39.288  31.338  33.013  1.00  0.00     0.049 A 
ATOM     43  H   UNL A   1      40.166  30.036  31.641  1.00  0.00     0.167 HD
ATOM     44  C   UNL A   1      41.794  27.171  28.741  1.00  0.00     0.034 A 
ATOM     45  C   UNL A   1      40.019  31.303  34.146  1.00  0.00     0.034 A 
ATOM     46  C   UNL A   1      42.644  27.070  29.906  1.00  0.00     0.049 A 
ATOM     47  C   UNL A   1      41.178  30.346  34.225  1.00  0.00     0.074 A 
ATOM     48  C   UNL A   1      43.787  26.306  30.076  1.00  0.00     0.029 A 
ATOM     49  N   UNL A   1      42.450  27.756  31.100  1.00  0.00    -0.354 N 
ATOM     50  N   UNL A   1      41.639  29.528  33.307  1.00  0.00    -0.248 NA
ATOM     51  C   UNL A   1      41.908  30.298  35.497  1.00  0.00     0.031 C 
ATOM     52  C   UNL A   1      44.235  26.470  31.391  1.00  0.00     0.029 A 
ATOM     53  C   UNL A   1      43.429  27.406  32.019  1.00  0.00     0.049 A 
ATOM     54  H   UNL A   1      41.722  28.397  31.268  1.00  0.00     0.167 HD
ATOM     55  C   UNL A   1      42.732  28.889  33.884  1.00  0.00     0.074 A 
ATOM     56  C   UNL A   1      42.870  29.429  35.220  1.00  0.00     0.031 C 
ATOM     57  C   UNL A   1      43.550  27.944  33.354  1.00  0.00     0.034 A 
BRANCH  44  58
ATOM     58  C   UNL A   1      42.100  26.307  27.538  1.00  0.00     0.023 A 
ATOM     59  C   UNL A   1      41.655  24.978  27.436  1.00  0.00     0.031 A 
ATOM     60  C   UNL A   1      42.891  26.813  26.488  1.00  0.00     0.131 A 
ATOM     61  C   UNL A   1      42.072  24.177  26.360  1.00  0.00     0.055 A 
ATOM     62  C   UNL A   1      43.225  26.040  25.374  1.00  0.00     0.041 A 
ATOM     63  F   UNL A   1      43.367  28.068  26.533  1.00  0.00    -0.206 F 
ATOM     64  C   UNL A   1      42.831  24.707  25.314  1.00  0.00     0.022 A 
BRANCH  61  65
ATOM     65  S   UNL A   1      41.753  22.393  26.432  1.00  0.00     0.124 S 
ATOM     66  O   UNL A   1      42.184  22.071  27.790  1.00  0.00    -0.237 OA
ATOM     67  O   UNL A   1      40.319  22.318  26.181  1.00  0.00    -0.237 OA
ATOM     68  O   UNL A   1      42.602  21.850  25.373  1.00  0.00    -0.744 OA
ENDBRANCH  61  65
ENDBRANCH  44  58
BRANCH  45  69
ATOM     69  C   UNL A   1      39.641  32.144  35.319  1.00  0.00     0.023 A 
ATOM     70  C   UNL A   1      38.838  31.629  36.348  1.00  0.00     0.031 A 
ATOM     71  C   UNL A   1      40.042  33.491  35.410  1.00  0.00     0.131 A 
ATOM     72  C   UNL A   1      38.427  32.463  37.400  1.00  0.00     0.055 A 
ATOM     73  C   UNL A   1      39.687  34.297  36.493  1.00  0.00     0.041 A 
ATOM     74  F   UNL A   1      40.804  34.041  34.451  1.00  0.00    -0.206 F 
ATOM     75  C   UNL A   1      38.863  33.787  37.489  1.00  0.00     0.022 A 
BRANCH  72  76
ATOM     76  S   UNL A   1      37.232  31.819  38.602  1.00  0.00     0.124 S 
ATOM     77  O   UNL A   1      37.959  31.979  39.856  1.00  0.00    -0.237 OA
ATOM     78  O   UNL A   1      36.092  32.706  38.402  1.00  0.00    -0.237 OA
ATOM     79  O   UNL A   1      37.029  30.437  38.172  1.00  0.00    -0.744 OA
ENDBRANCH  72  76
ENDBRANCH  45  69
BRANCH  57  80
ATOM     80  C   UNL A   1      44.703  27.479  34.213  1.00  0.00     0.023 A 
ATOM     81  C   UNL A   1      44.602  26.352  35.045  1.00  0.00     0.031 A 
ATOM     82  C   UNL A   1      45.914  28.194  34.211  1.00  0.00     0.131 A 
ATOM     83  C   UNL A   1      45.671  26.005  35.885  1.00  0.00     0.055 A 
ATOM     84  C   UNL A   1      46.999  27.805  34.998  1.00  0.00     0.041 A 
ATOM     85  F   UNL A   1      46.065  29.284  33.441  1.00  0.00    -0.206 F 
ATOM     86  C   UNL A   1      46.875  26.713  35.852  1.00  0.00     0.022 A 
BRANCH  83  87
ATOM     87  S   UNL A   1      45.431  24.679  37.100  1.00  0.00     0.124 S 
ATOM     88  O   UNL A   1      46.795  24.192  37.289  1.00  0.00    -0.237 OA
ATOM     89  O   UNL A   1      44.848  25.394  38.231  1.00  0.00    -0.237 OA
ATOM     90  O   UNL A   1      44.530  23.751  36.422  1.00  0.00    -0.744 OA
ENDBRANCH  83  87
ENDBRANCH  57  80
ENDBRANCH  31  32
ENDBRANCH  24  26
ENDBRANCH  23  24
ENDBRANCH  22  23
ENDBRANCH   1  22
TORSDOF 17
ENDMDL
