MODEL 1
REMARK VINA RESULT:     -10.8      0.000      0.000
REMARK SMILES C[C@H](CNC(=O)Cn1cccc1C(=O)OCCOC(=O)c1ccc(-c2c3nc(c(-c4cc(S(=O)(=O)[O-])ccc4F)c4ccc([nH]4)c(-c4cc(S(=O)(=O)[O-])ccc4F)c4nc(c(-c5cc(S(=O)(=O)[O-])ccc5F)c5ccc2[nH]5)C=C4)C=C3)cc1)[NH+](C)C
REMARK SMILES IDX 16 1 15 2 13 3 14 4 12 5 8 6 9 7 10 8 11 9 7 10 5 11 4 12
REMARK SMILES IDX 6 14 3 15 2 16 1 17 84 18 85 19 86 20 17 22 18 23 19 24
REMARK SMILES IDX 20 25 21 26 22 27 83 28 23 29 82 30 24 31 25 32 26 33 76 34
REMARK SMILES IDX 27 35 81 36 75 37 77 38 28 39 80 40 74 41 73 42 29 44 61 45
REMARK SMILES IDX 41 46 60 47 42 48 45 49 59 50 78 51 43 52 44 53 58 55 79 56
REMARK SMILES IDX 46 57 30 58 31 59 39 60 32 61 38 62 40 63 37 64 33 65 34 66
REMARK SMILES IDX 35 67 36 68 62 69 63 70 71 71 64 72 70 73 72 74 69 75 65 76
REMARK SMILES IDX 66 77 67 78 68 79 47 80 48 81 56 82 49 83 55 84 57 85 54 86
REMARK SMILES IDX 50 87 51 88 52 89 53 90
REMARK H PARENT 4 13 84 21 77 43 45 54
REMARK Flexibility Score: inf
ROOT
ATOM      1  C   UNL A   1      33.976  28.221  26.317  1.00  0.00     0.275 C 
ENDROOT
BRANCH   1   2
ATOM      2  O   UNL A   1      32.559  28.391  26.113  1.00  0.00    -0.457 OA
BRANCH   2   3
ATOM      3  C   UNL A   1      31.730  27.602  26.844  1.00  0.00     0.355 C 
ATOM      4  O   UNL A   1      31.188  27.958  27.888  1.00  0.00    -0.244 OA
BRANCH   3   5
ATOM      5  C   UNL A   1      31.474  26.335  26.172  1.00  0.00     0.128 A 
ATOM      6  N   UNL A   1      30.666  26.047  25.082  1.00  0.00    -0.333 N 
ATOM      7  C   UNL A   1      30.757  24.698  24.793  1.00  0.00     0.087 A 
ATOM      8  C   UNL A   1      31.492  24.086  25.777  1.00  0.00     0.020 A 
ATOM      9  C   UNL A   1      31.950  25.108  26.629  1.00  0.00     0.035 A 
BRANCH   6  10
ATOM     10  C   UNL A   1      29.982  26.976  24.188  1.00  0.00     0.222 C 
BRANCH  10  11
ATOM     11  C   UNL A   1      30.796  27.632  23.096  1.00  0.00     0.240 C 
ATOM     12  N   UNL A   1      30.623  28.921  22.713  1.00  0.00    -0.349 N 
ATOM     13  H   UNL A   1      31.208  29.196  21.971  1.00  0.00     0.163 HD
ATOM     14  O   UNL A   1      31.574  26.955  22.409  1.00  0.00    -0.273 OA
BRANCH  12  15
ATOM     15  C   UNL A   1      29.740  29.981  23.186  1.00  0.00     0.180 C 
BRANCH  15  16
ATOM     16  C   UNL A   1      28.414  30.114  22.379  1.00  0.00     0.199 C 
ATOM     17  C   UNL A   1      27.343  29.128  22.873  1.00  0.00     0.077 C 
BRANCH  16  18
ATOM     18  N   UNL A   1      27.970  31.535  22.365  1.00  0.00    -0.336 N 
ATOM     19  C   UNL A   1      28.737  32.359  23.303  1.00  0.00     0.332 C 
ATOM     20  C   UNL A   1      28.035  32.164  21.039  1.00  0.00     0.332 C 
ATOM     21  H   UNL A   1      26.991  31.494  22.650  1.00  0.00     0.347 HD
ENDBRANCH  16  18
ENDBRANCH  15  16
ENDBRANCH  12  15
ENDBRANCH  10  11
ENDBRANCH   6  10
ENDBRANCH   3   5
ENDBRANCH   2   3
ENDBRANCH   1   2
BRANCH   1  22
ATOM     22  C   UNL A   1      34.565  29.326  27.205  1.00  0.00     0.275 C 
BRANCH  22  23
ATOM     23  O   UNL A   1      35.983  29.542  27.080  1.00  0.00    -0.458 OA
BRANCH  23  24
ATOM     24  C   UNL A   1      36.489  30.327  28.052  1.00  0.00     0.338 C 
ATOM     25  O   UNL A   1      36.205  31.493  28.267  1.00  0.00    -0.246 OA
BRANCH  24  26
ATOM     26  C   UNL A   1      37.688  29.785  28.687  1.00  0.00     0.060 A 
ATOM     27  C   UNL A   1      38.898  30.066  28.043  1.00  0.00     0.016 A 
ATOM     28  C   UNL A   1      37.578  28.747  29.621  1.00  0.00     0.016 A 
ATOM     29  C   UNL A   1      39.985  29.248  28.274  1.00  0.00     0.010 A 
ATOM     30  C   UNL A   1      38.667  27.909  29.834  1.00  0.00     0.010 A 
ATOM     31  C   UNL A   1      39.860  28.146  29.138  1.00  0.00    -0.014 A 
BRANCH  31  32
ATOM     32  C   UNL A   1      41.126  27.493  29.530  1.00  0.00     0.031 A 
ATOM     33  C   UNL A   1      41.372  26.331  28.525  1.00  0.00     0.074 A 
ATOM     34  C   UNL A   1      41.758  27.917  30.676  1.00  0.00     0.049 A 
ATOM     35  N   UNL A   1      41.887  25.154  28.702  1.00  0.00    -0.248 NA
ATOM     36  C   UNL A   1      40.810  26.446  27.138  1.00  0.00     0.031 C 
ATOM     37  C   UNL A   1      41.366  29.081  31.512  1.00  0.00     0.029 A 
ATOM     38  N   UNL A   1      42.853  27.465  31.388  1.00  0.00    -0.354 N 
ATOM     39  C   UNL A   1      41.955  24.533  27.430  1.00  0.00     0.074 A 
ATOM     40  C   UNL A   1      41.097  25.277  26.569  1.00  0.00     0.031 C 
ATOM     41  C   UNL A   1      42.131  29.179  32.631  1.00  0.00     0.029 A 
ATOM     42  C   UNL A   1      43.126  28.122  32.635  1.00  0.00     0.049 A 
ATOM     43  H   UNL A   1      43.417  26.728  31.058  1.00  0.00     0.167 HD
ATOM     44  C   UNL A   1      42.863  23.565  27.114  1.00  0.00     0.034 A 
ATOM     45  C   UNL A   1      44.065  27.800  33.595  1.00  0.00     0.034 A 
ATOM     46  C   UNL A   1      43.645  23.270  28.265  1.00  0.00     0.049 A 
ATOM     47  C   UNL A   1      44.835  26.730  32.943  1.00  0.00     0.074 A 
ATOM     48  C   UNL A   1      43.348  22.640  29.442  1.00  0.00     0.029 A 
ATOM     49  N   UNL A   1      44.809  23.992  28.413  1.00  0.00    -0.354 N 
ATOM     50  N   UNL A   1      45.690  26.912  31.985  1.00  0.00    -0.248 NA
ATOM     51  C   UNL A   1      44.579  25.339  33.341  1.00  0.00     0.031 C 
ATOM     52  C   UNL A   1      44.031  23.427  30.389  1.00  0.00     0.029 A 
ATOM     53  C   UNL A   1      44.914  24.304  29.743  1.00  0.00     0.049 A 
ATOM     54  H   UNL A   1      45.443  24.237  27.701  1.00  0.00     0.167 HD
ATOM     55  C   UNL A   1      45.822  25.652  31.465  1.00  0.00     0.074 A 
ATOM     56  C   UNL A   1      45.420  24.732  32.509  1.00  0.00     0.031 C 
ATOM     57  C   UNL A   1      45.690  25.464  30.127  1.00  0.00     0.034 A 
BRANCH  44  58
ATOM     58  C   UNL A   1      43.354  23.005  25.804  1.00  0.00     0.023 A 
ATOM     59  C   UNL A   1      43.483  21.595  25.752  1.00  0.00     0.031 A 
ATOM     60  C   UNL A   1      43.994  23.724  24.786  1.00  0.00     0.131 A 
ATOM     61  C   UNL A   1      44.349  20.971  24.848  1.00  0.00     0.055 A 
ATOM     62  C   UNL A   1      44.796  23.089  23.826  1.00  0.00     0.041 A 
ATOM     63  F   UNL A   1      43.948  25.061  24.726  1.00  0.00    -0.206 F 
ATOM     64  C   UNL A   1      45.014  21.714  23.881  1.00  0.00     0.022 A 
BRANCH  61  65
ATOM     65  S   UNL A   1      44.732  19.217  25.113  1.00  0.00     0.124 S 
ATOM     66  O   UNL A   1      44.669  18.682  23.757  1.00  0.00    -0.237 OA
ATOM     67  O   UNL A   1      46.063  19.283  25.711  1.00  0.00    -0.237 OA
ATOM     68  O   UNL A   1      43.669  18.771  26.009  1.00  0.00    -0.744 OA
ENDBRANCH  61  65
ENDBRANCH  44  58
BRANCH  45  69
ATOM     69  C   UNL A   1      44.533  28.112  35.031  1.00  0.00     0.023 A 
ATOM     70  C   UNL A   1      44.627  27.238  36.131  1.00  0.00     0.031 A 
ATOM     71  C   UNL A   1      45.003  29.444  35.319  1.00  0.00     0.131 A 
ATOM     72  C   UNL A   1      45.231  27.680  37.357  1.00  0.00     0.055 A 
ATOM     73  C   UNL A   1      45.683  29.834  36.473  1.00  0.00     0.041 A 
ATOM     74  F   UNL A   1      44.816  30.471  34.481  1.00  0.00    -0.206 F 
ATOM     75  C   UNL A   1      45.816  28.941  37.501  1.00  0.00     0.022 A 
BRANCH  72  76
ATOM     76  S   UNL A   1      45.292  26.629  38.847  1.00  0.00     0.124 S 
ATOM     77  O   UNL A   1      45.650  25.331  38.287  1.00  0.00    -0.237 OA
ATOM     78  O   UNL A   1      46.308  27.281  39.664  1.00  0.00    -0.237 OA
ATOM     79  O   UNL A   1      43.930  26.718  39.377  1.00  0.00    -0.744 OA
ENDBRANCH  72  76
ENDBRANCH  45  69
BRANCH  57  80
ATOM     80  C   UNL A   1      46.014  26.689  29.274  1.00  0.00     0.023 A 
ATOM     81  C   UNL A   1      44.969  27.450  28.716  1.00  0.00     0.031 A 
ATOM     82  C   UNL A   1      47.313  27.064  28.888  1.00  0.00     0.131 A 
ATOM     83  C   UNL A   1      45.232  28.497  27.808  1.00  0.00     0.055 A 
ATOM     84  C   UNL A   1      47.581  28.104  27.985  1.00  0.00     0.041 A 
ATOM     85  F   UNL A   1      48.379  26.426  29.365  1.00  0.00    -0.206 F 
ATOM     86  C   UNL A   1      46.535  28.827  27.436  1.00  0.00     0.022 A 
BRANCH  83  87
ATOM     87  S   UNL A   1      43.846  29.451  27.133  1.00  0.00     0.124 S 
ATOM     88  O   UNL A   1      43.106  28.448  26.377  1.00  0.00    -0.237 OA
ATOM     89  O   UNL A   1      43.193  29.955  28.337  1.00  0.00    -0.237 OA
ATOM     90  O   UNL A   1      44.501  30.477  26.320  1.00  0.00    -0.744 OA
ENDBRANCH  83  87
ENDBRANCH  57  80
ENDBRANCH  31  32
ENDBRANCH  24  26
ENDBRANCH  23  24
ENDBRANCH  22  23
ENDBRANCH   1  22
TORSDOF 19
ENDMDL
MODEL 2
REMARK VINA RESULT:     -10.8      1.229      3.070
REMARK SMILES C[C@H](CNC(=O)Cn1cccc1C(=O)OCCOC(=O)c1ccc(-c2c3nc(c(-c4cc(S(=O)(=O)[O-])ccc4F)c4ccc([nH]4)c(-c4cc(S(=O)(=O)[O-])ccc4F)c4nc(c(-c5cc(S(=O)(=O)[O-])ccc5F)c5ccc2[nH]5)C=C4)C=C3)cc1)[NH+](C)C
REMARK SMILES IDX 16 1 15 2 13 3 14 4 12 5 8 6 9 7 10 8 11 9 7 10 5 11 4 12
REMARK SMILES IDX 6 14 3 15 2 16 1 17 84 18 85 19 86 20 17 22 18 23 19 24
REMARK SMILES IDX 20 25 21 26 22 27 83 28 23 29 82 30 24 31 25 32 26 33 76 34
REMARK SMILES IDX 27 35 81 36 75 37 77 38 28 39 80 40 74 41 73 42 29 44 61 45
REMARK SMILES IDX 41 46 60 47 42 48 45 49 59 50 78 51 43 52 44 53 58 55 79 56
REMARK SMILES IDX 46 57 30 58 31 59 39 60 32 61 38 62 40 63 37 64 33 65 34 66
REMARK SMILES IDX 35 67 36 68 62 69 63 70 71 71 64 72 70 73 72 74 69 75 65 76
REMARK SMILES IDX 66 77 67 78 68 79 47 80 48 81 56 82 49 83 55 84 57 85 54 86
REMARK SMILES IDX 50 87 51 88 52 89 53 90
REMARK H PARENT 4 13 84 21 77 43 45 54
REMARK Flexibility Score: inf
ROOT
ATOM      1  C   UNL A   1      33.435  28.839  26.101  1.00  0.00     0.275 C 
ENDROOT
BRANCH   1   2
ATOM      2  O   UNL A   1      32.025  28.725  26.378  1.00  0.00    -0.457 OA
BRANCH   2   3
ATOM      3  C   UNL A   1      31.396  27.606  25.935  1.00  0.00     0.355 C 
ATOM      4  O   UNL A   1      31.036  26.687  26.665  1.00  0.00    -0.244 OA
BRANCH   3   5
ATOM      5  C   UNL A   1      31.098  27.694  24.512  1.00  0.00     0.128 A 
ATOM      6  N   UNL A   1      31.320  26.780  23.492  1.00  0.00    -0.333 N 
ATOM      7  C   UNL A   1      30.851  27.305  22.302  1.00  0.00     0.087 A 
ATOM      8  C   UNL A   1      30.471  28.605  22.514  1.00  0.00     0.020 A 
ATOM      9  C   UNL A   1      30.612  28.845  23.893  1.00  0.00     0.035 A 
BRANCH   6  10
ATOM     10  C   UNL A   1      31.755  25.391  23.597  1.00  0.00     0.222 C 
BRANCH  10  11
ATOM     11  C   UNL A   1      33.239  25.109  23.522  1.00  0.00     0.240 C 
ATOM     12  N   UNL A   1      33.959  24.637  24.569  1.00  0.00    -0.349 N 
ATOM     13  H   UNL A   1      34.918  24.531  24.374  1.00  0.00     0.163 HD
ATOM     14  O   UNL A   1      33.883  25.436  22.515  1.00  0.00    -0.273 OA
BRANCH  12  15
ATOM     15  C   UNL A   1      33.592  24.257  25.928  1.00  0.00     0.180 C 
BRANCH  15  16
ATOM     16  C   UNL A   1      33.473  22.719  26.150  1.00  0.00     0.199 C 
ATOM     17  C   UNL A   1      33.410  22.361  27.644  1.00  0.00     0.077 C 
BRANCH  16  18
ATOM     18  N   UNL A   1      32.342  22.177  25.349  1.00  0.00    -0.336 N 
ATOM     19  C   UNL A   1      32.429  20.723  25.192  1.00  0.00     0.332 C 
ATOM     20  C   UNL A   1      31.018  22.504  25.894  1.00  0.00     0.332 C 
ATOM     21  H   UNL A   1      32.435  22.636  24.442  1.00  0.00     0.347 HD
ENDBRANCH  16  18
ENDBRANCH  15  16
ENDBRANCH  12  15
ENDBRANCH  10  11
ENDBRANCH   6  10
ENDBRANCH   3   5
ENDBRANCH   2   3
ENDBRANCH   1   2
BRANCH   1  22
ATOM     22  C   UNL A   1      34.220  29.347  27.318  1.00  0.00     0.275 C 
BRANCH  22  23
ATOM     23  O   UNL A   1      35.646  29.154  27.271  1.00  0.00    -0.458 OA
BRANCH  23  24
ATOM     24  C   UNL A   1      36.337  30.125  27.901  1.00  0.00     0.338 C 
ATOM     25  O   UNL A   1      36.167  31.326  27.790  1.00  0.00    -0.246 OA
BRANCH  24  26
ATOM     26  C   UNL A   1      37.573  29.662  28.528  1.00  0.00     0.060 A 
ATOM     27  C   UNL A   1      38.736  29.817  27.767  1.00  0.00     0.016 A 
ATOM     28  C   UNL A   1      37.519  28.780  29.615  1.00  0.00     0.016 A 
ATOM     29  C   UNL A   1      39.829  29.023  28.046  1.00  0.00     0.010 A 
ATOM     30  C   UNL A   1      38.613  27.963  29.879  1.00  0.00     0.010 A 
ATOM     31  C   UNL A   1      39.756  28.068  29.075  1.00  0.00    -0.014 A 
BRANCH  31  32
ATOM     32  C   UNL A   1      41.040  27.457  29.475  1.00  0.00     0.031 A 
ATOM     33  C   UNL A   1      41.319  26.290  28.485  1.00  0.00     0.074 A 
ATOM     34  C   UNL A   1      41.660  27.914  30.615  1.00  0.00     0.049 A 
ATOM     35  N   UNL A   1      41.869  25.131  28.677  1.00  0.00    -0.248 NA
ATOM     36  C   UNL A   1      40.754  26.371  27.097  1.00  0.00     0.031 C 
ATOM     37  C   UNL A   1      41.234  29.077  31.436  1.00  0.00     0.029 A 
ATOM     38  N   UNL A   1      42.767  27.503  31.332  1.00  0.00    -0.354 N 
ATOM     39  C   UNL A   1      41.954  24.495  27.413  1.00  0.00     0.074 A 
ATOM     40  C   UNL A   1      41.076  25.203  26.543  1.00  0.00     0.031 C 
ATOM     41  C   UNL A   1      41.996  29.212  32.553  1.00  0.00     0.029 A 
ATOM     42  C   UNL A   1      43.021  28.184  32.571  1.00  0.00     0.049 A 
ATOM     43  H   UNL A   1      43.353  26.779  31.011  1.00  0.00     0.167 HD
ATOM     44  C   UNL A   1      42.890  23.550  27.110  1.00  0.00     0.034 A 
ATOM     45  C   UNL A   1      43.970  27.902  33.534  1.00  0.00     0.034 A 
ATOM     46  C   UNL A   1      43.681  23.293  28.264  1.00  0.00     0.049 A 
ATOM     47  C   UNL A   1      44.770  26.846  32.896  1.00  0.00     0.074 A 
ATOM     48  C   UNL A   1      43.403  22.670  29.449  1.00  0.00     0.029 A 
ATOM     49  N   UNL A   1      44.823  24.050  28.402  1.00  0.00    -0.354 N 
ATOM     50  N   UNL A   1      45.619  27.041  31.936  1.00  0.00    -0.248 NA
ATOM     51  C   UNL A   1      44.554  25.454  33.312  1.00  0.00     0.031 C 
ATOM     52  C   UNL A   1      44.062  23.488  30.386  1.00  0.00     0.029 A 
ATOM     53  C   UNL A   1      44.919  24.383  29.728  1.00  0.00     0.049 A 
ATOM     54  H   UNL A   1      45.450  24.304  27.686  1.00  0.00     0.167 HD
ATOM     55  C   UNL A   1      45.788  25.779  31.432  1.00  0.00     0.074 A 
ATOM     56  C   UNL A   1      45.413  24.861  32.488  1.00  0.00     0.031 C 
ATOM     57  C   UNL A   1      45.661  25.569  30.097  1.00  0.00     0.034 A 
BRANCH  44  58
ATOM     58  C   UNL A   1      43.398  22.988  25.807  1.00  0.00     0.023 A 
ATOM     59  C   UNL A   1      43.496  21.575  25.748  1.00  0.00     0.031 A 
ATOM     60  C   UNL A   1      44.075  23.699  24.808  1.00  0.00     0.131 A 
ATOM     61  C   UNL A   1      44.368  20.938  24.859  1.00  0.00     0.055 A 
ATOM     62  C   UNL A   1      44.884  23.051  23.862  1.00  0.00     0.041 A 
ATOM     63  F   UNL A   1      44.061  25.036  24.756  1.00  0.00    -0.206 F 
ATOM     64  C   UNL A   1      45.070  21.672  23.911  1.00  0.00     0.022 A 
BRANCH  61  65
ATOM     65  S   UNL A   1      44.706  19.174  25.119  1.00  0.00     0.124 S 
ATOM     66  O   UNL A   1      44.643  18.647  23.761  1.00  0.00    -0.237 OA
ATOM     67  O   UNL A   1      46.031  19.205  25.731  1.00  0.00    -0.237 OA
ATOM     68  O   UNL A   1      43.623  18.750  26.003  1.00  0.00    -0.744 OA
ENDBRANCH  61  65
ENDBRANCH  44  58
BRANCH  45  69
ATOM     69  C   UNL A   1      44.428  28.247  34.966  1.00  0.00     0.023 A 
ATOM     70  C   UNL A   1      44.593  27.381  36.064  1.00  0.00     0.031 A 
ATOM     71  C   UNL A   1      44.806  29.608  35.250  1.00  0.00     0.131 A 
ATOM     72  C   UNL A   1      45.177  27.864  37.285  1.00  0.00     0.055 A 
ATOM     73  C   UNL A   1      45.469  30.045  36.398  1.00  0.00     0.041 A 
ATOM     74  F   UNL A   1      44.541  30.620  34.414  1.00  0.00    -0.206 F 
ATOM     75  C   UNL A   1      45.674  29.163  37.424  1.00  0.00     0.022 A 
BRANCH  72  76
ATOM     76  S   UNL A   1      45.324  26.821  38.773  1.00  0.00     0.124 S 
ATOM     77  O   UNL A   1      45.975  25.629  38.244  1.00  0.00    -0.237 OA
ATOM     78  O   UNL A   1      46.123  27.646  39.672  1.00  0.00    -0.237 OA
ATOM     79  O   UNL A   1      43.934  26.631  39.191  1.00  0.00    -0.744 OA
ENDBRANCH  72  76
ENDBRANCH  45  69
BRANCH  57  80
ATOM     80  C   UNL A   1      45.949  26.792  29.228  1.00  0.00     0.023 A 
ATOM     81  C   UNL A   1      44.882  27.552  28.711  1.00  0.00     0.031 A 
ATOM     82  C   UNL A   1      47.231  27.166  28.786  1.00  0.00     0.131 A 
ATOM     83  C   UNL A   1      45.107  28.596  27.790  1.00  0.00     0.055 A 
ATOM     84  C   UNL A   1      47.462  28.204  27.870  1.00  0.00     0.041 A 
ATOM     85  F   UNL A   1      48.316  26.530  29.221  1.00  0.00    -0.206 F 
ATOM     86  C   UNL A   1      46.394  28.925  27.363  1.00  0.00     0.022 A 
BRANCH  83  87
ATOM     87  S   UNL A   1      43.694  29.548  27.170  1.00  0.00     0.124 S 
ATOM     88  O   UNL A   1      44.334  30.568  26.347  1.00  0.00    -0.237 OA
ATOM     89  O   UNL A   1      42.924  28.538  26.452  1.00  0.00    -0.237 OA
ATOM     90  O   UNL A   1      43.058  30.049  28.388  1.00  0.00    -0.744 OA
ENDBRANCH  83  87
ENDBRANCH  57  80
ENDBRANCH  31  32
ENDBRANCH  24  26
ENDBRANCH  23  24
ENDBRANCH  22  23
ENDBRANCH   1  22
TORSDOF 19
ENDMDL
MODEL 3
REMARK VINA RESULT:     -10.6      5.559     10.862
REMARK SMILES C[C@H](CNC(=O)Cn1cccc1C(=O)OCCOC(=O)c1ccc(-c2c3nc(c(-c4cc(S(=O)(=O)[O-])ccc4F)c4ccc([nH]4)c(-c4cc(S(=O)(=O)[O-])ccc4F)c4nc(c(-c5cc(S(=O)(=O)[O-])ccc5F)c5ccc2[nH]5)C=C4)C=C3)cc1)[NH+](C)C
REMARK SMILES IDX 16 1 15 2 13 3 14 4 12 5 8 6 9 7 10 8 11 9 7 10 5 11 4 12
REMARK SMILES IDX 6 14 3 15 2 16 1 17 84 18 85 19 86 20 17 22 18 23 19 24
REMARK SMILES IDX 20 25 21 26 22 27 83 28 23 29 82 30 24 31 25 32 26 33 76 34
REMARK SMILES IDX 27 35 81 36 75 37 77 38 28 39 80 40 74 41 73 42 29 44 61 45
REMARK SMILES IDX 41 46 60 47 42 48 45 49 59 50 78 51 43 52 44 53 58 55 79 56
REMARK SMILES IDX 46 57 30 58 31 59 39 60 32 61 38 62 40 63 37 64 33 65 34 66
REMARK SMILES IDX 35 67 36 68 62 69 63 70 71 71 64 72 70 73 72 74 69 75 65 76
REMARK SMILES IDX 66 77 67 78 68 79 47 80 48 81 56 82 49 83 55 84 57 85 54 86
REMARK SMILES IDX 50 87 51 88 52 89 53 90
REMARK H PARENT 4 13 84 21 77 43 45 54
REMARK Flexibility Score: inf
ROOT
ATOM      1  C   UNL A   1      36.546  23.315  26.126  1.00  0.00     0.275 C 
ENDROOT
BRANCH   1   2
ATOM      2  O   UNL A   1      36.063  24.288  25.178  1.00  0.00    -0.457 OA
BRANCH   2   3
ATOM      3  C   UNL A   1      34.988  23.937  24.426  1.00  0.00     0.355 C 
ATOM      4  O   UNL A   1      35.044  23.682  23.226  1.00  0.00    -0.244 OA
BRANCH   3   5
ATOM      5  C   UNL A   1      33.794  23.784  25.247  1.00  0.00     0.128 A 
ATOM      6  N   UNL A   1      33.009  22.667  25.487  1.00  0.00    -0.333 N 
ATOM      7  C   UNL A   1      31.985  23.008  26.351  1.00  0.00     0.087 A 
ATOM      8  C   UNL A   1      32.010  24.365  26.550  1.00  0.00     0.020 A 
ATOM      9  C   UNL A   1      33.145  24.848  25.873  1.00  0.00     0.035 A 
BRANCH   6  10
ATOM     10  C   UNL A   1      33.269  21.278  25.120  1.00  0.00     0.222 C 
BRANCH  10  11
ATOM     11  C   UNL A   1      32.546  20.720  23.915  1.00  0.00     0.240 C 
ATOM     12  N   UNL A   1      32.313  19.396  23.736  1.00  0.00    -0.349 N 
ATOM     13  H   UNL A   1      31.856  19.185  22.890  1.00  0.00     0.163 HD
ATOM     14  O   UNL A   1      32.254  21.462  22.966  1.00  0.00    -0.273 OA
BRANCH  12  15
ATOM     15  C   UNL A   1      32.608  18.223  24.551  1.00  0.00     0.180 C 
BRANCH  15  16
ATOM     16  C   UNL A   1      33.829  17.391  24.055  1.00  0.00     0.199 C 
ATOM     17  C   UNL A   1      35.155  18.138  24.270  1.00  0.00     0.077 C 
BRANCH  16  18
ATOM     18  N   UNL A   1      33.793  16.031  24.657  1.00  0.00    -0.336 N 
ATOM     19  C   UNL A   1      35.023  15.725  25.393  1.00  0.00     0.332 C 
ATOM     20  C   UNL A   1      32.652  15.809  25.555  1.00  0.00     0.332 C 
ATOM     21  H   UNL A   1      33.695  15.405  23.858  1.00  0.00     0.347 HD
ENDBRANCH  16  18
ENDBRANCH  15  16
ENDBRANCH  12  15
ENDBRANCH  10  11
ENDBRANCH   6  10
ENDBRANCH   3   5
ENDBRANCH   2   3
ENDBRANCH   1   2
BRANCH   1  22
ATOM     22  C   UNL A   1      38.078  23.224  26.125  1.00  0.00     0.275 C 
BRANCH  22  23
ATOM     23  O   UNL A   1      38.783  24.478  26.173  1.00  0.00    -0.458 OA
BRANCH  23  24
ATOM     24  C   UNL A   1      39.511  24.638  27.296  1.00  0.00     0.338 C 
ATOM     25  O   UNL A   1      39.960  23.752  28.002  1.00  0.00    -0.246 OA
BRANCH  24  26
ATOM     26  C   UNL A   1      39.482  25.996  27.834  1.00  0.00     0.060 A 
ATOM     27  C   UNL A   1      39.896  27.006  26.959  1.00  0.00     0.016 A 
ATOM     28  C   UNL A   1      39.431  26.200  29.219  1.00  0.00     0.016 A 
ATOM     29  C   UNL A   1      40.341  28.203  27.482  1.00  0.00     0.010 A 
ATOM     30  C   UNL A   1      39.903  27.398  29.745  1.00  0.00     0.010 A 
ATOM     31  C   UNL A   1      40.382  28.386  28.875  1.00  0.00    -0.014 A 
BRANCH  31  32
ATOM     32  C   UNL A   1      40.615  29.771  29.332  1.00  0.00     0.031 A 
ATOM     33  C   UNL A   1      39.221  30.390  29.643  1.00  0.00     0.074 A 
ATOM     34  C   UNL A   1      41.898  30.267  29.306  1.00  0.00     0.049 A 
ATOM     35  N   UNL A   1      38.775  31.596  29.475  1.00  0.00    -0.248 NA
ATOM     36  C   UNL A   1      38.104  29.478  30.061  1.00  0.00     0.031 C 
ATOM     37  C   UNL A   1      43.126  29.497  28.985  1.00  0.00     0.029 A 
ATOM     38  N   UNL A   1      42.446  31.515  29.533  1.00  0.00    -0.354 N 
ATOM     39  C   UNL A   1      37.463  31.634  30.011  1.00  0.00     0.074 A 
ATOM     40  C   UNL A   1      37.044  30.279  30.153  1.00  0.00     0.031 C 
ATOM     41  C   UNL A   1      44.227  30.294  28.947  1.00  0.00     0.029 A 
ATOM     42  C   UNL A   1      43.851  31.658  29.274  1.00  0.00     0.049 A 
ATOM     43  H   UNL A   1      41.901  32.269  29.855  1.00  0.00     0.167 HD
ATOM     44  C   UNL A   1      36.880  32.771  30.489  1.00  0.00     0.034 A 
ATOM     45  C   UNL A   1      44.622  32.803  29.296  1.00  0.00     0.034 A 
ATOM     46  C   UNL A   1      37.770  33.864  30.298  1.00  0.00     0.049 A 
ATOM     47  C   UNL A   1      43.689  33.808  29.824  1.00  0.00     0.074 A 
ATOM     48  C   UNL A   1      38.187  34.523  29.175  1.00  0.00     0.029 A 
ATOM     49  N   UNL A   1      38.628  34.141  31.339  1.00  0.00    -0.354 N 
ATOM     50  N   UNL A   1      43.310  33.887  31.062  1.00  0.00    -0.248 NA
ATOM     51  C   UNL A   1      43.073  34.756  28.886  1.00  0.00     0.031 C 
ATOM     52  C   UNL A   1      39.556  34.729  29.435  1.00  0.00     0.029 A 
ATOM     53  C   UNL A   1      39.841  34.448  30.779  1.00  0.00     0.049 A 
ATOM     54  H   UNL A   1      38.412  34.123  32.299  1.00  0.00     0.167 HD
ATOM     55  C   UNL A   1      42.190  34.670  30.977  1.00  0.00     0.074 A 
ATOM     56  C   UNL A   1      42.304  35.420  29.744  1.00  0.00     0.031 C 
ATOM     57  C   UNL A   1      41.039  34.258  31.568  1.00  0.00     0.034 A 
BRANCH  44  58
ATOM     58  C   UNL A   1      35.690  33.018  31.380  1.00  0.00     0.023 A 
ATOM     59  C   UNL A   1      34.840  34.081  30.984  1.00  0.00     0.031 A 
ATOM     60  C   UNL A   1      35.526  32.549  32.689  1.00  0.00     0.131 A 
ATOM     61  C   UNL A   1      34.019  34.743  31.902  1.00  0.00     0.055 A 
ATOM     62  C   UNL A   1      34.638  33.161  33.587  1.00  0.00     0.041 A 
ATOM     63  F   UNL A   1      36.269  31.551  33.184  1.00  0.00    -0.206 F 
ATOM     64  C   UNL A   1      33.914  34.290  33.211  1.00  0.00     0.022 A 
BRANCH  61  65
ATOM     65  S   UNL A   1      33.270  36.315  31.389  1.00  0.00     0.124 S 
ATOM     66  O   UNL A   1      34.117  37.292  32.065  1.00  0.00    -0.237 OA
ATOM     67  O   UNL A   1      33.400  36.255  29.936  1.00  0.00    -0.237 OA
ATOM     68  O   UNL A   1      31.903  36.219  31.896  1.00  0.00    -0.744 OA
ENDBRANCH  61  65
ENDBRANCH  44  58
BRANCH  45  69
ATOM     69  C   UNL A   1      46.011  33.373  28.942  1.00  0.00     0.023 A 
ATOM     70  C   UNL A   1      46.551  33.635  27.668  1.00  0.00     0.031 A 
ATOM     71  C   UNL A   1      46.883  33.761  30.022  1.00  0.00     0.131 A 
ATOM     72  C   UNL A   1      47.812  34.313  27.542  1.00  0.00     0.055 A 
ATOM     73  C   UNL A   1      48.053  34.511  29.893  1.00  0.00     0.041 A 
ATOM     74  F   UNL A   1      46.649  33.419  31.295  1.00  0.00    -0.206 F 
ATOM     75  C   UNL A   1      48.519  34.807  28.642  1.00  0.00     0.022 A 
BRANCH  72  76
ATOM     76  S   UNL A   1      48.610  34.591  25.926  1.00  0.00     0.124 S 
ATOM     77  O   UNL A   1      47.460  34.718  25.038  1.00  0.00    -0.237 OA
ATOM     78  O   UNL A   1      49.388  35.804  26.151  1.00  0.00    -0.237 OA
ATOM     79  O   UNL A   1      49.408  33.379  25.732  1.00  0.00    -0.744 OA
ENDBRANCH  72  76
ENDBRANCH  45  69
BRANCH  57  80
ATOM     80  C   UNL A   1      41.232  33.311  32.751  1.00  0.00     0.023 A 
ATOM     81  C   UNL A   1      40.838  31.963  32.642  1.00  0.00     0.031 A 
ATOM     82  C   UNL A   1      41.674  33.714  34.024  1.00  0.00     0.131 A 
ATOM     83  C   UNL A   1      40.867  31.102  33.758  1.00  0.00     0.055 A 
ATOM     84  C   UNL A   1      41.705  32.861  35.138  1.00  0.00     0.041 A 
ATOM     85  F   UNL A   1      42.087  34.961  34.241  1.00  0.00    -0.206 F 
ATOM     86  C   UNL A   1      41.296  31.544  35.009  1.00  0.00     0.022 A 
BRANCH  83  87
ATOM     87  S   UNL A   1      40.361  29.372  33.554  1.00  0.00     0.124 S 
ATOM     88  O   UNL A   1      40.555  28.823  34.891  1.00  0.00    -0.237 OA
ATOM     89  O   UNL A   1      38.976  29.499  33.110  1.00  0.00    -0.237 OA
ATOM     90  O   UNL A   1      41.282  28.864  32.538  1.00  0.00    -0.744 OA
ENDBRANCH  83  87
ENDBRANCH  57  80
ENDBRANCH  31  32
ENDBRANCH  24  26
ENDBRANCH  23  24
ENDBRANCH  22  23
ENDBRANCH   1  22
TORSDOF 19
ENDMDL
