MODEL 1
REMARK VINA RESULT:     -11.5      0.000      0.000
REMARK SMILES O=C(OCCOC(=O)C(Cl)(c1ccccc1)c1ccccc1)c1ccc(-c2c3nc(c(-c4cc(S(=O)(=O)[O-])ccc4F)c4ccc([nH]4)c(-c4cc(S(=O)(=O)[O-])ccc4F)c4nc(c(-c5cc(S(=O)(=O)[O-])ccc5F)c5ccc2[nH]5)C=C4)C=C3)cc1
REMARK SMILES IDX 4 1 3 2 2 3 1 4 23 5 24 6 85 7 25 8 84 9 26 10 27 11 28 12
REMARK SMILES IDX 78 13 29 14 83 15 77 16 79 17 30 18 82 19 76 20 75 21 31 23
REMARK SMILES IDX 63 24 43 25 62 26 44 27 47 28 61 29 80 30 45 31 46 32 60 34
REMARK SMILES IDX 81 35 48 36 32 37 33 38 41 39 34 40 40 41 42 42 39 43 35 44
REMARK SMILES IDX 36 45 37 46 38 47 64 48 65 49 73 50 66 51 72 52 74 53 71 54
REMARK SMILES IDX 67 55 68 56 69 57 70 58 49 59 50 60 58 61 51 62 57 63 59 64
REMARK SMILES IDX 56 65 52 66 53 67 54 68 55 69 5 70 6 71 7 72 8 73 9 74 10 75
REMARK SMILES IDX 11 76 12 77 16 78 13 79 15 80 14 81 17 82 18 83 22 84 19 85
REMARK SMILES IDX 21 86 20 87
REMARK H PARENT 79 22 47 33
REMARK Flexibility Score: inf
ROOT
ATOM      1  C   UNL A   1      31.358  31.756  26.874  1.00  0.00     0.275 C 
ENDROOT
BRANCH   1   2
ATOM      2  O   UNL A   1      32.099  32.975  26.741  1.00  0.00    -0.458 OA
BRANCH   2   3
ATOM      3  C   UNL A   1      32.903  33.551  27.672  1.00  0.00     0.338 C 
ATOM      4  O   UNL A   1      32.672  34.713  28.001  1.00  0.00    -0.246 OA
BRANCH   3   5
ATOM      5  C   UNL A   1      34.180  32.916  28.139  1.00  0.00     0.060 A 
ATOM      6  C   UNL A   1      35.452  33.498  28.137  1.00  0.00     0.016 A 
ATOM      7  C   UNL A   1      34.058  31.620  28.674  1.00  0.00     0.016 A 
ATOM      8  C   UNL A   1      36.539  32.874  28.764  1.00  0.00     0.010 A 
ATOM      9  C   UNL A   1      35.139  30.997  29.311  1.00  0.00     0.010 A 
ATOM     10  C   UNL A   1      36.383  31.640  29.393  1.00  0.00    -0.014 A 
BRANCH  10  11
ATOM     11  C   UNL A   1      37.536  30.974  30.050  1.00  0.00     0.031 A 
ATOM     12  C   UNL A   1      37.909  31.412  31.433  1.00  0.00     0.074 A 
ATOM     13  C   UNL A   1      38.235  29.993  29.443  1.00  0.00     0.049 A 
ATOM     14  N   UNL A   1      38.891  31.007  32.191  1.00  0.00    -0.248 NA
ATOM     15  C   UNL A   1      37.046  32.433  32.048  1.00  0.00     0.031 C 
ATOM     16  C   UNL A   1      37.933  29.418  28.132  1.00  0.00     0.029 A 
ATOM     17  N   UNL A   1      39.362  29.310  29.844  1.00  0.00    -0.354 N 
ATOM     18  C   UNL A   1      38.750  31.703  33.383  1.00  0.00     0.074 A 
ATOM     19  C   UNL A   1      37.637  32.614  33.216  1.00  0.00     0.031 C 
ATOM     20  C   UNL A   1      38.875  28.511  27.822  1.00  0.00     0.029 A 
ATOM     21  C   UNL A   1      39.868  28.461  28.883  1.00  0.00     0.049 A 
ATOM     22  H   UNL A   1      39.767  29.418  30.734  1.00  0.00     0.167 HD
ATOM     23  C   UNL A   1      39.454  31.565  34.529  1.00  0.00     0.034 A 
ATOM     24  C   UNL A   1      41.013  27.748  28.846  1.00  0.00     0.034 A 
ATOM     25  C   UNL A   1      40.567  30.667  34.680  1.00  0.00     0.049 A 
ATOM     26  C   UNL A   1      41.894  27.752  30.067  1.00  0.00     0.074 A 
ATOM     27  C   UNL A   1      41.327  30.419  35.807  1.00  0.00     0.029 A 
ATOM     28  N   UNL A   1      41.096  29.887  33.659  1.00  0.00    -0.354 N 
ATOM     29  N   UNL A   1      41.702  28.360  31.215  1.00  0.00    -0.248 NA
ATOM     30  C   UNL A   1      43.125  26.955  30.005  1.00  0.00     0.031 C 
ATOM     31  C   UNL A   1      42.359  29.543  35.450  1.00  0.00     0.029 A 
ATOM     32  C   UNL A   1      42.205  29.198  34.117  1.00  0.00     0.049 A 
ATOM     33  H   UNL A   1      40.733  29.833  32.746  1.00  0.00     0.167 HD
ATOM     34  C   UNL A   1      42.763  27.977  32.027  1.00  0.00     0.074 A 
ATOM     35  C   UNL A   1      43.591  27.087  31.239  1.00  0.00     0.031 C 
ATOM     36  C   UNL A   1      43.020  28.317  33.315  1.00  0.00     0.034 A 
BRANCH  23  37
ATOM     37  C   UNL A   1      39.039  32.441  35.677  1.00  0.00     0.023 A 
ATOM     38  C   UNL A   1      39.515  33.760  35.793  1.00  0.00     0.031 A 
ATOM     39  C   UNL A   1      38.240  31.927  36.708  1.00  0.00     0.131 A 
ATOM     40  C   UNL A   1      39.256  34.491  36.960  1.00  0.00     0.055 A 
ATOM     41  C   UNL A   1      37.923  32.687  37.834  1.00  0.00     0.041 A 
ATOM     42  F   UNL A   1      37.787  30.664  36.656  1.00  0.00    -0.206 F 
ATOM     43  C   UNL A   1      38.444  33.971  37.972  1.00  0.00     0.022 A 
BRANCH  40  44
ATOM     44  S   UNL A   1      40.109  36.073  37.199  1.00  0.00     0.124 S 
ATOM     45  O   UNL A   1      39.980  36.679  35.876  1.00  0.00    -0.237 OA
ATOM     46  O   UNL A   1      39.331  36.698  38.264  1.00  0.00    -0.237 OA
ATOM     47  O   UNL A   1      41.466  35.678  37.568  1.00  0.00    -0.744 OA
ENDBRANCH  40  44
ENDBRANCH  23  37
BRANCH  24  48
ATOM     48  C   UNL A   1      41.449  27.030  27.609  1.00  0.00     0.023 A 
ATOM     49  C   UNL A   1      41.386  25.631  27.503  1.00  0.00     0.031 A 
ATOM     50  C   UNL A   1      42.061  27.739  26.559  1.00  0.00     0.131 A 
ATOM     51  C   UNL A   1      41.976  24.983  26.402  1.00  0.00     0.055 A 
ATOM     52  C   UNL A   1      42.605  27.093  25.445  1.00  0.00     0.041 A 
ATOM     53  F   UNL A   1      42.155  29.077  26.605  1.00  0.00    -0.206 F 
ATOM     54  C   UNL A   1      42.577  25.705  25.368  1.00  0.00     0.022 A 
BRANCH  51  55
ATOM     55  S   UNL A   1      42.059  23.169  26.394  1.00  0.00     0.124 S 
ATOM     56  O   UNL A   1      42.909  22.904  27.550  1.00  0.00    -0.237 OA
ATOM     57  O   UNL A   1      40.653  22.805  26.533  1.00  0.00    -0.237 OA
ATOM     58  O   UNL A   1      42.655  22.859  25.097  1.00  0.00    -0.744 OA
ENDBRANCH  51  55
ENDBRANCH  24  48
BRANCH  36  59
ATOM     59  C   UNL A   1      44.221  27.680  33.958  1.00  0.00     0.023 A 
ATOM     60  C   UNL A   1      44.143  26.414  34.564  1.00  0.00     0.031 A 
ATOM     61  C   UNL A   1      45.457  28.349  33.967  1.00  0.00     0.131 A 
ATOM     62  C   UNL A   1      45.273  25.876  35.196  1.00  0.00     0.055 A 
ATOM     63  C   UNL A   1      46.592  27.782  34.544  1.00  0.00     0.041 A 
ATOM     64  F   UNL A   1      45.581  29.562  33.406  1.00  0.00    -0.206 F 
ATOM     65  C   UNL A   1      46.501  26.543  35.172  1.00  0.00     0.022 A 
BRANCH  62  66
ATOM     66  S   UNL A   1      45.099  24.321  36.109  1.00  0.00     0.124 S 
ATOM     67  O   UNL A   1      46.459  23.796  36.071  1.00  0.00    -0.237 OA
ATOM     68  O   UNL A   1      44.627  24.772  37.415  1.00  0.00    -0.237 OA
ATOM     69  O   UNL A   1      44.120  23.571  35.324  1.00  0.00    -0.744 OA
ENDBRANCH  62  66
ENDBRANCH  36  59
ENDBRANCH  10  11
ENDBRANCH   3   5
ENDBRANCH   2   3
ENDBRANCH   1   2
BRANCH   1  70
ATOM     70  C   UNL A   1      31.542  30.801  25.694  1.00  0.00     0.274 C 
BRANCH  70  71
ATOM     71  O   UNL A   1      32.615  29.859  25.879  1.00  0.00    -0.460 OA
BRANCH  71  72
ATOM     72  C   UNL A   1      32.875  29.011  24.829  1.00  0.00     0.336 C 
ATOM     73  O   UNL A   1      33.550  29.352  23.859  1.00  0.00    -0.249 OA
BRANCH  72  74
ATOM     74  C   UNL A   1      32.127  27.639  24.929  1.00  0.00     0.191 C 
ATOM     75  Cl  UNL A   1      31.749  27.313  26.678  1.00  0.00    -0.096 Cl
BRANCH  74  76
ATOM     76  C   UNL A   1      30.738  27.681  24.240  1.00  0.00    -0.011 A 
ATOM     77  C   UNL A   1      29.779  26.674  24.490  1.00  0.00     0.006 A 
ATOM     78  C   UNL A   1      30.321  28.768  23.446  1.00  0.00     0.006 A 
ATOM     79  C   UNL A   1      28.511  26.707  23.911  1.00  0.00     0.000 A 
ATOM     80  C   UNL A   1      29.028  28.827  22.911  1.00  0.00     0.000 A 
ATOM     81  C   UNL A   1      28.130  27.788  23.126  1.00  0.00     0.000 A 
ENDBRANCH  74  76
BRANCH  74  82
ATOM     82  C   UNL A   1      33.096  26.481  24.568  1.00  0.00    -0.011 A 
ATOM     83  C   UNL A   1      33.962  25.977  25.573  1.00  0.00     0.006 A 
ATOM     84  C   UNL A   1      33.088  25.807  23.337  1.00  0.00     0.006 A 
ATOM     85  C   UNL A   1      34.725  24.826  25.373  1.00  0.00     0.000 A 
ATOM     86  C   UNL A   1      33.833  24.639  23.148  1.00  0.00     0.000 A 
ATOM     87  C   UNL A   1      34.642  24.144  24.166  1.00  0.00     0.000 A 
ENDBRANCH  74  82
ENDBRANCH  72  74
ENDBRANCH  71  72
ENDBRANCH  70  71
ENDBRANCH   1  70
TORSDOF 16
ENDMDL
MODEL 2
REMARK VINA RESULT:     -11.3      1.965      3.241
REMARK SMILES O=C(OCCOC(=O)C(Cl)(c1ccccc1)c1ccccc1)c1ccc(-c2c3nc(c(-c4cc(S(=O)(=O)[O-])ccc4F)c4ccc([nH]4)c(-c4cc(S(=O)(=O)[O-])ccc4F)c4nc(c(-c5cc(S(=O)(=O)[O-])ccc5F)c5ccc2[nH]5)C=C4)C=C3)cc1
REMARK SMILES IDX 4 1 3 2 2 3 1 4 23 5 24 6 85 7 25 8 84 9 26 10 27 11 28 12
REMARK SMILES IDX 78 13 29 14 83 15 77 16 79 17 30 18 82 19 76 20 75 21 31 23
REMARK SMILES IDX 63 24 43 25 62 26 44 27 47 28 61 29 80 30 45 31 46 32 60 34
REMARK SMILES IDX 81 35 48 36 32 37 33 38 41 39 34 40 40 41 42 42 39 43 35 44
REMARK SMILES IDX 36 45 37 46 38 47 64 48 65 49 73 50 66 51 72 52 74 53 71 54
REMARK SMILES IDX 67 55 68 56 69 57 70 58 49 59 50 60 58 61 51 62 57 63 59 64
REMARK SMILES IDX 56 65 52 66 53 67 54 68 55 69 5 70 6 71 7 72 8 73 9 74 10 75
REMARK SMILES IDX 11 76 12 77 16 78 13 79 15 80 14 81 17 82 18 83 22 84 19 85
REMARK SMILES IDX 21 86 20 87
REMARK H PARENT 79 22 47 33
REMARK Flexibility Score: inf
ROOT
ATOM      1  C   UNL A   1      31.821  30.385  26.695  1.00  0.00     0.275 C 
ENDROOT
BRANCH   1   2
ATOM      2  O   UNL A   1      33.152  30.895  26.549  1.00  0.00    -0.458 OA
BRANCH   2   3
ATOM      3  C   UNL A   1      33.883  31.556  27.483  1.00  0.00     0.338 C 
ATOM      4  O   UNL A   1      33.506  32.671  27.835  1.00  0.00    -0.246 OA
BRANCH   3   5
ATOM      5  C   UNL A   1      35.237  31.086  27.928  1.00  0.00     0.060 A 
ATOM      6  C   UNL A   1      36.362  31.882  28.166  1.00  0.00     0.016 A 
ATOM      7  C   UNL A   1      35.355  29.704  28.172  1.00  0.00     0.016 A 
ATOM      8  C   UNL A   1      37.520  31.352  28.752  1.00  0.00     0.010 A 
ATOM      9  C   UNL A   1      36.505  29.171  28.767  1.00  0.00     0.010 A 
ATOM     10  C   UNL A   1      37.587  30.002  29.096  1.00  0.00    -0.014 A 
BRANCH  10  11
ATOM     11  C   UNL A   1      38.816  29.437  29.708  1.00  0.00     0.031 A 
ATOM     12  C   UNL A   1      39.301  30.034  30.992  1.00  0.00     0.074 A 
ATOM     13  C   UNL A   1      39.485  28.409  29.147  1.00  0.00     0.049 A 
ATOM     14  N   UNL A   1      40.362  29.736  31.693  1.00  0.00    -0.248 NA
ATOM     15  C   UNL A   1      38.469  31.100  31.572  1.00  0.00     0.031 C 
ATOM     16  C   UNL A   1      39.080  27.686  27.942  1.00  0.00     0.029 A 
ATOM     17  N   UNL A   1      40.664  27.798  29.510  1.00  0.00    -0.354 N 
ATOM     18  C   UNL A   1      40.311  30.558  32.809  1.00  0.00     0.074 A 
ATOM     19  C   UNL A   1      39.161  31.422  32.651  1.00  0.00     0.031 C 
ATOM     20  C   UNL A   1      40.016  26.769  27.644  1.00  0.00     0.029 A 
ATOM     21  C   UNL A   1      41.104  26.858  28.604  1.00  0.00     0.049 A 
ATOM     22  H   UNL A   1      41.148  28.013  30.341  1.00  0.00     0.167 HD
ATOM     23  C   UNL A   1      41.123  30.563  33.891  1.00  0.00     0.034 A 
ATOM     24  C   UNL A   1      42.262  26.169  28.535  1.00  0.00     0.034 A 
ATOM     25  C   UNL A   1      42.272  29.710  34.031  1.00  0.00     0.049 A 
ATOM     26  C   UNL A   1      43.253  26.327  29.659  1.00  0.00     0.074 A 
ATOM     27  C   UNL A   1      43.141  29.605  35.101  1.00  0.00     0.029 A 
ATOM     28  N   UNL A   1      42.727  28.833  33.056  1.00  0.00    -0.354 N 
ATOM     29  N   UNL A   1      43.150  27.055  30.746  1.00  0.00    -0.248 NA
ATOM     30  C   UNL A   1      44.497  25.552  29.566  1.00  0.00     0.031 C 
ATOM     31  C   UNL A   1      44.162  28.716  34.745  1.00  0.00     0.029 A 
ATOM     32  C   UNL A   1      43.896  28.221  33.478  1.00  0.00     0.049 A 
ATOM     33  H   UNL A   1      42.283  28.670  32.193  1.00  0.00     0.167 HD
ATOM     34  C   UNL A   1      44.294  26.787  31.490  1.00  0.00     0.074 A 
ATOM     35  C   UNL A   1      45.072  25.831  30.727  1.00  0.00     0.031 C 
ATOM     36  C   UNL A   1      44.659  27.273  32.702  1.00  0.00     0.034 A 
BRANCH  23  37
ATOM     37  C   UNL A   1      40.790  31.553  34.971  1.00  0.00     0.023 A 
ATOM     38  C   UNL A   1      39.776  31.292  35.909  1.00  0.00     0.031 A 
ATOM     39  C   UNL A   1      41.425  32.804  35.005  1.00  0.00     0.131 A 
ATOM     40  C   UNL A   1      39.367  32.302  36.790  1.00  0.00     0.055 A 
ATOM     41  C   UNL A   1      41.064  33.779  35.935  1.00  0.00     0.041 A 
ATOM     42  F   UNL A   1      42.378  33.110  34.112  1.00  0.00    -0.206 F 
ATOM     43  C   UNL A   1      40.019  33.537  36.824  1.00  0.00     0.022 A 
BRANCH  40  44
ATOM     44  S   UNL A   1      37.881  32.029  37.792  1.00  0.00     0.124 S 
ATOM     45  O   UNL A   1      37.561  30.640  37.472  1.00  0.00    -0.237 OA
ATOM     46  O   UNL A   1      38.360  32.276  39.148  1.00  0.00    -0.237 OA
ATOM     47  O   UNL A   1      36.934  33.015  37.276  1.00  0.00    -0.744 OA
ENDBRANCH  40  44
ENDBRANCH  23  37
BRANCH  24  48
ATOM     48  C   UNL A   1      42.604  25.326  27.348  1.00  0.00     0.023 A 
ATOM     49  C   UNL A   1      42.177  23.992  27.238  1.00  0.00     0.031 A 
ATOM     50  C   UNL A   1      43.480  25.816  26.363  1.00  0.00     0.131 A 
ATOM     51  C   UNL A   1      42.672  23.181  26.201  1.00  0.00     0.055 A 
ATOM     52  C   UNL A   1      43.932  25.018  25.307  1.00  0.00     0.041 A 
ATOM     53  F   UNL A   1      43.926  27.081  26.416  1.00  0.00    -0.206 F 
ATOM     54  C   UNL A   1      43.539  23.687  25.230  1.00  0.00     0.022 A 
BRANCH  51  55
ATOM     55  S   UNL A   1      42.264  21.411  26.203  1.00  0.00     0.124 S 
ATOM     56  O   UNL A   1      42.577  21.034  27.577  1.00  0.00    -0.237 OA
ATOM     57  O   UNL A   1      40.849  21.430  25.848  1.00  0.00    -0.237 OA
ATOM     58  O   UNL A   1      43.152  20.854  25.185  1.00  0.00    -0.744 OA
ENDBRANCH  51  55
ENDBRANCH  24  48
BRANCH  36  59
ATOM     59  C   UNL A   1      45.934  26.736  33.292  1.00  0.00     0.023 A 
ATOM     60  C   UNL A   1      45.956  25.531  34.015  1.00  0.00     0.031 A 
ATOM     61  C   UNL A   1      47.139  27.441  33.133  1.00  0.00     0.131 A 
ATOM     62  C   UNL A   1      47.155  25.089  34.593  1.00  0.00     0.055 A 
ATOM     63  C   UNL A   1      48.340  26.965  33.658  1.00  0.00     0.041 A 
ATOM     64  F   UNL A   1      47.168  28.600  32.456  1.00  0.00    -0.206 F 
ATOM     65  C   UNL A   1      48.350  25.788  34.401  1.00  0.00     0.022 A 
BRANCH  62  66
ATOM     66  S   UNL A   1      47.119  23.622  35.654  1.00  0.00     0.124 S 
ATOM     67  O   UNL A   1      46.327  24.089  36.787  1.00  0.00    -0.237 OA
ATOM     68  O   UNL A   1      46.479  22.628  34.797  1.00  0.00    -0.237 OA
ATOM     69  O   UNL A   1      48.530  23.373  35.942  1.00  0.00    -0.744 OA
ENDBRANCH  62  66
ENDBRANCH  36  59
ENDBRANCH  10  11
ENDBRANCH   3   5
ENDBRANCH   2   3
ENDBRANCH   1   2
BRANCH   1  70
ATOM     70  C   UNL A   1      31.759  29.057  27.452  1.00  0.00     0.274 C 
BRANCH  70  71
ATOM     71  O   UNL A   1      32.744  28.101  27.018  1.00  0.00    -0.460 OA
BRANCH  71  72
ATOM     72  C   UNL A   1      32.280  27.020  26.308  1.00  0.00     0.336 C 
ATOM     73  O   UNL A   1      31.680  26.090  26.843  1.00  0.00    -0.249 OA
BRANCH  72  74
ATOM     74  C   UNL A   1      32.706  27.028  24.801  1.00  0.00     0.191 C 
ATOM     75  Cl  UNL A   1      33.990  28.296  24.571  1.00  0.00    -0.096 Cl
BRANCH  74  76
ATOM     76  C   UNL A   1      33.397  25.705  24.384  1.00  0.00    -0.011 A 
ATOM     77  C   UNL A   1      33.100  25.097  23.144  1.00  0.00     0.006 A 
ATOM     78  C   UNL A   1      34.429  25.118  25.144  1.00  0.00     0.006 A 
ATOM     79  C   UNL A   1      33.732  23.925  22.729  1.00  0.00     0.000 A 
ATOM     80  C   UNL A   1      35.102  23.974  24.699  1.00  0.00     0.000 A 
ATOM     81  C   UNL A   1      34.741  23.365  23.502  1.00  0.00     0.000 A 
ENDBRANCH  74  76
BRANCH  74  82
ATOM     82  C   UNL A   1      31.540  27.561  23.926  1.00  0.00    -0.011 A 
ATOM     83  C   UNL A   1      30.260  26.962  24.055  1.00  0.00     0.006 A 
ATOM     84  C   UNL A   1      31.634  28.689  23.097  1.00  0.00     0.006 A 
ATOM     85  C   UNL A   1      29.132  27.504  23.440  1.00  0.00     0.000 A 
ATOM     86  C   UNL A   1      30.497  29.246  22.503  1.00  0.00     0.000 A 
ATOM     87  C   UNL A   1      29.248  28.661  22.681  1.00  0.00     0.000 A 
ENDBRANCH  74  82
ENDBRANCH  72  74
ENDBRANCH  71  72
ENDBRANCH  70  71
ENDBRANCH   1  70
TORSDOF 16
ENDMDL
MODEL 3
REMARK VINA RESULT:     -11.2      0.690      2.343
REMARK SMILES O=C(OCCOC(=O)C(Cl)(c1ccccc1)c1ccccc1)c1ccc(-c2c3nc(c(-c4cc(S(=O)(=O)[O-])ccc4F)c4ccc([nH]4)c(-c4cc(S(=O)(=O)[O-])ccc4F)c4nc(c(-c5cc(S(=O)(=O)[O-])ccc5F)c5ccc2[nH]5)C=C4)C=C3)cc1
REMARK SMILES IDX 4 1 3 2 2 3 1 4 23 5 24 6 85 7 25 8 84 9 26 10 27 11 28 12
REMARK SMILES IDX 78 13 29 14 83 15 77 16 79 17 30 18 82 19 76 20 75 21 31 23
REMARK SMILES IDX 63 24 43 25 62 26 44 27 47 28 61 29 80 30 45 31 46 32 60 34
REMARK SMILES IDX 81 35 48 36 32 37 33 38 41 39 34 40 40 41 42 42 39 43 35 44
REMARK SMILES IDX 36 45 37 46 38 47 64 48 65 49 73 50 66 51 72 52 74 53 71 54
REMARK SMILES IDX 67 55 68 56 69 57 70 58 49 59 50 60 58 61 51 62 57 63 59 64
REMARK SMILES IDX 56 65 52 66 53 67 54 68 55 69 5 70 6 71 7 72 8 73 9 74 10 75
REMARK SMILES IDX 11 76 12 77 16 78 13 79 15 80 14 81 17 82 18 83 22 84 19 85
REMARK SMILES IDX 21 86 20 87
REMARK H PARENT 79 22 47 33
REMARK Flexibility Score: inf
ROOT
ATOM      1  C   UNL A   1      31.341  31.758  26.852  1.00  0.00     0.275 C 
ENDROOT
BRANCH   1   2
ATOM      2  O   UNL A   1      32.180  32.909  26.688  1.00  0.00    -0.458 OA
BRANCH   2   3
ATOM      3  C   UNL A   1      32.978  33.481  27.627  1.00  0.00     0.338 C 
ATOM      4  O   UNL A   1      32.741  34.638  27.965  1.00  0.00    -0.246 OA
BRANCH   3   5
ATOM      5  C   UNL A   1      34.257  32.847  28.093  1.00  0.00     0.060 A 
ATOM      6  C   UNL A   1      35.535  33.414  28.049  1.00  0.00     0.016 A 
ATOM      7  C   UNL A   1      34.130  31.571  28.673  1.00  0.00     0.016 A 
ATOM      8  C   UNL A   1      36.626  32.800  28.678  1.00  0.00     0.010 A 
ATOM      9  C   UNL A   1      35.215  30.958  29.313  1.00  0.00     0.010 A 
ATOM     10  C   UNL A   1      36.468  31.589  29.351  1.00  0.00    -0.014 A 
BRANCH  10  11
ATOM     11  C   UNL A   1      37.625  30.932  30.010  1.00  0.00     0.031 A 
ATOM     12  C   UNL A   1      38.000  31.383  31.388  1.00  0.00     0.074 A 
ATOM     13  C   UNL A   1      38.325  29.949  29.409  1.00  0.00     0.049 A 
ATOM     14  N   UNL A   1      38.986  30.988  32.147  1.00  0.00    -0.248 NA
ATOM     15  C   UNL A   1      37.136  32.407  31.997  1.00  0.00     0.031 C 
ATOM     16  C   UNL A   1      38.021  29.362  28.104  1.00  0.00     0.029 A 
ATOM     17  N   UNL A   1      39.456  29.273  29.812  1.00  0.00    -0.354 N 
ATOM     18  C   UNL A   1      38.846  31.694  33.333  1.00  0.00     0.074 A 
ATOM     19  C   UNL A   1      37.730  32.599  33.161  1.00  0.00     0.031 C 
ATOM     20  C   UNL A   1      38.966  28.456  27.799  1.00  0.00     0.029 A 
ATOM     21  C   UNL A   1      39.962  28.418  28.857  1.00  0.00     0.049 A 
ATOM     22  H   UNL A   1      39.864  29.390  30.701  1.00  0.00     0.167 HD
ATOM     23  C   UNL A   1      39.554  31.568  34.478  1.00  0.00     0.034 A 
ATOM     24  C   UNL A   1      41.109  27.709  28.823  1.00  0.00     0.034 A 
ATOM     25  C   UNL A   1      40.671  30.675  34.633  1.00  0.00     0.049 A 
ATOM     26  C   UNL A   1      41.994  27.726  30.042  1.00  0.00     0.074 A 
ATOM     27  C   UNL A   1      41.435  30.440  35.760  1.00  0.00     0.029 A 
ATOM     28  N   UNL A   1      41.199  29.889  33.618  1.00  0.00    -0.354 N 
ATOM     29  N   UNL A   1      41.804  28.343  31.185  1.00  0.00    -0.248 NA
ATOM     30  C   UNL A   1      43.228  26.932  29.983  1.00  0.00     0.031 C 
ATOM     31  C   UNL A   1      42.469  29.564  35.408  1.00  0.00     0.029 A 
ATOM     32  C   UNL A   1      42.313  29.207  34.078  1.00  0.00     0.049 A 
ATOM     33  H   UNL A   1      40.834  29.826  32.706  1.00  0.00     0.167 HD
ATOM     34  C   UNL A   1      42.868  27.971  31.997  1.00  0.00     0.074 A 
ATOM     35  C   UNL A   1      43.697  27.077  31.213  1.00  0.00     0.031 C 
ATOM     36  C   UNL A   1      43.128  28.322  33.281  1.00  0.00     0.034 A 
BRANCH  23  37
ATOM     37  C   UNL A   1      39.140  32.453  35.620  1.00  0.00     0.023 A 
ATOM     38  C   UNL A   1      39.614  33.773  35.726  1.00  0.00     0.031 A 
ATOM     39  C   UNL A   1      38.342  31.945  36.656  1.00  0.00     0.131 A 
ATOM     40  C   UNL A   1      39.356  34.512  36.888  1.00  0.00     0.055 A 
ATOM     41  C   UNL A   1      38.026  32.713  37.776  1.00  0.00     0.041 A 
ATOM     42  F   UNL A   1      37.890  30.682  36.614  1.00  0.00    -0.206 F 
ATOM     43  C   UNL A   1      38.546  33.999  37.904  1.00  0.00     0.022 A 
BRANCH  40  44
ATOM     44  S   UNL A   1      40.207  36.097  37.113  1.00  0.00     0.124 S 
ATOM     45  O   UNL A   1      41.593  35.665  37.280  1.00  0.00    -0.237 OA
ATOM     46  O   UNL A   1      39.905  36.801  35.871  1.00  0.00    -0.237 OA
ATOM     47  O   UNL A   1      39.585  36.653  38.312  1.00  0.00    -0.744 OA
ENDBRANCH  40  44
ENDBRANCH  23  37
BRANCH  24  48
ATOM     48  C   UNL A   1      41.544  26.981  27.591  1.00  0.00     0.023 A 
ATOM     49  C   UNL A   1      41.499  25.580  27.502  1.00  0.00     0.031 A 
ATOM     50  C   UNL A   1      42.138  27.685  26.527  1.00  0.00     0.131 A 
ATOM     51  C   UNL A   1      42.087  24.927  26.404  1.00  0.00     0.055 A 
ATOM     52  C   UNL A   1      42.680  27.034  25.416  1.00  0.00     0.041 A 
ATOM     53  F   UNL A   1      42.214  29.025  26.557  1.00  0.00    -0.206 F 
ATOM     54  C   UNL A   1      42.670  25.645  25.356  1.00  0.00     0.022 A 
BRANCH  51  55
ATOM     55  S   UNL A   1      42.195  23.114  26.417  1.00  0.00     0.124 S 
ATOM     56  O   UNL A   1      40.819  22.736  26.722  1.00  0.00    -0.237 OA
ATOM     57  O   UNL A   1      42.654  22.833  25.061  1.00  0.00    -0.237 OA
ATOM     58  O   UNL A   1      43.167  22.837  27.472  1.00  0.00    -0.744 OA
ENDBRANCH  51  55
ENDBRANCH  24  48
BRANCH  36  59
ATOM     59  C   UNL A   1      44.333  27.694  33.925  1.00  0.00     0.023 A 
ATOM     60  C   UNL A   1      44.257  26.443  34.561  1.00  0.00     0.031 A 
ATOM     61  C   UNL A   1      45.572  28.358  33.906  1.00  0.00     0.131 A 
ATOM     62  C   UNL A   1      45.390  25.915  35.194  1.00  0.00     0.055 A 
ATOM     63  C   UNL A   1      46.711  27.800  34.484  1.00  0.00     0.041 A 
ATOM     64  F   UNL A   1      45.694  29.558  33.317  1.00  0.00    -0.206 F 
ATOM     65  C   UNL A   1      46.621  26.575  35.141  1.00  0.00     0.022 A 
BRANCH  62  66
ATOM     66  S   UNL A   1      45.219  24.382  36.144  1.00  0.00     0.124 S 
ATOM     67  O   UNL A   1      45.499  24.836  37.501  1.00  0.00    -0.237 OA
ATOM     68  O   UNL A   1      43.838  23.995  35.873  1.00  0.00    -0.237 OA
ATOM     69  O   UNL A   1      46.232  23.504  35.561  1.00  0.00    -0.744 OA
ENDBRANCH  62  66
ENDBRANCH  36  59
ENDBRANCH  10  11
ENDBRANCH   3   5
ENDBRANCH   2   3
ENDBRANCH   1   2
BRANCH   1  70
ATOM     70  C   UNL A   1      31.704  30.604  25.915  1.00  0.00     0.274 C 
BRANCH  70  71
ATOM     71  O   UNL A   1      32.407  29.532  26.569  1.00  0.00    -0.460 OA
BRANCH  71  72
ATOM     72  C   UNL A   1      31.798  28.300  26.556  1.00  0.00     0.336 C 
ATOM     73  O   UNL A   1      31.215  27.844  27.537  1.00  0.00    -0.249 OA
BRANCH  72  74
ATOM     74  C   UNL A   1      32.036  27.496  25.233  1.00  0.00     0.191 C 
ATOM     75  Cl  UNL A   1      33.261  28.388  24.227  1.00  0.00    -0.096 Cl
BRANCH  74  76
ATOM     76  C   UNL A   1      32.691  26.116  25.499  1.00  0.00    -0.011 A 
ATOM     77  C   UNL A   1      34.040  25.880  25.150  1.00  0.00     0.006 A 
ATOM     78  C   UNL A   1      32.032  25.089  26.204  1.00  0.00     0.006 A 
ATOM     79  C   UNL A   1      34.664  24.661  25.410  1.00  0.00     0.000 A 
ATOM     80  C   UNL A   1      32.679  23.887  26.515  1.00  0.00     0.000 A 
ATOM     81  C   UNL A   1      33.987  23.664  26.100  1.00  0.00     0.000 A 
ENDBRANCH  74  76
BRANCH  74  82
ATOM     82  C   UNL A   1      30.762  27.550  24.347  1.00  0.00    -0.011 A 
ATOM     83  C   UNL A   1      29.712  26.630  24.602  1.00  0.00     0.006 A 
ATOM     84  C   UNL A   1      30.522  28.537  23.379  1.00  0.00     0.006 A 
ATOM     85  C   UNL A   1      28.473  26.738  23.971  1.00  0.00     0.000 A 
ATOM     86  C   UNL A   1      29.270  28.660  22.767  1.00  0.00     0.000 A 
ATOM     87  C   UNL A   1      28.245  27.769  23.069  1.00  0.00     0.000 A 
ENDBRANCH  74  82
ENDBRANCH  72  74
ENDBRANCH  71  72
ENDBRANCH  70  71
ENDBRANCH   1  70
TORSDOF 16
ENDMDL
