MODEL 1
REMARK VINA RESULT:     -12.5      0.000      0.000
REMARK SMILES CCN(C(=O)Cc1c(C(=O)OCCOC(=O)c2ccc(-c3c4nc(c(-c5cc(S(=O)(=O)[O-])ccc5F)c5ccc([nH]5)c(-c5cc(S(=O)(=O)[O-])ccc5F)c5nc(c(-c6cc(S(=O)(=O)[O-])ccc6F)c6ccc3[nH]6)C=C5)C=C4)cc2)[nH]c2ccccc12)c1cccc(C)c1
REMARK SMILES IDX 12 1 11 2 9 3 10 4 8 5 7 6 86 7 80 8 81 9 85 10 82 12 84 13
REMARK SMILES IDX 83 14 6 15 4 16 5 17 3 18 2 19 1 20 87 21 88 22 93 23 89 24
REMARK SMILES IDX 91 25 90 26 92 27 13 28 14 29 15 30 16 31 17 32 18 33 79 34
REMARK SMILES IDX 19 35 78 36 20 37 21 38 22 39 72 40 23 41 77 42 71 43 73 44
REMARK SMILES IDX 24 45 76 46 70 47 69 48 25 50 57 51 37 52 56 53 38 54 41 55
REMARK SMILES IDX 55 56 74 57 39 58 40 59 54 61 75 62 42 63 26 64 27 65 35 66
REMARK SMILES IDX 28 67 34 68 36 69 33 70 29 71 30 72 31 73 32 74 58 75 59 76
REMARK SMILES IDX 67 77 60 78 66 79 68 80 65 81 61 82 62 83 63 84 64 85 43 86
REMARK SMILES IDX 44 87 52 88 45 89 51 90 53 91 50 92 46 93 47 94 48 95 49 96
REMARK H PARENT 80 11 73 49 41 60
REMARK Flexibility Score: inf
ROOT
ATOM      1  C   UNL A   1      31.414  28.211  26.331  1.00  0.00     0.275 C 
ENDROOT
BRANCH   1   2
ATOM      2  O   UNL A   1      31.491  26.947  27.029  1.00  0.00    -0.457 OA
BRANCH   2   3
ATOM      3  C   UNL A   1      31.069  25.855  26.318  1.00  0.00     0.355 C 
ATOM      4  O   UNL A   1      29.920  25.454  26.296  1.00  0.00    -0.244 OA
BRANCH   3   5
ATOM      5  C   UNL A   1      32.194  25.250  25.633  1.00  0.00     0.129 A 
ATOM      6  C   UNL A   1      32.351  24.840  24.305  1.00  0.00     0.002 A 
ATOM      7  C   UNL A   1      33.686  24.330  24.175  1.00  0.00     0.004 A 
ATOM      8  N   UNL A   1      33.372  24.944  26.281  1.00  0.00    -0.349 N 
ATOM      9  C   UNL A   1      34.264  24.331  25.438  1.00  0.00     0.046 A 
ATOM     10  C   UNL A   1      34.440  23.842  23.087  1.00  0.00     0.010 A 
ATOM     11  H   UNL A   1      33.551  25.142  27.228  1.00  0.00     0.167 HD
ATOM     12  C   UNL A   1      35.533  23.798  25.688  1.00  0.00     0.027 A 
ATOM     13  C   UNL A   1      35.714  23.317  23.312  1.00  0.00     0.001 A 
ATOM     14  C   UNL A   1      36.242  23.279  24.599  1.00  0.00     0.002 A 
BRANCH   6  15
ATOM     15  C   UNL A   1      31.406  24.956  23.144  1.00  0.00     0.139 C 
BRANCH  15  16
ATOM     16  C   UNL A   1      31.654  26.112  22.183  1.00  0.00     0.231 C 
ATOM     17  O   UNL A   1      31.972  25.841  21.019  1.00  0.00    -0.274 OA
BRANCH  16  18
ATOM     18  N   UNL A   1      31.503  27.423  22.653  1.00  0.00    -0.312 N 
BRANCH  18  19
ATOM     19  C   UNL A   1      32.615  28.222  23.194  1.00  0.00     0.122 C 
ATOM     20  C   UNL A   1      33.897  28.191  22.376  1.00  0.00     0.028 C 
ENDBRANCH  18  19
BRANCH  18  21
ATOM     21  C   UNL A   1      30.189  27.995  22.735  1.00  0.00     0.044 A 
ATOM     22  C   UNL A   1      29.159  27.367  23.447  1.00  0.00     0.026 A 
ATOM     23  C   UNL A   1      29.898  29.194  22.074  1.00  0.00     0.029 A 
ATOM     24  C   UNL A   1      27.878  27.923  23.496  1.00  0.00     0.002 A 
ATOM     25  C   UNL A   1      28.611  29.749  22.094  1.00  0.00    -0.049 A 
ATOM     26  C   UNL A   1      27.604  29.107  22.818  1.00  0.00     0.003 A 
ATOM     27  C   UNL A   1      28.313  31.001  21.327  1.00  0.00     0.044 C 
ENDBRANCH  18  21
ENDBRANCH  16  18
ENDBRANCH  15  16
ENDBRANCH   6  15
ENDBRANCH   3   5
ENDBRANCH   2   3
ENDBRANCH   1   2
BRANCH   1  28
ATOM     28  C   UNL A   1      31.896  29.352  27.227  1.00  0.00     0.275 C 
BRANCH  28  29
ATOM     29  O   UNL A   1      32.959  30.053  26.561  1.00  0.00    -0.458 OA
BRANCH  29  30
ATOM     30  C   UNL A   1      33.447  31.158  27.177  1.00  0.00     0.338 C 
ATOM     31  O   UNL A   1      32.854  32.208  27.358  1.00  0.00    -0.246 OA
BRANCH  30  32
ATOM     32  C   UNL A   1      34.831  30.895  27.639  1.00  0.00     0.060 A 
ATOM     33  C   UNL A   1      35.236  29.591  27.883  1.00  0.00     0.016 A 
ATOM     34  C   UNL A   1      35.708  31.939  27.937  1.00  0.00     0.016 A 
ATOM     35  C   UNL A   1      36.454  29.337  28.516  1.00  0.00     0.010 A 
ATOM     36  C   UNL A   1      36.981  31.662  28.477  1.00  0.00     0.010 A 
ATOM     37  C   UNL A   1      37.360  30.352  28.822  1.00  0.00    -0.014 A 
BRANCH  37  38
ATOM     38  C   UNL A   1      38.615  30.037  29.590  1.00  0.00     0.031 A 
ATOM     39  C   UNL A   1      39.654  29.129  28.974  1.00  0.00     0.074 A 
ATOM     40  C   UNL A   1      38.905  30.608  30.783  1.00  0.00     0.049 A 
ATOM     41  N   UNL A   1      40.664  28.510  29.536  1.00  0.00    -0.248 NA
ATOM     42  C   UNL A   1      39.534  28.878  27.530  1.00  0.00     0.031 C 
ATOM     43  C   UNL A   1      38.101  31.619  31.474  1.00  0.00     0.029 A 
ATOM     44  N   UNL A   1      39.985  30.433  31.624  1.00  0.00    -0.354 N 
ATOM     45  C   UNL A   1      41.239  27.729  28.536  1.00  0.00     0.074 A 
ATOM     46  C   UNL A   1      40.468  27.962  27.332  1.00  0.00     0.031 C 
ATOM     47  C   UNL A   1      38.738  32.013  32.587  1.00  0.00     0.029 A 
ATOM     48  C   UNL A   1      39.917  31.180  32.780  1.00  0.00     0.049 A 
ATOM     49  H   UNL A   1      40.734  29.828  31.419  1.00  0.00     0.167 HD
ATOM     50  C   UNL A   1      42.302  26.890  28.620  1.00  0.00     0.034 A 
ATOM     51  C   UNL A   1      40.660  31.154  33.909  1.00  0.00     0.034 A 
ATOM     52  C   UNL A   1      43.109  26.727  29.806  1.00  0.00     0.049 A 
ATOM     53  C   UNL A   1      41.774  30.145  34.024  1.00  0.00     0.074 A 
ATOM     54  C   UNL A   1      44.193  25.888  30.005  1.00  0.00     0.029 A 
ATOM     55  N   UNL A   1      42.939  27.435  30.989  1.00  0.00    -0.354 N 
ATOM     56  N   UNL A   1      42.211  29.288  33.129  1.00  0.00    -0.248 NA
ATOM     57  C   UNL A   1      42.478  30.077  35.312  1.00  0.00     0.031 C 
ATOM     58  C   UNL A   1      44.636  26.042  31.323  1.00  0.00     0.029 A 
ATOM     59  C   UNL A   1      43.882  27.035  31.925  1.00  0.00     0.049 A 
ATOM     60  H   UNL A   1      42.250  28.121  31.141  1.00  0.00     0.167 HD
ATOM     61  C   UNL A   1      43.248  28.592  33.745  1.00  0.00     0.074 A 
ATOM     62  C   UNL A   1      43.388  29.145  35.076  1.00  0.00     0.031 C 
ATOM     63  C   UNL A   1      44.013  27.585  33.254  1.00  0.00     0.034 A 
BRANCH  50  64
ATOM     64  C   UNL A   1      42.594  26.015  27.422  1.00  0.00     0.023 A 
ATOM     65  C   UNL A   1      42.113  24.701  27.305  1.00  0.00     0.031 A 
ATOM     66  C   UNL A   1      43.412  26.510  26.387  1.00  0.00     0.131 A 
ATOM     67  C   UNL A   1      42.513  23.904  26.220  1.00  0.00     0.055 A 
ATOM     68  C   UNL A   1      43.737  25.741  25.270  1.00  0.00     0.041 A 
ATOM     69  F   UNL A   1      43.921  27.751  26.452  1.00  0.00    -0.206 F 
ATOM     70  C   UNL A   1      43.300  24.422  25.189  1.00  0.00     0.022 A 
BRANCH  67  71
ATOM     71  S   UNL A   1      42.115  22.134  26.248  1.00  0.00     0.124 S 
ATOM     72  O   UNL A   1      42.543  21.757  27.593  1.00  0.00    -0.237 OA
ATOM     73  O   UNL A   1      40.677  22.130  26.010  1.00  0.00    -0.237 OA
ATOM     74  O   UNL A   1      42.929  21.583  25.166  1.00  0.00    -0.744 OA
ENDBRANCH  67  71
ENDBRANCH  50  64
BRANCH  51  75
ATOM     75  C   UNL A   1      40.301  32.017  35.077  1.00  0.00     0.023 A 
ATOM     76  C   UNL A   1      39.368  31.598  36.041  1.00  0.00     0.031 A 
ATOM     77  C   UNL A   1      40.839  33.311  35.208  1.00  0.00     0.131 A 
ATOM     78  C   UNL A   1      38.979  32.476  37.067  1.00  0.00     0.055 A 
ATOM     79  C   UNL A   1      40.502  34.153  36.268  1.00  0.00     0.041 A 
ATOM     80  F   UNL A   1      41.715  33.779  34.304  1.00  0.00    -0.206 F 
ATOM     81  C   UNL A   1      39.555  33.742  37.199  1.00  0.00     0.022 A 
BRANCH  78  82
ATOM     82  S   UNL A   1      37.626  31.985  38.173  1.00  0.00     0.124 S 
ATOM     83  O   UNL A   1      36.605  32.975  37.850  1.00  0.00    -0.237 OA
ATOM     84  O   UNL A   1      37.355  30.619  37.736  1.00  0.00    -0.237 OA
ATOM     85  O   UNL A   1      38.213  32.105  39.505  1.00  0.00    -0.744 OA
ENDBRANCH  78  82
ENDBRANCH  51  75
BRANCH  63  86
ATOM     86  C   UNL A   1      45.109  27.056  34.146  1.00  0.00     0.023 A 
ATOM     87  C   UNL A   1      44.886  26.009  35.059  1.00  0.00     0.031 A 
ATOM     88  C   UNL A   1      46.396  27.621  34.091  1.00  0.00     0.131 A 
ATOM     89  C   UNL A   1      45.918  25.597  35.916  1.00  0.00     0.055 A 
ATOM     90  C   UNL A   1      47.434  27.168  34.906  1.00  0.00     0.041 A 
ATOM     91  F   UNL A   1      46.665  28.626  33.242  1.00  0.00    -0.206 F 
ATOM     92  C   UNL A   1      47.195  26.159  35.834  1.00  0.00     0.022 A 
BRANCH  89  93
ATOM     93  S   UNL A   1      45.548  24.376  37.207  1.00  0.00     0.124 S 
ATOM     94  O   UNL A   1      45.549  23.127  36.453  1.00  0.00    -0.237 OA
ATOM     95  O   UNL A   1      46.657  24.561  38.139  1.00  0.00    -0.237 OA
ATOM     96  O   UNL A   1      44.241  24.796  37.712  1.00  0.00    -0.744 OA
ENDBRANCH  89  93
ENDBRANCH  63  86
ENDBRANCH  37  38
ENDBRANCH  30  32
ENDBRANCH  29  30
ENDBRANCH  28  29
ENDBRANCH   1  28
TORSDOF 19
ENDMDL
MODEL 2
REMARK VINA RESULT:     -12.4      4.925      9.562
REMARK SMILES CCN(C(=O)Cc1c(C(=O)OCCOC(=O)c2ccc(-c3c4nc(c(-c5cc(S(=O)(=O)[O-])ccc5F)c5ccc([nH]5)c(-c5cc(S(=O)(=O)[O-])ccc5F)c5nc(c(-c6cc(S(=O)(=O)[O-])ccc6F)c6ccc3[nH]6)C=C5)C=C4)cc2)[nH]c2ccccc12)c1cccc(C)c1
REMARK SMILES IDX 12 1 11 2 9 3 10 4 8 5 7 6 86 7 80 8 81 9 85 10 82 12 84 13
REMARK SMILES IDX 83 14 6 15 4 16 5 17 3 18 2 19 1 20 87 21 88 22 93 23 89 24
REMARK SMILES IDX 91 25 90 26 92 27 13 28 14 29 15 30 16 31 17 32 18 33 79 34
REMARK SMILES IDX 19 35 78 36 20 37 21 38 22 39 72 40 23 41 77 42 71 43 73 44
REMARK SMILES IDX 24 45 76 46 70 47 69 48 25 50 57 51 37 52 56 53 38 54 41 55
REMARK SMILES IDX 55 56 74 57 39 58 40 59 54 61 75 62 42 63 26 64 27 65 35 66
REMARK SMILES IDX 28 67 34 68 36 69 33 70 29 71 30 72 31 73 32 74 58 75 59 76
REMARK SMILES IDX 67 77 60 78 66 79 68 80 65 81 61 82 62 83 63 84 64 85 43 86
REMARK SMILES IDX 44 87 52 88 45 89 51 90 53 91 50 92 46 93 47 94 48 95 49 96
REMARK H PARENT 80 11 73 49 41 60
REMARK Flexibility Score: inf
ROOT
ATOM      1  C   UNL A   1      35.048  21.105  25.588  1.00  0.00     0.275 C 
ENDROOT
BRANCH   1   2
ATOM      2  O   UNL A   1      33.926  20.759  24.744  1.00  0.00    -0.457 OA
BRANCH   2   3
ATOM      3  C   UNL A   1      32.796  21.508  24.932  1.00  0.00     0.355 C 
ATOM      4  O   UNL A   1      31.859  21.172  25.633  1.00  0.00    -0.244 OA
BRANCH   3   5
ATOM      5  C   UNL A   1      32.880  22.729  24.155  1.00  0.00     0.129 A 
ATOM      6  C   UNL A   1      33.036  24.062  24.548  1.00  0.00     0.002 A 
ATOM      7  C   UNL A   1      33.082  24.853  23.352  1.00  0.00     0.004 A 
ATOM      8  N   UNL A   1      32.780  22.734  22.780  1.00  0.00    -0.349 N 
ATOM      9  C   UNL A   1      32.835  24.009  22.277  1.00  0.00     0.046 A 
ATOM     10  C   UNL A   1      33.285  26.227  23.100  1.00  0.00     0.010 A 
ATOM     11  H   UNL A   1      32.682  21.924  22.228  1.00  0.00     0.167 HD
ATOM     12  C   UNL A   1      32.704  24.476  20.965  1.00  0.00     0.027 A 
ATOM     13  C   UNL A   1      33.172  26.711  21.795  1.00  0.00     0.001 A 
ATOM     14  C   UNL A   1      32.866  25.849  20.747  1.00  0.00     0.002 A 
BRANCH   6  15
ATOM     15  C   UNL A   1      33.228  24.645  25.918  1.00  0.00     0.139 C 
BRANCH  15  16
ATOM     16  C   UNL A   1      31.984  25.213  26.592  1.00  0.00     0.231 C 
ATOM     17  O   UNL A   1      31.321  24.460  27.314  1.00  0.00    -0.274 OA
BRANCH  16  18
ATOM     18  N   UNL A   1      31.652  26.556  26.372  1.00  0.00    -0.312 N 
BRANCH  18  19
ATOM     19  C   UNL A   1      32.098  27.654  27.244  1.00  0.00     0.122 C 
ATOM     20  C   UNL A   1      33.507  28.164  26.978  1.00  0.00     0.028 C 
ENDBRANCH  18  19
BRANCH  18  21
ATOM     21  C   UNL A   1      30.732  26.891  25.321  1.00  0.00     0.044 A 
ATOM     22  C   UNL A   1      29.693  26.027  24.953  1.00  0.00     0.026 A 
ATOM     23  C   UNL A   1      30.873  28.092  24.615  1.00  0.00     0.029 A 
ATOM     24  C   UNL A   1      28.822  26.355  23.911  1.00  0.00     0.002 A 
ATOM     25  C   UNL A   1      30.022  28.421  23.552  1.00  0.00    -0.049 A 
ATOM     26  C   UNL A   1      28.989  27.546  23.210  1.00  0.00     0.003 A 
ATOM     27  C   UNL A   1      30.233  29.685  22.774  1.00  0.00     0.044 C 
ENDBRANCH  18  21
ENDBRANCH  16  18
ENDBRANCH  15  16
ENDBRANCH   6  15
ENDBRANCH   3   5
ENDBRANCH   2   3
ENDBRANCH   1   2
BRANCH   1  28
ATOM     28  C   UNL A   1      36.358  20.608  24.974  1.00  0.00     0.275 C 
BRANCH  28  29
ATOM     29  O   UNL A   1      37.359  21.628  25.119  1.00  0.00    -0.458 OA
BRANCH  29  30
ATOM     30  C   UNL A   1      38.543  21.253  25.664  1.00  0.00     0.338 C 
ATOM     31  O   UNL A   1      39.058  20.150  25.591  1.00  0.00    -0.246 OA
BRANCH  30  32
ATOM     32  C   UNL A   1      39.155  22.411  26.359  1.00  0.00     0.060 A 
ATOM     33  C   UNL A   1      38.722  23.695  26.062  1.00  0.00     0.016 A 
ATOM     34  C   UNL A   1      40.234  22.249  27.230  1.00  0.00     0.016 A 
ATOM     35  C   UNL A   1      39.422  24.804  26.540  1.00  0.00     0.010 A 
ATOM     36  C   UNL A   1      40.865  23.377  27.792  1.00  0.00     0.010 A 
ATOM     37  C   UNL A   1      40.499  24.683  27.418  1.00  0.00    -0.014 A 
BRANCH  37  38
ATOM     38  C   UNL A   1      41.279  25.903  27.827  1.00  0.00     0.031 A 
ATOM     39  C   UNL A   1      40.625  26.942  28.709  1.00  0.00     0.074 A 
ATOM     40  C   UNL A   1      42.586  26.073  27.517  1.00  0.00     0.049 A 
ATOM     41  N   UNL A   1      40.991  28.174  28.964  1.00  0.00    -0.248 NA
ATOM     42  C   UNL A   1      39.384  26.539  29.388  1.00  0.00     0.031 C 
ATOM     43  C   UNL A   1      43.434  25.117  26.801  1.00  0.00     0.029 A 
ATOM     44  N   UNL A   1      43.447  27.117  27.792  1.00  0.00    -0.354 N 
ATOM     45  C   UNL A   1      39.982  28.718  29.755  1.00  0.00     0.074 A 
ATOM     46  C   UNL A   1      38.994  27.676  29.943  1.00  0.00     0.031 C 
ATOM     47  C   UNL A   1      44.690  25.586  26.748  1.00  0.00     0.029 A 
ATOM     48  C   UNL A   1      44.715  26.940  27.284  1.00  0.00     0.049 A 
ATOM     49  H   UNL A   1      43.178  27.915  28.303  1.00  0.00     0.167 HD
ATOM     50  C   UNL A   1      39.886  29.971  30.266  1.00  0.00     0.034 A 
ATOM     51  C   UNL A   1      45.764  27.786  27.180  1.00  0.00     0.034 A 
ATOM     52  C   UNL A   1      40.915  30.976  30.137  1.00  0.00     0.049 A 
ATOM     53  C   UNL A   1      45.605  29.206  27.662  1.00  0.00     0.074 A 
ATOM     54  C   UNL A   1      40.909  32.283  30.595  1.00  0.00     0.029 A 
ATOM     55  N   UNL A   1      42.146  30.781  29.524  1.00  0.00    -0.354 N 
ATOM     56  N   UNL A   1      44.581  29.767  28.264  1.00  0.00    -0.248 NA
ATOM     57  C   UNL A   1      46.732  30.118  27.422  1.00  0.00     0.031 C 
ATOM     58  C   UNL A   1      42.106  32.894  30.206  1.00  0.00     0.029 A 
ATOM     59  C   UNL A   1      42.895  31.948  29.574  1.00  0.00     0.049 A 
ATOM     60  H   UNL A   1      42.444  29.937  29.114  1.00  0.00     0.167 HD
ATOM     61  C   UNL A   1      44.949  31.091  28.485  1.00  0.00     0.074 A 
ATOM     62  C   UNL A   1      46.297  31.240  27.976  1.00  0.00     0.031 C 
ATOM     63  C   UNL A   1      44.236  32.093  29.057  1.00  0.00     0.034 A 
BRANCH  50  64
ATOM     64  C   UNL A   1      38.583  30.353  30.931  1.00  0.00     0.023 A 
ATOM     65  C   UNL A   1      37.540  30.997  30.245  1.00  0.00     0.031 A 
ATOM     66  C   UNL A   1      38.405  30.093  32.304  1.00  0.00     0.131 A 
ATOM     67  C   UNL A   1      36.402  31.425  30.947  1.00  0.00     0.055 A 
ATOM     68  C   UNL A   1      37.235  30.446  32.978  1.00  0.00     0.041 A 
ATOM     69  F   UNL A   1      39.375  29.501  33.019  1.00  0.00    -0.206 F 
ATOM     70  C   UNL A   1      36.230  31.132  32.303  1.00  0.00     0.022 A 
BRANCH  67  71
ATOM     71  S   UNL A   1      35.212  32.505  30.102  1.00  0.00     0.124 S 
ATOM     72  O   UNL A   1      34.235  32.752  31.160  1.00  0.00    -0.237 OA
ATOM     73  O   UNL A   1      36.038  33.643  29.716  1.00  0.00    -0.237 OA
ATOM     74  O   UNL A   1      34.728  31.681  28.996  1.00  0.00    -0.744 OA
ENDBRANCH  67  71
ENDBRANCH  50  64
BRANCH  51  75
ATOM     75  C   UNL A   1      47.016  27.365  26.478  1.00  0.00     0.023 A 
ATOM     76  C   UNL A   1      47.249  27.690  25.132  1.00  0.00     0.031 A 
ATOM     77  C   UNL A   1      47.972  26.563  27.132  1.00  0.00     0.131 A 
ATOM     78  C   UNL A   1      48.387  27.190  24.477  1.00  0.00     0.055 A 
ATOM     79  C   UNL A   1      49.136  26.127  26.496  1.00  0.00     0.041 A 
ATOM     80  F   UNL A   1      47.793  26.196  28.410  1.00  0.00    -0.206 F 
ATOM     81  C   UNL A   1      49.342  26.429  25.155  1.00  0.00     0.022 A 
BRANCH  78  82
ATOM     82  S   UNL A   1      48.556  27.456  22.689  1.00  0.00     0.124 S 
ATOM     83  O   UNL A   1      47.328  28.180  22.380  1.00  0.00    -0.237 OA
ATOM     84  O   UNL A   1      49.792  28.227  22.610  1.00  0.00    -0.237 OA
ATOM     85  O   UNL A   1      48.634  26.101  22.147  1.00  0.00    -0.744 OA
ENDBRANCH  78  82
ENDBRANCH  51  75
BRANCH  63  86
ATOM     86  C   UNL A   1      44.925  33.427  29.212  1.00  0.00     0.023 A 
ATOM     87  C   UNL A   1      44.899  34.400  28.197  1.00  0.00     0.031 A 
ATOM     88  C   UNL A   1      45.634  33.720  30.391  1.00  0.00     0.131 A 
ATOM     89  C   UNL A   1      45.612  35.598  28.359  1.00  0.00     0.055 A 
ATOM     90  C   UNL A   1      46.294  34.938  30.569  1.00  0.00     0.041 A 
ATOM     91  F   UNL A   1      45.697  32.827  31.391  1.00  0.00    -0.206 F 
ATOM     92  C   UNL A   1      46.296  35.879  29.544  1.00  0.00     0.022 A 
BRANCH  89  93
ATOM     93  S   UNL A   1      45.713  36.752  26.961  1.00  0.00     0.124 S 
ATOM     94  O   UNL A   1      46.065  35.863  25.859  1.00  0.00    -0.237 OA
ATOM     95  O   UNL A   1      44.366  37.314  26.923  1.00  0.00    -0.237 OA
ATOM     96  O   UNL A   1      46.762  37.688  27.363  1.00  0.00    -0.744 OA
ENDBRANCH  89  93
ENDBRANCH  63  86
ENDBRANCH  37  38
ENDBRANCH  30  32
ENDBRANCH  29  30
ENDBRANCH  28  29
ENDBRANCH   1  28
TORSDOF 19
ENDMDL
MODEL 3
REMARK VINA RESULT:     -12.3      2.086      3.967
REMARK SMILES CCN(C(=O)Cc1c(C(=O)OCCOC(=O)c2ccc(-c3c4nc(c(-c5cc(S(=O)(=O)[O-])ccc5F)c5ccc([nH]5)c(-c5cc(S(=O)(=O)[O-])ccc5F)c5nc(c(-c6cc(S(=O)(=O)[O-])ccc6F)c6ccc3[nH]6)C=C5)C=C4)cc2)[nH]c2ccccc12)c1cccc(C)c1
REMARK SMILES IDX 12 1 11 2 9 3 10 4 8 5 7 6 86 7 80 8 81 9 85 10 82 12 84 13
REMARK SMILES IDX 83 14 6 15 4 16 5 17 3 18 2 19 1 20 87 21 88 22 93 23 89 24
REMARK SMILES IDX 91 25 90 26 92 27 13 28 14 29 15 30 16 31 17 32 18 33 79 34
REMARK SMILES IDX 19 35 78 36 20 37 21 38 22 39 72 40 23 41 77 42 71 43 73 44
REMARK SMILES IDX 24 45 76 46 70 47 69 48 25 50 57 51 37 52 56 53 38 54 41 55
REMARK SMILES IDX 55 56 74 57 39 58 40 59 54 61 75 62 42 63 26 64 27 65 35 66
REMARK SMILES IDX 28 67 34 68 36 69 33 70 29 71 30 72 31 73 32 74 58 75 59 76
REMARK SMILES IDX 67 77 60 78 66 79 68 80 65 81 61 82 62 83 63 84 64 85 43 86
REMARK SMILES IDX 44 87 52 88 45 89 51 90 53 91 50 92 46 93 47 94 48 95 49 96
REMARK H PARENT 80 11 73 49 41 60
REMARK Flexibility Score: inf
ROOT
ATOM      1  C   UNL A   1      33.213  28.848  24.295  1.00  0.00     0.275 C 
ENDROOT
BRANCH   1   2
ATOM      2  O   UNL A   1      32.709  28.142  23.138  1.00  0.00    -0.457 OA
BRANCH   2   3
ATOM      3  C   UNL A   1      33.250  26.903  22.923  1.00  0.00     0.355 C 
ATOM      4  O   UNL A   1      33.985  26.627  21.993  1.00  0.00    -0.244 OA
BRANCH   3   5
ATOM      5  C   UNL A   1      32.792  25.983  23.945  1.00  0.00     0.129 A 
ATOM      6  C   UNL A   1      33.484  25.041  24.714  1.00  0.00     0.002 A 
ATOM      7  C   UNL A   1      32.528  24.426  25.591  1.00  0.00     0.004 A 
ATOM      8  N   UNL A   1      31.466  25.891  24.312  1.00  0.00    -0.349 N 
ATOM      9  C   UNL A   1      31.272  24.915  25.257  1.00  0.00     0.046 A 
ATOM     10  C   UNL A   1      32.629  23.470  26.624  1.00  0.00     0.010 A 
ATOM     11  H   UNL A   1      30.748  26.455  23.943  1.00  0.00     0.167 HD
ATOM     12  C   UNL A   1      30.096  24.443  25.849  1.00  0.00     0.027 A 
ATOM     13  C   UNL A   1      31.468  22.996  27.237  1.00  0.00     0.001 A 
ATOM     14  C   UNL A   1      30.219  23.463  26.840  1.00  0.00     0.002 A 
BRANCH   6  15
ATOM     15  C   UNL A   1      34.951  24.728  24.760  1.00  0.00     0.139 C 
BRANCH  15  16
ATOM     16  C   UNL A   1      35.399  23.474  24.019  1.00  0.00     0.231 C 
ATOM     17  O   UNL A   1      35.805  23.601  22.858  1.00  0.00    -0.274 OA
BRANCH  16  18
ATOM     18  N   UNL A   1      35.341  22.242  24.682  1.00  0.00    -0.312 N 
BRANCH  18  19
ATOM     19  C   UNL A   1      36.372  21.781  25.626  1.00  0.00     0.122 C 
ATOM     20  C   UNL A   1      37.584  21.115  24.991  1.00  0.00     0.028 C 
ENDBRANCH  18  19
BRANCH  18  21
ATOM     21  C   UNL A   1      34.298  21.312  24.351  1.00  0.00     0.044 A 
ATOM     22  C   UNL A   1      33.265  21.653  23.470  1.00  0.00     0.026 A 
ATOM     23  C   UNL A   1      34.277  20.038  24.932  1.00  0.00     0.029 A 
ATOM     24  C   UNL A   1      32.242  20.747  23.177  1.00  0.00     0.002 A 
ATOM     25  C   UNL A   1      33.244  19.129  24.667  1.00  0.00    -0.049 A 
ATOM     26  C   UNL A   1      32.230  19.491  23.778  1.00  0.00     0.003 A 
ATOM     27  C   UNL A   1      33.214  17.795  25.348  1.00  0.00     0.044 C 
ENDBRANCH  18  21
ENDBRANCH  16  18
ENDBRANCH  15  16
ENDBRANCH   6  15
ENDBRANCH   3   5
ENDBRANCH   2   3
ENDBRANCH   1   2
BRANCH   1  28
ATOM     28  C   UNL A   1      32.081  29.587  25.011  1.00  0.00     0.275 C 
BRANCH  28  29
ATOM     29  O   UNL A   1      32.384  29.662  26.413  1.00  0.00    -0.458 OA
BRANCH  29  30
ATOM     30  C   UNL A   1      32.807  30.861  26.886  1.00  0.00     0.338 C 
ATOM     31  O   UNL A   1      32.163  31.895  26.918  1.00  0.00    -0.246 OA
BRANCH  30  32
ATOM     32  C   UNL A   1      34.192  30.728  27.400  1.00  0.00     0.060 A 
ATOM     33  C   UNL A   1      34.717  29.465  27.635  1.00  0.00     0.016 A 
ATOM     34  C   UNL A   1      34.946  31.847  27.754  1.00  0.00     0.016 A 
ATOM     35  C   UNL A   1      35.928  29.320  28.313  1.00  0.00     0.010 A 
ATOM     36  C   UNL A   1      36.218  31.686  28.341  1.00  0.00     0.010 A 
ATOM     37  C   UNL A   1      36.713  30.413  28.677  1.00  0.00    -0.014 A 
BRANCH  37  38
ATOM     38  C   UNL A   1      37.962  30.208  29.490  1.00  0.00     0.031 A 
ATOM     39  C   UNL A   1      39.109  29.418  28.903  1.00  0.00     0.074 A 
ATOM     40  C   UNL A   1      38.149  30.782  30.703  1.00  0.00     0.049 A 
ATOM     41  N   UNL A   1      40.152  28.890  29.496  1.00  0.00    -0.248 NA
ATOM     42  C   UNL A   1      39.070  29.184  27.452  1.00  0.00     0.031 C 
ATOM     43  C   UNL A   1      37.222  31.696  31.375  1.00  0.00     0.029 A 
ATOM     44  N   UNL A   1      39.207  30.696  31.584  1.00  0.00    -0.354 N 
ATOM     45  C   UNL A   1      40.840  28.188  28.508  1.00  0.00     0.074 A 
ATOM     46  C   UNL A   1      40.097  28.367  27.278  1.00  0.00     0.031 C 
ATOM     47  C   UNL A   1      37.773  32.129  32.519  1.00  0.00     0.029 A 
ATOM     48  C   UNL A   1      39.020  31.411  32.748  1.00  0.00     0.049 A 
ATOM     49  H   UNL A   1      40.019  30.172  31.400  1.00  0.00     0.167 HD
ATOM     50  C   UNL A   1      41.976  27.456  28.623  1.00  0.00     0.034 A 
ATOM     51  C   UNL A   1      39.718  31.436  33.905  1.00  0.00     0.034 A 
ATOM     52  C   UNL A   1      42.749  27.350  29.838  1.00  0.00     0.049 A 
ATOM     53  C   UNL A   1      40.921  30.539  34.049  1.00  0.00     0.074 A 
ATOM     54  C   UNL A   1      43.901  26.616  30.068  1.00  0.00     0.029 A 
ATOM     55  N   UNL A   1      42.464  28.015  31.023  1.00  0.00    -0.354 N 
ATOM     56  N   UNL A   1      41.474  29.746  33.161  1.00  0.00    -0.248 NA
ATOM     57  C   UNL A   1      41.577  30.516  35.364  1.00  0.00     0.031 C 
ATOM     58  C   UNL A   1      44.276  26.788  31.405  1.00  0.00     0.029 A 
ATOM     59  C   UNL A   1      43.404  27.691  31.991  1.00  0.00     0.049 A 
ATOM     60  H   UNL A   1      41.705  28.627  31.158  1.00  0.00     0.167 HD
ATOM     61  C   UNL A   1      42.550  29.143  33.808  1.00  0.00     0.074 A 
ATOM     62  C   UNL A   1      42.583  29.681  35.151  1.00  0.00     0.031 C 
ATOM     63  C   UNL A   1      43.429  28.225  33.333  1.00  0.00     0.034 A 
BRANCH  50  64
ATOM     64  C   UNL A   1      42.399  26.637  27.424  1.00  0.00     0.023 A 
ATOM     65  C   UNL A   1      42.046  25.287  27.263  1.00  0.00     0.031 A 
ATOM     66  C   UNL A   1      43.213  27.226  26.436  1.00  0.00     0.131 A 
ATOM     67  C   UNL A   1      42.565  24.553  26.184  1.00  0.00     0.055 A 
ATOM     68  C   UNL A   1      43.656  26.513  25.322  1.00  0.00     0.041 A 
ATOM     69  F   UNL A   1      43.603  28.506  26.546  1.00  0.00    -0.206 F 
ATOM     70  C   UNL A   1      43.346  25.162  25.198  1.00  0.00     0.022 A 
BRANCH  67  71
ATOM     71  S   UNL A   1      42.331  22.753  26.163  1.00  0.00     0.124 S 
ATOM     72  O   UNL A   1      43.174  22.334  27.281  1.00  0.00    -0.237 OA
ATOM     73  O   UNL A   1      40.893  22.620  26.362  1.00  0.00    -0.237 OA
ATOM     74  O   UNL A   1      42.818  22.359  24.843  1.00  0.00    -0.744 OA
ENDBRANCH  67  71
ENDBRANCH  50  64
BRANCH  51  75
ATOM     75  C   UNL A   1      39.231  32.237  35.071  1.00  0.00     0.023 A 
ATOM     76  C   UNL A   1      39.693  33.542  35.309  1.00  0.00     0.031 A 
ATOM     77  C   UNL A   1      38.343  31.677  36.009  1.00  0.00     0.131 A 
ATOM     78  C   UNL A   1      39.293  34.226  36.470  1.00  0.00     0.055 A 
ATOM     79  C   UNL A   1      37.894  32.386  37.124  1.00  0.00     0.041 A 
ATOM     80  F   UNL A   1      37.887  30.424  35.851  1.00  0.00    -0.206 F 
ATOM     81  C   UNL A   1      38.380  33.665  37.367  1.00  0.00     0.022 A 
BRANCH  78  82
ATOM     82  S   UNL A   1      40.063  35.824  36.854  1.00  0.00     0.124 S 
ATOM     83  O   UNL A   1      39.386  36.191  38.093  1.00  0.00    -0.237 OA
ATOM     84  O   UNL A   1      41.472  35.463  36.976  1.00  0.00    -0.237 OA
ATOM     85  O   UNL A   1      39.732  36.650  35.694  1.00  0.00    -0.744 OA
ENDBRANCH  78  82
ENDBRANCH  51  75
BRANCH  63  86
ATOM     86  C   UNL A   1      44.536  27.789  34.260  1.00  0.00     0.023 A 
ATOM     87  C   UNL A   1      44.408  26.663  35.094  1.00  0.00     0.031 A 
ATOM     88  C   UNL A   1      45.734  28.524  34.321  1.00  0.00     0.131 A 
ATOM     89  C   UNL A   1      45.439  26.336  35.990  1.00  0.00     0.055 A 
ATOM     90  C   UNL A   1      46.778  28.159  35.172  1.00  0.00     0.041 A 
ATOM     91  F   UNL A   1      45.910  29.610  33.551  1.00  0.00    -0.206 F 
ATOM     92  C   UNL A   1      46.629  27.068  36.023  1.00  0.00     0.022 A 
BRANCH  89  93
ATOM     93  S   UNL A   1      45.169  24.994  37.180  1.00  0.00     0.124 S 
ATOM     94  O   UNL A   1      46.535  24.596  37.505  1.00  0.00    -0.237 OA
ATOM     95  O   UNL A   1      44.429  25.665  38.245  1.00  0.00    -0.237 OA
ATOM     96  O   UNL A   1      44.401  24.009  36.420  1.00  0.00    -0.744 OA
ENDBRANCH  89  93
ENDBRANCH  63  86
ENDBRANCH  37  38
ENDBRANCH  30  32
ENDBRANCH  29  30
ENDBRANCH  28  29
ENDBRANCH   1  28
TORSDOF 19
ENDMDL
