MODEL 1
REMARK VINA RESULT:     -12.6      0.000      0.000
REMARK SMILES Cc1cc2c(c(C)c1Cl)C=C(C(=O)OCCOC(=O)c1ccc(-c3c4nc(c(-c5cc(S(=O)(=O)[O-])ccc5F)c5ccc([nH]5)c(-c5cc(S(=O)(=O)[O-])ccc5F)c5nc(c(-c6cc(S(=O)(=O)[O-])ccc6F)c6ccc3[nH]6)C=C5)C=C4)cc1)[C@H](C(F)(F)F)O2
REMARK SMILES IDX 16 1 15 2 14 3 12 4 13 5 11 6 1 7 2 8 3 9 8 10 4 11 6 12
REMARK SMILES IDX 9 13 5 14 88 15 7 16 10 17 83 18 84 19 85 20 86 21 87 22
REMARK SMILES IDX 17 23 18 24 19 25 20 26 21 27 82 28 22 29 81 30 23 31 24 32
REMARK SMILES IDX 25 33 75 34 26 35 80 36 74 37 76 38 27 39 79 40 73 41 72 42
REMARK SMILES IDX 28 44 60 45 40 46 59 47 41 48 44 49 58 50 77 51 42 52 43 53
REMARK SMILES IDX 57 55 78 56 45 57 29 58 30 59 38 60 31 61 37 62 39 63 36 64
REMARK SMILES IDX 32 65 33 66 34 67 35 68 61 69 62 70 70 71 63 72 69 73 71 74
REMARK SMILES IDX 68 75 64 76 65 77 66 78 67 79 46 80 47 81 55 82 48 83 54 84
REMARK SMILES IDX 56 85 53 86 49 87 50 88 51 89 52 90
REMARK H PARENT 76 43 44 54
REMARK Flexibility Score: inf
ROOT
ATOM      1  C   UNL A   1      35.851  20.641  24.967  1.00  0.00     0.275 C 
ENDROOT
BRANCH   1   2
ATOM      2  C   UNL A   1      34.380  20.978  25.215  1.00  0.00     0.275 C 
BRANCH   2   3
ATOM      3  O   UNL A   1      34.213  22.402  25.383  1.00  0.00    -0.459 OA
BRANCH   3   4
ATOM      4  C   UNL A   1      33.001  22.794  25.849  1.00  0.00     0.338 C 
ATOM      5  O   UNL A   1      32.374  22.267  26.747  1.00  0.00    -0.246 OA
BRANCH   4   6
ATOM      6  C   UNL A   1      32.542  24.005  25.134  1.00  0.00     0.087 C 
ATOM      7  C   UNL A   1      29.995  29.651  23.203  1.00  0.00     0.046 C 
ATOM      8  C   UNL A   1      30.709  28.535  23.919  1.00  0.00    -0.028 A 
ATOM      9  C   UNL A   1      30.641  27.250  23.363  1.00  0.00     0.052 A 
ATOM     10  C   UNL A   1      31.479  28.737  25.081  1.00  0.00     0.047 A 
ATOM     11  C   UNL A   1      31.278  26.174  23.972  1.00  0.00     0.128 A 
ATOM     12  C   UNL A   1      32.117  27.652  25.727  1.00  0.00    -0.021 A 
ATOM     13  Cl  UNL A   1      31.625  30.348  25.717  1.00  0.00    -0.084 Cl
ATOM     14  C   UNL A   1      31.988  26.355  25.165  1.00  0.00     0.022 A 
ATOM     15  O   UNL A   1      31.108  24.957  23.363  1.00  0.00    -0.475 OA
ATOM     16  C   UNL A   1      32.941  27.850  26.979  1.00  0.00     0.047 C 
ATOM     17  C   UNL A   1      32.507  25.156  25.820  1.00  0.00     0.027 C 
ATOM     18  C   UNL A   1      32.030  23.894  23.729  1.00  0.00     0.316 C 
BRANCH  18  19
ATOM     19  C   UNL A   1      33.113  23.706  22.644  1.00  0.00     0.430 C 
ATOM     20  F   UNL A   1      34.299  24.257  22.995  1.00  0.00    -0.167 F 
ATOM     21  F   UNL A   1      33.353  22.412  22.343  1.00  0.00    -0.167 F 
ATOM     22  F   UNL A   1      32.730  24.319  21.492  1.00  0.00    -0.167 F 
ENDBRANCH  18  19
ENDBRANCH   4   6
ENDBRANCH   3   4
ENDBRANCH   2   3
ENDBRANCH   1   2
BRANCH   1  23
ATOM     23  O   UNL A   1      36.675  21.535  25.736  1.00  0.00    -0.458 OA
BRANCH  23  24
ATOM     24  C   UNL A   1      38.010  21.316  25.683  1.00  0.00     0.338 C 
ATOM     25  O   UNL A   1      38.571  20.313  25.274  1.00  0.00    -0.246 OA
BRANCH  24  26
ATOM     26  C   UNL A   1      38.728  22.492  26.220  1.00  0.00     0.060 A 
ATOM     27  C   UNL A   1      38.182  23.767  26.095  1.00  0.00     0.016 A 
ATOM     28  C   UNL A   1      39.995  22.338  26.781  1.00  0.00     0.016 A 
ATOM     29  C   UNL A   1      38.935  24.889  26.438  1.00  0.00     0.010 A 
ATOM     30  C   UNL A   1      40.706  23.462  27.225  1.00  0.00     0.010 A 
ATOM     31  C   UNL A   1      40.203  24.760  27.025  1.00  0.00    -0.014 A 
BRANCH  31  32
ATOM     32  C   UNL A   1      41.001  25.976  27.380  1.00  0.00     0.031 A 
ATOM     33  C   UNL A   1      40.458  26.991  28.359  1.00  0.00     0.074 A 
ATOM     34  C   UNL A   1      42.240  26.160  26.871  1.00  0.00     0.049 A 
ATOM     35  N   UNL A   1      40.923  28.177  28.665  1.00  0.00    -0.248 NA
ATOM     36  C   UNL A   1      39.224  26.634  29.078  1.00  0.00     0.031 C 
ATOM     37  C   UNL A   1      42.925  25.244  25.956  1.00  0.00     0.029 A 
ATOM     38  N   UNL A   1      43.159  27.161  27.076  1.00  0.00    -0.354 N 
ATOM     39  C   UNL A   1      40.011  28.729  29.561  1.00  0.00     0.074 A 
ATOM     40  C   UNL A   1      38.963  27.749  29.746  1.00  0.00     0.031 C 
ATOM     41  C   UNL A   1      44.180  25.674  25.757  1.00  0.00     0.029 A 
ATOM     42  C   UNL A   1      44.358  26.956  26.427  1.00  0.00     0.049 A 
ATOM     43  H   UNL A   1      42.979  27.951  27.635  1.00  0.00     0.167 HD
ATOM     44  C   UNL A   1      40.045  29.940  30.170  1.00  0.00     0.034 A 
ATOM     45  C   UNL A   1      45.463  27.724  26.340  1.00  0.00     0.034 A 
ATOM     46  C   UNL A   1      41.126  30.886  30.031  1.00  0.00     0.049 A 
ATOM     47  C   UNL A   1      45.463  29.079  26.992  1.00  0.00     0.074 A 
ATOM     48  C   UNL A   1      41.247  32.144  30.597  1.00  0.00     0.029 A 
ATOM     49  N   UNL A   1      42.283  30.670  29.297  1.00  0.00    -0.354 N 
ATOM     50  N   UNL A   1      44.528  29.640  27.720  1.00  0.00    -0.248 NA
ATOM     51  C   UNL A   1      46.650  29.920  26.777  1.00  0.00     0.031 C 
ATOM     52  C   UNL A   1      42.456  32.705  30.169  1.00  0.00     0.029 A 
ATOM     53  C   UNL A   1      43.115  31.774  29.385  1.00  0.00     0.049 A 
ATOM     54  H   UNL A   1      42.483  29.851  28.788  1.00  0.00     0.167 HD
ATOM     55  C   UNL A   1      45.012  30.902  28.047  1.00  0.00     0.074 A 
ATOM     56  C   UNL A   1      46.329  31.014  27.454  1.00  0.00     0.031 C 
ATOM     57  C   UNL A   1      44.415  31.882  28.771  1.00  0.00     0.034 A 
BRANCH  44  58
ATOM     58  C   UNL A   1      38.854  30.343  31.004  1.00  0.00     0.023 A 
ATOM     59  C   UNL A   1      37.755  31.023  30.459  1.00  0.00     0.031 A 
ATOM     60  C   UNL A   1      38.819  30.016  32.373  1.00  0.00     0.131 A 
ATOM     61  C   UNL A   1      36.683  31.392  31.287  1.00  0.00     0.055 A 
ATOM     62  C   UNL A   1      37.722  30.328  33.177  1.00  0.00     0.041 A 
ATOM     63  F   UNL A   1      39.852  29.380  32.949  1.00  0.00    -0.206 F 
ATOM     64  C   UNL A   1      36.648  31.027  32.636  1.00  0.00     0.022 A 
BRANCH  61  65
ATOM     65  S   UNL A   1      35.361  32.426  30.599  1.00  0.00     0.124 S 
ATOM     66  O   UNL A   1      35.051  31.719  29.359  1.00  0.00    -0.237 OA
ATOM     67  O   UNL A   1      34.341  32.373  31.639  1.00  0.00    -0.237 OA
ATOM     68  O   UNL A   1      36.002  33.729  30.421  1.00  0.00    -0.744 OA
ENDBRANCH  61  65
ENDBRANCH  44  58
BRANCH  45  69
ATOM     69  C   UNL A   1      46.637  27.255  25.549  1.00  0.00     0.023 A 
ATOM     70  C   UNL A   1      46.912  27.786  24.280  1.00  0.00     0.031 A 
ATOM     71  C   UNL A   1      47.507  26.275  26.061  1.00  0.00     0.131 A 
ATOM     72  C   UNL A   1      48.027  27.328  23.560  1.00  0.00     0.055 A 
ATOM     73  C   UNL A   1      48.638  25.856  25.362  1.00  0.00     0.041 A 
ATOM     74  F   UNL A   1      47.286  25.736  27.271  1.00  0.00    -0.206 F 
ATOM     75  C   UNL A   1      48.902  26.381  24.101  1.00  0.00     0.022 A 
BRANCH  72  76
ATOM     76  S   UNL A   1      48.314  27.969  21.888  1.00  0.00     0.124 S 
ATOM     77  O   UNL A   1      47.169  28.854  21.709  1.00  0.00    -0.237 OA
ATOM     78  O   UNL A   1      49.614  28.617  22.027  1.00  0.00    -0.237 OA
ATOM     79  O   UNL A   1      48.309  26.766  21.057  1.00  0.00    -0.744 OA
ENDBRANCH  72  76
ENDBRANCH  45  69
BRANCH  57  80
ATOM     80  C   UNL A   1      45.190  33.154  28.978  1.00  0.00     0.023 A 
ATOM     81  C   UNL A   1      44.981  34.278  28.161  1.00  0.00     0.031 A 
ATOM     82  C   UNL A   1      46.123  33.251  30.024  1.00  0.00     0.131 A 
ATOM     83  C   UNL A   1      45.720  35.449  28.388  1.00  0.00     0.055 A 
ATOM     84  C   UNL A   1      46.826  34.430  30.270  1.00  0.00     0.041 A 
ATOM     85  F   UNL A   1      46.355  32.203  30.831  1.00  0.00    -0.206 F 
ATOM     86  C   UNL A   1      46.629  35.536  29.447  1.00  0.00     0.022 A 
BRANCH  83  87
ATOM     87  S   UNL A   1      45.497  36.856  27.267  1.00  0.00     0.124 S 
ATOM     88  O   UNL A   1      44.093  36.721  26.891  1.00  0.00    -0.237 OA
ATOM     89  O   UNL A   1      45.822  37.995  28.118  1.00  0.00    -0.237 OA
ATOM     90  O   UNL A   1      46.455  36.594  26.193  1.00  0.00    -0.744 OA
ENDBRANCH  83  87
ENDBRANCH  57  80
ENDBRANCH  31  32
ENDBRANCH  24  26
ENDBRANCH  23  24
ENDBRANCH   1  23
TORSDOF 15
ENDMDL
MODEL 2
REMARK VINA RESULT:     -12.5      5.200     10.310
REMARK SMILES Cc1cc2c(c(C)c1Cl)C=C(C(=O)OCCOC(=O)c1ccc(-c3c4nc(c(-c5cc(S(=O)(=O)[O-])ccc5F)c5ccc([nH]5)c(-c5cc(S(=O)(=O)[O-])ccc5F)c5nc(c(-c6cc(S(=O)(=O)[O-])ccc6F)c6ccc3[nH]6)C=C5)C=C4)cc1)[C@H](C(F)(F)F)O2
REMARK SMILES IDX 16 1 15 2 14 3 12 4 13 5 11 6 1 7 2 8 3 9 8 10 4 11 6 12
REMARK SMILES IDX 9 13 5 14 88 15 7 16 10 17 83 18 84 19 85 20 86 21 87 22
REMARK SMILES IDX 17 23 18 24 19 25 20 26 21 27 82 28 22 29 81 30 23 31 24 32
REMARK SMILES IDX 25 33 75 34 26 35 80 36 74 37 76 38 27 39 79 40 73 41 72 42
REMARK SMILES IDX 28 44 60 45 40 46 59 47 41 48 44 49 58 50 77 51 42 52 43 53
REMARK SMILES IDX 57 55 78 56 45 57 29 58 30 59 38 60 31 61 37 62 39 63 36 64
REMARK SMILES IDX 32 65 33 66 34 67 35 68 61 69 62 70 70 71 63 72 69 73 71 74
REMARK SMILES IDX 68 75 64 76 65 77 66 78 67 79 46 80 47 81 55 82 48 83 54 84
REMARK SMILES IDX 56 85 53 86 49 87 50 88 51 89 52 90
REMARK H PARENT 76 43 44 54
REMARK Flexibility Score: inf
ROOT
ATOM      1  C   UNL A   1      32.057  29.733  25.263  1.00  0.00     0.275 C 
ENDROOT
BRANCH   1   2
ATOM      2  C   UNL A   1      31.436  28.351  25.058  1.00  0.00     0.275 C 
BRANCH   2   3
ATOM      3  O   UNL A   1      32.470  27.351  24.925  1.00  0.00    -0.459 OA
BRANCH   3   4
ATOM      4  C   UNL A   1      32.395  26.583  23.811  1.00  0.00     0.338 C 
ATOM      5  O   UNL A   1      32.288  26.986  22.668  1.00  0.00    -0.246 OA
BRANCH   4   6
ATOM      6  C   UNL A   1      32.509  25.151  24.163  1.00  0.00     0.087 C 
ATOM      7  C   UNL A   1      33.952  18.852  24.739  1.00  0.00     0.046 C 
ATOM      8  C   UNL A   1      33.967  20.352  24.617  1.00  0.00    -0.028 A 
ATOM      9  C   UNL A   1      32.737  21.013  24.495  1.00  0.00     0.052 A 
ATOM     10  C   UNL A   1      35.150  21.115  24.674  1.00  0.00     0.047 A 
ATOM     11  C   UNL A   1      32.679  22.398  24.379  1.00  0.00     0.128 A 
ATOM     12  C   UNL A   1      35.114  22.522  24.537  1.00  0.00    -0.021 A 
ATOM     13  Cl  UNL A   1      36.663  20.293  24.908  1.00  0.00    -0.084 Cl
ATOM     14  C   UNL A   1      33.855  23.157  24.365  1.00  0.00     0.022 A 
ATOM     15  O   UNL A   1      31.425  22.932  24.222  1.00  0.00    -0.475 OA
ATOM     16  C   UNL A   1      36.374  23.356  24.588  1.00  0.00     0.047 C 
ATOM     17  C   UNL A   1      33.722  24.587  24.096  1.00  0.00     0.027 C 
ATOM     18  C   UNL A   1      31.273  24.358  24.466  1.00  0.00     0.316 C 
BRANCH  18  19
ATOM     19  C   UNL A   1      30.647  24.614  25.854  1.00  0.00     0.430 C 
ATOM     20  F   UNL A   1      30.054  23.510  26.367  1.00  0.00    -0.167 F 
ATOM     21  F   UNL A   1      31.536  25.047  26.774  1.00  0.00    -0.167 F 
ATOM     22  F   UNL A   1      29.678  25.563  25.761  1.00  0.00    -0.167 F 
ENDBRANCH  18  19
ENDBRANCH   4   6
ENDBRANCH   3   4
ENDBRANCH   2   3
ENDBRANCH   1   2
BRANCH   1  23
ATOM     23  O   UNL A   1      32.053  30.048  26.666  1.00  0.00    -0.458 OA
BRANCH  23  24
ATOM     24  C   UNL A   1      32.655  31.207  27.023  1.00  0.00     0.338 C 
ATOM     25  O   UNL A   1      32.218  32.335  26.870  1.00  0.00    -0.246 OA
BRANCH  24  26
ATOM     26  C   UNL A   1      33.970  30.916  27.633  1.00  0.00     0.060 A 
ATOM     27  C   UNL A   1      34.373  29.600  27.845  1.00  0.00     0.016 A 
ATOM     28  C   UNL A   1      34.779  31.963  28.076  1.00  0.00     0.016 A 
ATOM     29  C   UNL A   1      35.527  29.330  28.579  1.00  0.00     0.010 A 
ATOM     30  C   UNL A   1      35.994  31.685  28.719  1.00  0.00     0.010 A 
ATOM     31  C   UNL A   1      36.369  30.363  29.016  1.00  0.00    -0.014 A 
BRANCH  31  32
ATOM     32  C   UNL A   1      37.600  30.054  29.810  1.00  0.00     0.031 A 
ATOM     33  C   UNL A   1      38.755  29.311  29.177  1.00  0.00     0.074 A 
ATOM     34  C   UNL A   1      37.721  30.478  31.087  1.00  0.00     0.049 A 
ATOM     35  N   UNL A   1      39.826  28.812  29.741  1.00  0.00    -0.248 NA
ATOM     36  C   UNL A   1      38.690  29.087  27.724  1.00  0.00     0.031 C 
ATOM     37  C   UNL A   1      36.718  31.253  31.822  1.00  0.00     0.029 A 
ATOM     38  N   UNL A   1      38.752  30.349  31.987  1.00  0.00    -0.354 N 
ATOM     39  C   UNL A   1      40.530  28.166  28.728  1.00  0.00     0.074 A 
ATOM     40  C   UNL A   1      39.760  28.333  27.514  1.00  0.00     0.031 C 
ATOM     41  C   UNL A   1      37.219  31.608  33.014  1.00  0.00     0.029 A 
ATOM     42  C   UNL A   1      38.527  30.989  33.186  1.00  0.00     0.049 A 
ATOM     43  H   UNL A   1      39.576  29.846  31.792  1.00  0.00     0.167 HD
ATOM     44  C   UNL A   1      41.705  27.495  28.804  1.00  0.00     0.034 A 
ATOM     45  C   UNL A   1      39.263  31.045  34.315  1.00  0.00     0.034 A 
ATOM     46  C   UNL A   1      42.499  27.387  30.004  1.00  0.00     0.049 A 
ATOM     47  C   UNL A   1      40.545  30.262  34.390  1.00  0.00     0.074 A 
ATOM     48  C   UNL A   1      43.698  26.719  30.187  1.00  0.00     0.029 A 
ATOM     49  N   UNL A   1      42.191  27.984  31.219  1.00  0.00    -0.354 N 
ATOM     50  N   UNL A   1      41.121  29.540  33.459  1.00  0.00    -0.248 NA
ATOM     51  C   UNL A   1      41.254  30.269  35.677  1.00  0.00     0.031 C 
ATOM     52  C   UNL A   1      44.091  26.874  31.521  1.00  0.00     0.029 A 
ATOM     53  C   UNL A   1      43.169  27.689  32.155  1.00  0.00     0.049 A 
ATOM     54  H   UNL A   1      41.394  28.536  31.389  1.00  0.00     0.167 HD
ATOM     55  C   UNL A   1      42.259  29.003  34.051  1.00  0.00     0.074 A 
ATOM     56  C   UNL A   1      42.300  29.498  35.412  1.00  0.00     0.031 C 
ATOM     57  C   UNL A   1      43.185  28.170  33.514  1.00  0.00     0.034 A 
BRANCH  44  58
ATOM     58  C   UNL A   1      42.187  26.774  27.570  1.00  0.00     0.023 A 
ATOM     59  C   UNL A   1      42.013  25.393  27.394  1.00  0.00     0.031 A 
ATOM     60  C   UNL A   1      42.816  27.499  26.540  1.00  0.00     0.131 A 
ATOM     61  C   UNL A   1      42.500  24.771  26.234  1.00  0.00     0.055 A 
ATOM     62  C   UNL A   1      43.241  26.886  25.360  1.00  0.00     0.041 A 
ATOM     63  F   UNL A   1      43.022  28.820  26.664  1.00  0.00    -0.206 F 
ATOM     64  C   UNL A   1      43.090  25.512  25.205  1.00  0.00     0.022 A 
BRANCH  61  65
ATOM     65  S   UNL A   1      42.425  22.963  26.113  1.00  0.00     0.124 S 
ATOM     66  O   UNL A   1      43.321  22.560  27.194  1.00  0.00    -0.237 OA
ATOM     67  O   UNL A   1      41.008  22.689  26.320  1.00  0.00    -0.237 OA
ATOM     68  O   UNL A   1      42.922  22.688  24.766  1.00  0.00    -0.744 OA
ENDBRANCH  61  65
ENDBRANCH  44  58
BRANCH  45  69
ATOM     69  C   UNL A   1      38.770  31.819  35.490  1.00  0.00     0.023 A 
ATOM     70  C   UNL A   1      38.150  31.175  36.571  1.00  0.00     0.031 A 
ATOM     71  C   UNL A   1      38.922  33.216  35.550  1.00  0.00     0.131 A 
ATOM     72  C   UNL A   1      37.699  31.929  37.666  1.00  0.00     0.055 A 
ATOM     73  C   UNL A   1      38.514  33.956  36.659  1.00  0.00     0.041 A 
ATOM     74  F   UNL A   1      39.509  33.879  34.539  1.00  0.00    -0.206 F 
ATOM     75  C   UNL A   1      37.894  33.312  37.725  1.00  0.00     0.022 A 
BRANCH  72  76
ATOM     76  S   UNL A   1      36.828  31.083  39.014  1.00  0.00     0.124 S 
ATOM     77  O   UNL A   1      37.782  31.210  40.109  1.00  0.00    -0.237 OA
ATOM     78  O   UNL A   1      35.605  31.871  39.130  1.00  0.00    -0.237 OA
ATOM     79  O   UNL A   1      36.643  29.727  38.501  1.00  0.00    -0.744 OA
ENDBRANCH  72  76
ENDBRANCH  45  69
BRANCH  57  80
ATOM     80  C   UNL A   1      44.332  27.756  34.395  1.00  0.00     0.023 A 
ATOM     81  C   UNL A   1      44.307  26.546  35.107  1.00  0.00     0.031 A 
ATOM     82  C   UNL A   1      45.474  28.569  34.496  1.00  0.00     0.131 A 
ATOM     83  C   UNL A   1      45.398  26.192  35.915  1.00  0.00     0.055 A 
ATOM     84  C   UNL A   1      46.572  28.194  35.270  1.00  0.00     0.041 A 
ATOM     85  F   UNL A   1      45.544  29.734  33.832  1.00  0.00    -0.206 F 
ATOM     86  C   UNL A   1      46.536  27.001  35.988  1.00  0.00     0.022 A 
BRANCH  83  87
ATOM     87  S   UNL A   1      45.305  24.668  36.893  1.00  0.00     0.124 S 
ATOM     88  O   UNL A   1      44.147  24.002  36.303  1.00  0.00    -0.237 OA
ATOM     89  O   UNL A   1      46.598  24.045  36.633  1.00  0.00    -0.237 OA
ATOM     90  O   UNL A   1      45.115  25.148  38.260  1.00  0.00    -0.744 OA
ENDBRANCH  83  87
ENDBRANCH  57  80
ENDBRANCH  31  32
ENDBRANCH  24  26
ENDBRANCH  23  24
ENDBRANCH   1  23
TORSDOF 15
ENDMDL
MODEL 3
REMARK VINA RESULT:     -12.4      1.734      2.095
REMARK SMILES Cc1cc2c(c(C)c1Cl)C=C(C(=O)OCCOC(=O)c1ccc(-c3c4nc(c(-c5cc(S(=O)(=O)[O-])ccc5F)c5ccc([nH]5)c(-c5cc(S(=O)(=O)[O-])ccc5F)c5nc(c(-c6cc(S(=O)(=O)[O-])ccc6F)c6ccc3[nH]6)C=C5)C=C4)cc1)[C@H](C(F)(F)F)O2
REMARK SMILES IDX 16 1 15 2 14 3 12 4 13 5 11 6 1 7 2 8 3 9 8 10 4 11 6 12
REMARK SMILES IDX 9 13 5 14 88 15 7 16 10 17 83 18 84 19 85 20 86 21 87 22
REMARK SMILES IDX 17 23 18 24 19 25 20 26 21 27 82 28 22 29 81 30 23 31 24 32
REMARK SMILES IDX 25 33 75 34 26 35 80 36 74 37 76 38 27 39 79 40 73 41 72 42
REMARK SMILES IDX 28 44 60 45 40 46 59 47 41 48 44 49 58 50 77 51 42 52 43 53
REMARK SMILES IDX 57 55 78 56 45 57 29 58 30 59 38 60 31 61 37 62 39 63 36 64
REMARK SMILES IDX 32 65 33 66 34 67 35 68 61 69 62 70 70 71 63 72 69 73 71 74
REMARK SMILES IDX 68 75 64 76 65 77 66 78 67 79 46 80 47 81 55 82 48 83 54 84
REMARK SMILES IDX 56 85 53 86 49 87 50 88 51 89 52 90
REMARK H PARENT 76 43 44 54
REMARK Flexibility Score: inf
ROOT
ATOM      1  C   UNL A   1      36.781  20.472  24.946  1.00  0.00     0.275 C 
ENDROOT
BRANCH   1   2
ATOM      2  C   UNL A   1      35.317  20.554  25.378  1.00  0.00     0.275 C 
BRANCH   2   3
ATOM      3  O   UNL A   1      35.013  21.875  25.877  1.00  0.00    -0.459 OA
BRANCH   3   4
ATOM      4  C   UNL A   1      33.804  22.006  26.475  1.00  0.00     0.338 C 
ATOM      5  O   UNL A   1      33.459  21.484  27.518  1.00  0.00    -0.246 OA
BRANCH   4   6
ATOM      6  C   UNL A   1      32.943  22.927  25.700  1.00  0.00     0.087 C 
ATOM      7  C   UNL A   1      29.171  27.698  23.444  1.00  0.00     0.046 C 
ATOM      8  C   UNL A   1      30.249  26.859  24.076  1.00  0.00    -0.028 A 
ATOM      9  C   UNL A   1      30.098  25.465  24.044  1.00  0.00     0.052 A 
ATOM     10  C   UNL A   1      31.416  27.407  24.644  1.00  0.00     0.047 A 
ATOM     11  C   UNL A   1      31.057  24.630  24.608  1.00  0.00     0.128 A 
ATOM     12  C   UNL A   1      32.392  26.576  25.241  1.00  0.00    -0.021 A 
ATOM     13  Cl  UNL A   1      31.632  29.131  24.606  1.00  0.00    -0.084 Cl
ATOM     14  C   UNL A   1      32.185  25.172  25.236  1.00  0.00     0.022 A 
ATOM     15  O   UNL A   1      30.784  23.287  24.556  1.00  0.00    -0.475 OA
ATOM     16  C   UNL A   1      33.646  27.148  25.862  1.00  0.00     0.047 C 
ATOM     17  C   UNL A   1      33.073  24.240  25.929  1.00  0.00     0.027 C 
ATOM     18  C   UNL A   1      31.892  22.373  24.786  1.00  0.00     0.316 C 
BRANCH  18  19
ATOM     19  C   UNL A   1      32.414  21.795  23.453  1.00  0.00     0.430 C 
ATOM     20  F   UNL A   1      31.546  21.984  22.431  1.00  0.00    -0.167 F 
ATOM     21  F   UNL A   1      33.597  22.318  23.066  1.00  0.00    -0.167 F 
ATOM     22  F   UNL A   1      32.591  20.451  23.564  1.00  0.00    -0.167 F 
ENDBRANCH  18  19
ENDBRANCH   4   6
ENDBRANCH   3   4
ENDBRANCH   2   3
ENDBRANCH   1   2
BRANCH   1  23
ATOM     23  O   UNL A   1      37.506  21.570  25.527  1.00  0.00    -0.458 OA
BRANCH  23  24
ATOM     24  C   UNL A   1      38.766  21.304  25.944  1.00  0.00     0.338 C 
ATOM     25  O   UNL A   1      39.338  20.227  25.904  1.00  0.00    -0.246 OA
BRANCH  24  26
ATOM     26  C   UNL A   1      39.380  22.534  26.488  1.00  0.00     0.060 A 
ATOM     27  C   UNL A   1      38.892  23.786  26.121  1.00  0.00     0.016 A 
ATOM     28  C   UNL A   1      40.505  22.448  27.309  1.00  0.00     0.016 A 
ATOM     29  C   UNL A   1      39.578  24.942  26.490  1.00  0.00     0.010 A 
ATOM     30  C   UNL A   1      41.129  23.617  27.767  1.00  0.00     0.010 A 
ATOM     31  C   UNL A   1      40.698  24.883  27.333  1.00  0.00    -0.014 A 
BRANCH  31  32
ATOM     32  C   UNL A   1      41.428  26.134  27.713  1.00  0.00     0.031 A 
ATOM     33  C   UNL A   1      40.770  27.168  28.597  1.00  0.00     0.074 A 
ATOM     34  C   UNL A   1      42.704  26.336  27.314  1.00  0.00     0.049 A 
ATOM     35  N   UNL A   1      41.173  28.378  28.899  1.00  0.00    -0.248 NA
ATOM     36  C   UNL A   1      39.484  26.802  29.212  1.00  0.00     0.031 C 
ATOM     37  C   UNL A   1      43.495  25.408  26.502  1.00  0.00     0.029 A 
ATOM     38  N   UNL A   1      43.574  27.371  27.563  1.00  0.00    -0.354 N 
ATOM     39  C   UNL A   1      40.168  28.935  29.684  1.00  0.00     0.074 A 
ATOM     40  C   UNL A   1      39.132  27.931  29.809  1.00  0.00     0.031 C 
ATOM     41  C   UNL A   1      44.751  25.868  26.403  1.00  0.00     0.029 A 
ATOM     42  C   UNL A   1      44.832  27.178  27.036  1.00  0.00     0.049 A 
ATOM     43  H   UNL A   1      43.322  28.175  28.072  1.00  0.00     0.167 HD
ATOM     44  C   UNL A   1      40.112  30.168  30.246  1.00  0.00     0.034 A 
ATOM     45  C   UNL A   1      45.921  27.974  27.023  1.00  0.00     0.034 A 
ATOM     46  C   UNL A   1      41.177  31.139  30.171  1.00  0.00     0.049 A 
ATOM     47  C   UNL A   1      45.825  29.352  27.618  1.00  0.00     0.074 A 
ATOM     48  C   UNL A   1      41.212  32.420  30.696  1.00  0.00     0.029 A 
ATOM     49  N   UNL A   1      42.403  30.930  29.556  1.00  0.00    -0.354 N 
ATOM     50  N   UNL A   1      44.812  29.911  28.234  1.00  0.00    -0.248 NA
ATOM     51  C   UNL A   1      47.004  30.218  27.481  1.00  0.00     0.031 C 
ATOM     52  C   UNL A   1      42.440  33.001  30.360  1.00  0.00     0.029 A 
ATOM     53  C   UNL A   1      43.194  32.061  29.677  1.00  0.00     0.049 A 
ATOM     54  H   UNL A   1      42.671  30.100  29.099  1.00  0.00     0.167 HD
ATOM     55  C   UNL A   1      45.230  31.198  28.555  1.00  0.00     0.074 A 
ATOM     56  C   UNL A   1      46.593  31.327  28.082  1.00  0.00     0.031 C 
ATOM     57  C   UNL A   1      44.543  32.185  29.182  1.00  0.00     0.034 A 
BRANCH  44  58
ATOM     58  C   UNL A   1      38.839  30.565  30.950  1.00  0.00     0.023 A 
ATOM     59  C   UNL A   1      37.774  31.182  30.277  1.00  0.00     0.031 A 
ATOM     60  C   UNL A   1      38.689  30.297  32.323  1.00  0.00     0.131 A 
ATOM     61  C   UNL A   1      36.620  31.550  30.987  1.00  0.00     0.055 A 
ATOM     62  C   UNL A   1      37.514  30.607  33.010  1.00  0.00     0.041 A 
ATOM     63  F   UNL A   1      39.684  29.723  33.019  1.00  0.00    -0.206 F 
ATOM     64  C   UNL A   1      36.473  31.244  32.343  1.00  0.00     0.022 A 
BRANCH  61  65
ATOM     65  S   UNL A   1      35.336  32.507  30.135  1.00  0.00     0.124 S 
ATOM     66  O   UNL A   1      34.319  32.624  31.176  1.00  0.00    -0.237 OA
ATOM     67  O   UNL A   1      36.036  33.737  29.784  1.00  0.00    -0.237 OA
ATOM     68  O   UNL A   1      34.967  31.657  29.005  1.00  0.00    -0.744 OA
ENDBRANCH  61  65
ENDBRANCH  44  58
BRANCH  45  69
ATOM     69  C   UNL A   1      47.175  27.512  26.363  1.00  0.00     0.023 A 
ATOM     70  C   UNL A   1      48.130  26.765  27.067  1.00  0.00     0.031 A 
ATOM     71  C   UNL A   1      47.428  27.803  25.010  1.00  0.00     0.131 A 
ATOM     72  C   UNL A   1      49.301  26.339  26.418  1.00  0.00     0.055 A 
ATOM     73  C   UNL A   1      48.570  27.340  24.356  1.00  0.00     0.041 A 
ATOM     74  F   UNL A   1      46.544  28.516  24.292  1.00  0.00    -0.206 F 
ATOM     75  C   UNL A   1      49.517  26.606  25.063  1.00  0.00     0.022 A 
BRANCH  72  76
ATOM     76  S   UNL A   1      50.558  25.447  27.373  1.00  0.00     0.124 S 
ATOM     77  O   UNL A   1      50.855  26.400  28.436  1.00  0.00    -0.237 OA
ATOM     78  O   UNL A   1      49.841  24.240  27.772  1.00  0.00    -0.237 OA
ATOM     79  O   UNL A   1      51.634  25.235  26.406  1.00  0.00    -0.744 OA
ENDBRANCH  72  76
ENDBRANCH  45  69
BRANCH  57  80
ATOM     80  C   UNL A   1      45.262  33.487  29.410  1.00  0.00     0.023 A 
ATOM     81  C   UNL A   1      45.183  34.537  28.481  1.00  0.00     0.031 A 
ATOM     82  C   UNL A   1      46.006  33.685  30.585  1.00  0.00     0.131 A 
ATOM     83  C   UNL A   1      45.863  35.738  28.731  1.00  0.00     0.055 A 
ATOM     84  C   UNL A   1      46.648  34.896  30.847  1.00  0.00     0.041 A 
ATOM     85  F   UNL A   1      46.108  32.710  31.502  1.00  0.00    -0.206 F 
ATOM     86  C   UNL A   1      46.582  35.928  29.915  1.00  0.00     0.022 A 
BRANCH  83  87
ATOM     87  S   UNL A   1      45.819  37.046  27.477  1.00  0.00     0.124 S 
ATOM     88  O   UNL A   1      46.445  38.160  28.182  1.00  0.00    -0.237 OA
ATOM     89  O   UNL A   1      46.595  36.467  26.386  1.00  0.00    -0.237 OA
ATOM     90  O   UNL A   1      44.393  37.210  27.201  1.00  0.00    -0.744 OA
ENDBRANCH  83  87
ENDBRANCH  57  80
ENDBRANCH  31  32
ENDBRANCH  24  26
ENDBRANCH  23  24
ENDBRANCH   1  23
TORSDOF 15
ENDMDL
