MODEL 1
REMARK VINA RESULT:     -10.2      0.000      0.000
REMARK SMILES O=C(C[C@@H](c1c[nH]c2ccccc12)C(F)(F)F)OCCOC(=O)c1ccc(-c2c3nc(c(-c4cc(S(=O)(=O)[O-])ccc4F)c4ccc([nH]4)c(-c4cc(S(=O)(=O)[O-])ccc4F)c4nc(c(-c5cc(S(=O)(=O)[O-])ccc5F)c5ccc2[nH]5)C=C4)C=C3)cc1
REMARK SMILES IDX 20 1 19 2 18 3 2 4 1 5 3 6 4 7 5 8 6 9 13 10 7 11 8 12 12 13
REMARK SMILES IDX 9 15 11 16 10 17 14 18 15 19 16 20 17 21 21 22 22 23 23 24
REMARK SMILES IDX 24 25 25 26 86 27 26 28 85 29 27 30 28 31 29 32 79 33 30 34
REMARK SMILES IDX 84 35 78 36 80 37 31 38 83 39 77 40 76 41 32 43 64 44 44 45
REMARK SMILES IDX 63 46 45 47 48 48 62 49 81 50 46 51 47 52 61 54 82 55 49 56
REMARK SMILES IDX 33 57 34 58 42 59 35 60 41 61 43 62 40 63 36 64 37 65 38 66
REMARK SMILES IDX 39 67 65 68 66 69 74 70 67 71 73 72 75 73 72 74 68 75 69 76
REMARK SMILES IDX 70 77 71 78 50 79 51 80 59 81 52 82 58 83 60 84 57 85 53 86
REMARK SMILES IDX 54 87 55 88 56 89
REMARK H PARENT 7 14 80 42 48 53
REMARK Flexibility Score: inf
ROOT
ATOM      1  C   UNL A   1      33.460  34.003  28.498  1.00  0.00     0.275 C 
ENDROOT
BRANCH   1   2
ATOM      2  C   UNL A   1      33.636  35.242  29.374  1.00  0.00     0.274 C 
BRANCH   2   3
ATOM      3  O   UNL A   1      33.171  35.050  30.725  1.00  0.00    -0.462 OA
BRANCH   3   4
ATOM      4  C   UNL A   1      33.733  35.709  31.770  1.00  0.00     0.306 C 
ATOM      5  O   UNL A   1      33.588  36.922  31.899  1.00  0.00    -0.252 OA
BRANCH   4   6
ATOM      6  C   UNL A   1      34.646  34.927  32.687  1.00  0.00     0.140 C 
BRANCH   6   7
ATOM      7  C   UNL A   1      35.686  34.107  31.914  1.00  0.00     0.138 C 
BRANCH   7   8
ATOM      8  C   UNL A   1      37.085  34.421  32.405  1.00  0.00    -0.010 A 
ATOM      9  C   UNL A   1      37.394  34.635  33.737  1.00  0.00     0.087 A 
ATOM     10  C   UNL A   1      38.335  34.410  31.692  1.00  0.00     0.003 A 
ATOM     11  N   UNL A   1      38.750  34.724  33.864  1.00  0.00    -0.361 N 
ATOM     12  C   UNL A   1      39.352  34.551  32.641  1.00  0.00     0.046 A 
ATOM     13  C   UNL A   1      38.719  34.210  30.347  1.00  0.00     0.010 A 
ATOM     14  H   UNL A   1      39.228  34.889  34.709  1.00  0.00     0.166 HD
ATOM     15  C   UNL A   1      40.714  34.486  32.319  1.00  0.00     0.026 A 
ATOM     16  C   UNL A   1      40.077  34.153  30.007  1.00  0.00     0.001 A 
ATOM     17  C   UNL A   1      41.058  34.281  30.982  1.00  0.00     0.002 A 
ENDBRANCH   7   8
BRANCH   7  18
ATOM     18  C   UNL A   1      35.286  32.634  31.938  1.00  0.00     0.396 C 
ATOM     19  F   UNL A   1      35.187  32.199  33.218  1.00  0.00    -0.170 F 
ATOM     20  F   UNL A   1      34.088  32.422  31.352  1.00  0.00    -0.170 F 
ATOM     21  F   UNL A   1      36.196  31.843  31.330  1.00  0.00    -0.170 F 
ENDBRANCH   7  18
ENDBRANCH   6   7
ENDBRANCH   4   6
ENDBRANCH   3   4
ENDBRANCH   2   3
ENDBRANCH   1   2
BRANCH   1  22
ATOM     22  O   UNL A   1      34.676  33.241  28.450  1.00  0.00    -0.458 OA
BRANCH  22  23
ATOM     23  C   UNL A   1      34.526  31.965  28.016  1.00  0.00     0.338 C 
ATOM     24  O   UNL A   1      33.590  31.531  27.364  1.00  0.00    -0.246 OA
BRANCH  23  25
ATOM     25  C   UNL A   1      35.761  31.198  28.289  1.00  0.00     0.060 A 
ATOM     26  C   UNL A   1      35.621  29.886  28.761  1.00  0.00     0.016 A 
ATOM     27  C   UNL A   1      37.035  31.737  28.083  1.00  0.00     0.016 A 
ATOM     28  C   UNL A   1      36.748  29.129  29.078  1.00  0.00     0.010 A 
ATOM     29  C   UNL A   1      38.164  30.981  28.405  1.00  0.00     0.010 A 
ATOM     30  C   UNL A   1      38.024  29.689  28.941  1.00  0.00    -0.014 A 
BRANCH  30  31
ATOM     31  C   UNL A   1      39.195  29.026  29.563  1.00  0.00     0.031 A 
ATOM     32  C   UNL A   1      39.714  29.584  30.859  1.00  0.00     0.074 A 
ATOM     33  C   UNL A   1      39.793  27.968  28.989  1.00  0.00     0.049 A 
ATOM     34  N   UNL A   1      40.770  29.245  31.552  1.00  0.00    -0.248 NA
ATOM     35  C   UNL A   1      38.936  30.687  31.443  1.00  0.00     0.031 C 
ATOM     36  C   UNL A   1      39.361  27.319  27.754  1.00  0.00     0.029 A 
ATOM     37  N   UNL A   1      40.911  27.268  29.368  1.00  0.00    -0.354 N 
ATOM     38  C   UNL A   1      40.787  30.097  32.650  1.00  0.00     0.074 A 
ATOM     39  C   UNL A   1      39.660  30.994  32.506  1.00  0.00     0.031 C 
ATOM     40  C   UNL A   1      40.220  26.325  27.464  1.00  0.00     0.029 A 
ATOM     41  C   UNL A   1      41.279  26.293  28.472  1.00  0.00     0.049 A 
ATOM     42  H   UNL A   1      41.401  27.445  30.203  1.00  0.00     0.167 HD
ATOM     43  C   UNL A   1      41.659  30.125  33.690  1.00  0.00     0.034 A 
ATOM     44  C   UNL A   1      42.365  25.493  28.453  1.00  0.00     0.034 A 
ATOM     45  C   UNL A   1      42.792  29.242  33.804  1.00  0.00     0.049 A 
ATOM     46  C   UNL A   1      43.375  25.595  29.571  1.00  0.00     0.074 A 
ATOM     47  C   UNL A   1      43.737  29.176  34.812  1.00  0.00     0.029 A 
ATOM     48  N   UNL A   1      43.147  28.283  32.864  1.00  0.00    -0.354 N 
ATOM     49  N   UNL A   1      43.379  26.395  30.614  1.00  0.00    -0.248 NA
ATOM     50  C   UNL A   1      44.525  24.682  29.515  1.00  0.00     0.031 C 
ATOM     51  C   UNL A   1      44.700  28.227  34.448  1.00  0.00     0.029 A 
ATOM     52  C   UNL A   1      44.313  27.643  33.252  1.00  0.00     0.049 A 
ATOM     53  H   UNL A   1      42.642  28.085  32.042  1.00  0.00     0.167 HD
ATOM     54  C   UNL A   1      44.511  26.055  31.352  1.00  0.00     0.074 A 
ATOM     55  C   UNL A   1      45.167  24.981  30.635  1.00  0.00     0.031 C 
ATOM     56  C   UNL A   1      44.958  26.575  32.524  1.00  0.00     0.034 A 
BRANCH  43  57
ATOM     57  C   UNL A   1      41.438  31.191  34.737  1.00  0.00     0.023 A 
ATOM     58  C   UNL A   1      40.362  31.126  35.640  1.00  0.00     0.031 A 
ATOM     59  C   UNL A   1      42.267  32.324  34.782  1.00  0.00     0.131 A 
ATOM     60  C   UNL A   1      40.088  32.216  36.481  1.00  0.00     0.055 A 
ATOM     61  C   UNL A   1      42.042  33.366  35.683  1.00  0.00     0.041 A 
ATOM     62  F   UNL A   1      43.295  32.455  33.927  1.00  0.00    -0.206 F 
ATOM     63  C   UNL A   1      40.935  33.326  36.525  1.00  0.00     0.022 A 
BRANCH  60  64
ATOM     64  S   UNL A   1      38.510  32.242  37.376  1.00  0.00     0.124 S 
ATOM     65  O   UNL A   1      38.959  32.271  38.766  1.00  0.00    -0.237 OA
ATOM     66  O   UNL A   1      37.886  33.462  36.879  1.00  0.00    -0.237 OA
ATOM     67  O   UNL A   1      37.863  30.997  36.965  1.00  0.00    -0.744 OA
ENDBRANCH  60  64
ENDBRANCH  43  57
BRANCH  44  68
ATOM     68  C   UNL A   1      42.583  24.556  27.315  1.00  0.00     0.023 A 
ATOM     69  C   UNL A   1      42.083  23.245  27.342  1.00  0.00     0.031 A 
ATOM     70  C   UNL A   1      43.330  24.957  26.192  1.00  0.00     0.131 A 
ATOM     71  C   UNL A   1      42.365  22.370  26.280  1.00  0.00     0.055 A 
ATOM     72  C   UNL A   1      43.568  24.097  25.119  1.00  0.00     0.041 A 
ATOM     73  F   UNL A   1      43.831  26.201  26.119  1.00  0.00    -0.206 F 
ATOM     74  C   UNL A   1      43.091  22.790  25.164  1.00  0.00     0.022 A 
BRANCH  71  75
ATOM     75  S   UNL A   1      41.813  20.645  26.404  1.00  0.00     0.124 S 
ATOM     76  O   UNL A   1      42.219  20.302  27.763  1.00  0.00    -0.237 OA
ATOM     77  O   UNL A   1      40.378  20.766  26.174  1.00  0.00    -0.237 OA
ATOM     78  O   UNL A   1      42.558  19.973  25.341  1.00  0.00    -0.744 OA
ENDBRANCH  71  75
ENDBRANCH  44  68
BRANCH  56  79
ATOM     79  C   UNL A   1      46.182  25.943  33.143  1.00  0.00     0.023 A 
ATOM     80  C   UNL A   1      46.101  24.830  33.995  1.00  0.00     0.031 A 
ATOM     81  C   UNL A   1      47.458  26.457  32.843  1.00  0.00     0.131 A 
ATOM     82  C   UNL A   1      47.273  24.286  34.547  1.00  0.00     0.055 A 
ATOM     83  C   UNL A   1      48.622  25.882  33.354  1.00  0.00     0.041 A 
ATOM     84  F   UNL A   1      47.593  27.520  32.034  1.00  0.00    -0.206 F 
ATOM     85  C   UNL A   1      48.532  24.795  34.217  1.00  0.00     0.022 A 
BRANCH  82  86
ATOM     86  S   UNL A   1      47.131  22.934  35.749  1.00  0.00     0.124 S 
ATOM     87  O   UNL A   1      47.673  21.804  35.001  1.00  0.00    -0.237 OA
ATOM     88  O   UNL A   1      47.947  23.416  36.859  1.00  0.00    -0.237 OA
ATOM     89  O   UNL A   1      45.697  22.866  36.022  1.00  0.00    -0.744 OA
ENDBRANCH  82  86
ENDBRANCH  56  79
ENDBRANCH  30  31
ENDBRANCH  23  25
ENDBRANCH  22  23
ENDBRANCH   1  22
TORSDOF 17
ENDMDL
MODEL 2
REMARK VINA RESULT:      -9.9      6.268     12.720
REMARK SMILES O=C(C[C@@H](c1c[nH]c2ccccc12)C(F)(F)F)OCCOC(=O)c1ccc(-c2c3nc(c(-c4cc(S(=O)(=O)[O-])ccc4F)c4ccc([nH]4)c(-c4cc(S(=O)(=O)[O-])ccc4F)c4nc(c(-c5cc(S(=O)(=O)[O-])ccc5F)c5ccc2[nH]5)C=C4)C=C3)cc1
REMARK SMILES IDX 20 1 19 2 18 3 2 4 1 5 3 6 4 7 5 8 6 9 13 10 7 11 8 12 12 13
REMARK SMILES IDX 9 15 11 16 10 17 14 18 15 19 16 20 17 21 21 22 22 23 23 24
REMARK SMILES IDX 24 25 25 26 86 27 26 28 85 29 27 30 28 31 29 32 79 33 30 34
REMARK SMILES IDX 84 35 78 36 80 37 31 38 83 39 77 40 76 41 32 43 64 44 44 45
REMARK SMILES IDX 63 46 45 47 48 48 62 49 81 50 46 51 47 52 61 54 82 55 49 56
REMARK SMILES IDX 33 57 34 58 42 59 35 60 41 61 43 62 40 63 36 64 37 65 38 66
REMARK SMILES IDX 39 67 65 68 66 69 74 70 67 71 73 72 75 73 72 74 68 75 69 76
REMARK SMILES IDX 70 77 71 78 50 79 51 80 59 81 52 82 58 83 60 84 57 85 53 86
REMARK SMILES IDX 54 87 55 88 56 89
REMARK H PARENT 7 14 80 42 48 53
REMARK Flexibility Score: inf
ROOT
ATOM      1  C   UNL A   1      39.133  19.456  25.434  1.00  0.00     0.275 C 
ENDROOT
BRANCH   1   2
ATOM      2  C   UNL A   1      37.785  19.963  24.924  1.00  0.00     0.274 C 
BRANCH   2   3
ATOM      3  O   UNL A   1      37.742  21.396  24.772  1.00  0.00    -0.462 OA
BRANCH   3   4
ATOM      4  C   UNL A   1      36.699  22.014  24.163  1.00  0.00     0.306 C 
ATOM      5  O   UNL A   1      36.867  22.657  23.129  1.00  0.00    -0.252 OA
BRANCH   4   6
ATOM      6  C   UNL A   1      35.361  21.995  24.865  1.00  0.00     0.140 C 
BRANCH   6   7
ATOM      7  C   UNL A   1      34.320  21.153  24.115  1.00  0.00     0.138 C 
BRANCH   7   8
ATOM      8  C   UNL A   1      33.869  19.982  24.966  1.00  0.00    -0.010 A 
ATOM      9  C   UNL A   1      33.270  20.127  26.204  1.00  0.00     0.087 A 
ATOM     10  C   UNL A   1      33.813  18.579  24.645  1.00  0.00     0.003 A 
ATOM     11  N   UNL A   1      32.836  18.904  26.628  1.00  0.00    -0.361 N 
ATOM     12  C   UNL A   1      33.117  17.949  25.681  1.00  0.00     0.046 A 
ATOM     13  C   UNL A   1      34.205  17.788  23.543  1.00  0.00     0.010 A 
ATOM     14  H   UNL A   1      32.387  18.731  27.486  1.00  0.00     0.166 HD
ATOM     15  C   UNL A   1      32.784  16.588  25.661  1.00  0.00     0.026 A 
ATOM     16  C   UNL A   1      33.890  16.423  23.513  1.00  0.00     0.001 A 
ATOM     17  C   UNL A   1      33.182  15.836  24.554  1.00  0.00     0.002 A 
ENDBRANCH   7   8
BRANCH   7  18
ATOM     18  C   UNL A   1      33.213  22.066  23.595  1.00  0.00     0.396 C 
ATOM     19  F   UNL A   1      32.911  23.007  24.523  1.00  0.00    -0.170 F 
ATOM     20  F   UNL A   1      33.577  22.717  22.471  1.00  0.00    -0.170 F 
ATOM     21  F   UNL A   1      32.070  21.393  23.340  1.00  0.00    -0.170 F 
ENDBRANCH   7  18
ENDBRANCH   6   7
ENDBRANCH   4   6
ENDBRANCH   3   4
ENDBRANCH   2   3
ENDBRANCH   1   2
BRANCH   1  22
ATOM     22  O   UNL A   1      39.508  20.143  26.637  1.00  0.00    -0.458 OA
BRANCH  22  23
ATOM     23  C   UNL A   1      40.827  20.451  26.724  1.00  0.00     0.338 C 
ATOM     24  O   UNL A   1      41.756  19.754  26.348  1.00  0.00    -0.246 OA
BRANCH  23  25
ATOM     25  C   UNL A   1      40.983  21.851  27.177  1.00  0.00     0.060 A 
ATOM     26  C   UNL A   1      40.226  22.834  26.524  1.00  0.00     0.016 A 
ATOM     27  C   UNL A   1      41.840  22.204  28.224  1.00  0.00     0.016 A 
ATOM     28  C   UNL A   1      40.365  24.176  26.877  1.00  0.00     0.010 A 
ATOM     29  C   UNL A   1      41.981  23.549  28.575  1.00  0.00     0.010 A 
ATOM     30  C   UNL A   1      41.274  24.542  27.876  1.00  0.00    -0.014 A 
BRANCH  30  31
ATOM     31  C   UNL A   1      41.659  25.965  28.041  1.00  0.00     0.031 A 
ATOM     32  C   UNL A   1      43.014  26.389  27.546  1.00  0.00     0.074 A 
ATOM     33  C   UNL A   1      40.840  26.854  28.627  1.00  0.00     0.049 A 
ATOM     34  N   UNL A   1      43.619  27.543  27.652  1.00  0.00    -0.248 NA
ATOM     35  C   UNL A   1      43.795  25.358  26.845  1.00  0.00     0.031 C 
ATOM     36  C   UNL A   1      39.492  26.569  29.115  1.00  0.00     0.029 A 
ATOM     37  N   UNL A   1      41.037  28.178  28.927  1.00  0.00    -0.354 N 
ATOM     38  C   UNL A   1      44.855  27.376  27.037  1.00  0.00     0.074 A 
ATOM     39  C   UNL A   1      44.927  25.998  26.600  1.00  0.00     0.031 C 
ATOM     40  C   UNL A   1      38.990  27.685  29.676  1.00  0.00     0.029 A 
ATOM     41  C   UNL A   1      39.994  28.748  29.618  1.00  0.00     0.049 A 
ATOM     42  H   UNL A   1      41.848  28.675  28.671  1.00  0.00     0.167 HD
ATOM     43  C   UNL A   1      45.839  28.291  26.847  1.00  0.00     0.034 A 
ATOM     44  C   UNL A   1      39.880  29.973  30.167  1.00  0.00     0.034 A 
ATOM     45  C   UNL A   1      45.763  29.652  27.313  1.00  0.00     0.049 A 
ATOM     46  C   UNL A   1      41.019  30.955  30.025  1.00  0.00     0.074 A 
ATOM     47  C   UNL A   1      46.694  30.666  27.174  1.00  0.00     0.029 A 
ATOM     48  N   UNL A   1      44.700  30.186  28.030  1.00  0.00    -0.354 N 
ATOM     49  N   UNL A   1      42.181  30.794  29.432  1.00  0.00    -0.248 NA
ATOM     50  C   UNL A   1      40.830  32.285  30.620  1.00  0.00     0.031 C 
ATOM     51  C   UNL A   1      46.225  31.789  27.865  1.00  0.00     0.029 A 
ATOM     52  C   UNL A   1      44.965  31.504  28.367  1.00  0.00     0.049 A 
ATOM     53  H   UNL A   1      43.876  29.700  28.263  1.00  0.00     0.167 HD
ATOM     54  C   UNL A   1      42.843  32.015  29.554  1.00  0.00     0.074 A 
ATOM     55  C   UNL A   1      41.955  32.898  30.278  1.00  0.00     0.031 C 
ATOM     56  C   UNL A   1      44.070  32.374  29.095  1.00  0.00     0.034 A 
BRANCH  43  57
ATOM     57  C   UNL A   1      47.095  27.809  26.160  1.00  0.00     0.023 A 
ATOM     58  C   UNL A   1      47.327  28.046  24.794  1.00  0.00     0.031 A 
ATOM     59  C   UNL A   1      48.035  27.036  26.863  1.00  0.00     0.131 A 
ATOM     60  C   UNL A   1      48.417  27.436  24.153  1.00  0.00     0.055 A 
ATOM     61  C   UNL A   1      49.166  26.506  26.239  1.00  0.00     0.041 A 
ATOM     62  F   UNL A   1      47.855  26.754  28.163  1.00  0.00    -0.206 F 
ATOM     63  C   UNL A   1      49.352  26.688  24.872  1.00  0.00     0.022 A 
BRANCH  60  64
ATOM     64  S   UNL A   1      48.490  27.483  22.340  1.00  0.00     0.124 S 
ATOM     65  O   UNL A   1      49.637  28.357  22.114  1.00  0.00    -0.237 OA
ATOM     66  O   UNL A   1      48.677  26.078  21.997  1.00  0.00    -0.237 OA
ATOM     67  O   UNL A   1      47.198  28.052  21.961  1.00  0.00    -0.744 OA
ENDBRANCH  60  64
ENDBRANCH  43  57
BRANCH  44  68
ATOM     68  C   UNL A   1      38.660  30.333  30.946  1.00  0.00     0.023 A 
ATOM     69  C   UNL A   1      37.617  31.074  30.369  1.00  0.00     0.031 A 
ATOM     70  C   UNL A   1      38.540  29.963  32.298  1.00  0.00     0.131 A 
ATOM     71  C   UNL A   1      36.514  31.450  31.152  1.00  0.00     0.055 A 
ATOM     72  C   UNL A   1      37.420  30.301  33.058  1.00  0.00     0.041 A 
ATOM     73  F   UNL A   1      39.512  29.255  32.897  1.00  0.00    -0.206 F 
ATOM     74  C   UNL A   1      36.402  31.058  32.487  1.00  0.00     0.022 A 
BRANCH  71  75
ATOM     75  S   UNL A   1      35.244  32.515  30.412  1.00  0.00     0.124 S 
ATOM     76  O   UNL A   1      34.279  32.624  31.500  1.00  0.00    -0.237 OA
ATOM     77  O   UNL A   1      36.002  33.723  30.100  1.00  0.00    -0.237 OA
ATOM     78  O   UNL A   1      34.793  31.750  29.251  1.00  0.00    -0.744 OA
ENDBRANCH  71  75
ENDBRANCH  44  68
BRANCH  56  79
ATOM     79  C   UNL A   1      44.498  33.806  29.303  1.00  0.00     0.023 A 
ATOM     80  C   UNL A   1      44.153  34.829  28.404  1.00  0.00     0.031 A 
ATOM     81  C   UNL A   1      45.244  34.151  30.445  1.00  0.00     0.131 A 
ATOM     82  C   UNL A   1      44.583  36.145  28.645  1.00  0.00     0.055 A 
ATOM     83  C   UNL A   1      45.625  35.468  30.705  1.00  0.00     0.041 A 
ATOM     84  F   UNL A   1      45.600  33.213  31.337  1.00  0.00    -0.206 F 
ATOM     85  C   UNL A   1      45.302  36.472  29.798  1.00  0.00     0.022 A 
BRANCH  82  86
ATOM     86  S   UNL A   1      44.239  37.421  27.402  1.00  0.00     0.124 S 
ATOM     87  O   UNL A   1      45.508  37.496  26.685  1.00  0.00    -0.237 OA
ATOM     88  O   UNL A   1      43.121  36.846  26.663  1.00  0.00    -0.237 OA
ATOM     89  O   UNL A   1      43.909  38.599  28.202  1.00  0.00    -0.744 OA
ENDBRANCH  82  86
ENDBRANCH  56  79
ENDBRANCH  30  31
ENDBRANCH  23  25
ENDBRANCH  22  23
ENDBRANCH   1  22
TORSDOF 17
ENDMDL
MODEL 3
REMARK VINA RESULT:      -9.9      5.679      9.636
REMARK SMILES O=C(C[C@@H](c1c[nH]c2ccccc12)C(F)(F)F)OCCOC(=O)c1ccc(-c2c3nc(c(-c4cc(S(=O)(=O)[O-])ccc4F)c4ccc([nH]4)c(-c4cc(S(=O)(=O)[O-])ccc4F)c4nc(c(-c5cc(S(=O)(=O)[O-])ccc5F)c5ccc2[nH]5)C=C4)C=C3)cc1
REMARK SMILES IDX 20 1 19 2 18 3 2 4 1 5 3 6 4 7 5 8 6 9 13 10 7 11 8 12 12 13
REMARK SMILES IDX 9 15 11 16 10 17 14 18 15 19 16 20 17 21 21 22 22 23 23 24
REMARK SMILES IDX 24 25 25 26 86 27 26 28 85 29 27 30 28 31 29 32 79 33 30 34
REMARK SMILES IDX 84 35 78 36 80 37 31 38 83 39 77 40 76 41 32 43 64 44 44 45
REMARK SMILES IDX 63 46 45 47 48 48 62 49 81 50 46 51 47 52 61 54 82 55 49 56
REMARK SMILES IDX 33 57 34 58 42 59 35 60 41 61 43 62 40 63 36 64 37 65 38 66
REMARK SMILES IDX 39 67 65 68 66 69 74 70 67 71 73 72 75 73 72 74 68 75 69 76
REMARK SMILES IDX 70 77 71 78 50 79 51 80 59 81 52 82 58 83 60 84 57 85 53 86
REMARK SMILES IDX 54 87 55 88 56 89
REMARK H PARENT 7 14 80 42 48 53
REMARK Flexibility Score: inf
ROOT
ATOM      1  C   UNL A   1      37.494  20.097  25.211  1.00  0.00     0.275 C 
ENDROOT
BRANCH   1   2
ATOM      2  C   UNL A   1      36.157  20.817  25.048  1.00  0.00     0.274 C 
BRANCH   2   3
ATOM      3  O   UNL A   1      35.792  21.598  26.204  1.00  0.00    -0.462 OA
BRANCH   3   4
ATOM      4  C   UNL A   1      34.514  22.003  26.413  1.00  0.00     0.306 C 
ATOM      5  O   UNL A   1      33.602  21.185  26.503  1.00  0.00    -0.252 OA
BRANCH   4   6
ATOM      6  C   UNL A   1      34.234  23.489  26.396  1.00  0.00     0.140 C 
BRANCH   6   7
ATOM      7  C   UNL A   1      33.248  23.886  25.291  1.00  0.00     0.138 C 
BRANCH   7   8
ATOM      8  C   UNL A   1      32.351  25.016  25.757  1.00  0.00    -0.010 A 
ATOM      9  C   UNL A   1      31.005  24.855  26.034  1.00  0.00     0.087 A 
ATOM     10  C   UNL A   1      32.691  26.360  26.145  1.00  0.00     0.003 A 
ATOM     11  N   UNL A   1      30.530  26.009  26.586  1.00  0.00    -0.361 N 
ATOM     12  C   UNL A   1      31.543  26.930  26.703  1.00  0.00     0.046 A 
ATOM     13  C   UNL A   1      33.876  27.128  26.158  1.00  0.00     0.010 A 
ATOM     14  H   UNL A   1      29.597  26.160  26.861  1.00  0.00     0.166 HD
ATOM     15  C   UNL A   1      31.526  28.205  27.282  1.00  0.00     0.026 A 
ATOM     16  C   UNL A   1      33.873  28.410  26.723  1.00  0.00     0.001 A 
ATOM     17  C   UNL A   1      32.716  28.935  27.284  1.00  0.00     0.002 A 
ENDBRANCH   7   8
BRANCH   7  18
ATOM     18  C   UNL A   1      34.015  24.133  23.995  1.00  0.00     0.396 C 
ATOM     19  F   UNL A   1      35.294  24.486  24.271  1.00  0.00    -0.170 F 
ATOM     20  F   UNL A   1      34.064  23.033  23.215  1.00  0.00    -0.170 F 
ATOM     21  F   UNL A   1      33.485  25.140  23.268  1.00  0.00    -0.170 F 
ENDBRANCH   7  18
ENDBRANCH   6   7
ENDBRANCH   4   6
ENDBRANCH   3   4
ENDBRANCH   2   3
ENDBRANCH   1   2
BRANCH   1  22
ATOM     22  O   UNL A   1      38.577  21.039  25.216  1.00  0.00    -0.458 OA
BRANCH  22  23
ATOM     23  C   UNL A   1      39.538  20.789  26.140  1.00  0.00     0.338 C 
ATOM     24  O   UNL A   1      40.059  19.708  26.363  1.00  0.00    -0.246 OA
BRANCH  23  25
ATOM     25  C   UNL A   1      40.010  22.063  26.726  1.00  0.00     0.060 A 
ATOM     26  C   UNL A   1      39.463  23.251  26.223  1.00  0.00     0.016 A 
ATOM     27  C   UNL A   1      40.958  22.105  27.753  1.00  0.00     0.016 A 
ATOM     28  C   UNL A   1      39.901  24.484  26.705  1.00  0.00     0.010 A 
ATOM     29  C   UNL A   1      41.400  23.341  28.232  1.00  0.00     0.010 A 
ATOM     30  C   UNL A   1      40.901  24.534  27.683  1.00  0.00    -0.014 A 
BRANCH  30  31
ATOM     31  C   UNL A   1      41.592  25.814  27.972  1.00  0.00     0.031 A 
ATOM     32  C   UNL A   1      40.815  26.887  28.684  1.00  0.00     0.074 A 
ATOM     33  C   UNL A   1      42.865  26.027  27.601  1.00  0.00     0.049 A 
ATOM     34  N   UNL A   1      41.158  28.116  28.971  1.00  0.00    -0.248 NA
ATOM     35  C   UNL A   1      39.460  26.520  29.120  1.00  0.00     0.031 C 
ATOM     36  C   UNL A   1      43.728  25.053  26.937  1.00  0.00     0.029 A 
ATOM     37  N   UNL A   1      43.647  27.150  27.717  1.00  0.00    -0.354 N 
ATOM     38  C   UNL A   1      40.058  28.672  29.615  1.00  0.00     0.074 A 
ATOM     39  C   UNL A   1      39.026  27.657  29.637  1.00  0.00     0.031 C 
ATOM     40  C   UNL A   1      44.917  25.630  26.684  1.00  0.00     0.029 A 
ATOM     41  C   UNL A   1      44.885  27.021  27.134  1.00  0.00     0.049 A 
ATOM     42  H   UNL A   1      43.350  27.969  28.175  1.00  0.00     0.167 HD
ATOM     43  C   UNL A   1      39.923  29.912  30.147  1.00  0.00     0.034 A 
ATOM     44  C   UNL A   1      45.862  27.933  26.956  1.00  0.00     0.034 A 
ATOM     45  C   UNL A   1      40.952  30.920  30.091  1.00  0.00     0.049 A 
ATOM     46  C   UNL A   1      45.664  29.337  27.475  1.00  0.00     0.074 A 
ATOM     47  C   UNL A   1      40.929  32.207  30.599  1.00  0.00     0.029 A 
ATOM     48  N   UNL A   1      42.185  30.761  29.471  1.00  0.00    -0.354 N 
ATOM     49  N   UNL A   1      44.626  29.853  28.094  1.00  0.00    -0.248 NA
ATOM     50  C   UNL A   1      46.772  30.283  27.278  1.00  0.00     0.031 C 
ATOM     51  C   UNL A   1      42.116  32.846  30.226  1.00  0.00     0.029 A 
ATOM     52  C   UNL A   1      42.916  31.934  29.555  1.00  0.00     0.049 A 
ATOM     53  H   UNL A   1      42.495  29.933  29.037  1.00  0.00     0.167 HD
ATOM     54  C   UNL A   1      44.973  31.170  28.390  1.00  0.00     0.074 A 
ATOM     55  C   UNL A   1      46.313  31.371  27.879  1.00  0.00     0.031 C 
ATOM     56  C   UNL A   1      44.252  32.121  29.037  1.00  0.00     0.034 A 
BRANCH  43  57
ATOM     57  C   UNL A   1      38.588  30.246  30.769  1.00  0.00     0.023 A 
ATOM     58  C   UNL A   1      37.563  30.863  30.030  1.00  0.00     0.031 A 
ATOM     59  C   UNL A   1      38.366  30.015  32.137  1.00  0.00     0.131 A 
ATOM     60  C   UNL A   1      36.405  31.314  30.683  1.00  0.00     0.055 A 
ATOM     61  C   UNL A   1      37.174  30.385  32.762  1.00  0.00     0.041 A 
ATOM     62  F   UNL A   1      39.317  29.453  32.900  1.00  0.00    -0.206 F 
ATOM     63  C   UNL A   1      36.193  31.057  32.040  1.00  0.00     0.022 A 
BRANCH  60  64
ATOM     64  S   UNL A   1      35.269  32.400  29.775  1.00  0.00     0.124 S 
ATOM     65  O   UNL A   1      34.277  32.713  30.801  1.00  0.00    -0.237 OA
ATOM     66  O   UNL A   1      36.140  33.497  29.370  1.00  0.00    -0.237 OA
ATOM     67  O   UNL A   1      34.782  31.553  28.688  1.00  0.00    -0.744 OA
ENDBRANCH  60  64
ENDBRANCH  43  57
BRANCH  44  68
ATOM     68  C   UNL A   1      47.101  27.565  26.214  1.00  0.00     0.023 A 
ATOM     69  C   UNL A   1      47.225  27.802  24.836  1.00  0.00     0.031 A 
ATOM     70  C   UNL A   1      48.171  26.936  26.876  1.00  0.00     0.131 A 
ATOM     71  C   UNL A   1      48.380  27.382  24.157  1.00  0.00     0.055 A 
ATOM     72  C   UNL A   1      49.336  26.562  26.205  1.00  0.00     0.041 A 
ATOM     73  F   UNL A   1      48.101  26.686  28.193  1.00  0.00    -0.206 F 
ATOM     74  C   UNL A   1      49.441  26.776  24.833  1.00  0.00     0.022 A 
BRANCH  71  75
ATOM     75  S   UNL A   1      48.454  27.587  22.355  1.00  0.00     0.124 S 
ATOM     76  O   UNL A   1      47.265  28.393  22.100  1.00  0.00    -0.237 OA
ATOM     77  O   UNL A   1      49.737  28.260  22.177  1.00  0.00    -0.237 OA
ATOM     78  O   UNL A   1      48.398  26.215  21.854  1.00  0.00    -0.744 OA
ENDBRANCH  71  75
ENDBRANCH  44  68
BRANCH  56  79
ATOM     79  C   UNL A   1      44.924  33.449  29.292  1.00  0.00     0.023 A 
ATOM     80  C   UNL A   1      44.916  34.486  28.344  1.00  0.00     0.031 A 
ATOM     81  C   UNL A   1      45.559  33.683  30.526  1.00  0.00     0.131 A 
ATOM     82  C   UNL A   1      45.561  35.700  28.633  1.00  0.00     0.055 A 
ATOM     83  C   UNL A   1      46.155  34.908  30.826  1.00  0.00     0.041 A 
ATOM     84  F   UNL A   1      45.596  32.727  31.468  1.00  0.00    -0.206 F 
ATOM     85  C   UNL A   1      46.166  35.923  29.874  1.00  0.00     0.022 A 
BRANCH  82  86
ATOM     86  S   UNL A   1      45.653  36.973  27.343  1.00  0.00     0.124 S 
ATOM     87  O   UNL A   1      46.147  36.213  26.200  1.00  0.00    -0.237 OA
ATOM     88  O   UNL A   1      44.270  37.431  27.257  1.00  0.00    -0.237 OA
ATOM     89  O   UNL A   1      46.593  37.950  27.890  1.00  0.00    -0.744 OA
ENDBRANCH  82  86
ENDBRANCH  56  79
ENDBRANCH  30  31
ENDBRANCH  23  25
ENDBRANCH  22  23
ENDBRANCH   1  22
TORSDOF 17
ENDMDL
