MODEL 1
REMARK VINA RESULT:     -10.7      0.000      0.000
REMARK SMILES C[C@H](C(=O)OCCOC(=O)c1ccc(-c2c3nc(c(-c4cc(S(=O)(=O)[O-])ccc4F)c4ccc([nH]4)c(-c4cc(S(=O)(=O)[O-])ccc4F)c4nc(c(-c5cc(S(=O)(=O)[O-])ccc5F)c5ccc2[nH]5)C=C4)C=C3)cc1)[C@@H](C)[NH2+]C[C@@H]1CCCC[C@@H]1CO
REMARK SMILES IDX 5 1 3 2 4 3 2 4 1 5 74 6 75 7 76 8 77 11 78 12 79 13 83 14
REMARK SMILES IDX 80 15 82 16 81 17 84 18 85 19 6 21 7 22 8 23 9 24 10 25
REMARK SMILES IDX 11 26 12 27 73 28 13 29 72 30 14 31 15 32 16 33 66 34 17 35
REMARK SMILES IDX 71 36 65 37 67 38 18 39 70 40 64 41 63 42 19 44 51 45 31 46
REMARK SMILES IDX 50 47 32 48 35 49 49 50 68 51 33 52 34 53 48 55 69 56 36 57
REMARK SMILES IDX 20 58 21 59 29 60 22 61 28 62 30 63 27 64 23 65 24 66 25 67
REMARK SMILES IDX 26 68 52 69 53 70 61 71 54 72 60 73 62 74 59 75 55 76 56 77
REMARK SMILES IDX 57 78 58 79 37 80 38 81 46 82 39 83 45 84 47 85 44 86 40 87
REMARK SMILES IDX 41 88 42 89 43 90
REMARK H PARENT 76 9 76 10 85 20 67 43 35 54
REMARK Flexibility Score: inf
ROOT
ATOM      1  O   UNL A   1      31.714  27.983  25.526  1.00  0.00    -0.462 OA
ENDROOT
BRANCH   1   2
ATOM      2  C   UNL A   1      31.159  27.338  26.591  1.00  0.00     0.314 C 
ATOM      3  O   UNL A   1      31.201  27.740  27.747  1.00  0.00    -0.252 OA
BRANCH   2   4
ATOM      4  C   UNL A   1      30.567  25.985  26.202  1.00  0.00     0.154 C 
ATOM      5  C   UNL A   1      29.836  26.062  24.862  1.00  0.00     0.026 C 
BRANCH   4   6
ATOM      6  C   UNL A   1      31.696  24.931  26.254  1.00  0.00     0.193 C 
ATOM      7  C   UNL A   1      31.100  23.537  25.951  1.00  0.00     0.076 C 
BRANCH   6   8
ATOM      8  N   UNL A   1      32.777  25.270  25.307  1.00  0.00    -0.343 N 
ATOM      9  H   UNL A   1      33.555  25.657  25.842  1.00  0.00     0.346 HD
ATOM     10  H   UNL A   1      32.373  25.927  24.640  1.00  0.00     0.346 HD
BRANCH   8  11
ATOM     11  C   UNL A   1      33.287  24.145  24.512  1.00  0.00     0.264 C 
BRANCH  11  12
ATOM     12  C   UNL A   1      34.836  24.016  24.450  1.00  0.00     0.049 C 
ATOM     13  C   UNL A   1      35.277  23.094  23.305  1.00  0.00     0.010 C 
ATOM     14  C   UNL A   1      35.483  23.614  25.813  1.00  0.00     0.023 C 
ATOM     15  C   UNL A   1      36.759  22.775  23.237  1.00  0.00     0.001 C 
ATOM     16  C   UNL A   1      36.992  23.345  25.642  1.00  0.00     0.006 C 
ATOM     17  C   UNL A   1      37.285  22.299  24.573  1.00  0.00     0.000 C 
BRANCH  14  18
ATOM     18  C   UNL A   1      34.816  22.414  26.509  1.00  0.00     0.160 C 
BRANCH  18  19
ATOM     19  O   UNL A   1      34.594  22.683  27.885  1.00  0.00    -0.396 OA
ATOM     20  H   UNL A   1      34.306  23.602  27.993  1.00  0.00     0.210 HD
ENDBRANCH  18  19
ENDBRANCH  14  18
ENDBRANCH  11  12
ENDBRANCH   8  11
ENDBRANCH   6   8
ENDBRANCH   4   6
ENDBRANCH   2   4
ENDBRANCH   1   2
BRANCH   1  21
ATOM     21  C   UNL A   1      31.546  29.415  25.482  1.00  0.00     0.274 C 
BRANCH  21  22
ATOM     22  C   UNL A   1      32.866  30.142  25.710  1.00  0.00     0.275 C 
BRANCH  22  23
ATOM     23  O   UNL A   1      33.069  30.328  27.117  1.00  0.00    -0.458 OA
BRANCH  23  24
ATOM     24  C   UNL A   1      33.686  31.484  27.456  1.00  0.00     0.338 C 
ATOM     25  O   UNL A   1      33.208  32.602  27.497  1.00  0.00    -0.246 OA
BRANCH  24  26
ATOM     26  C   UNL A   1      35.042  31.160  27.912  1.00  0.00     0.060 A 
ATOM     27  C   UNL A   1      35.287  29.857  28.336  1.00  0.00     0.016 A 
ATOM     28  C   UNL A   1      36.025  32.136  28.019  1.00  0.00     0.016 A 
ATOM     29  C   UNL A   1      36.493  29.516  28.922  1.00  0.00     0.010 A 
ATOM     30  C   UNL A   1      37.266  31.783  28.556  1.00  0.00     0.010 A 
ATOM     31  C   UNL A   1      37.497  30.477  29.033  1.00  0.00    -0.014 A 
BRANCH  31  32
ATOM     32  C   UNL A   1      38.748  30.135  29.744  1.00  0.00     0.031 A 
ATOM     33  C   UNL A   1      39.708  29.186  29.092  1.00  0.00     0.074 A 
ATOM     34  C   UNL A   1      39.036  30.706  30.929  1.00  0.00     0.049 A 
ATOM     35  N   UNL A   1      40.730  28.559  29.603  1.00  0.00    -0.248 NA
ATOM     36  C   UNL A   1      39.467  28.896  27.669  1.00  0.00     0.031 C 
ATOM     37  C   UNL A   1      38.233  31.734  31.593  1.00  0.00     0.029 A 
ATOM     38  N   UNL A   1      40.087  30.502  31.784  1.00  0.00    -0.354 N 
ATOM     39  C   UNL A   1      41.218  27.745  28.587  1.00  0.00     0.074 A 
ATOM     40  C   UNL A   1      40.381  27.968  27.427  1.00  0.00     0.031 C 
ATOM     41  C   UNL A   1      38.827  32.080  32.745  1.00  0.00     0.029 A 
ATOM     42  C   UNL A   1      39.995  31.230  32.947  1.00  0.00     0.049 A 
ATOM     43  H   UNL A   1      40.836  29.895  31.585  1.00  0.00     0.167 HD
ATOM     44  C   UNL A   1      42.261  26.881  28.637  1.00  0.00     0.034 A 
ATOM     45  C   UNL A   1      40.734  31.168  34.071  1.00  0.00     0.034 A 
ATOM     46  C   UNL A   1      43.089  26.719  29.806  1.00  0.00     0.049 A 
ATOM     47  C   UNL A   1      41.847  30.154  34.131  1.00  0.00     0.074 A 
ATOM     48  C   UNL A   1      44.163  25.868  29.998  1.00  0.00     0.029 A 
ATOM     49  N   UNL A   1      42.938  27.439  30.988  1.00  0.00    -0.354 N 
ATOM     50  N   UNL A   1      42.239  29.303  33.210  1.00  0.00    -0.248 NA
ATOM     51  C   UNL A   1      42.601  30.077  35.386  1.00  0.00     0.031 C 
ATOM     52  C   UNL A   1      44.624  26.035  31.309  1.00  0.00     0.029 A 
ATOM     53  C   UNL A   1      43.884  27.038  31.917  1.00  0.00     0.049 A 
ATOM     54  H   UNL A   1      42.258  28.133  31.140  1.00  0.00     0.167 HD
ATOM     55  C   UNL A   1      43.296  28.596  33.771  1.00  0.00     0.074 A 
ATOM     56  C   UNL A   1      43.491  29.137  35.103  1.00  0.00     0.031 C 
ATOM     57  C   UNL A   1      44.039  27.591  33.242  1.00  0.00     0.034 A 
BRANCH  44  58
ATOM     58  C   UNL A   1      42.485  25.999  27.434  1.00  0.00     0.023 A 
ATOM     59  C   UNL A   1      41.994  24.683  27.362  1.00  0.00     0.031 A 
ATOM     60  C   UNL A   1      43.265  26.468  26.361  1.00  0.00     0.131 A 
ATOM     61  C   UNL A   1      42.350  23.862  26.280  1.00  0.00     0.055 A 
ATOM     62  C   UNL A   1      43.552  25.672  25.252  1.00  0.00     0.041 A 
ATOM     63  F   UNL A   1      43.785  27.707  26.387  1.00  0.00    -0.206 F 
ATOM     64  C   UNL A   1      43.106  24.355  25.213  1.00  0.00     0.022 A 
BRANCH  61  65
ATOM     65  S   UNL A   1      41.934  22.097  26.350  1.00  0.00     0.124 S 
ATOM     66  O   UNL A   1      40.489  22.127  26.137  1.00  0.00    -0.237 OA
ATOM     67  O   UNL A   1      42.730  21.541  25.260  1.00  0.00    -0.237 OA
ATOM     68  O   UNL A   1      42.351  21.698  27.692  1.00  0.00    -0.744 OA
ENDBRANCH  61  65
ENDBRANCH  44  58
BRANCH  45  69
ATOM     69  C   UNL A   1      40.392  32.014  35.250  1.00  0.00     0.023 A 
ATOM     70  C   UNL A   1      39.336  31.672  36.109  1.00  0.00     0.031 A 
ATOM     71  C   UNL A   1      41.100  33.199  35.520  1.00  0.00     0.131 A 
ATOM     72  C   UNL A   1      39.000  32.518  37.178  1.00  0.00     0.055 A 
ATOM     73  C   UNL A   1      40.797  34.010  36.616  1.00  0.00     0.041 A 
ATOM     74  F   UNL A   1      42.117  33.579  34.729  1.00  0.00    -0.206 F 
ATOM     75  C   UNL A   1      39.734  33.676  37.447  1.00  0.00     0.022 A 
BRANCH  72  76
ATOM     76  S   UNL A   1      37.540  32.120  38.178  1.00  0.00     0.124 S 
ATOM     77  O   UNL A   1      37.369  30.698  37.905  1.00  0.00    -0.237 OA
ATOM     78  O   UNL A   1      37.987  32.468  39.522  1.00  0.00    -0.237 OA
ATOM     79  O   UNL A   1      36.502  32.990  37.625  1.00  0.00    -0.744 OA
ENDBRANCH  72  76
ENDBRANCH  45  69
BRANCH  57  80
ATOM     80  C   UNL A   1      45.151  27.055  34.105  1.00  0.00     0.023 A 
ATOM     81  C   UNL A   1      44.973  25.917  34.910  1.00  0.00     0.031 A 
ATOM     82  C   UNL A   1      46.394  27.708  34.138  1.00  0.00     0.131 A 
ATOM     83  C   UNL A   1      46.007  25.498  35.759  1.00  0.00     0.055 A 
ATOM     84  C   UNL A   1      47.438  27.255  34.944  1.00  0.00     0.041 A 
ATOM     85  F   UNL A   1      46.612  28.801  33.389  1.00  0.00    -0.206 F 
ATOM     86  C   UNL A   1      47.243  26.151  35.770  1.00  0.00     0.022 A 
BRANCH  83  87
ATOM     87  S   UNL A   1      45.686  24.140  36.916  1.00  0.00     0.124 S 
ATOM     88  O   UNL A   1      45.227  24.853  38.103  1.00  0.00    -0.237 OA
ATOM     89  O   UNL A   1      44.674  23.360  36.211  1.00  0.00    -0.237 OA
ATOM     90  O   UNL A   1      46.987  23.488  37.049  1.00  0.00    -0.744 OA
ENDBRANCH  83  87
ENDBRANCH  57  80
ENDBRANCH  31  32
ENDBRANCH  24  26
ENDBRANCH  23  24
ENDBRANCH  22  23
ENDBRANCH  21  22
ENDBRANCH   1  21
TORSDOF 20
ENDMDL
MODEL 2
REMARK VINA RESULT:     -10.6      5.165      9.910
REMARK SMILES C[C@H](C(=O)OCCOC(=O)c1ccc(-c2c3nc(c(-c4cc(S(=O)(=O)[O-])ccc4F)c4ccc([nH]4)c(-c4cc(S(=O)(=O)[O-])ccc4F)c4nc(c(-c5cc(S(=O)(=O)[O-])ccc5F)c5ccc2[nH]5)C=C4)C=C3)cc1)[C@@H](C)[NH2+]C[C@@H]1CCCC[C@@H]1CO
REMARK SMILES IDX 5 1 3 2 4 3 2 4 1 5 74 6 75 7 76 8 77 11 78 12 79 13 83 14
REMARK SMILES IDX 80 15 82 16 81 17 84 18 85 19 6 21 7 22 8 23 9 24 10 25
REMARK SMILES IDX 11 26 12 27 73 28 13 29 72 30 14 31 15 32 16 33 66 34 17 35
REMARK SMILES IDX 71 36 65 37 67 38 18 39 70 40 64 41 63 42 19 44 51 45 31 46
REMARK SMILES IDX 50 47 32 48 35 49 49 50 68 51 33 52 34 53 48 55 69 56 36 57
REMARK SMILES IDX 20 58 21 59 29 60 22 61 28 62 30 63 27 64 23 65 24 66 25 67
REMARK SMILES IDX 26 68 52 69 53 70 61 71 54 72 60 73 62 74 59 75 55 76 56 77
REMARK SMILES IDX 57 78 58 79 37 80 38 81 46 82 39 83 45 84 47 85 44 86 40 87
REMARK SMILES IDX 41 88 42 89 43 90
REMARK H PARENT 76 9 76 10 85 20 67 43 35 54
REMARK Flexibility Score: inf
ROOT
ATOM      1  O   UNL A   1      35.038  22.796  26.119  1.00  0.00    -0.462 OA
ENDROOT
BRANCH   1   2
ATOM      2  C   UNL A   1      33.957  23.180  26.853  1.00  0.00     0.314 C 
ATOM      3  O   UNL A   1      33.658  22.718  27.947  1.00  0.00    -0.252 OA
BRANCH   2   4
ATOM      4  C   UNL A   1      33.081  24.185  26.108  1.00  0.00     0.154 C 
ATOM      5  C   UNL A   1      33.923  25.127  25.247  1.00  0.00     0.026 C 
BRANCH   4   6
ATOM      6  C   UNL A   1      32.002  23.400  25.328  1.00  0.00     0.193 C 
ATOM      7  C   UNL A   1      31.125  24.397  24.536  1.00  0.00     0.076 C 
BRANCH   6   8
ATOM      8  N   UNL A   1      32.621  22.402  24.433  1.00  0.00    -0.343 N 
ATOM      9  H   UNL A   1      33.630  22.426  24.585  1.00  0.00     0.346 HD
ATOM     10  H   UNL A   1      32.344  22.660  23.487  1.00  0.00     0.346 HD
BRANCH   8  11
ATOM     11  C   UNL A   1      32.165  21.019  24.628  1.00  0.00     0.264 C 
BRANCH  11  12
ATOM     12  C   UNL A   1      32.923  19.941  23.802  1.00  0.00     0.049 C 
ATOM     13  C   UNL A   1      32.056  19.402  22.655  1.00  0.00     0.010 C 
ATOM     14  C   UNL A   1      33.523  18.794  24.675  1.00  0.00     0.023 C 
ATOM     15  C   UNL A   1      32.635  18.239  21.870  1.00  0.00     0.001 C 
ATOM     16  C   UNL A   1      34.114  17.683  23.785  1.00  0.00     0.006 C 
ATOM     17  C   UNL A   1      33.103  17.130  22.787  1.00  0.00     0.000 C 
BRANCH  14  18
ATOM     18  C   UNL A   1      32.541  18.182  25.691  1.00  0.00     0.160 C 
BRANCH  18  19
ATOM     19  O   UNL A   1      32.874  18.567  27.016  1.00  0.00    -0.396 OA
ATOM     20  H   UNL A   1      33.656  19.140  27.000  1.00  0.00     0.210 HD
ENDBRANCH  18  19
ENDBRANCH  14  18
ENDBRANCH  11  12
ENDBRANCH   8  11
ENDBRANCH   6   8
ENDBRANCH   4   6
ENDBRANCH   2   4
ENDBRANCH   1   2
BRANCH   1  21
ATOM     21  C   UNL A   1      35.429  21.412  26.225  1.00  0.00     0.274 C 
BRANCH  21  22
ATOM     22  C   UNL A   1      36.366  21.005  25.092  1.00  0.00     0.275 C 
BRANCH  22  23
ATOM     23  O   UNL A   1      37.509  21.871  25.087  1.00  0.00    -0.458 OA
BRANCH  23  24
ATOM     24  C   UNL A   1      38.586  21.398  25.757  1.00  0.00     0.338 C 
ATOM     25  O   UNL A   1      39.033  20.267  25.751  1.00  0.00    -0.246 OA
BRANCH  24  26
ATOM     26  C   UNL A   1      39.241  22.530  26.422  1.00  0.00     0.060 A 
ATOM     27  C   UNL A   1      38.842  23.812  26.059  1.00  0.00     0.016 A 
ATOM     28  C   UNL A   1      40.294  22.340  27.309  1.00  0.00     0.016 A 
ATOM     29  C   UNL A   1      39.517  24.926  26.526  1.00  0.00     0.010 A 
ATOM     30  C   UNL A   1      40.942  23.463  27.830  1.00  0.00     0.010 A 
ATOM     31  C   UNL A   1      40.572  24.761  27.423  1.00  0.00    -0.014 A 
BRANCH  31  32
ATOM     32  C   UNL A   1      41.351  25.944  27.847  1.00  0.00     0.031 A 
ATOM     33  C   UNL A   1      40.681  26.974  28.704  1.00  0.00     0.074 A 
ATOM     34  C   UNL A   1      42.648  26.064  27.507  1.00  0.00     0.049 A 
ATOM     35  N   UNL A   1      41.064  28.186  28.999  1.00  0.00    -0.248 NA
ATOM     36  C   UNL A   1      39.391  26.585  29.298  1.00  0.00     0.031 C 
ATOM     37  C   UNL A   1      43.431  25.062  26.780  1.00  0.00     0.029 A 
ATOM     38  N   UNL A   1      43.537  27.082  27.731  1.00  0.00    -0.354 N 
ATOM     39  C   UNL A   1      40.034  28.732  29.756  1.00  0.00     0.074 A 
ATOM     40  C   UNL A   1      39.014  27.713  29.882  1.00  0.00     0.031 C 
ATOM     41  C   UNL A   1      44.686  25.510  26.630  1.00  0.00     0.029 A 
ATOM     42  C   UNL A   1      44.770  26.866  27.160  1.00  0.00     0.049 A 
ATOM     43  H   UNL A   1      43.317  27.888  28.251  1.00  0.00     0.167 HD
ATOM     44  C   UNL A   1      39.954  29.980  30.280  1.00  0.00     0.034 A 
ATOM     45  C   UNL A   1      45.822  27.696  27.025  1.00  0.00     0.034 A 
ATOM     46  C   UNL A   1      41.013  30.951  30.159  1.00  0.00     0.049 A 
ATOM     47  C   UNL A   1      45.687  29.101  27.554  1.00  0.00     0.074 A 
ATOM     48  C   UNL A   1      41.054  32.253  30.622  1.00  0.00     0.029 A 
ATOM     49  N   UNL A   1      42.233  30.716  29.530  1.00  0.00    -0.354 N 
ATOM     50  N   UNL A   1      44.669  29.656  28.173  1.00  0.00    -0.248 NA
ATOM     51  C   UNL A   1      46.830  29.995  27.350  1.00  0.00     0.031 C 
ATOM     52  C   UNL A   1      42.273  32.819  30.229  1.00  0.00     0.029 A 
ATOM     53  C   UNL A   1      43.023  31.852  29.577  1.00  0.00     0.049 A 
ATOM     54  H   UNL A   1      42.495  29.864  29.113  1.00  0.00     0.167 HD
ATOM     55  C   UNL A   1      45.056  30.964  28.442  1.00  0.00     0.074 A 
ATOM     56  C   UNL A   1      46.408  31.105  27.936  1.00  0.00     0.031 C 
ATOM     57  C   UNL A   1      44.362  31.961  29.048  1.00  0.00     0.034 A 
BRANCH  44  58
ATOM     58  C   UNL A   1      38.651  30.372  30.931  1.00  0.00     0.023 A 
ATOM     59  C   UNL A   1      37.605  30.985  30.219  1.00  0.00     0.031 A 
ATOM     60  C   UNL A   1      38.481  30.185  32.316  1.00  0.00     0.131 A 
ATOM     61  C   UNL A   1      36.472  31.454  30.904  1.00  0.00     0.055 A 
ATOM     62  C   UNL A   1      37.320  30.585  32.979  1.00  0.00     0.041 A 
ATOM     63  F   UNL A   1      39.457  29.631  33.054  1.00  0.00    -0.206 F 
ATOM     64  C   UNL A   1      36.313  31.237  32.275  1.00  0.00     0.022 A 
BRANCH  61  65
ATOM     65  S   UNL A   1      35.273  32.479  30.008  1.00  0.00     0.124 S 
ATOM     66  O   UNL A   1      34.295  32.769  31.053  1.00  0.00    -0.237 OA
ATOM     67  O   UNL A   1      36.089  33.605  29.565  1.00  0.00    -0.237 OA
ATOM     68  O   UNL A   1      34.795  31.599  28.944  1.00  0.00    -0.744 OA
ENDBRANCH  61  65
ENDBRANCH  44  58
BRANCH  45  69
ATOM     69  C   UNL A   1      47.042  27.259  26.289  1.00  0.00     0.023 A 
ATOM     70  C   UNL A   1      48.077  26.571  26.940  1.00  0.00     0.031 A 
ATOM     71  C   UNL A   1      47.206  27.551  24.922  1.00  0.00     0.131 A 
ATOM     72  C   UNL A   1      49.239  26.222  26.233  1.00  0.00     0.055 A 
ATOM     73  C   UNL A   1      48.340  27.155  24.211  1.00  0.00     0.041 A 
ATOM     74  F   UNL A   1      46.250  28.212  24.249  1.00  0.00    -0.206 F 
ATOM     75  C   UNL A   1      49.370  26.495  24.870  1.00  0.00     0.022 A 
BRANCH  72  76
ATOM     76  S   UNL A   1      50.615  25.464  27.140  1.00  0.00     0.124 S 
ATOM     77  O   UNL A   1      51.575  25.212  26.071  1.00  0.00    -0.237 OA
ATOM     78  O   UNL A   1      50.971  26.514  28.088  1.00  0.00    -0.237 OA
ATOM     79  O   UNL A   1      50.015  24.270  27.734  1.00  0.00    -0.744 OA
ENDBRANCH  72  76
ENDBRANCH  45  69
BRANCH  57  80
ATOM     80  C   UNL A   1      45.087  33.269  29.223  1.00  0.00     0.023 A 
ATOM     81  C   UNL A   1      44.936  34.321  28.305  1.00  0.00     0.031 A 
ATOM     82  C   UNL A   1      45.957  33.452  30.312  1.00  0.00     0.131 A 
ATOM     83  C   UNL A   1      45.691  35.493  28.461  1.00  0.00     0.055 A 
ATOM     84  C   UNL A   1      46.662  34.641  30.492  1.00  0.00     0.041 A 
ATOM     85  F   UNL A   1      46.135  32.475  31.216  1.00  0.00    -0.206 F 
ATOM     86  C   UNL A   1      46.541  35.665  29.557  1.00  0.00     0.022 A 
BRANCH  83  87
ATOM     87  S   UNL A   1      45.612  36.757  27.163  1.00  0.00     0.124 S 
ATOM     88  O   UNL A   1      46.100  37.941  27.862  1.00  0.00    -0.237 OA
ATOM     89  O   UNL A   1      46.497  36.210  26.139  1.00  0.00    -0.237 OA
ATOM     90  O   UNL A   1      44.196  36.790  26.803  1.00  0.00    -0.744 OA
ENDBRANCH  83  87
ENDBRANCH  57  80
ENDBRANCH  31  32
ENDBRANCH  24  26
ENDBRANCH  23  24
ENDBRANCH  22  23
ENDBRANCH  21  22
ENDBRANCH   1  21
TORSDOF 20
ENDMDL
MODEL 3
REMARK VINA RESULT:     -10.6      1.911      2.200
REMARK SMILES C[C@H](C(=O)OCCOC(=O)c1ccc(-c2c3nc(c(-c4cc(S(=O)(=O)[O-])ccc4F)c4ccc([nH]4)c(-c4cc(S(=O)(=O)[O-])ccc4F)c4nc(c(-c5cc(S(=O)(=O)[O-])ccc5F)c5ccc2[nH]5)C=C4)C=C3)cc1)[C@@H](C)[NH2+]C[C@@H]1CCCC[C@@H]1CO
REMARK SMILES IDX 5 1 3 2 4 3 2 4 1 5 74 6 75 7 76 8 77 11 78 12 79 13 83 14
REMARK SMILES IDX 80 15 82 16 81 17 84 18 85 19 6 21 7 22 8 23 9 24 10 25
REMARK SMILES IDX 11 26 12 27 73 28 13 29 72 30 14 31 15 32 16 33 66 34 17 35
REMARK SMILES IDX 71 36 65 37 67 38 18 39 70 40 64 41 63 42 19 44 51 45 31 46
REMARK SMILES IDX 50 47 32 48 35 49 49 50 68 51 33 52 34 53 48 55 69 56 36 57
REMARK SMILES IDX 20 58 21 59 29 60 22 61 28 62 30 63 27 64 23 65 24 66 25 67
REMARK SMILES IDX 26 68 52 69 53 70 61 71 54 72 60 73 62 74 59 75 55 76 56 77
REMARK SMILES IDX 57 78 58 79 37 80 38 81 46 82 39 83 45 84 47 85 44 86 40 87
REMARK SMILES IDX 41 88 42 89 43 90
REMARK H PARENT 76 9 76 10 85 20 67 43 35 54
REMARK Flexibility Score: inf
ROOT
ATOM      1  O   UNL A   1      31.605  27.769  25.317  1.00  0.00    -0.462 OA
ENDROOT
BRANCH   1   2
ATOM      2  C   UNL A   1      31.022  27.159  26.387  1.00  0.00     0.314 C 
ATOM      3  O   UNL A   1      31.102  27.556  27.543  1.00  0.00    -0.252 OA
BRANCH   2   4
ATOM      4  C   UNL A   1      30.339  25.848  26.003  1.00  0.00     0.154 C 
ATOM      5  C   UNL A   1      29.673  25.947  24.631  1.00  0.00     0.026 C 
BRANCH   4   6
ATOM      6  C   UNL A   1      31.376  24.709  26.129  1.00  0.00     0.193 C 
ATOM      7  C   UNL A   1      30.819  23.440  25.444  1.00  0.00     0.076 C 
BRANCH   6   8
ATOM      8  N   UNL A   1      32.672  25.109  25.544  1.00  0.00    -0.343 N 
ATOM      9  H   UNL A   1      33.356  25.162  26.300  1.00  0.00     0.346 HD
ATOM     10  H   UNL A   1      32.509  26.002  25.079  1.00  0.00     0.346 HD
BRANCH   8  11
ATOM     11  C   UNL A   1      33.200  24.204  24.515  1.00  0.00     0.264 C 
BRANCH  11  12
ATOM     12  C   UNL A   1      34.739  23.980  24.546  1.00  0.00     0.049 C 
ATOM     13  C   UNL A   1      35.226  23.256  23.283  1.00  0.00     0.010 C 
ATOM     14  C   UNL A   1      35.243  23.288  25.852  1.00  0.00     0.023 C 
ATOM     15  C   UNL A   1      36.688  22.851  23.266  1.00  0.00     0.001 C 
ATOM     16  C   UNL A   1      36.743  22.950  25.747  1.00  0.00     0.006 C 
ATOM     17  C   UNL A   1      37.069  22.101  24.524  1.00  0.00     0.000 C 
BRANCH  14  18
ATOM     18  C   UNL A   1      34.452  22.030  26.256  1.00  0.00     0.160 C 
BRANCH  18  19
ATOM     19  O   UNL A   1      34.969  21.467  27.452  1.00  0.00    -0.396 OA
ATOM     20  H   UNL A   1      35.660  22.045  27.810  1.00  0.00     0.210 HD
ENDBRANCH  18  19
ENDBRANCH  14  18
ENDBRANCH  11  12
ENDBRANCH   8  11
ENDBRANCH   6   8
ENDBRANCH   4   6
ENDBRANCH   2   4
ENDBRANCH   1   2
BRANCH   1  21
ATOM     21  C   UNL A   1      31.313  29.169  25.135  1.00  0.00     0.274 C 
BRANCH  21  22
ATOM     22  C   UNL A   1      32.528  30.039  25.434  1.00  0.00     0.275 C 
BRANCH  22  23
ATOM     23  O   UNL A   1      32.630  30.246  26.849  1.00  0.00    -0.458 OA
BRANCH  23  24
ATOM     24  C   UNL A   1      33.175  31.429  27.215  1.00  0.00     0.338 C 
ATOM     25  O   UNL A   1      32.642  32.523  27.237  1.00  0.00    -0.246 OA
BRANCH  24  26
ATOM     26  C   UNL A   1      34.525  31.170  27.727  1.00  0.00     0.060 A 
ATOM     27  C   UNL A   1      34.814  29.881  28.163  1.00  0.00     0.016 A 
ATOM     28  C   UNL A   1      35.455  32.192  27.872  1.00  0.00     0.016 A 
ATOM     29  C   UNL A   1      36.010  29.597  28.799  1.00  0.00     0.010 A 
ATOM     30  C   UNL A   1      36.688  31.898  28.461  1.00  0.00     0.010 A 
ATOM     31  C   UNL A   1      36.961  30.605  28.949  1.00  0.00    -0.014 A 
BRANCH  31  32
ATOM     32  C   UNL A   1      38.197  30.323  29.711  1.00  0.00     0.031 A 
ATOM     33  C   UNL A   1      39.241  29.447  29.088  1.00  0.00     0.074 A 
ATOM     34  C   UNL A   1      38.395  30.883  30.920  1.00  0.00     0.049 A 
ATOM     35  N   UNL A   1      40.275  28.871  29.635  1.00  0.00    -0.248 NA
ATOM     36  C   UNL A   1      39.084  29.174  27.649  1.00  0.00     0.031 C 
ATOM     37  C   UNL A   1      37.501  31.847  31.565  1.00  0.00     0.029 A 
ATOM     38  N   UNL A   1      39.416  30.724  31.819  1.00  0.00    -0.354 N 
ATOM     39  C   UNL A   1      40.857  28.110  28.627  1.00  0.00     0.074 A 
ATOM     40  C   UNL A   1      40.063  28.308  27.433  1.00  0.00     0.031 C 
ATOM     41  C   UNL A   1      38.019  32.202  32.750  1.00  0.00     0.029 A 
ATOM     42  C   UNL A   1      39.226  31.419  32.990  1.00  0.00     0.049 A 
ATOM     43  H   UNL A   1      40.209  30.167  31.644  1.00  0.00     0.167 HD
ATOM     44  C   UNL A   1      41.948  27.309  28.710  1.00  0.00     0.034 A 
ATOM     45  C   UNL A   1      39.915  31.377  34.147  1.00  0.00     0.034 A 
ATOM     46  C   UNL A   1      42.730  27.171  29.913  1.00  0.00     0.049 A 
ATOM     47  C   UNL A   1      41.084  30.430  34.240  1.00  0.00     0.074 A 
ATOM     48  C   UNL A   1      43.843  26.382  30.140  1.00  0.00     0.029 A 
ATOM     49  N   UNL A   1      42.481  27.855  31.100  1.00  0.00    -0.354 N 
ATOM     50  N   UNL A   1      41.569  29.625  33.322  1.00  0.00    -0.248 NA
ATOM     51  C   UNL A   1      41.783  30.371  35.527  1.00  0.00     0.031 C 
ATOM     52  C   UNL A   1      44.233  26.548  31.474  1.00  0.00     0.029 A 
ATOM     53  C   UNL A   1      43.406  27.491  32.065  1.00  0.00     0.049 A 
ATOM     54  H   UNL A   1      41.753  28.504  31.233  1.00  0.00     0.167 HD
ATOM     55  C   UNL A   1      42.640  28.970  33.919  1.00  0.00     0.074 A 
ATOM     56  C   UNL A   1      42.740  29.493  35.268  1.00  0.00     0.031 C 
ATOM     57  C   UNL A   1      43.466  28.023  33.407  1.00  0.00     0.034 A 
BRANCH  44  58
ATOM     58  C   UNL A   1      42.280  26.468  27.502  1.00  0.00     0.023 A 
ATOM     59  C   UNL A   1      41.876  25.126  27.383  1.00  0.00     0.031 A 
ATOM     60  C   UNL A   1      43.076  27.008  26.475  1.00  0.00     0.131 A 
ATOM     61  C   UNL A   1      42.331  24.353  26.303  1.00  0.00     0.055 A 
ATOM     62  C   UNL A   1      43.462  26.255  25.366  1.00  0.00     0.041 A 
ATOM     63  F   UNL A   1      43.516  28.275  26.548  1.00  0.00    -0.206 F 
ATOM     64  C   UNL A   1      43.102  24.914  25.281  1.00  0.00     0.022 A 
BRANCH  61  65
ATOM     65  S   UNL A   1      42.023  22.565  26.321  1.00  0.00     0.124 S 
ATOM     66  O   UNL A   1      42.708  22.136  25.103  1.00  0.00    -0.237 OA
ATOM     67  O   UNL A   1      42.636  22.151  27.578  1.00  0.00    -0.237 OA
ATOM     68  O   UNL A   1      40.567  22.465  26.275  1.00  0.00    -0.744 OA
ENDBRANCH  61  65
ENDBRANCH  44  58
BRANCH  45  69
ATOM     69  C   UNL A   1      39.468  32.175  35.324  1.00  0.00     0.023 A 
ATOM     70  C   UNL A   1      39.873  33.508  35.495  1.00  0.00     0.031 A 
ATOM     71  C   UNL A   1      38.649  31.605  36.317  1.00  0.00     0.131 A 
ATOM     72  C   UNL A   1      39.483  34.217  36.642  1.00  0.00     0.055 A 
ATOM     73  C   UNL A   1      38.220  32.330  37.429  1.00  0.00     0.041 A 
ATOM     74  F   UNL A   1      38.236  30.332  36.208  1.00  0.00    -0.206 F 
ATOM     75  C   UNL A   1      38.646  33.642  37.602  1.00  0.00     0.022 A 
BRANCH  72  76
ATOM     76  S   UNL A   1      40.143  35.886  36.902  1.00  0.00     0.124 S 
ATOM     77  O   UNL A   1      39.664  36.585  35.715  1.00  0.00    -0.237 OA
ATOM     78  O   UNL A   1      39.523  36.266  38.166  1.00  0.00    -0.237 OA
ATOM     79  O   UNL A   1      41.589  35.675  36.959  1.00  0.00    -0.744 OA
ENDBRANCH  72  76
ENDBRANCH  45  69
BRANCH  57  80
ATOM     80  C   UNL A   1      44.567  27.536  34.311  1.00  0.00     0.023 A 
ATOM     81  C   UNL A   1      45.793  28.215  34.408  1.00  0.00     0.031 A 
ATOM     82  C   UNL A   1      44.392  26.364  35.065  1.00  0.00     0.131 A 
ATOM     83  C   UNL A   1      46.822  27.683  35.199  1.00  0.00     0.055 A 
ATOM     84  C   UNL A   1      45.398  25.870  35.894  1.00  0.00     0.041 A 
ATOM     85  F   UNL A   1      43.239  25.678  35.006  1.00  0.00    -0.206 F 
ATOM     86  C   UNL A   1      46.627  26.524  35.955  1.00  0.00     0.022 A 
BRANCH  83  87
ATOM     87  S   UNL A   1      48.449  28.481  35.161  1.00  0.00     0.124 S 
ATOM     88  O   UNL A   1      48.134  29.837  35.597  1.00  0.00    -0.237 OA
ATOM     89  O   UNL A   1      49.217  27.671  36.102  1.00  0.00    -0.237 OA
ATOM     90  O   UNL A   1      48.858  28.358  33.763  1.00  0.00    -0.744 OA
ENDBRANCH  83  87
ENDBRANCH  57  80
ENDBRANCH  31  32
ENDBRANCH  24  26
ENDBRANCH  23  24
ENDBRANCH  22  23
ENDBRANCH  21  22
ENDBRANCH   1  21
TORSDOF 20
ENDMDL
