MODEL 1
REMARK VINA RESULT:     -12.3      0.000      0.000
REMARK SMILES CC[C@H](NC(=O)NC[C@@]1(C)CCCO1)C(=O)OCCOC(=O)c1ccc(-c2c3nc(c(-c4cc(S(=O)(=O)[O-])ccc4F)c4ccc([nH]4)c(-c4cc(S(=O)(=O)[O-])ccc4F)c4nc(c(-c5cc(S(=O)(=O)[O-])ccc5F)c5ccc2[nH]5)C=C4)C=C3)cc1
REMARK SMILES IDX 18 1 17 2 15 3 16 4 3 5 2 6 1 7 4 8 5 9 6 11 7 12 8 14 9 15
REMARK SMILES IDX 10 16 11 17 14 18 12 19 13 20 19 21 20 22 21 23 22 24 23 25
REMARK SMILES IDX 24 26 85 27 25 28 84 29 26 30 27 31 28 32 78 33 29 34 83 35
REMARK SMILES IDX 77 36 79 37 30 38 82 39 76 40 75 41 31 43 63 44 43 45 62 46
REMARK SMILES IDX 44 47 47 48 61 49 80 50 45 51 46 52 60 54 81 55 48 56 32 57
REMARK SMILES IDX 33 58 41 59 34 60 40 61 42 62 39 63 35 64 36 65 37 66 38 67
REMARK SMILES IDX 64 68 65 69 73 70 66 71 72 72 74 73 71 74 67 75 68 76 69 77
REMARK SMILES IDX 70 78 49 79 50 80 58 81 51 82 57 83 59 84 56 85 52 86 53 87
REMARK SMILES IDX 54 88 55 89
REMARK H PARENT 4 10 7 13 79 42 47 53
REMARK Flexibility Score: inf
ROOT
ATOM      1  C   UNL A   1      33.858  27.747  24.262  1.00  0.00     0.274 C 
ENDROOT
BRANCH   1   2
ATOM      2  O   UNL A   1      32.789  26.072  23.729  1.00  0.00    -0.461 OA
BRANCH   2   3
ATOM      3  C   UNL A   1      31.637  25.188  23.526  1.00  0.00     0.328 C 
ATOM      4  O   UNL A   1      30.769  25.363  22.661  1.00  0.00    -0.250 OA
BRANCH   3   5
ATOM      5  C   UNL A   1      31.649  23.818  24.254  1.00  0.00     0.193 C 
BRANCH   5   6
ATOM      6  C   UNL A   1      31.743  22.617  23.295  1.00  0.00     0.033 C 
ATOM      7  C   UNL A   1      32.893  22.672  22.298  1.00  0.00     0.007 C 
ENDBRANCH   5   6
BRANCH   5   8
ATOM      8  N   UNL A   1      30.630  23.729  25.241  1.00  0.00    -0.325 N 
ATOM      9  C   UNL A   1      30.854  23.585  26.553  1.00  0.00     0.315 C 
ATOM     10  H   UNL A   1      29.694  23.777  24.937  1.00  0.00     0.166 HD
ATOM     11  O   UNL A   1      29.882  23.534  27.306  1.00  0.00    -0.249 OA
ATOM     12  N   UNL A   1      32.116  23.520  27.028  1.00  0.00    -0.335 N 
ATOM     13  H   UNL A   1      32.147  23.215  27.964  1.00  0.00     0.165 HD
BRANCH  12  14
ATOM     14  C   UNL A   1      33.493  23.800  26.473  1.00  0.00     0.152 C 
BRANCH  14  15
ATOM     15  C   UNL A   1      34.534  22.618  26.439  1.00  0.00     0.083 C 
ATOM     16  C   UNL A   1      34.067  21.580  27.501  1.00  0.00     0.044 C 
ATOM     17  C   UNL A   1      34.967  21.240  25.042  1.00  0.00     0.039 C 
ATOM     18  O   UNL A   1      35.980  23.873  26.399  1.00  0.00    -0.373 OA
ATOM     19  C   UNL A   1      36.644  21.823  24.149  1.00  0.00     0.031 C 
ATOM     20  C   UNL A   1      37.154  23.590  24.928  1.00  0.00     0.161 C 
ENDBRANCH  14  15
ENDBRANCH  12  14
ENDBRANCH   5   8
ENDBRANCH   3   5
ENDBRANCH   2   3
ENDBRANCH   1   2
BRANCH   1  21
ATOM     21  C   UNL A   1      33.123  29.357  24.683  1.00  0.00     0.275 C 
BRANCH  21  22
ATOM     22  O   UNL A   1      32.649  29.587  26.068  1.00  0.00    -0.458 OA
BRANCH  22  23
ATOM     23  C   UNL A   1      32.853  30.763  26.745  1.00  0.00     0.338 C 
ATOM     24  O   UNL A   1      32.034  31.655  26.882  1.00  0.00    -0.246 OA
BRANCH  23  25
ATOM     25  C   UNL A   1      34.188  30.760  27.478  1.00  0.00     0.060 A 
ATOM     26  C   UNL A   1      34.699  29.537  27.937  1.00  0.00     0.016 A 
ATOM     27  C   UNL A   1      34.961  31.897  27.724  1.00  0.00     0.016 A 
ATOM     28  C   UNL A   1      36.026  29.390  28.374  1.00  0.00     0.010 A 
ATOM     29  C   UNL A   1      36.238  31.777  28.342  1.00  0.00     0.010 A 
ATOM     30  C   UNL A   1      36.803  30.516  28.629  1.00  0.00    -0.014 A 
BRANCH  30  31
ATOM     31  C   UNL A   1      38.026  30.344  29.477  1.00  0.00     0.031 A 
ATOM     32  C   UNL A   1      39.138  29.494  28.915  1.00  0.00     0.074 A 
ATOM     33  C   UNL A   1      38.252  31.015  30.625  1.00  0.00     0.049 A 
ATOM     34  N   UNL A   1      40.195  28.993  29.498  1.00  0.00    -0.248 NA
ATOM     35  C   UNL A   1      39.040  29.187  27.479  1.00  0.00     0.031 C 
ATOM     36  C   UNL A   1      37.391  32.055  31.188  1.00  0.00     0.029 A 
ATOM     37  N   UNL A   1      39.290  30.925  31.529  1.00  0.00    -0.354 N 
ATOM     38  C   UNL A   1      40.857  28.266  28.512  1.00  0.00     0.074 A 
ATOM     39  C   UNL A   1      40.099  28.419  27.292  1.00  0.00     0.031 C 
ATOM     40  C   UNL A   1      37.915  32.474  32.356  1.00  0.00     0.029 A 
ATOM     41  C   UNL A   1      39.102  31.680  32.667  1.00  0.00     0.049 A 
ATOM     42  H   UNL A   1      40.091  30.373  31.376  1.00  0.00     0.167 HD
ATOM     43  C   UNL A   1      41.979  27.514  28.627  1.00  0.00     0.034 A 
ATOM     44  C   UNL A   1      39.765  31.672  33.848  1.00  0.00     0.034 A 
ATOM     45  C   UNL A   1      42.723  27.388  29.854  1.00  0.00     0.049 A 
ATOM     46  C   UNL A   1      40.924  30.713  34.021  1.00  0.00     0.074 A 
ATOM     47  C   UNL A   1      43.825  26.596  30.124  1.00  0.00     0.029 A 
ATOM     48  N   UNL A   1      42.439  28.085  31.020  1.00  0.00    -0.354 N 
ATOM     49  N   UNL A   1      41.451  29.885  33.146  1.00  0.00    -0.248 NA
ATOM     50  C   UNL A   1      41.565  30.672  35.343  1.00  0.00     0.031 C 
ATOM     51  C   UNL A   1      44.169  26.773  31.470  1.00  0.00     0.029 A 
ATOM     52  C   UNL A   1      43.329  27.729  32.019  1.00  0.00     0.049 A 
ATOM     53  H   UNL A   1      41.710  28.739  31.122  1.00  0.00     0.167 HD
ATOM     54  C   UNL A   1      42.492  29.238  33.808  1.00  0.00     0.074 A 
ATOM     55  C   UNL A   1      42.530  29.783  35.150  1.00  0.00     0.031 C 
ATOM     56  C   UNL A   1      43.342  28.282  33.353  1.00  0.00     0.034 A 
BRANCH  43  57
ATOM     57  C   UNL A   1      42.370  26.682  27.429  1.00  0.00     0.023 A 
ATOM     58  C   UNL A   1      41.978  25.340  27.280  1.00  0.00     0.031 A 
ATOM     59  C   UNL A   1      43.226  27.230  26.457  1.00  0.00     0.131 A 
ATOM     60  C   UNL A   1      42.502  24.573  26.226  1.00  0.00     0.055 A 
ATOM     61  C   UNL A   1      43.680  26.485  25.367  1.00  0.00     0.041 A 
ATOM     62  F   UNL A   1      43.660  28.496  26.564  1.00  0.00    -0.206 F 
ATOM     63  C   UNL A   1      43.332  25.143  25.256  1.00  0.00     0.022 A 
BRANCH  60  64
ATOM     64  S   UNL A   1      42.208  22.783  26.222  1.00  0.00     0.124 S 
ATOM     65  O   UNL A   1      42.824  22.387  24.957  1.00  0.00    -0.237 OA
ATOM     66  O   UNL A   1      42.897  22.348  27.431  1.00  0.00    -0.237 OA
ATOM     67  O   UNL A   1      40.751  22.674  26.260  1.00  0.00    -0.744 OA
ENDBRANCH  60  64
ENDBRANCH  43  57
BRANCH  44  68
ATOM     68  C   UNL A   1      39.272  32.475  35.011  1.00  0.00     0.023 A 
ATOM     69  C   UNL A   1      39.768  33.759  35.297  1.00  0.00     0.031 A 
ATOM     70  C   UNL A   1      38.336  31.924  35.909  1.00  0.00     0.131 A 
ATOM     71  C   UNL A   1      39.346  34.433  36.459  1.00  0.00     0.055 A 
ATOM     72  C   UNL A   1      37.885  32.617  37.033  1.00  0.00     0.041 A 
ATOM     73  F   UNL A   1      37.843  30.692  35.703  1.00  0.00    -0.206 F 
ATOM     74  C   UNL A   1      38.397  33.876  37.320  1.00  0.00     0.022 A 
BRANCH  71  75
ATOM     75  S   UNL A   1      40.110  36.027  36.877  1.00  0.00     0.124 S 
ATOM     76  O   UNL A   1      39.930  36.778  35.640  1.00  0.00    -0.237 OA
ATOM     77  O   UNL A   1      39.306  36.458  38.015  1.00  0.00    -0.237 OA
ATOM     78  O   UNL A   1      41.492  35.669  37.195  1.00  0.00    -0.744 OA
ENDBRANCH  71  75
ENDBRANCH  44  68
BRANCH  56  79
ATOM     79  C   UNL A   1      44.414  27.808  34.300  1.00  0.00     0.023 A 
ATOM     80  C   UNL A   1      44.205  26.730  35.178  1.00  0.00     0.031 A 
ATOM     81  C   UNL A   1      45.664  28.452  34.325  1.00  0.00     0.131 A 
ATOM     82  C   UNL A   1      45.213  26.362  36.081  1.00  0.00     0.055 A 
ATOM     83  C   UNL A   1      46.684  28.045  35.187  1.00  0.00     0.041 A 
ATOM     84  F   UNL A   1      45.917  29.486  33.506  1.00  0.00    -0.206 F 
ATOM     85  C   UNL A   1      46.457  27.002  36.080  1.00  0.00     0.022 A 
BRANCH  82  86
ATOM     86  S   UNL A   1      44.851  25.085  37.319  1.00  0.00     0.124 S 
ATOM     87  O   UNL A   1      45.296  23.872  36.642  1.00  0.00    -0.237 OA
ATOM     88  O   UNL A   1      45.660  25.514  38.455  1.00  0.00    -0.237 OA
ATOM     89  O   UNL A   1      43.406  25.195  37.511  1.00  0.00    -0.744 OA
ENDBRANCH  82  86
ENDBRANCH  56  79
ENDBRANCH  30  31
ENDBRANCH  23  25
ENDBRANCH  22  23
ENDBRANCH  21  22
ENDBRANCH   1  21
TORSDOF 18
ENDMDL
MODEL 2
REMARK VINA RESULT:     -12.2      1.258      2.063
REMARK SMILES CC[C@H](NC(=O)NC[C@@]1(C)CCCO1)C(=O)OCCOC(=O)c1ccc(-c2c3nc(c(-c4cc(S(=O)(=O)[O-])ccc4F)c4ccc([nH]4)c(-c4cc(S(=O)(=O)[O-])ccc4F)c4nc(c(-c5cc(S(=O)(=O)[O-])ccc5F)c5ccc2[nH]5)C=C4)C=C3)cc1
REMARK SMILES IDX 18 1 17 2 15 3 16 4 3 5 2 6 1 7 4 8 5 9 6 11 7 12 8 14 9 15
REMARK SMILES IDX 10 16 11 17 14 18 12 19 13 20 19 21 20 22 21 23 22 24 23 25
REMARK SMILES IDX 24 26 85 27 25 28 84 29 26 30 27 31 28 32 78 33 29 34 83 35
REMARK SMILES IDX 77 36 79 37 30 38 82 39 76 40 75 41 31 43 63 44 43 45 62 46
REMARK SMILES IDX 44 47 47 48 61 49 80 50 45 51 46 52 60 54 81 55 48 56 32 57
REMARK SMILES IDX 33 58 41 59 34 60 40 61 42 62 39 63 35 64 36 65 37 66 38 67
REMARK SMILES IDX 64 68 65 69 73 70 66 71 72 72 74 73 71 74 67 75 68 76 69 77
REMARK SMILES IDX 70 78 49 79 50 80 58 81 51 82 57 83 59 84 56 85 52 86 53 87
REMARK SMILES IDX 54 88 55 89
REMARK H PARENT 4 10 7 13 79 42 47 53
REMARK Flexibility Score: inf
ROOT
ATOM      1  C   UNL A   1      33.204  28.569  23.573  1.00  0.00     0.274 C 
ENDROOT
BRANCH   1   2
ATOM      2  O   UNL A   1      33.910  26.648  23.776  1.00  0.00    -0.461 OA
BRANCH   2   3
ATOM      3  C   UNL A   1      33.979  25.190  23.629  1.00  0.00     0.328 C 
ATOM      4  O   UNL A   1      34.051  24.603  22.542  1.00  0.00    -0.250 OA
BRANCH   3   5
ATOM      5  C   UNL A   1      34.246  24.355  24.909  1.00  0.00     0.193 C 
BRANCH   5   6
ATOM      6  C   UNL A   1      33.123  24.468  25.958  1.00  0.00     0.033 C 
ATOM      7  C   UNL A   1      31.710  24.306  25.413  1.00  0.00     0.007 C 
ENDBRANCH   5   6
BRANCH   5   8
ATOM      8  N   UNL A   1      35.563  24.548  25.407  1.00  0.00    -0.325 N 
ATOM      9  C   UNL A   1      36.450  23.565  25.609  1.00  0.00     0.315 C 
ATOM     10  H   UNL A   1      35.842  25.469  25.618  1.00  0.00     0.166 HD
ATOM     11  O   UNL A   1      37.565  23.868  26.033  1.00  0.00    -0.249 OA
ATOM     12  N   UNL A   1      36.125  22.284  25.333  1.00  0.00    -0.335 N 
ATOM     13  H   UNL A   1      36.775  21.646  25.708  1.00  0.00     0.165 HD
BRANCH  12  14
ATOM     14  C   UNL A   1      35.009  21.591  24.589  1.00  0.00     0.152 C 
BRANCH  14  15
ATOM     15  C   UNL A   1      34.146  20.527  25.368  1.00  0.00     0.083 C 
ATOM     16  C   UNL A   1      33.804  21.156  26.751  1.00  0.00     0.044 C 
ATOM     17  C   UNL A   1      32.299  19.798  25.058  1.00  0.00     0.039 C 
ATOM     18  O   UNL A   1      35.351  19.137  24.836  1.00  0.00    -0.373 OA
ATOM     19  C   UNL A   1      32.513  18.000  24.238  1.00  0.00     0.031 C 
ATOM     20  C   UNL A   1      34.467  17.700  23.957  1.00  0.00     0.161 C 
ENDBRANCH  14  15
ENDBRANCH  12  14
ENDBRANCH   5   8
ENDBRANCH   3   5
ENDBRANCH   2   3
ENDBRANCH   1   2
BRANCH   1  21
ATOM     21  C   UNL A   1      32.104  29.403  24.759  1.00  0.00     0.275 C 
BRANCH  21  22
ATOM     22  O   UNL A   1      32.543  29.542  26.167  1.00  0.00    -0.458 OA
BRANCH  22  23
ATOM     23  C   UNL A   1      32.803  30.754  26.756  1.00  0.00     0.338 C 
ATOM     24  O   UNL A   1      32.024  31.686  26.836  1.00  0.00    -0.246 OA
BRANCH  23  25
ATOM     25  C   UNL A   1      34.146  30.748  27.474  1.00  0.00     0.060 A 
ATOM     26  C   UNL A   1      34.624  29.536  27.995  1.00  0.00     0.016 A 
ATOM     27  C   UNL A   1      34.958  31.871  27.649  1.00  0.00     0.016 A 
ATOM     28  C   UNL A   1      35.951  29.369  28.426  1.00  0.00     0.010 A 
ATOM     29  C   UNL A   1      36.238  31.743  28.259  1.00  0.00     0.010 A 
ATOM     30  C   UNL A   1      36.766  30.482  28.610  1.00  0.00    -0.014 A 
BRANCH  30  31
ATOM     31  C   UNL A   1      37.993  30.317  29.454  1.00  0.00     0.031 A 
ATOM     32  C   UNL A   1      39.109  29.475  28.887  1.00  0.00     0.074 A 
ATOM     33  C   UNL A   1      38.219  30.989  30.602  1.00  0.00     0.049 A 
ATOM     34  N   UNL A   1      40.171  28.981  29.465  1.00  0.00    -0.248 NA
ATOM     35  C   UNL A   1      39.008  29.169  27.451  1.00  0.00     0.031 C 
ATOM     36  C   UNL A   1      37.353  32.022  31.169  1.00  0.00     0.029 A 
ATOM     37  N   UNL A   1      39.261  30.905  31.502  1.00  0.00    -0.354 N 
ATOM     38  C   UNL A   1      40.835  28.259  28.476  1.00  0.00     0.074 A 
ATOM     39  C   UNL A   1      40.072  28.408  27.259  1.00  0.00     0.031 C 
ATOM     40  C   UNL A   1      37.878  32.444  32.335  1.00  0.00     0.029 A 
ATOM     41  C   UNL A   1      39.072  31.657  32.641  1.00  0.00     0.049 A 
ATOM     42  H   UNL A   1      40.065  30.358  31.345  1.00  0.00     0.167 HD
ATOM     43  C   UNL A   1      41.962  27.515  28.586  1.00  0.00     0.034 A 
ATOM     44  C   UNL A   1      39.739  31.652  33.819  1.00  0.00     0.034 A 
ATOM     45  C   UNL A   1      42.712  27.392  29.811  1.00  0.00     0.049 A 
ATOM     46  C   UNL A   1      40.905  30.701  33.988  1.00  0.00     0.074 A 
ATOM     47  C   UNL A   1      43.819  26.607  30.076  1.00  0.00     0.029 A 
ATOM     48  N   UNL A   1      42.427  28.086  30.979  1.00  0.00    -0.354 N 
ATOM     49  N   UNL A   1      41.434  29.878  33.110  1.00  0.00    -0.248 NA
ATOM     50  C   UNL A   1      41.551  30.662  35.308  1.00  0.00     0.031 C 
ATOM     51  C   UNL A   1      44.167  26.785  31.421  1.00  0.00     0.029 A 
ATOM     52  C   UNL A   1      43.322  27.735  31.974  1.00  0.00     0.049 A 
ATOM     53  H   UNL A   1      41.694  28.735  31.084  1.00  0.00     0.167 HD
ATOM     54  C   UNL A   1      42.482  29.237  33.768  1.00  0.00     0.074 A 
ATOM     55  C   UNL A   1      42.521  29.780  35.110  1.00  0.00     0.031 C 
ATOM     56  C   UNL A   1      43.336  28.286  33.308  1.00  0.00     0.034 A 
BRANCH  43  57
ATOM     57  C   UNL A   1      42.354  26.687  27.386  1.00  0.00     0.023 A 
ATOM     58  C   UNL A   1      41.972  25.342  27.238  1.00  0.00     0.031 A 
ATOM     59  C   UNL A   1      43.203  27.242  26.411  1.00  0.00     0.131 A 
ATOM     60  C   UNL A   1      42.498  24.580  26.181  1.00  0.00     0.055 A 
ATOM     61  C   UNL A   1      43.658  26.500  25.319  1.00  0.00     0.041 A 
ATOM     62  F   UNL A   1      43.627  28.510  26.517  1.00  0.00    -0.206 F 
ATOM     63  C   UNL A   1      43.318  25.157  25.208  1.00  0.00     0.022 A 
BRANCH  60  64
ATOM     64  S   UNL A   1      42.217  22.787  26.177  1.00  0.00     0.124 S 
ATOM     65  O   UNL A   1      42.945  22.374  27.374  1.00  0.00    -0.237 OA
ATOM     66  O   UNL A   1      40.764  22.695  26.249  1.00  0.00    -0.237 OA
ATOM     67  O   UNL A   1      42.808  22.350  24.913  1.00  0.00    -0.744 OA
ENDBRANCH  60  64
ENDBRANCH  43  57
BRANCH  44  68
ATOM     68  C   UNL A   1      39.245  32.451  34.985  1.00  0.00     0.023 A 
ATOM     69  C   UNL A   1      39.729  33.741  35.267  1.00  0.00     0.031 A 
ATOM     70  C   UNL A   1      38.320  31.891  35.889  1.00  0.00     0.131 A 
ATOM     71  C   UNL A   1      39.307  34.411  36.432  1.00  0.00     0.055 A 
ATOM     72  C   UNL A   1      37.868  32.579  37.016  1.00  0.00     0.041 A 
ATOM     73  F   UNL A   1      37.838  30.654  35.687  1.00  0.00    -0.206 F 
ATOM     74  C   UNL A   1      38.370  33.844  37.298  1.00  0.00     0.022 A 
BRANCH  71  75
ATOM     75  S   UNL A   1      40.057  36.012  36.844  1.00  0.00     0.124 S 
ATOM     76  O   UNL A   1      39.883  36.753  35.600  1.00  0.00    -0.237 OA
ATOM     77  O   UNL A   1      39.240  36.447  37.972  1.00  0.00    -0.237 OA
ATOM     78  O   UNL A   1      41.439  35.667  37.177  1.00  0.00    -0.744 OA
ENDBRANCH  71  75
ENDBRANCH  44  68
BRANCH  56  79
ATOM     79  C   UNL A   1      44.415  27.819  34.252  1.00  0.00     0.023 A 
ATOM     80  C   UNL A   1      44.266  26.660  35.033  1.00  0.00     0.031 A 
ATOM     81  C   UNL A   1      45.610  28.551  34.370  1.00  0.00     0.131 A 
ATOM     82  C   UNL A   1      45.274  26.296  35.938  1.00  0.00     0.055 A 
ATOM     83  C   UNL A   1      46.633  28.153  35.232  1.00  0.00     0.041 A 
ATOM     84  F   UNL A   1      45.804  29.665  33.646  1.00  0.00    -0.206 F 
ATOM     85  C   UNL A   1      46.463  27.026  36.031  1.00  0.00     0.022 A 
BRANCH  82  86
ATOM     86  S   UNL A   1      44.978  24.898  37.057  1.00  0.00     0.124 S 
ATOM     87  O   UNL A   1      43.964  25.440  37.955  1.00  0.00    -0.237 OA
ATOM     88  O   UNL A   1      44.526  23.856  36.142  1.00  0.00    -0.237 OA
ATOM     89  O   UNL A   1      46.286  24.664  37.666  1.00  0.00    -0.744 OA
ENDBRANCH  82  86
ENDBRANCH  56  79
ENDBRANCH  30  31
ENDBRANCH  23  25
ENDBRANCH  22  23
ENDBRANCH  21  22
ENDBRANCH   1  21
TORSDOF 18
ENDMDL
MODEL 3
REMARK VINA RESULT:     -11.9      5.146      8.042
REMARK SMILES CC[C@H](NC(=O)NC[C@@]1(C)CCCO1)C(=O)OCCOC(=O)c1ccc(-c2c3nc(c(-c4cc(S(=O)(=O)[O-])ccc4F)c4ccc([nH]4)c(-c4cc(S(=O)(=O)[O-])ccc4F)c4nc(c(-c5cc(S(=O)(=O)[O-])ccc5F)c5ccc2[nH]5)C=C4)C=C3)cc1
REMARK SMILES IDX 18 1 17 2 15 3 16 4 3 5 2 6 1 7 4 8 5 9 6 11 7 12 8 14 9 15
REMARK SMILES IDX 10 16 11 17 14 18 12 19 13 20 19 21 20 22 21 23 22 24 23 25
REMARK SMILES IDX 24 26 85 27 25 28 84 29 26 30 27 31 28 32 78 33 29 34 83 35
REMARK SMILES IDX 77 36 79 37 30 38 82 39 76 40 75 41 31 43 63 44 43 45 62 46
REMARK SMILES IDX 44 47 47 48 61 49 80 50 45 51 46 52 60 54 81 55 48 56 32 57
REMARK SMILES IDX 33 58 41 59 34 60 40 61 42 62 39 63 35 64 36 65 37 66 38 67
REMARK SMILES IDX 64 68 65 69 73 70 66 71 72 72 74 73 71 74 67 75 68 76 69 77
REMARK SMILES IDX 70 78 49 79 50 80 58 81 51 82 57 83 59 84 56 85 52 86 53 87
REMARK SMILES IDX 54 88 55 89
REMARK H PARENT 4 10 7 13 79 42 47 53
REMARK Flexibility Score: inf
ROOT
ATOM      1  C   UNL A   1      37.977  19.724  24.900  1.00  0.00     0.274 C 
ENDROOT
BRANCH   1   2
ATOM      2  O   UNL A   1      37.327  21.593  24.340  1.00  0.00    -0.461 OA
BRANCH   2   3
ATOM      3  C   UNL A   1      36.506  22.622  23.694  1.00  0.00     0.328 C 
ATOM      4  O   UNL A   1      36.906  23.363  22.787  1.00  0.00    -0.250 OA
BRANCH   3   5
ATOM      5  C   UNL A   1      34.980  22.601  23.976  1.00  0.00     0.193 C 
BRANCH   5   6
ATOM      6  C   UNL A   1      34.142  23.239  22.852  1.00  0.00     0.033 C 
ATOM      7  C   UNL A   1      32.786  23.782  23.284  1.00  0.00     0.007 C 
ENDBRANCH   5   6
BRANCH   5   8
ATOM      8  N   UNL A   1      34.674  23.049  25.290  1.00  0.00    -0.325 N 
ATOM      9  C   UNL A   1      34.194  22.267  26.266  1.00  0.00     0.315 C 
ATOM     10  H   UNL A   1      34.826  24.000  25.496  1.00  0.00     0.166 HD
ATOM     11  O   UNL A   1      33.983  22.776  27.366  1.00  0.00    -0.249 OA
ATOM     12  N   UNL A   1      33.972  20.954  26.043  1.00  0.00    -0.335 N 
ATOM     13  H   UNL A   1      33.438  20.540  26.760  1.00  0.00     0.165 HD
BRANCH  12  14
ATOM     14  C   UNL A   1      34.342  19.966  24.963  1.00  0.00     0.152 C 
BRANCH  14  15
ATOM     15  C   UNL A   1      33.195  19.085  24.338  1.00  0.00     0.083 C 
ATOM     16  C   UNL A   1      32.358  20.026  23.421  1.00  0.00     0.044 C 
ATOM     17  C   UNL A   1      33.223  17.563  23.026  1.00  0.00     0.039 C 
ATOM     18  O   UNL A   1      32.849  18.295  26.047  1.00  0.00    -0.373 OA
ATOM     19  C   UNL A   1      32.989  15.889  24.072  1.00  0.00     0.031 C 
ATOM     20  C   UNL A   1      32.931  16.394  26.003  1.00  0.00     0.161 C 
ENDBRANCH  14  15
ENDBRANCH  12  14
ENDBRANCH   5   8
ENDBRANCH   3   5
ENDBRANCH   2   3
ENDBRANCH   1   2
BRANCH   1  21
ATOM     21  C   UNL A   1      39.315  19.402  26.090  1.00  0.00     0.275 C 
BRANCH  21  22
ATOM     22  O   UNL A   1      40.715  19.384  25.606  1.00  0.00    -0.458 OA
BRANCH  22  23
ATOM     23  C   UNL A   1      41.796  19.593  26.426  1.00  0.00     0.338 C 
ATOM     24  O   UNL A   1      42.631  18.759  26.726  1.00  0.00    -0.246 OA
BRANCH  23  25
ATOM     25  C   UNL A   1      41.943  21.064  26.789  1.00  0.00     0.060 A 
ATOM     26  C   UNL A   1      41.747  22.027  25.787  1.00  0.00     0.016 A 
ATOM     27  C   UNL A   1      42.255  21.540  28.065  1.00  0.00     0.016 A 
ATOM     28  C   UNL A   1      41.593  23.394  26.072  1.00  0.00     0.010 A 
ATOM     29  C   UNL A   1      42.284  22.940  28.321  1.00  0.00     0.010 A 
ATOM     30  C   UNL A   1      41.906  23.879  27.338  1.00  0.00    -0.014 A 
BRANCH  30  31
ATOM     31  C   UNL A   1      42.138  25.352  27.484  1.00  0.00     0.031 A 
ATOM     32  C   UNL A   1      43.383  25.918  26.847  1.00  0.00     0.074 A 
ATOM     33  C   UNL A   1      41.241  26.212  28.010  1.00  0.00     0.049 A 
ATOM     34  N   UNL A   1      43.951  27.085  26.995  1.00  0.00    -0.248 NA
ATOM     35  C   UNL A   1      44.066  25.032  25.891  1.00  0.00     0.031 C 
ATOM     36  C   UNL A   1      39.890  25.870  28.452  1.00  0.00     0.029 A 
ATOM     37  N   UNL A   1      41.333  27.566  28.256  1.00  0.00    -0.354 N 
ATOM     38  C   UNL A   1      45.089  27.051  26.193  1.00  0.00     0.074 A 
ATOM     39  C   UNL A   1      45.110  25.763  25.540  1.00  0.00     0.031 C 
ATOM     40  C   UNL A   1      39.298  26.972  28.950  1.00  0.00     0.029 A 
ATOM     41  C   UNL A   1      40.252  28.080  28.939  1.00  0.00     0.049 A 
ATOM     42  H   UNL A   1      42.100  28.115  27.970  1.00  0.00     0.167 HD
ATOM     43  C   UNL A   1      46.045  28.001  26.042  1.00  0.00     0.034 A 
ATOM     44  C   UNL A   1      40.085  29.277  29.550  1.00  0.00     0.034 A 
ATOM     45  C   UNL A   1      45.994  29.284  26.697  1.00  0.00     0.049 A 
ATOM     46  C   UNL A   1      41.222  30.276  29.509  1.00  0.00     0.074 A 
ATOM     47  C   UNL A   1      46.935  30.298  26.694  1.00  0.00     0.029 A 
ATOM     48  N   UNL A   1      44.931  29.729  27.471  1.00  0.00    -0.354 N 
ATOM     49  N   UNL A   1      42.383  30.184  28.898  1.00  0.00    -0.248 NA
ATOM     50  C   UNL A   1      41.038  31.530  30.253  1.00  0.00     0.031 C 
ATOM     51  C   UNL A   1      46.463  31.331  27.513  1.00  0.00     0.029 A 
ATOM     52  C   UNL A   1      45.198  30.993  27.968  1.00  0.00     0.049 A 
ATOM     53  H   UNL A   1      44.106  29.220  27.642  1.00  0.00     0.167 HD
ATOM     54  C   UNL A   1      43.058  31.371  29.174  1.00  0.00     0.074 A 
ATOM     55  C   UNL A   1      42.169  32.171  29.991  1.00  0.00     0.031 C 
ATOM     56  C   UNL A   1      44.298  31.768  28.788  1.00  0.00     0.034 A 
BRANCH  43  57
ATOM     57  C   UNL A   1      47.269  27.619  25.246  1.00  0.00     0.023 A 
ATOM     58  C   UNL A   1      47.388  27.882  23.870  1.00  0.00     0.031 A 
ATOM     59  C   UNL A   1      48.303  26.898  25.871  1.00  0.00     0.131 A 
ATOM     60  C   UNL A   1      48.479  27.363  23.153  1.00  0.00     0.055 A 
ATOM     61  C   UNL A   1      49.423  26.453  25.167  1.00  0.00     0.041 A 
ATOM     62  F   UNL A   1      48.228  26.588  27.174  1.00  0.00    -0.206 F 
ATOM     63  C   UNL A   1      49.509  26.671  23.797  1.00  0.00     0.022 A 
BRANCH  60  64
ATOM     64  S   UNL A   1      48.462  27.473  21.342  1.00  0.00     0.124 S 
ATOM     65  O   UNL A   1      49.572  28.389  21.093  1.00  0.00    -0.237 OA
ATOM     66  O   UNL A   1      48.674  26.088  20.940  1.00  0.00    -0.237 OA
ATOM     67  O   UNL A   1      47.137  28.014  21.043  1.00  0.00    -0.744 OA
ENDBRANCH  60  64
ENDBRANCH  43  57
BRANCH  44  68
ATOM     68  C   UNL A   1      38.870  29.554  30.379  1.00  0.00     0.023 A 
ATOM     69  C   UNL A   1      37.882  30.470  29.977  1.00  0.00     0.031 A 
ATOM     70  C   UNL A   1      38.720  28.948  31.643  1.00  0.00     0.131 A 
ATOM     71  C   UNL A   1      36.809  30.770  30.838  1.00  0.00     0.055 A 
ATOM     72  C   UNL A   1      37.628  29.212  32.471  1.00  0.00     0.041 A 
ATOM     73  F   UNL A   1      39.642  28.081  32.093  1.00  0.00    -0.206 F 
ATOM     74  C   UNL A   1      36.669  30.136  32.075  1.00  0.00     0.022 A 
BRANCH  71  75
ATOM     75  S   UNL A   1      35.628  32.062  30.353  1.00  0.00     0.124 S 
ATOM     76  O   UNL A   1      34.741  32.106  31.510  1.00  0.00    -0.237 OA
ATOM     77  O   UNL A   1      36.502  33.215  30.169  1.00  0.00    -0.237 OA
ATOM     78  O   UNL A   1      35.030  31.535  29.127  1.00  0.00    -0.744 OA
ENDBRANCH  71  75
ENDBRANCH  44  68
BRANCH  56  79
ATOM     79  C   UNL A   1      44.736  33.149  29.203  1.00  0.00     0.023 A 
ATOM     80  C   UNL A   1      44.416  34.288  28.443  1.00  0.00     0.031 A 
ATOM     81  C   UNL A   1      45.490  33.324  30.377  1.00  0.00     0.131 A 
ATOM     82  C   UNL A   1      44.894  35.546  28.840  1.00  0.00     0.055 A 
ATOM     83  C   UNL A   1      45.916  34.586  30.796  1.00  0.00     0.041 A 
ATOM     84  F   UNL A   1      45.823  32.270  31.139  1.00  0.00    -0.206 F 
ATOM     85  C   UNL A   1      45.628  35.704  30.019  1.00  0.00     0.022 A 
BRANCH  82  86
ATOM     86  S   UNL A   1      44.615  36.968  27.748  1.00  0.00     0.124 S 
ATOM     87  O   UNL A   1      43.292  36.678  27.205  1.00  0.00    -0.237 OA
ATOM     88  O   UNL A   1      44.690  38.093  28.674  1.00  0.00    -0.237 OA
ATOM     89  O   UNL A   1      45.713  36.883  26.787  1.00  0.00    -0.744 OA
ENDBRANCH  82  86
ENDBRANCH  56  79
ENDBRANCH  30  31
ENDBRANCH  23  25
ENDBRANCH  22  23
ENDBRANCH  21  22
ENDBRANCH   1  21
TORSDOF 18
ENDMDL
