MODEL 1
REMARK VINA RESULT:     -12.1      0.000      0.000
REMARK SMILES Cc1ncccc1NC(=O)Nc1ccc(C(=O)OCCOC(=O)c2ccc(-c3c4nc(c(-c5cc(S(=O)(=O)[O-])ccc5F)c5ccc([nH]5)c(-c5cc(S(=O)(=O)[O-])ccc5F)c5nc(c(-c6cc(S(=O)(=O)[O-])ccc6F)c6ccc3[nH]6)C=C5)C=C4)cc2)c(O)c1
REMARK SMILES IDX 20 1 19 2 18 3 16 4 17 5 15 6 12 7 13 8 89 9 14 10 87 11
REMARK SMILES IDX 11 12 8 13 9 14 10 16 7 18 1 19 2 20 3 21 4 22 6 23 5 24
REMARK SMILES IDX 88 25 21 27 22 28 23 29 24 30 25 31 86 32 26 33 85 34 27 35
REMARK SMILES IDX 28 36 29 37 79 38 30 39 84 40 78 41 80 42 31 43 83 44 77 45
REMARK SMILES IDX 76 46 32 48 64 49 44 50 63 51 45 52 48 53 62 54 81 55 46 56
REMARK SMILES IDX 47 57 61 59 82 60 49 61 33 62 34 63 42 64 35 65 41 66 43 67
REMARK SMILES IDX 40 68 36 69 37 70 38 71 39 72 65 73 66 74 74 75 67 76 73 77
REMARK SMILES IDX 75 78 72 79 68 80 69 81 70 82 71 83 50 84 51 85 59 86 52 87
REMARK SMILES IDX 58 88 60 89 57 90 53 91 54 92 55 93 56 94
REMARK H PARENT 8 15 11 17 88 26 80 47 48 58
REMARK Flexibility Score: inf
ROOT
ATOM      1  C   UNL A   1      31.821  29.879  25.426  1.00  0.00     0.275 C 
ENDROOT
BRANCH   1   2
ATOM      2  C   UNL A   1      31.921  28.522  24.729  1.00  0.00     0.275 C 
BRANCH   2   3
ATOM      3  O   UNL A   1      30.963  27.589  25.277  1.00  0.00    -0.458 OA
BRANCH   3   4
ATOM      4  C   UNL A   1      31.349  26.952  26.419  1.00  0.00     0.342 C 
ATOM      5  O   UNL A   1      31.402  27.442  27.532  1.00  0.00    -0.246 OA
BRANCH   4   6
ATOM      6  C   UNL A   1      31.598  25.516  26.139  1.00  0.00     0.101 A 
ATOM      7  C   UNL A   1      32.052  22.759  25.957  1.00  0.00     0.046 A 
ATOM      8  C   UNL A   1      32.962  23.567  26.635  1.00  0.00     0.027 A 
ATOM      9  C   UNL A   1      30.988  23.340  25.261  1.00  0.00     0.073 A 
ATOM     10  C   UNL A   1      32.761  24.949  26.682  1.00  0.00     0.022 A 
ATOM     11  C   UNL A   1      30.724  24.701  25.411  1.00  0.00     0.132 A 
BRANCH   7  12
ATOM     12  N   UNL A   1      32.123  21.359  25.982  1.00  0.00    -0.308 N 
ATOM     13  N   UNL A   1      33.781  20.780  24.368  1.00  0.00    -0.306 N 
ATOM     14  C   UNL A   1      32.665  20.495  25.089  1.00  0.00     0.323 C 
ATOM     15  H   UNL A   1      33.843  20.271  23.528  1.00  0.00     0.171 HD
ATOM     16  O   UNL A   1      32.147  19.382  24.965  1.00  0.00    -0.248 OA
ATOM     17  H   UNL A   1      31.716  20.937  26.774  1.00  0.00     0.171 HD
BRANCH  13  18
ATOM     18  C   UNL A   1      34.877  21.659  24.575  1.00  0.00     0.064 A 
ATOM     19  C   UNL A   1      34.056  23.270  22.755  1.00  0.00     0.069 C 
ATOM     20  C   UNL A   1      34.982  22.872  23.870  1.00  0.00     0.061 A 
ATOM     21  N   UNL A   1      35.947  23.798  24.136  1.00  0.00    -0.259 NA
ATOM     22  C   UNL A   1      36.889  23.496  25.046  1.00  0.00     0.111 A 
ATOM     23  C   UNL A   1      35.939  21.355  25.431  1.00  0.00     0.030 A 
ATOM     24  C   UNL A   1      36.938  22.286  25.701  1.00  0.00     0.022 A 
ENDBRANCH  13  18
ENDBRANCH   7  12
BRANCH  11  25
ATOM     25  O   UNL A   1      29.558  25.148  24.848  1.00  0.00    -0.507 OA
ATOM     26  H   UNL A   1      29.227  25.997  25.067  1.00  0.00     0.293 HD
ENDBRANCH  11  25
ENDBRANCH   4   6
ENDBRANCH   3   4
ENDBRANCH   2   3
ENDBRANCH   1   2
BRANCH   1  27
ATOM     27  O   UNL A   1      33.137  30.369  25.727  1.00  0.00    -0.458 OA
BRANCH  27  28
ATOM     28  C   UNL A   1      33.241  31.151  26.828  1.00  0.00     0.338 C 
ATOM     29  O   UNL A   1      32.416  31.939  27.257  1.00  0.00    -0.246 OA
BRANCH  28  30
ATOM     30  C   UNL A   1      34.536  30.893  27.481  1.00  0.00     0.060 A 
ATOM     31  C   UNL A   1      34.887  29.580  27.788  1.00  0.00     0.016 A 
ATOM     32  C   UNL A   1      35.346  31.951  27.889  1.00  0.00     0.016 A 
ATOM     33  C   UNL A   1      36.036  29.314  28.531  1.00  0.00     0.010 A 
ATOM     34  C   UNL A   1      36.529  31.680  28.588  1.00  0.00     0.010 A 
ATOM     35  C   UNL A   1      36.878  30.360  28.933  1.00  0.00    -0.014 A 
BRANCH  35  36
ATOM     36  C   UNL A   1      38.096  30.079  29.744  1.00  0.00     0.031 A 
ATOM     37  C   UNL A   1      39.158  29.152  29.219  1.00  0.00     0.074 A 
ATOM     38  C   UNL A   1      38.256  30.656  30.952  1.00  0.00     0.049 A 
ATOM     39  N   UNL A   1      40.210  28.665  29.829  1.00  0.00    -0.248 NA
ATOM     40  C   UNL A   1      39.013  28.708  27.826  1.00  0.00     0.031 C 
ATOM     41  C   UNL A   1      37.328  31.610  31.562  1.00  0.00     0.029 A 
ATOM     42  N   UNL A   1      39.254  30.523  31.886  1.00  0.00    -0.354 N 
ATOM     43  C   UNL A   1      40.831  27.826  28.909  1.00  0.00     0.074 A 
ATOM     44  C   UNL A   1      40.027  27.862  27.704  1.00  0.00     0.031 C 
ATOM     45  C   UNL A   1      37.808  31.986  32.758  1.00  0.00     0.029 A 
ATOM     46  C   UNL A   1      39.035  31.247  33.035  1.00  0.00     0.049 A 
ATOM     47  H   UNL A   1      40.051  29.962  31.746  1.00  0.00     0.167 HD
ATOM     48  C   UNL A   1      41.966  27.097  29.056  1.00  0.00     0.034 A 
ATOM     49  C   UNL A   1      39.715  31.282  34.199  1.00  0.00     0.034 A 
ATOM     50  C   UNL A   1      42.777  27.092  30.252  1.00  0.00     0.049 A 
ATOM     51  C   UNL A   1      40.940  30.419  34.362  1.00  0.00     0.074 A 
ATOM     52  C   UNL A   1      43.958  26.408  30.491  1.00  0.00     0.029 A 
ATOM     53  N   UNL A   1      42.496  27.803  31.412  1.00  0.00    -0.354 N 
ATOM     54  N   UNL A   1      41.489  29.595  33.500  1.00  0.00    -0.248 NA
ATOM     55  C   UNL A   1      41.629  30.484  35.657  1.00  0.00     0.031 C 
ATOM     56  C   UNL A   1      44.356  26.656  31.810  1.00  0.00     0.029 A 
ATOM     57  C   UNL A   1      43.464  27.553  32.375  1.00  0.00     0.049 A 
ATOM     58  H   UNL A   1      41.721  28.400  31.533  1.00  0.00     0.167 HD
ATOM     59  C   UNL A   1      42.599  29.056  34.146  1.00  0.00     0.074 A 
ATOM     60  C   UNL A   1      42.650  29.662  35.461  1.00  0.00     0.031 C 
ATOM     61  C   UNL A   1      43.495  28.143  33.692  1.00  0.00     0.034 A 
BRANCH  48  62
ATOM     62  C   UNL A   1      42.368  26.197  27.911  1.00  0.00     0.023 A 
ATOM     63  C   UNL A   1      41.824  24.913  27.743  1.00  0.00     0.031 A 
ATOM     64  C   UNL A   1      43.325  26.635  26.978  1.00  0.00     0.131 A 
ATOM     65  C   UNL A   1      42.286  24.088  26.705  1.00  0.00     0.055 A 
ATOM     66  C   UNL A   1      43.729  25.836  25.906  1.00  0.00     0.041 A 
ATOM     67  F   UNL A   1      43.892  27.846  27.097  1.00  0.00    -0.206 F 
ATOM     68  C   UNL A   1      43.218  24.549  25.773  1.00  0.00     0.022 A 
BRANCH  65  69
ATOM     69  S   UNL A   1      41.742  22.357  26.660  1.00  0.00     0.124 S 
ATOM     70  O   UNL A   1      42.278  21.910  25.377  1.00  0.00    -0.237 OA
ATOM     71  O   UNL A   1      42.378  21.797  27.848  1.00  0.00    -0.237 OA
ATOM     72  O   UNL A   1      40.285  22.454  26.720  1.00  0.00    -0.744 OA
ENDBRANCH  65  69
ENDBRANCH  48  62
BRANCH  49  73
ATOM     73  C   UNL A   1      39.220  32.114  35.333  1.00  0.00     0.023 A 
ATOM     74  C   UNL A   1      39.700  33.416  35.546  1.00  0.00     0.031 A 
ATOM     75  C   UNL A   1      38.282  31.597  36.246  1.00  0.00     0.131 A 
ATOM     76  C   UNL A   1      39.264  34.146  36.662  1.00  0.00     0.055 A 
ATOM     77  C   UNL A   1      37.812  32.347  37.324  1.00  0.00     0.041 A 
ATOM     78  F   UNL A   1      37.794  30.357  36.090  1.00  0.00    -0.206 F 
ATOM     79  C   UNL A   1      38.312  33.626  37.544  1.00  0.00     0.022 A 
BRANCH  76  80
ATOM     80  S   UNL A   1      40.013  35.765  36.990  1.00  0.00     0.124 S 
ATOM     81  O   UNL A   1      39.348  36.155  38.227  1.00  0.00    -0.237 OA
ATOM     82  O   UNL A   1      41.429  35.426  37.102  1.00  0.00    -0.237 OA
ATOM     83  O   UNL A   1      39.655  36.552  35.812  1.00  0.00    -0.744 OA
ENDBRANCH  76  80
ENDBRANCH  49  73
BRANCH  61  84
ATOM     84  C   UNL A   1      44.628  27.781  34.620  1.00  0.00     0.023 A 
ATOM     85  C   UNL A   1      44.537  26.696  35.510  1.00  0.00     0.031 A 
ATOM     86  C   UNL A   1      45.804  28.551  34.634  1.00  0.00     0.131 A 
ATOM     87  C   UNL A   1      45.581  26.444  36.414  1.00  0.00     0.055 A 
ATOM     88  C   UNL A   1      46.862  28.263  35.498  1.00  0.00     0.041 A 
ATOM     89  F   UNL A   1      45.943  29.601  33.809  1.00  0.00    -0.206 F 
ATOM     90  C   UNL A   1      46.748  27.212  36.404  1.00  0.00     0.022 A 
BRANCH  87  91
ATOM     91  S   UNL A   1      45.358  25.151  37.668  1.00  0.00     0.124 S 
ATOM     92  O   UNL A   1      44.621  24.133  36.928  1.00  0.00    -0.237 OA
ATOM     93  O   UNL A   1      46.735  24.814  38.016  1.00  0.00    -0.237 OA
ATOM     94  O   UNL A   1      44.600  25.821  38.723  1.00  0.00    -0.744 OA
ENDBRANCH  87  91
ENDBRANCH  61  84
ENDBRANCH  35  36
ENDBRANCH  28  30
ENDBRANCH  27  28
ENDBRANCH   1  27
TORSDOF 17
ENDMDL
MODEL 2
REMARK VINA RESULT:     -12.0      5.159     10.015
REMARK SMILES Cc1ncccc1NC(=O)Nc1ccc(C(=O)OCCOC(=O)c2ccc(-c3c4nc(c(-c5cc(S(=O)(=O)[O-])ccc5F)c5ccc([nH]5)c(-c5cc(S(=O)(=O)[O-])ccc5F)c5nc(c(-c6cc(S(=O)(=O)[O-])ccc6F)c6ccc3[nH]6)C=C5)C=C4)cc2)c(O)c1
REMARK SMILES IDX 20 1 19 2 18 3 16 4 17 5 15 6 12 7 13 8 89 9 14 10 87 11
REMARK SMILES IDX 11 12 8 13 9 14 10 16 7 18 1 19 2 20 3 21 4 22 6 23 5 24
REMARK SMILES IDX 88 25 21 27 22 28 23 29 24 30 25 31 86 32 26 33 85 34 27 35
REMARK SMILES IDX 28 36 29 37 79 38 30 39 84 40 78 41 80 42 31 43 83 44 77 45
REMARK SMILES IDX 76 46 32 48 64 49 44 50 63 51 45 52 48 53 62 54 81 55 46 56
REMARK SMILES IDX 47 57 61 59 82 60 49 61 33 62 34 63 42 64 35 65 41 66 43 67
REMARK SMILES IDX 40 68 36 69 37 70 38 71 39 72 65 73 66 74 74 75 67 76 73 77
REMARK SMILES IDX 75 78 72 79 68 80 69 81 70 82 71 83 50 84 51 85 59 86 52 87
REMARK SMILES IDX 58 88 60 89 57 90 53 91 54 92 55 93 56 94
REMARK H PARENT 8 15 11 17 88 26 80 47 48 58
REMARK Flexibility Score: inf
ROOT
ATOM      1  C   UNL A   1      37.405  20.179  24.703  1.00  0.00     0.275 C 
ENDROOT
BRANCH   1   2
ATOM      2  C   UNL A   1      35.909  20.090  25.010  1.00  0.00     0.275 C 
BRANCH   2   3
ATOM      3  O   UNL A   1      35.526  21.075  25.995  1.00  0.00    -0.458 OA
BRANCH   3   4
ATOM      4  C   UNL A   1      34.231  21.498  25.930  1.00  0.00     0.342 C 
ATOM      5  O   UNL A   1      33.382  21.349  26.790  1.00  0.00    -0.246 OA
BRANCH   4   6
ATOM      6  C   UNL A   1      34.015  22.281  24.688  1.00  0.00     0.101 A 
ATOM      7  C   UNL A   1      33.309  23.866  22.490  1.00  0.00     0.046 A 
ATOM      8  C   UNL A   1      32.494  22.800  22.865  1.00  0.00     0.027 A 
ATOM      9  C   UNL A   1      34.538  24.061  23.127  1.00  0.00     0.073 A 
ATOM     10  C   UNL A   1      32.873  21.980  23.930  1.00  0.00     0.022 A 
ATOM     11  C   UNL A   1      34.855  23.317  24.264  1.00  0.00     0.132 A 
BRANCH   7  12
ATOM     12  N   UNL A   1      32.926  24.803  21.520  1.00  0.00    -0.308 N 
ATOM     13  N   UNL A   1      31.627  26.427  22.688  1.00  0.00    -0.306 N 
ATOM     14  C   UNL A   1      31.958  25.751  21.556  1.00  0.00     0.323 C 
ATOM     15  H   UNL A   1      30.708  26.781  22.676  1.00  0.00     0.171 HD
ATOM     16  O   UNL A   1      31.391  26.047  20.501  1.00  0.00    -0.248 OA
ATOM     17  H   UNL A   1      33.440  24.766  20.681  1.00  0.00     0.171 HD
BRANCH  13  18
ATOM     18  C   UNL A   1      32.330  26.729  23.884  1.00  0.00     0.064 A 
ATOM     19  C   UNL A   1      33.842  28.419  22.685  1.00  0.00     0.069 C 
ATOM     20  C   UNL A   1      33.331  27.717  23.911  1.00  0.00     0.061 A 
ATOM     21  N   UNL A   1      33.935  28.122  25.066  1.00  0.00    -0.259 NA
ATOM     22  C   UNL A   1      33.624  27.485  26.207  1.00  0.00     0.111 A 
ATOM     23  C   UNL A   1      32.125  26.031  25.078  1.00  0.00     0.030 A 
ATOM     24  C   UNL A   1      32.746  26.426  26.260  1.00  0.00     0.022 A 
ENDBRANCH  13  18
ENDBRANCH   7  12
BRANCH  11  25
ATOM     25  O   UNL A   1      35.987  23.700  24.932  1.00  0.00    -0.507 OA
ATOM     26  H   UNL A   1      35.985  24.483  25.447  1.00  0.00     0.293 HD
ENDBRANCH  11  25
ENDBRANCH   4   6
ENDBRANCH   3   4
ENDBRANCH   2   3
ENDBRANCH   1   2
BRANCH   1  27
ATOM     27  O   UNL A   1      37.986  21.271  25.434  1.00  0.00    -0.458 OA
BRANCH  27  28
ATOM     28  C   UNL A   1      39.137  20.996  26.093  1.00  0.00     0.338 C 
ATOM     29  O   UNL A   1      39.664  19.906  26.240  1.00  0.00    -0.246 OA
BRANCH  28  30
ATOM     30  C   UNL A   1      39.705  22.250  26.615  1.00  0.00     0.060 A 
ATOM     31  C   UNL A   1      39.222  23.463  26.127  1.00  0.00     0.016 A 
ATOM     32  C   UNL A   1      40.784  22.226  27.497  1.00  0.00     0.016 A 
ATOM     33  C   UNL A   1      39.833  24.661  26.493  1.00  0.00     0.010 A 
ATOM     34  C   UNL A   1      41.362  23.434  27.907  1.00  0.00     0.010 A 
ATOM     35  C   UNL A   1      40.905  24.664  27.395  1.00  0.00    -0.014 A 
BRANCH  35  36
ATOM     36  C   UNL A   1      41.573  25.942  27.772  1.00  0.00     0.031 A 
ATOM     37  C   UNL A   1      40.828  26.979  28.569  1.00  0.00     0.074 A 
ATOM     38  C   UNL A   1      42.849  26.177  27.403  1.00  0.00     0.049 A 
ATOM     39  N   UNL A   1      41.176  28.206  28.864  1.00  0.00    -0.248 NA
ATOM     40  C   UNL A   1      39.515  26.584  29.096  1.00  0.00     0.031 C 
ATOM     41  C   UNL A   1      43.702  25.241  26.670  1.00  0.00     0.029 A 
ATOM     42  N   UNL A   1      43.650  27.277  27.593  1.00  0.00    -0.354 N 
ATOM     43  C   UNL A   1      40.110  28.745  29.577  1.00  0.00     0.074 A 
ATOM     44  C   UNL A   1      39.098  27.711  29.655  1.00  0.00     0.031 C 
ATOM     45  C   UNL A   1      44.909  25.800  26.486  1.00  0.00     0.029 A 
ATOM     46  C   UNL A   1      44.895  27.158  27.019  1.00  0.00     0.049 A 
ATOM     47  H   UNL A   1      43.360  28.074  28.092  1.00  0.00     0.167 HD
ATOM     48  C   UNL A   1      39.989  29.984  30.116  1.00  0.00     0.034 A 
ATOM     49  C   UNL A   1      45.897  28.052  26.892  1.00  0.00     0.034 A 
ATOM     50  C   UNL A   1      41.017  30.998  30.058  1.00  0.00     0.049 A 
ATOM     51  C   UNL A   1      45.717  29.441  27.447  1.00  0.00     0.074 A 
ATOM     52  C   UNL A   1      41.001  32.275  30.595  1.00  0.00     0.029 A 
ATOM     53  N   UNL A   1      42.246  30.854  29.426  1.00  0.00    -0.354 N 
ATOM     54  N   UNL A   1      44.685  29.952  28.077  1.00  0.00    -0.248 NA
ATOM     55  C   UNL A   1      46.834  30.377  27.263  1.00  0.00     0.031 C 
ATOM     56  C   UNL A   1      42.190  32.921  30.238  1.00  0.00     0.029 A 
ATOM     57  C   UNL A   1      42.983  32.026  29.537  1.00  0.00     0.049 A 
ATOM     58  H   UNL A   1      42.551  30.038  28.966  1.00  0.00     0.167 HD
ATOM     59  C   UNL A   1      45.037  31.264  28.379  1.00  0.00     0.074 A 
ATOM     60  C   UNL A   1      46.382  31.460  27.879  1.00  0.00     0.031 C 
ATOM     61  C   UNL A   1      44.314  32.221  29.015  1.00  0.00     0.034 A 
BRANCH  48  62
ATOM     62  C   UNL A   1      38.672  30.333  30.769  1.00  0.00     0.023 A 
ATOM     63  C   UNL A   1      37.644  30.992  30.075  1.00  0.00     0.031 A 
ATOM     64  C   UNL A   1      38.450  30.006  32.119  1.00  0.00     0.131 A 
ATOM     65  C   UNL A   1      36.469  31.360  30.748  1.00  0.00     0.055 A 
ATOM     66  C   UNL A   1      37.250  30.311  32.765  1.00  0.00     0.041 A 
ATOM     67  F   UNL A   1      39.402  29.390  32.839  1.00  0.00    -0.206 F 
ATOM     68  C   UNL A   1      36.256  31.005  32.082  1.00  0.00     0.022 A 
BRANCH  65  69
ATOM     69  S   UNL A   1      35.268  32.418  29.892  1.00  0.00     0.124 S 
ATOM     70  O   UNL A   1      34.310  32.703  30.957  1.00  0.00    -0.237 OA
ATOM     71  O   UNL A   1      36.093  33.541  29.458  1.00  0.00    -0.237 OA
ATOM     72  O   UNL A   1      34.762  31.564  28.819  1.00  0.00    -0.744 OA
ENDBRANCH  65  69
ENDBRANCH  48  62
BRANCH  49  73
ATOM     73  C   UNL A   1      47.138  27.687  26.152  1.00  0.00     0.023 A 
ATOM     74  C   UNL A   1      47.249  27.892  24.768  1.00  0.00     0.031 A 
ATOM     75  C   UNL A   1      48.223  27.090  26.822  1.00  0.00     0.131 A 
ATOM     76  C   UNL A   1      48.405  27.474  24.092  1.00  0.00     0.055 A 
ATOM     77  C   UNL A   1      49.392  26.725  26.152  1.00  0.00     0.041 A 
ATOM     78  F   UNL A   1      48.167  26.869  28.144  1.00  0.00    -0.206 F 
ATOM     79  C   UNL A   1      49.483  26.906  24.776  1.00  0.00     0.022 A 
BRANCH  76  80
ATOM     80  S   UNL A   1      48.456  27.618  22.284  1.00  0.00     0.124 S 
ATOM     81  O   UNL A   1      49.595  28.506  22.088  1.00  0.00    -0.237 OA
ATOM     82  O   UNL A   1      48.646  26.230  21.875  1.00  0.00    -0.237 OA
ATOM     83  O   UNL A   1      47.153  28.190  21.951  1.00  0.00    -0.744 OA
ENDBRANCH  76  80
ENDBRANCH  49  73
BRANCH  61  84
ATOM     84  C   UNL A   1      44.989  33.552  29.235  1.00  0.00     0.023 A 
ATOM     85  C   UNL A   1      44.836  34.618  28.329  1.00  0.00     0.031 A 
ATOM     86  C   UNL A   1      45.820  33.748  30.351  1.00  0.00     0.131 A 
ATOM     87  C   UNL A   1      45.547  35.811  28.527  1.00  0.00     0.055 A 
ATOM     88  C   UNL A   1      46.483  34.957  30.572  1.00  0.00     0.041 A 
ATOM     89  F   UNL A   1      46.005  32.764  31.246  1.00  0.00    -0.206 F 
ATOM     90  C   UNL A   1      46.358  35.992  29.651  1.00  0.00     0.022 A 
BRANCH  87  91
ATOM     91  S   UNL A   1      45.470  37.098  27.250  1.00  0.00     0.124 S 
ATOM     92  O   UNL A   1      46.341  36.551  26.214  1.00  0.00    -0.237 OA
ATOM     93  O   UNL A   1      44.046  37.135  26.930  1.00  0.00    -0.237 OA
ATOM     94  O   UNL A   1      45.983  38.287  27.927  1.00  0.00    -0.744 OA
ENDBRANCH  87  91
ENDBRANCH  61  84
ENDBRANCH  35  36
ENDBRANCH  28  30
ENDBRANCH  27  28
ENDBRANCH   1  27
TORSDOF 17
ENDMDL
MODEL 3
REMARK VINA RESULT:     -12.0      4.655      9.726
REMARK SMILES Cc1ncccc1NC(=O)Nc1ccc(C(=O)OCCOC(=O)c2ccc(-c3c4nc(c(-c5cc(S(=O)(=O)[O-])ccc5F)c5ccc([nH]5)c(-c5cc(S(=O)(=O)[O-])ccc5F)c5nc(c(-c6cc(S(=O)(=O)[O-])ccc6F)c6ccc3[nH]6)C=C5)C=C4)cc2)c(O)c1
REMARK SMILES IDX 20 1 19 2 18 3 16 4 17 5 15 6 12 7 13 8 89 9 14 10 87 11
REMARK SMILES IDX 11 12 8 13 9 14 10 16 7 18 1 19 2 20 3 21 4 22 6 23 5 24
REMARK SMILES IDX 88 25 21 27 22 28 23 29 24 30 25 31 86 32 26 33 85 34 27 35
REMARK SMILES IDX 28 36 29 37 79 38 30 39 84 40 78 41 80 42 31 43 83 44 77 45
REMARK SMILES IDX 76 46 32 48 64 49 44 50 63 51 45 52 48 53 62 54 81 55 46 56
REMARK SMILES IDX 47 57 61 59 82 60 49 61 33 62 34 63 42 64 35 65 41 66 43 67
REMARK SMILES IDX 40 68 36 69 37 70 38 71 39 72 65 73 66 74 74 75 67 76 73 77
REMARK SMILES IDX 75 78 72 79 68 80 69 81 70 82 71 83 50 84 51 85 59 86 52 87
REMARK SMILES IDX 58 88 60 89 57 90 53 91 54 92 55 93 56 94
REMARK H PARENT 8 15 11 17 88 26 80 47 48 58
REMARK Flexibility Score: inf
ROOT
ATOM      1  C   UNL A   1      36.432  21.294  24.452  1.00  0.00     0.275 C 
ENDROOT
BRANCH   1   2
ATOM      2  C   UNL A   1      35.024  21.892  24.458  1.00  0.00     0.275 C 
BRANCH   2   3
ATOM      3  O   UNL A   1      34.070  20.958  25.008  1.00  0.00    -0.458 OA
BRANCH   3   4
ATOM      4  C   UNL A   1      32.812  21.026  24.487  1.00  0.00     0.342 C 
ATOM      5  O   UNL A   1      32.293  20.206  23.752  1.00  0.00    -0.246 OA
BRANCH   4   6
ATOM      6  C   UNL A   1      32.100  22.207  25.035  1.00  0.00     0.101 A 
ATOM      7  C   UNL A   1      31.071  24.555  26.162  1.00  0.00     0.046 A 
ATOM      8  C   UNL A   1      31.758  23.645  26.964  1.00  0.00     0.027 A 
ATOM      9  C   UNL A   1      30.787  24.234  24.832  1.00  0.00     0.073 A 
ATOM     10  C   UNL A   1      32.226  22.451  26.412  1.00  0.00     0.022 A 
ATOM     11  C   UNL A   1      31.359  23.101  24.255  1.00  0.00     0.132 A 
BRANCH   7  12
ATOM     12  N   UNL A   1      30.691  25.825  26.620  1.00  0.00    -0.308 N 
ATOM     13  N   UNL A   1      32.465  27.285  25.980  1.00  0.00    -0.306 N 
ATOM     14  C   UNL A   1      31.429  26.948  26.793  1.00  0.00     0.323 C 
ATOM     15  H   UNL A   1      33.124  27.875  26.413  1.00  0.00     0.171 HD
ATOM     16  O   UNL A   1      31.111  27.722  27.700  1.00  0.00    -0.248 OA
ATOM     17  H   UNL A   1      29.738  25.914  26.851  1.00  0.00     0.171 HD
BRANCH  13  18
ATOM     18  C   UNL A   1      32.793  26.964  24.637  1.00  0.00     0.064 A 
ATOM     19  C   UNL A   1      34.623  25.324  25.373  1.00  0.00     0.069 C 
ATOM     20  C   UNL A   1      33.762  25.989  24.336  1.00  0.00     0.061 A 
ATOM     21  N   UNL A   1      34.009  25.563  23.064  1.00  0.00    -0.259 NA
ATOM     22  C   UNL A   1      33.365  26.168  22.051  1.00  0.00     0.111 A 
ATOM     23  C   UNL A   1      32.234  27.629  23.542  1.00  0.00     0.030 A 
ATOM     24  C   UNL A   1      32.489  27.213  22.238  1.00  0.00     0.022 A 
ENDBRANCH  13  18
ENDBRANCH   7  12
BRANCH  11  25
ATOM     25  O   UNL A   1      31.181  22.965  22.904  1.00  0.00    -0.507 OA
ATOM     26  H   UNL A   1      30.406  22.557  22.571  1.00  0.00     0.293 HD
ENDBRANCH  11  25
ENDBRANCH   4   6
ENDBRANCH   3   4
ENDBRANCH   2   3
ENDBRANCH   1   2
BRANCH   1  27
ATOM     27  O   UNL A   1      37.019  21.421  25.756  1.00  0.00    -0.458 OA
BRANCH  27  28
ATOM     28  C   UNL A   1      38.346  21.160  25.837  1.00  0.00     0.338 C 
ATOM     29  O   UNL A   1      38.924  20.147  25.482  1.00  0.00    -0.246 OA
BRANCH  28  30
ATOM     30  C   UNL A   1      39.032  22.328  26.416  1.00  0.00     0.060 A 
ATOM     31  C   UNL A   1      38.567  23.604  26.109  1.00  0.00     0.016 A 
ATOM     32  C   UNL A   1      40.195  22.164  27.167  1.00  0.00     0.016 A 
ATOM     33  C   UNL A   1      39.276  24.730  26.523  1.00  0.00     0.010 A 
ATOM     34  C   UNL A   1      40.877  23.296  27.630  1.00  0.00     0.010 A 
ATOM     35  C   UNL A   1      40.436  24.592  27.298  1.00  0.00    -0.014 A 
BRANCH  35  36
ATOM     36  C   UNL A   1      41.206  25.793  27.726  1.00  0.00     0.031 A 
ATOM     37  C   UNL A   1      40.542  26.867  28.545  1.00  0.00     0.074 A 
ATOM     38  C   UNL A   1      42.504  25.926  27.384  1.00  0.00     0.049 A 
ATOM     39  N   UNL A   1      40.992  28.049  28.885  1.00  0.00    -0.248 NA
ATOM     40  C   UNL A   1      39.191  26.574  29.039  1.00  0.00     0.031 C 
ATOM     41  C   UNL A   1      43.285  24.941  26.632  1.00  0.00     0.029 A 
ATOM     42  N   UNL A   1      43.396  26.944  27.620  1.00  0.00    -0.354 N 
ATOM     43  C   UNL A   1      39.966  28.658  29.599  1.00  0.00     0.074 A 
ATOM     44  C   UNL A   1      38.865  27.716  29.629  1.00  0.00     0.031 C 
ATOM     45  C   UNL A   1      44.539  25.396  26.484  1.00  0.00     0.029 A 
ATOM     46  C   UNL A   1      44.635  26.733  27.061  1.00  0.00     0.049 A 
ATOM     47  H   UNL A   1      43.170  27.748  28.141  1.00  0.00     0.167 HD
ATOM     48  C   UNL A   1      39.945  29.886  30.176  1.00  0.00     0.034 A 
ATOM     49  C   UNL A   1      45.714  27.537  26.978  1.00  0.00     0.034 A 
ATOM     50  C   UNL A   1      41.060  30.805  30.166  1.00  0.00     0.049 A 
ATOM     51  C   UNL A   1      45.648  28.920  27.575  1.00  0.00     0.074 A 
ATOM     52  C   UNL A   1      41.147  32.061  30.744  1.00  0.00     0.029 A 
ATOM     53  N   UNL A   1      42.282  30.573  29.548  1.00  0.00    -0.354 N 
ATOM     54  N   UNL A   1      44.655  29.500  28.206  1.00  0.00    -0.248 NA
ATOM     55  C   UNL A   1      46.847  29.758  27.438  1.00  0.00     0.031 C 
ATOM     56  C   UNL A   1      42.394  32.611  30.425  1.00  0.00     0.029 A 
ATOM     57  C   UNL A   1      43.117  31.671  29.708  1.00  0.00     0.049 A 
ATOM     58  H   UNL A   1      42.522  29.748  29.066  1.00  0.00     0.167 HD
ATOM     59  C   UNL A   1      45.116  30.766  28.556  1.00  0.00     0.074 A 
ATOM     60  C   UNL A   1      46.482  30.857  28.081  1.00  0.00     0.031 C 
ATOM     61  C   UNL A   1      44.469  31.763  29.211  1.00  0.00     0.034 A 
BRANCH  48  62
ATOM     62  C   UNL A   1      38.653  30.329  30.821  1.00  0.00     0.023 A 
ATOM     63  C   UNL A   1      37.638  30.974  30.095  1.00  0.00     0.031 A 
ATOM     64  C   UNL A   1      38.443  30.110  32.195  1.00  0.00     0.131 A 
ATOM     65  C   UNL A   1      36.488  31.433  30.757  1.00  0.00     0.055 A 
ATOM     66  C   UNL A   1      37.266  30.506  32.833  1.00  0.00     0.041 A 
ATOM     67  F   UNL A   1      39.384  29.514  32.944  1.00  0.00    -0.206 F 
ATOM     68  C   UNL A   1      36.285  31.184  32.116  1.00  0.00     0.022 A 
BRANCH  65  69
ATOM     69  S   UNL A   1      35.311  32.469  29.842  1.00  0.00     0.124 S 
ATOM     70  O   UNL A   1      36.168  33.561  29.388  1.00  0.00    -0.237 OA
ATOM     71  O   UNL A   1      34.832  31.560  28.807  1.00  0.00    -0.237 OA
ATOM     72  O   UNL A   1      34.323  32.840  30.853  1.00  0.00    -0.744 OA
ENDBRANCH  65  69
ENDBRANCH  48  62
BRANCH  49  73
ATOM     73  C   UNL A   1      46.932  27.087  26.245  1.00  0.00     0.023 A 
ATOM     74  C   UNL A   1      47.978  26.427  26.907  1.00  0.00     0.031 A 
ATOM     75  C   UNL A   1      47.079  27.348  24.869  1.00  0.00     0.131 A 
ATOM     76  C   UNL A   1      49.140  26.078  26.201  1.00  0.00     0.055 A 
ATOM     77  C   UNL A   1      48.213  26.951  24.161  1.00  0.00     0.041 A 
ATOM     78  F   UNL A   1      46.109  27.979  24.190  1.00  0.00    -0.206 F 
ATOM     79  C   UNL A   1      49.258  26.322  24.830  1.00  0.00     0.022 A 
BRANCH  76  80
ATOM     80  S   UNL A   1      50.533  25.361  27.115  1.00  0.00     0.124 S 
ATOM     81  O   UNL A   1      49.890  24.255  27.816  1.00  0.00    -0.237 OA
ATOM     82  O   UNL A   1      51.446  24.994  26.038  1.00  0.00    -0.237 OA
ATOM     83  O   UNL A   1      50.985  26.461  27.965  1.00  0.00    -0.744 OA
ENDBRANCH  76  80
ENDBRANCH  49  73
BRANCH  61  84
ATOM     84  C   UNL A   1      45.255  33.022  29.484  1.00  0.00     0.023 A 
ATOM     85  C   UNL A   1      45.246  34.108  28.590  1.00  0.00     0.031 A 
ATOM     86  C   UNL A   1      46.047  33.125  30.641  1.00  0.00     0.131 A 
ATOM     87  C   UNL A   1      46.056  35.226  28.840  1.00  0.00     0.055 A 
ATOM     88  C   UNL A   1      46.809  34.262  30.912  1.00  0.00     0.041 A 
ATOM     89  F   UNL A   1      46.096  32.117  31.526  1.00  0.00    -0.206 F 
ATOM     90  C   UNL A   1      46.826  35.316  30.003  1.00  0.00     0.022 A 
BRANCH  87  91
ATOM     91  S   UNL A   1      46.160  36.530  27.582  1.00  0.00     0.124 S 
ATOM     92  O   UNL A   1      46.487  35.768  26.381  1.00  0.00    -0.237 OA
ATOM     93  O   UNL A   1      44.822  37.110  27.623  1.00  0.00    -0.237 OA
ATOM     94  O   UNL A   1      47.227  37.399  28.075  1.00  0.00    -0.744 OA
ENDBRANCH  87  91
ENDBRANCH  61  84
ENDBRANCH  35  36
ENDBRANCH  28  30
ENDBRANCH  27  28
ENDBRANCH   1  27
TORSDOF 17
ENDMDL
