MODEL 1
REMARK VINA RESULT:     -12.8      0.000      0.000
REMARK SMILES COc1cc(OC)c(-c2cc(C(=O)OCCOC(=O)c3ccc(-c4c5nc(c(-c6cc(S(=O)(=O)[O-])ccc6F)c6ccc([nH]6)c(-c6cc(S(=O)(=O)[O-])ccc6F)c6nc(c(-c7cc(S(=O)(=O)[O-])ccc7F)c7ccc4[nH]7)C=C6)C=C5)cc3)c3c(-c4ccc(Cl)cc4)[nH]nc3n2)cc1OC
REMARK SMILES IDX 16 1 15 2 14 3 12 4 13 5 11 6 9 7 10 8 95 9 94 10 83 11
REMARK SMILES IDX 93 12 84 13 92 14 8 16 3 17 4 18 97 19 5 20 96 21 2 22 1 23
REMARK SMILES IDX 98 24 99 25 6 26 7 27 85 28 86 29 91 30 87 31 90 32 88 33
REMARK SMILES IDX 89 34 17 35 18 36 19 37 20 38 21 39 82 40 22 41 81 42 23 43
REMARK SMILES IDX 24 44 25 45 75 46 26 47 80 48 74 49 76 50 27 51 79 52 73 53
REMARK SMILES IDX 72 54 28 56 60 57 40 58 59 59 41 60 44 61 58 62 77 63 42 64
REMARK SMILES IDX 43 65 57 67 78 68 45 69 29 70 30 71 38 72 31 73 37 74 39 75
REMARK SMILES IDX 36 76 32 77 33 78 34 79 35 80 61 81 62 82 70 83 63 84 69 85
REMARK SMILES IDX 71 86 68 87 64 88 65 89 66 90 67 91 46 92 47 93 55 94 48 95
REMARK SMILES IDX 54 96 56 97 53 98 49 99 50 100 51 101 52 102
REMARK H PARENT 92 15 76 55 44 66
REMARK Flexibility Score: inf
ROOT
ATOM      1  C   UNL A   1      34.282  29.369  27.368  1.00  0.00     0.275 C 
ENDROOT
BRANCH   1   2
ATOM      2  C   UNL A   1      33.560  28.668  26.234  1.00  0.00     0.275 C 
BRANCH   2   3
ATOM      3  O   UNL A   1      32.904  27.512  26.769  1.00  0.00    -0.458 OA
BRANCH   3   4
ATOM      4  C   UNL A   1      32.006  26.884  25.970  1.00  0.00     0.339 C 
ATOM      5  O   UNL A   1      30.801  26.858  26.126  1.00  0.00    -0.246 OA
BRANCH   4   6
ATOM      6  C   UNL A   1      32.744  26.213  24.890  1.00  0.00     0.075 A 
ATOM      7  C   UNL A   1      34.450  24.539  24.221  1.00  0.00     0.078 A 
ATOM      8  C   UNL A   1      33.805  25.343  25.194  1.00  0.00     0.045 A 
ATOM      9  N   UNL A   1      34.159  24.532  22.894  1.00  0.00    -0.226 NA
ATOM     10  C   UNL A   1      33.188  25.420  22.549  1.00  0.00     0.182 A 
ATOM     11  C   UNL A   1      32.490  26.236  23.512  1.00  0.00     0.061 A 
ATOM     12  N   UNL A   1      32.747  25.640  21.313  1.00  0.00    -0.154 NA
ATOM     13  C   UNL A   1      31.610  27.010  22.768  1.00  0.00     0.075 A 
ATOM     14  N   UNL A   1      31.849  26.624  21.465  1.00  0.00    -0.275 N 
ATOM     15  H   UNL A   1      31.391  27.042  20.700  1.00  0.00     0.190 HD
BRANCH   7  16
ATOM     16  C   UNL A   1      35.401  23.516  24.704  1.00  0.00     0.046 A 
ATOM     17  C   UNL A   1      37.485  21.820  25.640  1.00  0.00     0.164 A 
ATOM     18  C   UNL A   1      36.296  21.294  25.110  1.00  0.00     0.097 A 
ATOM     19  C   UNL A   1      37.657  23.199  25.702  1.00  0.00     0.161 A 
ATOM     20  C   UNL A   1      35.263  22.123  24.619  1.00  0.00     0.132 A 
ATOM     21  C   UNL A   1      36.604  24.010  25.266  1.00  0.00     0.064 A 
BRANCH  17  22
ATOM     22  O   UNL A   1      38.486  20.936  25.943  1.00  0.00    -0.493 OA
ATOM     23  C   UNL A   1      38.418  19.751  25.149  1.00  0.00     0.278 C 
ENDBRANCH  17  22
BRANCH  19  24
ATOM     24  O   UNL A   1      38.737  23.939  26.086  1.00  0.00    -0.493 OA
ATOM     25  C   UNL A   1      38.825  24.419  27.413  1.00  0.00     0.278 C 
ENDBRANCH  19  24
BRANCH  20  26
ATOM     26  O   UNL A   1      34.213  21.406  24.107  1.00  0.00    -0.496 OA
ATOM     27  C   UNL A   1      33.010  21.346  24.869  1.00  0.00     0.278 C 
ENDBRANCH  20  26
ENDBRANCH   7  16
BRANCH  13  28
ATOM     28  C   UNL A   1      30.698  28.123  23.046  1.00  0.00     0.000 A 
ATOM     29  C   UNL A   1      31.130  29.310  23.650  1.00  0.00     0.012 A 
ATOM     30  C   UNL A   1      29.340  27.995  22.753  1.00  0.00     0.012 A 
ATOM     31  C   UNL A   1      30.220  30.345  23.917  1.00  0.00     0.021 A 
ATOM     32  C   UNL A   1      28.430  29.025  22.998  1.00  0.00     0.021 A 
ATOM     33  C   UNL A   1      28.876  30.202  23.580  1.00  0.00     0.041 A 
ATOM     34  Cl  UNL A   1      27.765  31.479  23.878  1.00  0.00    -0.084 Cl
ENDBRANCH  13  28
ENDBRANCH   4   6
ENDBRANCH   3   4
ENDBRANCH   2   3
ENDBRANCH   1   2
BRANCH   1  35
ATOM     35  O   UNL A   1      35.671  29.065  27.310  1.00  0.00    -0.458 OA
BRANCH  35  36
ATOM     36  C   UNL A   1      36.512  29.802  28.069  1.00  0.00     0.338 C 
ATOM     37  O   UNL A   1      36.268  30.841  28.661  1.00  0.00    -0.246 OA
BRANCH  36  38
ATOM     38  C   UNL A   1      37.808  29.103  28.028  1.00  0.00     0.060 A 
ATOM     39  C   UNL A   1      38.135  28.143  28.990  1.00  0.00     0.016 A 
ATOM     40  C   UNL A   1      38.708  29.451  27.004  1.00  0.00     0.016 A 
ATOM     41  C   UNL A   1      39.418  27.616  28.987  1.00  0.00     0.010 A 
ATOM     42  C   UNL A   1      39.960  28.908  26.982  1.00  0.00     0.010 A 
ATOM     43  C   UNL A   1      40.326  28.063  28.021  1.00  0.00    -0.014 A 
BRANCH  43  44
ATOM     44  C   UNL A   1      41.720  27.679  28.074  1.00  0.00     0.031 A 
ATOM     45  C   UNL A   1      42.033  26.400  27.395  1.00  0.00     0.074 A 
ATOM     46  C   UNL A   1      42.636  28.561  28.526  1.00  0.00     0.049 A 
ATOM     47  N   UNL A   1      42.459  25.310  27.936  1.00  0.00    -0.248 NA
ATOM     48  C   UNL A   1      41.690  26.254  25.969  1.00  0.00     0.031 C 
ATOM     49  C   UNL A   1      42.435  29.959  28.932  1.00  0.00     0.029 A 
ATOM     50  N   UNL A   1      43.981  28.422  28.621  1.00  0.00    -0.354 N 
ATOM     51  C   UNL A   1      42.683  24.422  26.889  1.00  0.00     0.074 A 
ATOM     52  C   UNL A   1      42.004  24.976  25.751  1.00  0.00     0.031 C 
ATOM     53  C   UNL A   1      43.632  30.587  29.008  1.00  0.00     0.029 A 
ATOM     54  C   UNL A   1      44.687  29.608  28.805  1.00  0.00     0.049 A 
ATOM     55  H   UNL A   1      44.427  27.546  28.563  1.00  0.00     0.167 HD
ATOM     56  C   UNL A   1      43.618  23.438  27.002  1.00  0.00     0.034 A 
ATOM     57  C   UNL A   1      46.039  29.772  28.755  1.00  0.00     0.034 A 
ATOM     58  C   UNL A   1      43.955  23.211  28.392  1.00  0.00     0.049 A 
ATOM     59  C   UNL A   1      46.625  28.424  28.985  1.00  0.00     0.074 A 
ATOM     60  C   UNL A   1      43.218  22.849  29.505  1.00  0.00     0.029 A 
ATOM     61  N   UNL A   1      45.105  23.787  28.887  1.00  0.00    -0.354 N 
ATOM     62  N   UNL A   1      46.480  27.773  30.109  1.00  0.00    -0.248 NA
ATOM     63  C   UNL A   1      46.881  27.588  27.819  1.00  0.00     0.031 C 
ATOM     64  C   UNL A   1      43.695  23.698  30.547  1.00  0.00     0.029 A 
ATOM     65  C   UNL A   1      44.769  24.443  30.051  1.00  0.00     0.049 A 
ATOM     66  H   UNL A   1      46.001  23.738  28.484  1.00  0.00     0.167 HD
ATOM     67  C   UNL A   1      46.188  26.468  29.739  1.00  0.00     0.074 A 
ATOM     68  C   UNL A   1      46.531  26.397  28.316  1.00  0.00     0.031 C 
ATOM     69  C   UNL A   1      45.418  25.656  30.524  1.00  0.00     0.034 A 
BRANCH  56  70
ATOM     70  C   UNL A   1      44.476  22.930  25.864  1.00  0.00     0.023 A 
ATOM     71  C   UNL A   1      44.482  21.542  25.622  1.00  0.00     0.031 A 
ATOM     72  C   UNL A   1      45.478  23.671  25.195  1.00  0.00     0.131 A 
ATOM     73  C   UNL A   1      45.487  20.947  24.838  1.00  0.00     0.055 A 
ATOM     74  C   UNL A   1      46.437  23.082  24.366  1.00  0.00     0.041 A 
ATOM     75  F   UNL A   1      45.652  24.985  25.374  1.00  0.00    -0.206 F 
ATOM     76  C   UNL A   1      46.466  21.709  24.207  1.00  0.00     0.022 A 
BRANCH  73  77
ATOM     77  S   UNL A   1      45.596  19.139  24.800  1.00  0.00     0.124 S 
ATOM     78  O   UNL A   1      46.680  18.889  25.743  1.00  0.00    -0.237 OA
ATOM     79  O   UNL A   1      44.259  18.750  25.235  1.00  0.00    -0.237 OA
ATOM     80  O   UNL A   1      45.905  18.849  23.402  1.00  0.00    -0.744 OA
ENDBRANCH  73  77
ENDBRANCH  56  70
BRANCH  57  81
ATOM     81  C   UNL A   1      46.782  30.911  28.133  1.00  0.00     0.023 A 
ATOM     82  C   UNL A   1      46.186  31.858  27.268  1.00  0.00     0.031 A 
ATOM     83  C   UNL A   1      48.085  31.217  28.594  1.00  0.00     0.131 A 
ATOM     84  C   UNL A   1      46.888  33.036  26.902  1.00  0.00     0.055 A 
ATOM     85  C   UNL A   1      48.769  32.380  28.232  1.00  0.00     0.041 A 
ATOM     86  F   UNL A   1      48.710  30.428  29.483  1.00  0.00    -0.206 F 
ATOM     87  C   UNL A   1      48.170  33.301  27.391  1.00  0.00     0.022 A 
BRANCH  84  88
ATOM     88  S   UNL A   1      46.116  34.296  25.829  1.00  0.00     0.124 S 
ATOM     89  O   UNL A   1      45.514  35.203  26.800  1.00  0.00    -0.237 OA
ATOM     90  O   UNL A   1      47.254  34.812  25.078  1.00  0.00    -0.237 OA
ATOM     91  O   UNL A   1      45.157  33.529  25.033  1.00  0.00    -0.744 OA
ENDBRANCH  84  88
ENDBRANCH  57  81
BRANCH  69  92
ATOM     92  C   UNL A   1      45.053  26.132  31.924  1.00  0.00     0.023 A 
ATOM     93  C   UNL A   1      43.959  26.974  32.244  1.00  0.00     0.031 A 
ATOM     94  C   UNL A   1      45.784  25.591  32.997  1.00  0.00     0.131 A 
ATOM     95  C   UNL A   1      43.645  27.250  33.593  1.00  0.00     0.055 A 
ATOM     96  C   UNL A   1      45.457  25.847  34.329  1.00  0.00     0.041 A 
ATOM     97  F   UNL A   1      46.817  24.765  32.766  1.00  0.00    -0.206 F 
ATOM     98  C   UNL A   1      44.389  26.683  34.633  1.00  0.00     0.022 A 
BRANCH  95  99
ATOM     99  S   UNL A   1      42.274  28.373  34.032  1.00  0.00     0.124 S 
ATOM    100  O   UNL A   1      41.122  27.787  33.358  1.00  0.00    -0.237 OA
ATOM    101  O   UNL A   1      42.263  28.304  35.491  1.00  0.00    -0.237 OA
ATOM    102  O   UNL A   1      42.705  29.663  33.490  1.00  0.00    -0.744 OA
ENDBRANCH  95  99
ENDBRANCH  69  92
ENDBRANCH  43  44
ENDBRANCH  36  38
ENDBRANCH  35  36
ENDBRANCH   1  35
TORSDOF 19
ENDMDL
MODEL 2
REMARK VINA RESULT:     -12.5      2.362      6.829
REMARK SMILES COc1cc(OC)c(-c2cc(C(=O)OCCOC(=O)c3ccc(-c4c5nc(c(-c6cc(S(=O)(=O)[O-])ccc6F)c6ccc([nH]6)c(-c6cc(S(=O)(=O)[O-])ccc6F)c6nc(c(-c7cc(S(=O)(=O)[O-])ccc7F)c7ccc4[nH]7)C=C6)C=C5)cc3)c3c(-c4ccc(Cl)cc4)[nH]nc3n2)cc1OC
REMARK SMILES IDX 16 1 15 2 14 3 12 4 13 5 11 6 9 7 10 8 95 9 94 10 83 11
REMARK SMILES IDX 93 12 84 13 92 14 8 16 3 17 4 18 97 19 5 20 96 21 2 22 1 23
REMARK SMILES IDX 98 24 99 25 6 26 7 27 85 28 86 29 91 30 87 31 90 32 88 33
REMARK SMILES IDX 89 34 17 35 18 36 19 37 20 38 21 39 82 40 22 41 81 42 23 43
REMARK SMILES IDX 24 44 25 45 75 46 26 47 80 48 74 49 76 50 27 51 79 52 73 53
REMARK SMILES IDX 72 54 28 56 60 57 40 58 59 59 41 60 44 61 58 62 77 63 42 64
REMARK SMILES IDX 43 65 57 67 78 68 45 69 29 70 30 71 38 72 31 73 37 74 39 75
REMARK SMILES IDX 36 76 32 77 33 78 34 79 35 80 61 81 62 82 70 83 63 84 69 85
REMARK SMILES IDX 71 86 68 87 64 88 65 89 66 90 67 91 46 92 47 93 55 94 48 95
REMARK SMILES IDX 54 96 56 97 53 98 49 99 50 100 51 101 52 102
REMARK H PARENT 92 15 76 55 44 66
REMARK Flexibility Score: inf
ROOT
ATOM      1  C   UNL A   1      32.935  30.200  27.101  1.00  0.00     0.275 C 
ENDROOT
BRANCH   1   2
ATOM      2  C   UNL A   1      32.957  28.692  26.939  1.00  0.00     0.275 C 
BRANCH   2   3
ATOM      3  O   UNL A   1      32.061  28.346  25.876  1.00  0.00    -0.458 OA
BRANCH   3   4
ATOM      4  C   UNL A   1      31.639  27.057  25.817  1.00  0.00     0.339 C 
ATOM      5  O   UNL A   1      30.796  26.545  26.528  1.00  0.00    -0.246 OA
BRANCH   4   6
ATOM      6  C   UNL A   1      32.397  26.375  24.759  1.00  0.00     0.075 A 
ATOM      7  C   UNL A   1      34.162  24.743  24.143  1.00  0.00     0.078 A 
ATOM      8  C   UNL A   1      33.491  25.557  25.089  1.00  0.00     0.045 A 
ATOM      9  N   UNL A   1      33.866  24.675  22.819  1.00  0.00    -0.226 NA
ATOM     10  C   UNL A   1      32.861  25.514  22.447  1.00  0.00     0.182 A 
ATOM     11  C   UNL A   1      32.137  26.337  23.383  1.00  0.00     0.061 A 
ATOM     12  N   UNL A   1      32.407  25.671  21.206  1.00  0.00    -0.154 NA
ATOM     13  C   UNL A   1      31.225  27.051  22.615  1.00  0.00     0.075 A 
ATOM     14  N   UNL A   1      31.474  26.626  21.326  1.00  0.00    -0.275 N 
ATOM     15  H   UNL A   1      30.998  26.998  20.549  1.00  0.00     0.190 HD
BRANCH   7  16
ATOM     16  C   UNL A   1      35.152  23.773  24.659  1.00  0.00     0.046 A 
ATOM     17  C   UNL A   1      37.269  22.206  25.736  1.00  0.00     0.164 A 
ATOM     18  C   UNL A   1      36.264  21.632  24.940  1.00  0.00     0.097 A 
ATOM     19  C   UNL A   1      37.239  23.572  25.997  1.00  0.00     0.161 A 
ATOM     20  C   UNL A   1      35.221  22.402  24.378  1.00  0.00     0.132 A 
ATOM     21  C   UNL A   1      36.170  24.314  25.484  1.00  0.00     0.064 A 
BRANCH  17  22
ATOM     22  O   UNL A   1      38.318  21.406  26.102  1.00  0.00    -0.493 OA
ATOM     23  C   UNL A   1      38.472  20.286  25.230  1.00  0.00     0.278 C 
ENDBRANCH  17  22
BRANCH  19  24
ATOM     24  O   UNL A   1      38.131  24.366  26.657  1.00  0.00    -0.493 OA
ATOM     25  C   UNL A   1      39.500  24.330  26.304  1.00  0.00     0.278 C 
ENDBRANCH  19  24
BRANCH  20  26
ATOM     26  O   UNL A   1      34.375  21.652  23.602  1.00  0.00    -0.496 OA
ATOM     27  C   UNL A   1      33.156  21.203  24.185  1.00  0.00     0.278 C 
ENDBRANCH  20  26
ENDBRANCH   7  16
BRANCH  13  28
ATOM     28  C   UNL A   1      30.274  28.138  22.857  1.00  0.00     0.000 A 
ATOM     29  C   UNL A   1      28.918  27.903  23.110  1.00  0.00     0.012 A 
ATOM     30  C   UNL A   1      30.705  29.463  22.788  1.00  0.00     0.012 A 
ATOM     31  C   UNL A   1      28.035  28.974  23.318  1.00  0.00     0.021 A 
ATOM     32  C   UNL A   1      29.841  30.536  23.011  1.00  0.00     0.021 A 
ATOM     33  C   UNL A   1      28.503  30.286  23.278  1.00  0.00     0.041 A 
ATOM     34  Cl  UNL A   1      27.431  31.600  23.563  1.00  0.00    -0.084 Cl
ENDBRANCH  13  28
ENDBRANCH   4   6
ENDBRANCH   3   4
ENDBRANCH   2   3
ENDBRANCH   1   2
BRANCH   1  35
ATOM     35  O   UNL A   1      34.264  30.706  27.041  1.00  0.00    -0.458 OA
BRANCH  35  36
ATOM     36  C   UNL A   1      34.793  31.232  28.168  1.00  0.00     0.338 C 
ATOM     37  O   UNL A   1      34.270  32.018  28.942  1.00  0.00    -0.246 OA
BRANCH  36  38
ATOM     38  C   UNL A   1      36.153  30.678  28.271  1.00  0.00     0.060 A 
ATOM     39  C   UNL A   1      36.422  29.363  27.880  1.00  0.00     0.016 A 
ATOM     40  C   UNL A   1      37.160  31.507  28.797  1.00  0.00     0.016 A 
ATOM     41  C   UNL A   1      37.685  28.846  28.126  1.00  0.00     0.010 A 
ATOM     42  C   UNL A   1      38.413  31.008  29.009  1.00  0.00     0.010 A 
ATOM     43  C   UNL A   1      38.636  29.662  28.749  1.00  0.00    -0.014 A 
BRANCH  43  44
ATOM     44  C   UNL A   1      39.907  29.127  29.183  1.00  0.00     0.031 A 
ATOM     45  C   UNL A   1      40.100  29.108  30.652  1.00  0.00     0.074 A 
ATOM     46  C   UNL A   1      40.711  28.513  28.289  1.00  0.00     0.049 A 
ATOM     47  N   UNL A   1      40.966  29.775  31.336  1.00  0.00    -0.248 NA
ATOM     48  C   UNL A   1      39.121  28.387  31.484  1.00  0.00     0.031 C 
ATOM     49  C   UNL A   1      40.448  28.226  26.872  1.00  0.00     0.029 A 
ATOM     50  N   UNL A   1      41.911  27.915  28.488  1.00  0.00    -0.354 N 
ATOM     51  C   UNL A   1      40.812  29.364  32.657  1.00  0.00     0.074 A 
ATOM     52  C   UNL A   1      39.548  28.684  32.713  1.00  0.00     0.031 C 
ATOM     53  C   UNL A   1      41.349  27.325  26.416  1.00  0.00     0.029 A 
ATOM     54  C   UNL A   1      42.336  27.085  27.454  1.00  0.00     0.049 A 
ATOM     55  H   UNL A   1      42.443  28.057  29.305  1.00  0.00     0.167 HD
ATOM     56  C   UNL A   1      41.861  29.409  33.524  1.00  0.00     0.034 A 
ATOM     57  C   UNL A   1      43.404  26.237  27.473  1.00  0.00     0.034 A 
ATOM     58  C   UNL A   1      42.897  30.290  33.026  1.00  0.00     0.049 A 
ATOM     59  C   UNL A   1      44.300  26.728  28.554  1.00  0.00     0.074 A 
ATOM     60  C   UNL A   1      42.926  31.630  32.683  1.00  0.00     0.029 A 
ATOM     61  N   UNL A   1      43.983  29.728  32.391  1.00  0.00    -0.354 N 
ATOM     62  N   UNL A   1      44.891  27.893  28.508  1.00  0.00    -0.248 NA
ATOM     63  C   UNL A   1      44.102  26.192  29.895  1.00  0.00     0.031 C 
ATOM     64  C   UNL A   1      43.670  31.676  31.467  1.00  0.00     0.029 A 
ATOM     65  C   UNL A   1      44.153  30.392  31.197  1.00  0.00     0.049 A 
ATOM     66  H   UNL A   1      44.536  28.987  32.730  1.00  0.00     0.167 HD
ATOM     67  C   UNL A   1      44.741  28.428  29.779  1.00  0.00     0.074 A 
ATOM     68  C   UNL A   1      44.319  27.299  30.613  1.00  0.00     0.031 C 
ATOM     69  C   UNL A   1      44.673  29.778  29.985  1.00  0.00     0.034 A 
BRANCH  56  70
ATOM     70  C   UNL A   1      42.108  28.407  34.630  1.00  0.00     0.023 A 
ATOM     71  C   UNL A   1      42.867  27.263  34.314  1.00  0.00     0.031 A 
ATOM     72  C   UNL A   1      41.432  28.367  35.872  1.00  0.00     0.131 A 
ATOM     73  C   UNL A   1      42.858  26.133  35.152  1.00  0.00     0.055 A 
ATOM     74  C   UNL A   1      41.477  27.266  36.730  1.00  0.00     0.041 A 
ATOM     75  F   UNL A   1      40.615  29.342  36.286  1.00  0.00    -0.206 F 
ATOM     76  C   UNL A   1      42.168  26.127  36.360  1.00  0.00     0.022 A 
BRANCH  73  77
ATOM     77  S   UNL A   1      43.623  24.605  34.549  1.00  0.00     0.124 S 
ATOM     78  O   UNL A   1      42.547  23.640  34.740  1.00  0.00    -0.237 OA
ATOM     79  O   UNL A   1      43.941  24.954  33.169  1.00  0.00    -0.237 OA
ATOM     80  O   UNL A   1      44.777  24.436  35.430  1.00  0.00    -0.744 OA
ENDBRANCH  73  77
ENDBRANCH  56  70
BRANCH  57  81
ATOM     81  C   UNL A   1      43.462  24.856  26.902  1.00  0.00     0.023 A 
ATOM     82  C   UNL A   1      44.325  24.479  25.847  1.00  0.00     0.031 A 
ATOM     83  C   UNL A   1      42.804  23.802  27.580  1.00  0.00     0.131 A 
ATOM     84  C   UNL A   1      44.493  23.110  25.513  1.00  0.00     0.055 A 
ATOM     85  C   UNL A   1      42.977  22.456  27.248  1.00  0.00     0.041 A 
ATOM     86  F   UNL A   1      42.028  24.042  28.649  1.00  0.00    -0.206 F 
ATOM     87  C   UNL A   1      43.830  22.102  26.218  1.00  0.00     0.022 A 
BRANCH  84  88
ATOM     88  S   UNL A   1      45.643  22.599  24.189  1.00  0.00     0.124 S 
ATOM     89  O   UNL A   1      46.422  21.552  24.842  1.00  0.00    -0.237 OA
ATOM     90  O   UNL A   1      44.737  22.170  23.131  1.00  0.00    -0.237 OA
ATOM     91  O   UNL A   1      46.391  23.823  23.893  1.00  0.00    -0.744 OA
ENDBRANCH  84  88
ENDBRANCH  57  81
BRANCH  69  92
ATOM     92  C   UNL A   1      44.977  30.708  28.817  1.00  0.00     0.023 A 
ATOM     93  C   UNL A   1      46.256  31.223  28.492  1.00  0.00     0.031 A 
ATOM     94  C   UNL A   1      43.928  30.973  27.919  1.00  0.00     0.131 A 
ATOM     95  C   UNL A   1      46.439  31.978  27.312  1.00  0.00     0.055 A 
ATOM     96  C   UNL A   1      44.117  31.700  26.743  1.00  0.00     0.041 A 
ATOM     97  F   UNL A   1      42.696  30.494  28.153  1.00  0.00    -0.206 F 
ATOM     98  C   UNL A   1      45.373  32.211  26.437  1.00  0.00     0.022 A 
BRANCH  95  99
ATOM     99  S   UNL A   1      48.064  32.698  26.895  1.00  0.00     0.124 S 
ATOM    100  O   UNL A   1      48.539  33.233  28.166  1.00  0.00    -0.237 OA
ATOM    101  O   UNL A   1      48.797  31.547  26.373  1.00  0.00    -0.237 OA
ATOM    102  O   UNL A   1      47.739  33.714  25.891  1.00  0.00    -0.744 OA
ENDBRANCH  95  99
ENDBRANCH  69  92
ENDBRANCH  43  44
ENDBRANCH  36  38
ENDBRANCH  35  36
ENDBRANCH   1  35
TORSDOF 19
ENDMDL
MODEL 3
REMARK VINA RESULT:     -11.7      2.368      6.746
REMARK SMILES COc1cc(OC)c(-c2cc(C(=O)OCCOC(=O)c3ccc(-c4c5nc(c(-c6cc(S(=O)(=O)[O-])ccc6F)c6ccc([nH]6)c(-c6cc(S(=O)(=O)[O-])ccc6F)c6nc(c(-c7cc(S(=O)(=O)[O-])ccc7F)c7ccc4[nH]7)C=C6)C=C5)cc3)c3c(-c4ccc(Cl)cc4)[nH]nc3n2)cc1OC
REMARK SMILES IDX 16 1 15 2 14 3 12 4 13 5 11 6 9 7 10 8 95 9 94 10 83 11
REMARK SMILES IDX 93 12 84 13 92 14 8 16 3 17 4 18 97 19 5 20 96 21 2 22 1 23
REMARK SMILES IDX 98 24 99 25 6 26 7 27 85 28 86 29 91 30 87 31 90 32 88 33
REMARK SMILES IDX 89 34 17 35 18 36 19 37 20 38 21 39 82 40 22 41 81 42 23 43
REMARK SMILES IDX 24 44 25 45 75 46 26 47 80 48 74 49 76 50 27 51 79 52 73 53
REMARK SMILES IDX 72 54 28 56 60 57 40 58 59 59 41 60 44 61 58 62 77 63 42 64
REMARK SMILES IDX 43 65 57 67 78 68 45 69 29 70 30 71 38 72 31 73 37 74 39 75
REMARK SMILES IDX 36 76 32 77 33 78 34 79 35 80 61 81 62 82 70 83 63 84 69 85
REMARK SMILES IDX 71 86 68 87 64 88 65 89 66 90 67 91 46 92 47 93 55 94 48 95
REMARK SMILES IDX 54 96 56 97 53 98 49 99 50 100 51 101 52 102
REMARK H PARENT 92 15 76 55 44 66
REMARK Flexibility Score: inf
ROOT
ATOM      1  C   UNL A   1      35.118  29.716  26.714  1.00  0.00     0.275 C 
ENDROOT
BRANCH   1   2
ATOM      2  C   UNL A   1      33.663  29.692  26.289  1.00  0.00     0.275 C 
BRANCH   2   3
ATOM      3  O   UNL A   1      33.342  28.359  25.872  1.00  0.00    -0.458 OA
BRANCH   3   4
ATOM      4  C   UNL A   1      33.434  28.087  24.545  1.00  0.00     0.339 C 
ATOM      5  O   UNL A   1      33.728  28.876  23.669  1.00  0.00    -0.246 OA
BRANCH   4   6
ATOM      6  C   UNL A   1      33.090  26.672  24.344  1.00  0.00     0.075 A 
ATOM      7  C   UNL A   1      33.791  24.294  24.440  1.00  0.00     0.078 A 
ATOM      8  C   UNL A   1      34.079  25.681  24.457  1.00  0.00     0.045 A 
ATOM      9  N   UNL A   1      32.555  23.753  24.281  1.00  0.00    -0.226 NA
ATOM     10  C   UNL A   1      31.580  24.682  24.090  1.00  0.00     0.182 A 
ATOM     11  C   UNL A   1      31.828  26.102  24.127  1.00  0.00     0.061 A 
ATOM     12  N   UNL A   1      30.294  24.418  23.870  1.00  0.00    -0.154 NA
ATOM     13  C   UNL A   1      30.599  26.696  23.868  1.00  0.00     0.075 A 
ATOM     14  N   UNL A   1      29.746  25.628  23.689  1.00  0.00    -0.275 N 
ATOM     15  H   UNL A   1      28.799  25.746  23.446  1.00  0.00     0.190 HD
BRANCH   7  16
ATOM     16  C   UNL A   1      34.889  23.365  24.781  1.00  0.00     0.046 A 
ATOM     17  C   UNL A   1      37.228  21.878  25.427  1.00  0.00     0.164 A 
ATOM     18  C   UNL A   1      36.049  21.242  25.007  1.00  0.00     0.097 A 
ATOM     19  C   UNL A   1      37.262  23.265  25.522  1.00  0.00     0.161 A 
ATOM     20  C   UNL A   1      34.888  21.969  24.659  1.00  0.00     0.132 A 
ATOM     21  C   UNL A   1      36.089  23.970  25.231  1.00  0.00     0.064 A 
BRANCH  17  22
ATOM     22  O   UNL A   1      38.342  21.099  25.590  1.00  0.00    -0.493 OA
ATOM     23  C   UNL A   1      38.188  19.809  24.998  1.00  0.00     0.278 C 
ENDBRANCH  17  22
BRANCH  19  24
ATOM     24  O   UNL A   1      38.295  24.107  25.817  1.00  0.00    -0.493 OA
ATOM     25  C   UNL A   1      38.892  24.065  27.098  1.00  0.00     0.278 C 
ENDBRANCH  19  24
BRANCH  20  26
ATOM     26  O   UNL A   1      33.868  21.157  24.235  1.00  0.00    -0.496 OA
ATOM     27  C   UNL A   1      33.862  19.803  24.681  1.00  0.00     0.278 C 
ENDBRANCH  20  26
ENDBRANCH   7  16
BRANCH  13  28
ATOM     28  C   UNL A   1      30.124  28.061  23.630  1.00  0.00     0.000 A 
ATOM     29  C   UNL A   1      29.356  28.401  22.510  1.00  0.00     0.012 A 
ATOM     30  C   UNL A   1      30.482  29.083  24.510  1.00  0.00     0.012 A 
ATOM     31  C   UNL A   1      28.936  29.725  22.309  1.00  0.00     0.021 A 
ATOM     32  C   UNL A   1      30.056  30.399  24.330  1.00  0.00     0.021 A 
ATOM     33  C   UNL A   1      29.279  30.717  23.226  1.00  0.00     0.041 A 
ATOM     34  Cl  UNL A   1      28.742  32.334  22.999  1.00  0.00    -0.084 Cl
ENDBRANCH  13  28
ENDBRANCH   4   6
ENDBRANCH   3   4
ENDBRANCH   2   3
ENDBRANCH   1   2
BRANCH   1  35
ATOM     35  O   UNL A   1      35.224  30.259  28.025  1.00  0.00    -0.458 OA
BRANCH  35  36
ATOM     36  C   UNL A   1      36.103  31.267  28.223  1.00  0.00     0.338 C 
ATOM     37  O   UNL A   1      35.961  32.447  27.948  1.00  0.00    -0.246 OA
BRANCH  36  38
ATOM     38  C   UNL A   1      37.294  30.647  28.829  1.00  0.00     0.060 A 
ATOM     39  C   UNL A   1      38.462  31.389  29.034  1.00  0.00     0.016 A 
ATOM     40  C   UNL A   1      37.222  29.285  29.170  1.00  0.00     0.016 A 
ATOM     41  C   UNL A   1      39.595  30.726  29.478  1.00  0.00     0.010 A 
ATOM     42  C   UNL A   1      38.330  28.639  29.638  1.00  0.00     0.010 A 
ATOM     43  C   UNL A   1      39.522  29.347  29.706  1.00  0.00    -0.014 A 
BRANCH  43  44
ATOM     44  C   UNL A   1      40.709  28.577  30.003  1.00  0.00     0.031 A 
ATOM     45  C   UNL A   1      41.015  28.447  31.447  1.00  0.00     0.074 A 
ATOM     46  C   UNL A   1      41.315  27.880  29.018  1.00  0.00     0.049 A 
ATOM     47  N   UNL A   1      42.039  28.917  32.075  1.00  0.00    -0.248 NA
ATOM     48  C   UNL A   1      39.995  27.865  32.337  1.00  0.00     0.031 C 
ATOM     49  C   UNL A   1      40.890  27.718  27.621  1.00  0.00     0.029 A 
ATOM     50  N   UNL A   1      42.402  27.072  29.087  1.00  0.00    -0.354 N 
ATOM     51  C   UNL A   1      41.923  28.470  33.388  1.00  0.00     0.074 A 
ATOM     52  C   UNL A   1      40.567  28.019  33.532  1.00  0.00     0.031 C 
ATOM     53  C   UNL A   1      41.576  26.698  27.053  1.00  0.00     0.029 A 
ATOM     54  C   UNL A   1      42.586  26.236  27.989  1.00  0.00     0.049 A 
ATOM     55  H   UNL A   1      43.015  27.076  29.857  1.00  0.00     0.167 HD
ATOM     56  C   UNL A   1      43.031  28.286  34.159  1.00  0.00     0.034 A 
ATOM     57  C   UNL A   1      43.483  25.215  27.880  1.00  0.00     0.034 A 
ATOM     58  C   UNL A   1      44.163  28.998  33.603  1.00  0.00     0.049 A 
ATOM     59  C   UNL A   1      44.538  25.485  28.894  1.00  0.00     0.074 A 
ATOM     60  C   UNL A   1      44.401  30.328  33.308  1.00  0.00     0.029 A 
ATOM     61  N   UNL A   1      45.076  28.289  32.853  1.00  0.00    -0.354 N 
ATOM     62  N   UNL A   1      45.321  26.531  28.837  1.00  0.00    -0.248 NA
ATOM     63  C   UNL A   1      44.358  24.923  30.226  1.00  0.00     0.031 C 
ATOM     64  C   UNL A   1      45.040  30.307  32.033  1.00  0.00     0.029 A 
ATOM     65  C   UNL A   1      45.262  28.975  31.674  1.00  0.00     0.049 A 
ATOM     66  H   UNL A   1      45.514  27.447  33.112  1.00  0.00     0.167 HD
ATOM     67  C   UNL A   1      45.374  27.016  30.136  1.00  0.00     0.074 A 
ATOM     68  C   UNL A   1      44.827  25.936  30.962  1.00  0.00     0.031 C 
ATOM     69  C   UNL A   1      45.564  28.344  30.397  1.00  0.00     0.034 A 
BRANCH  56  70
ATOM     70  C   UNL A   1      43.185  27.200  35.200  1.00  0.00     0.023 A 
ATOM     71  C   UNL A   1      44.014  26.106  34.881  1.00  0.00     0.031 A 
ATOM     72  C   UNL A   1      42.373  27.037  36.347  1.00  0.00     0.131 A 
ATOM     73  C   UNL A   1      43.949  24.908  35.617  1.00  0.00     0.055 A 
ATOM     74  C   UNL A   1      42.359  25.867  37.112  1.00  0.00     0.041 A 
ATOM     75  F   UNL A   1      41.481  27.951  36.742  1.00  0.00    -0.206 F 
ATOM     76  C   UNL A   1      43.127  24.782  36.732  1.00  0.00     0.022 A 
BRANCH  73  77
ATOM     77  S   UNL A   1      44.831  23.458  34.984  1.00  0.00     0.124 S 
ATOM     78  O   UNL A   1      43.734  22.530  34.737  1.00  0.00    -0.237 OA
ATOM     79  O   UNL A   1      45.495  24.002  33.805  1.00  0.00    -0.237 OA
ATOM     80  O   UNL A   1      45.718  23.095  36.087  1.00  0.00    -0.744 OA
ENDBRANCH  73  77
ENDBRANCH  56  70
BRANCH  57  81
ATOM     81  C   UNL A   1      43.248  23.877  27.255  1.00  0.00     0.023 A 
ATOM     82  C   UNL A   1      44.004  23.373  26.172  1.00  0.00     0.031 A 
ATOM     83  C   UNL A   1      42.390  22.956  27.902  1.00  0.00     0.131 A 
ATOM     84  C   UNL A   1      43.881  22.014  25.782  1.00  0.00     0.055 A 
ATOM     85  C   UNL A   1      42.276  21.618  27.516  1.00  0.00     0.041 A 
ATOM     86  F   UNL A   1      41.690  23.307  28.993  1.00  0.00    -0.206 F 
ATOM     87  C   UNL A   1      43.028  21.138  26.459  1.00  0.00     0.022 A 
BRANCH  84  88
ATOM     88  S   UNL A   1      44.888  21.330  24.421  1.00  0.00     0.124 S 
ATOM     89  O   UNL A   1      46.246  21.486  24.931  1.00  0.00    -0.237 OA
ATOM     90  O   UNL A   1      44.387  19.965  24.312  1.00  0.00    -0.237 OA
ATOM     91  O   UNL A   1      44.559  22.192  23.284  1.00  0.00    -0.744 OA
ENDBRANCH  84  88
ENDBRANCH  57  81
BRANCH  69  92
ATOM     92  C   UNL A   1      45.932  29.267  29.242  1.00  0.00     0.023 A 
ATOM     93  C   UNL A   1      45.015  30.042  28.490  1.00  0.00     0.031 A 
ATOM     94  C   UNL A   1      47.301  29.460  28.987  1.00  0.00     0.131 A 
ATOM     95  C   UNL A   1      45.486  30.956  27.521  1.00  0.00     0.055 A 
ATOM     96  C   UNL A   1      47.763  30.380  28.045  1.00  0.00     0.041 A 
ATOM     97  F   UNL A   1      48.225  28.777  29.682  1.00  0.00    -0.206 F 
ATOM     98  C   UNL A   1      46.857  31.129  27.304  1.00  0.00     0.022 A 
BRANCH  95  99
ATOM     99  S   UNL A   1      44.326  31.929  26.500  1.00  0.00     0.124 S 
ATOM    100  O   UNL A   1      43.334  30.947  26.078  1.00  0.00    -0.237 OA
ATOM    101  O   UNL A   1      43.858  32.948  27.436  1.00  0.00    -0.237 OA
ATOM    102  O   UNL A   1      45.172  32.443  25.420  1.00  0.00    -0.744 OA
ENDBRANCH  95  99
ENDBRANCH  69  92
ENDBRANCH  43  44
ENDBRANCH  36  38
ENDBRANCH  35  36
ENDBRANCH   1  35
TORSDOF 19
ENDMDL
