MODEL 1
REMARK VINA RESULT:     -11.8      0.000      0.000
REMARK SMILES O=C(CCc1cn(-c2ccc(Br)cc2)nc1-c1ccccc1)OCCOC(=O)c1ccc(-c2c3nc(c(-c4cc(S(=O)(=O)[O-])ccc4F)c4ccc([nH]4)c(-c4cc(S(=O)(=O)[O-])ccc4F)c4nc(c(-c5cc(S(=O)(=O)[O-])ccc5F)c5ccc2[nH]5)C=C4)C=C3)cc1
REMARK SMILES IDX 24 1 23 2 2 3 1 4 3 5 4 6 5 7 6 8 16 9 7 10 15 11 17 12
REMARK SMILES IDX 18 13 22 14 19 15 21 16 20 17 8 18 9 19 14 20 10 21 13 22
REMARK SMILES IDX 11 23 12 24 25 25 26 26 27 27 28 28 29 29 30 30 91 31 31 32
REMARK SMILES IDX 90 33 32 34 33 35 34 36 84 37 35 38 89 39 83 40 85 41 36 42
REMARK SMILES IDX 88 43 82 44 81 45 37 47 69 48 49 49 68 50 50 51 53 52 67 53
REMARK SMILES IDX 86 54 51 55 52 56 66 58 87 59 54 60 38 61 39 62 47 63 40 64
REMARK SMILES IDX 46 65 48 66 45 67 41 68 42 69 43 70 44 71 70 72 71 73 79 74
REMARK SMILES IDX 72 75 78 76 80 77 77 78 73 79 74 80 75 81 76 82 55 83 56 84
REMARK SMILES IDX 64 85 57 86 63 87 65 88 62 89 58 90 59 91 60 92 61 93
REMARK H PARENT 85 46 53 57
REMARK Flexibility Score: inf
ROOT
ATOM      1  C   UNL A   1      38.217  31.137  32.896  1.00  0.00     0.274 C 
ENDROOT
BRANCH   1   2
ATOM      2  O   UNL A   1      38.848  31.794  31.782  1.00  0.00    -0.462 OA
BRANCH   2   3
ATOM      3  C   UNL A   1      38.277  32.745  31.005  1.00  0.00     0.306 C 
ATOM      4  O   UNL A   1      37.900  33.802  31.514  1.00  0.00    -0.252 OA
BRANCH   3   5
ATOM      5  C   UNL A   1      38.053  32.493  29.529  1.00  0.00     0.127 C 
BRANCH   5   6
ATOM      6  C   UNL A   1      37.197  33.543  28.836  1.00  0.00     0.051 C 
BRANCH   6   7
ATOM      7  C   UNL A   1      35.856  33.022  28.437  1.00  0.00    -0.001 A 
ATOM      8  C   UNL A   1      35.673  31.921  27.630  1.00  0.00     0.119 A 
ATOM      9  C   UNL A   1      34.528  33.380  28.857  1.00  0.00     0.096 A 
ATOM     10  N   UNL A   1      34.336  31.638  27.628  1.00  0.00    -0.240 N 
ATOM     11  N   UNL A   1      33.618  32.585  28.263  1.00  0.00    -0.168 NA
BRANCH   9  12
ATOM     12  C   UNL A   1      34.093  34.366  29.854  1.00  0.00     0.002 A 
ATOM     13  C   UNL A   1      33.331  35.479  29.450  1.00  0.00     0.010 A 
ATOM     14  C   UNL A   1      34.411  34.230  31.210  1.00  0.00     0.010 A 
ATOM     15  C   UNL A   1      32.901  36.433  30.379  1.00  0.00     0.001 A 
ATOM     16  C   UNL A   1      33.985  35.188  32.139  1.00  0.00     0.001 A 
ATOM     17  C   UNL A   1      33.242  36.293  31.722  1.00  0.00     0.000 A 
ENDBRANCH   9  12
BRANCH  10  18
ATOM     18  C   UNL A   1      33.740  30.461  27.127  1.00  0.00     0.065 A 
ATOM     19  C   UNL A   1      32.359  30.440  26.869  1.00  0.00     0.029 A 
ATOM     20  C   UNL A   1      34.523  29.326  26.898  1.00  0.00     0.029 A 
ATOM     21  C   UNL A   1      31.760  29.272  26.400  1.00  0.00     0.018 A 
ATOM     22  C   UNL A   1      33.906  28.143  26.482  1.00  0.00     0.018 A 
ATOM     23  C   UNL A   1      32.532  28.122  26.234  1.00  0.00     0.018 A 
ATOM     24  Br  UNL A   1      31.702  26.519  25.674  1.00  0.00    -0.051 Br
ENDBRANCH  10  18
ENDBRANCH   6   7
ENDBRANCH   5   6
ENDBRANCH   3   5
ENDBRANCH   2   3
ENDBRANCH   1   2
BRANCH   1  25
ATOM     25  C   UNL A   1      36.827  30.601  32.606  1.00  0.00     0.275 C 
BRANCH  25  26
ATOM     26  O   UNL A   1      36.890  29.350  31.938  1.00  0.00    -0.458 OA
BRANCH  26  27
ATOM     27  C   UNL A   1      36.659  29.325  30.604  1.00  0.00     0.338 C 
ATOM     28  O   UNL A   1      35.679  29.755  30.017  1.00  0.00    -0.246 OA
BRANCH  27  29
ATOM     29  C   UNL A   1      37.783  28.593  29.997  1.00  0.00     0.060 A 
ATOM     30  C   UNL A   1      38.512  27.694  30.769  1.00  0.00     0.016 A 
ATOM     31  C   UNL A   1      38.225  28.969  28.724  1.00  0.00     0.016 A 
ATOM     32  C   UNL A   1      39.798  27.374  30.360  1.00  0.00     0.010 A 
ATOM     33  C   UNL A   1      39.511  28.693  28.341  1.00  0.00     0.010 A 
ATOM     34  C   UNL A   1      40.318  27.975  29.205  1.00  0.00    -0.014 A 
BRANCH  34  35
ATOM     35  C   UNL A   1      41.680  27.719  28.781  1.00  0.00     0.031 A 
ATOM     36  C   UNL A   1      41.773  26.466  28.003  1.00  0.00     0.074 A 
ATOM     37  C   UNL A   1      42.699  28.589  28.942  1.00  0.00     0.049 A 
ATOM     38  N   UNL A   1      42.149  25.319  28.457  1.00  0.00    -0.248 NA
ATOM     39  C   UNL A   1      41.144  26.397  26.671  1.00  0.00     0.031 C 
ATOM     40  C   UNL A   1      42.663  29.962  29.452  1.00  0.00     0.029 A 
ATOM     41  N   UNL A   1      44.014  28.432  28.621  1.00  0.00    -0.354 N 
ATOM     42  C   UNL A   1      42.100  24.461  27.370  1.00  0.00     0.074 A 
ATOM     43  C   UNL A   1      41.233  25.090  26.415  1.00  0.00     0.031 C 
ATOM     44  C   UNL A   1      43.853  30.568  29.217  1.00  0.00     0.029 A 
ATOM     45  C   UNL A   1      44.785  29.597  28.659  1.00  0.00     0.049 A 
ATOM     46  H   UNL A   1      44.395  27.557  28.377  1.00  0.00     0.167 HD
ATOM     47  C   UNL A   1      43.031  23.477  27.240  1.00  0.00     0.034 A 
ATOM     48  C   UNL A   1      46.081  29.744  28.247  1.00  0.00     0.034 A 
ATOM     49  C   UNL A   1      43.738  23.279  28.491  1.00  0.00     0.049 A 
ATOM     50  C   UNL A   1      46.683  28.385  28.274  1.00  0.00     0.074 A 
ATOM     51  C   UNL A   1      43.354  22.961  29.779  1.00  0.00     0.029 A 
ATOM     52  N   UNL A   1      44.998  23.830  28.604  1.00  0.00    -0.354 N 
ATOM     53  N   UNL A   1      46.870  27.717  29.379  1.00  0.00    -0.248 NA
ATOM     54  C   UNL A   1      46.565  27.569  27.072  1.00  0.00     0.031 C 
ATOM     55  C   UNL A   1      44.165  23.782  30.618  1.00  0.00     0.029 A 
ATOM     56  C   UNL A   1      45.075  24.473  29.816  1.00  0.00     0.049 A 
ATOM     57  H   UNL A   1      45.717  23.772  27.935  1.00  0.00     0.167 HD
ATOM     58  C   UNL A   1      46.443  26.427  29.097  1.00  0.00     0.074 A 
ATOM     59  C   UNL A   1      46.339  26.378  27.636  1.00  0.00     0.031 C 
ATOM     60  C   UNL A   1      45.926  25.622  30.072  1.00  0.00     0.034 A 
BRANCH  47  61
ATOM     61  C   UNL A   1      43.601  23.006  25.920  1.00  0.00     0.023 A 
ATOM     62  C   UNL A   1      43.665  21.613  25.731  1.00  0.00     0.031 A 
ATOM     63  C   UNL A   1      44.340  23.784  25.000  1.00  0.00     0.131 A 
ATOM     64  C   UNL A   1      44.524  21.055  24.772  1.00  0.00     0.055 A 
ATOM     65  C   UNL A   1      45.139  23.224  24.001  1.00  0.00     0.041 A 
ATOM     66  F   UNL A   1      44.409  25.118  25.059  1.00  0.00    -0.206 F 
ATOM     67  C   UNL A   1      45.266  21.850  23.906  1.00  0.00     0.022 A 
BRANCH  64  68
ATOM     68  S   UNL A   1      44.793  19.266  24.815  1.00  0.00     0.124 S 
ATOM     69  O   UNL A   1      43.807  18.851  25.807  1.00  0.00    -0.237 OA
ATOM     70  O   UNL A   1      44.518  18.890  23.433  1.00  0.00    -0.237 OA
ATOM     71  O   UNL A   1      46.188  19.145  25.229  1.00  0.00    -0.744 OA
ENDBRANCH  64  68
ENDBRANCH  47  61
BRANCH  48  72
ATOM     72  C   UNL A   1      46.695  30.890  27.495  1.00  0.00     0.023 A 
ATOM     73  C   UNL A   1      45.951  31.954  26.920  1.00  0.00     0.031 A 
ATOM     74  C   UNL A   1      48.092  31.080  27.570  1.00  0.00     0.131 A 
ATOM     75  C   UNL A   1      46.608  33.128  26.460  1.00  0.00     0.055 A 
ATOM     76  C   UNL A   1      48.731  32.241  27.124  1.00  0.00     0.041 A 
ATOM     77  F   UNL A   1      48.885  30.176  28.164  1.00  0.00    -0.206 F 
ATOM     78  C   UNL A   1      47.991  33.275  26.576  1.00  0.00     0.022 A 
BRANCH  75  79
ATOM     79  S   UNL A   1      45.673  34.539  25.760  1.00  0.00     0.124 S 
ATOM     80  O   UNL A   1      44.733  34.853  26.830  1.00  0.00    -0.237 OA
ATOM     81  O   UNL A   1      46.722  35.520  25.507  1.00  0.00    -0.237 OA
ATOM     82  O   UNL A   1      45.060  33.982  24.554  1.00  0.00    -0.744 OA
ENDBRANCH  75  79
ENDBRANCH  48  72
BRANCH  60  83
ATOM     83  C   UNL A   1      46.108  26.032  31.523  1.00  0.00     0.023 A 
ATOM     84  C   UNL A   1      45.108  26.583  32.360  1.00  0.00     0.031 A 
ATOM     85  C   UNL A   1      47.353  25.735  32.108  1.00  0.00     0.131 A 
ATOM     86  C   UNL A   1      45.385  26.824  33.722  1.00  0.00     0.055 A 
ATOM     87  C   UNL A   1      47.613  25.950  33.459  1.00  0.00     0.041 A 
ATOM     88  F   UNL A   1      48.338  25.194  31.372  1.00  0.00    -0.206 F 
ATOM     89  C   UNL A   1      46.631  26.501  34.272  1.00  0.00     0.022 A 
BRANCH  86  90
ATOM     90  S   UNL A   1      44.141  27.592  34.814  1.00  0.00     0.124 S 
ATOM     91  O   UNL A   1      42.879  27.329  34.131  1.00  0.00    -0.237 OA
ATOM     92  O   UNL A   1      44.344  26.882  36.075  1.00  0.00    -0.237 OA
ATOM     93  O   UNL A   1      44.535  29.002  34.841  1.00  0.00    -0.744 OA
ENDBRANCH  86  90
ENDBRANCH  60  83
ENDBRANCH  34  35
ENDBRANCH  27  29
ENDBRANCH  26  27
ENDBRANCH  25  26
ENDBRANCH   1  25
TORSDOF 18
ENDMDL
MODEL 2
REMARK VINA RESULT:     -11.6      4.645     10.465
REMARK SMILES O=C(CCc1cn(-c2ccc(Br)cc2)nc1-c1ccccc1)OCCOC(=O)c1ccc(-c2c3nc(c(-c4cc(S(=O)(=O)[O-])ccc4F)c4ccc([nH]4)c(-c4cc(S(=O)(=O)[O-])ccc4F)c4nc(c(-c5cc(S(=O)(=O)[O-])ccc5F)c5ccc2[nH]5)C=C4)C=C3)cc1
REMARK SMILES IDX 24 1 23 2 2 3 1 4 3 5 4 6 5 7 6 8 16 9 7 10 15 11 17 12
REMARK SMILES IDX 18 13 22 14 19 15 21 16 20 17 8 18 9 19 14 20 10 21 13 22
REMARK SMILES IDX 11 23 12 24 25 25 26 26 27 27 28 28 29 29 30 30 91 31 31 32
REMARK SMILES IDX 90 33 32 34 33 35 34 36 84 37 35 38 89 39 83 40 85 41 36 42
REMARK SMILES IDX 88 43 82 44 81 45 37 47 69 48 49 49 68 50 50 51 53 52 67 53
REMARK SMILES IDX 86 54 51 55 52 56 66 58 87 59 54 60 38 61 39 62 47 63 40 64
REMARK SMILES IDX 46 65 48 66 45 67 41 68 42 69 43 70 44 71 70 72 71 73 79 74
REMARK SMILES IDX 72 75 78 76 80 77 77 78 73 79 74 80 75 81 76 82 55 83 56 84
REMARK SMILES IDX 64 85 57 86 63 87 65 88 62 89 58 90 59 91 60 92 61 93
REMARK H PARENT 85 46 53 57
REMARK Flexibility Score: inf
ROOT
ATOM      1  C   UNL A   1      41.500  20.113  27.372  1.00  0.00     0.274 C 
ENDROOT
BRANCH   1   2
ATOM      2  O   UNL A   1      40.208  20.670  27.070  1.00  0.00    -0.462 OA
BRANCH   2   3
ATOM      3  C   UNL A   1      39.438  20.336  26.008  1.00  0.00     0.306 C 
ATOM      4  O   UNL A   1      39.616  19.256  25.442  1.00  0.00    -0.252 OA
BRANCH   3   5
ATOM      5  C   UNL A   1      38.398  21.304  25.484  1.00  0.00     0.127 C 
BRANCH   5   6
ATOM      6  C   UNL A   1      37.238  20.644  24.754  1.00  0.00     0.051 C 
BRANCH   6   7
ATOM      7  C   UNL A   1      35.914  21.217  25.139  1.00  0.00    -0.001 A 
ATOM      8  C   UNL A   1      35.737  22.515  25.564  1.00  0.00     0.119 A 
ATOM      9  C   UNL A   1      34.579  20.692  25.037  1.00  0.00     0.096 A 
ATOM     10  N   UNL A   1      34.391  22.733  25.652  1.00  0.00    -0.240 N 
ATOM     11  N   UNL A   1      33.682  21.604  25.459  1.00  0.00    -0.168 NA
BRANCH   9  12
ATOM     12  C   UNL A   1      34.113  19.417  24.479  1.00  0.00     0.002 A 
ATOM     13  C   UNL A   1      34.941  18.279  24.547  1.00  0.00     0.010 A 
ATOM     14  C   UNL A   1      32.854  19.292  23.881  1.00  0.00     0.010 A 
ATOM     15  C   UNL A   1      34.521  17.050  24.025  1.00  0.00     0.001 A 
ATOM     16  C   UNL A   1      32.436  18.063  23.353  1.00  0.00     0.001 A 
ATOM     17  C   UNL A   1      33.273  16.948  23.416  1.00  0.00     0.000 A 
ENDBRANCH   9  12
BRANCH  10  18
ATOM     18  C   UNL A   1      33.765  23.986  25.822  1.00  0.00     0.065 A 
ATOM     19  C   UNL A   1      34.486  25.162  25.555  1.00  0.00     0.029 A 
ATOM     20  C   UNL A   1      32.438  24.050  26.258  1.00  0.00     0.029 A 
ATOM     21  C   UNL A   1      33.881  26.404  25.747  1.00  0.00     0.018 A 
ATOM     22  C   UNL A   1      31.859  25.297  26.503  1.00  0.00     0.018 A 
ATOM     23  C   UNL A   1      32.580  26.465  26.244  1.00  0.00     0.018 A 
ATOM     24  Br  UNL A   1      31.792  28.151  26.578  1.00  0.00    -0.051 Br
ENDBRANCH  10  18
ENDBRANCH   6   7
ENDBRANCH   5   6
ENDBRANCH   3   5
ENDBRANCH   2   3
ENDBRANCH   1   2
BRANCH   1  25
ATOM     25  C   UNL A   1      42.668  20.856  26.749  1.00  0.00     0.275 C 
BRANCH  25  26
ATOM     26  O   UNL A   1      42.806  22.152  27.310  1.00  0.00    -0.458 OA
BRANCH  26  27
ATOM     27  C   UNL A   1      42.606  23.222  26.505  1.00  0.00     0.338 C 
ATOM     28  O   UNL A   1      42.886  23.316  25.321  1.00  0.00    -0.246 OA
BRANCH  27  29
ATOM     29  C   UNL A   1      42.064  24.294  27.357  1.00  0.00     0.060 A 
ATOM     30  C   UNL A   1      40.902  24.955  26.970  1.00  0.00     0.016 A 
ATOM     31  C   UNL A   1      42.839  24.767  28.421  1.00  0.00     0.016 A 
ATOM     32  C   UNL A   1      40.664  26.217  27.494  1.00  0.00     0.010 A 
ATOM     33  C   UNL A   1      42.632  26.033  28.904  1.00  0.00     0.010 A 
ATOM     34  C   UNL A   1      41.600  26.783  28.370  1.00  0.00    -0.014 A 
BRANCH  34  35
ATOM     35  C   UNL A   1      41.422  28.125  28.886  1.00  0.00     0.031 A 
ATOM     36  C   UNL A   1      42.372  29.070  28.262  1.00  0.00     0.074 A 
ATOM     37  C   UNL A   1      40.420  28.492  29.712  1.00  0.00     0.049 A 
ATOM     38  N   UNL A   1      43.483  29.476  28.775  1.00  0.00    -0.248 NA
ATOM     39  C   UNL A   1      42.226  29.398  26.832  1.00  0.00     0.031 C 
ATOM     40  C   UNL A   1      39.275  27.703  30.174  1.00  0.00     0.029 A 
ATOM     41  N   UNL A   1      40.188  29.706  30.286  1.00  0.00    -0.354 N 
ATOM     42  C   UNL A   1      44.013  30.360  27.849  1.00  0.00     0.074 A 
ATOM     43  C   UNL A   1      43.365  30.056  26.604  1.00  0.00     0.031 C 
ATOM     44  C   UNL A   1      38.377  28.516  30.784  1.00  0.00     0.029 A 
ATOM     45  C   UNL A   1      38.932  29.860  30.879  1.00  0.00     0.049 A 
ATOM     46  H   UNL A   1      40.859  30.427  30.281  1.00  0.00     0.167 HD
ATOM     47  C   UNL A   1      44.693  31.460  28.272  1.00  0.00     0.034 A 
ATOM     48  C   UNL A   1      38.395  31.009  31.390  1.00  0.00     0.034 A 
ATOM     49  C   UNL A   1      45.050  31.328  29.672  1.00  0.00     0.049 A 
ATOM     50  C   UNL A   1      39.542  31.902  31.702  1.00  0.00     0.074 A 
ATOM     51  C   UNL A   1      45.774  30.406  30.403  1.00  0.00     0.029 A 
ATOM     52  N   UNL A   1      44.280  32.009  30.592  1.00  0.00    -0.354 N 
ATOM     53  N   UNL A   1      40.418  31.628  32.630  1.00  0.00    -0.248 NA
ATOM     54  C   UNL A   1      40.017  32.787  30.646  1.00  0.00     0.031 C 
ATOM     55  C   UNL A   1      45.043  30.243  31.617  1.00  0.00     0.029 A 
ATOM     56  C   UNL A   1      43.979  31.147  31.618  1.00  0.00     0.049 A 
ATOM     57  H   UNL A   1      43.997  32.949  30.526  1.00  0.00     0.167 HD
ATOM     58  C   UNL A   1      41.649  31.913  32.057  1.00  0.00     0.074 A 
ATOM     59  C   UNL A   1      41.334  32.698  30.860  1.00  0.00     0.031 C 
ATOM     60  C   UNL A   1      42.778  31.240  32.430  1.00  0.00     0.034 A 
BRANCH  47  61
ATOM     61  C   UNL A   1      44.659  32.806  27.583  1.00  0.00     0.023 A 
ATOM     62  C   UNL A   1      43.965  33.831  28.253  1.00  0.00     0.031 A 
ATOM     63  C   UNL A   1      44.980  33.066  26.231  1.00  0.00     0.131 A 
ATOM     64  C   UNL A   1      43.511  34.965  27.562  1.00  0.00     0.055 A 
ATOM     65  C   UNL A   1      44.586  34.229  25.567  1.00  0.00     0.041 A 
ATOM     66  F   UNL A   1      45.610  32.185  25.446  1.00  0.00    -0.206 F 
ATOM     67  C   UNL A   1      43.814  35.172  26.221  1.00  0.00     0.022 A 
BRANCH  64  68
ATOM     68  S   UNL A   1      42.354  36.067  28.410  1.00  0.00     0.124 S 
ATOM     69  O   UNL A   1      42.367  37.231  27.530  1.00  0.00    -0.237 OA
ATOM     70  O   UNL A   1      41.131  35.272  28.413  1.00  0.00    -0.237 OA
ATOM     71  O   UNL A   1      42.974  36.263  29.718  1.00  0.00    -0.744 OA
ENDBRANCH  64  68
ENDBRANCH  47  61
BRANCH  48  72
ATOM     72  C   UNL A   1      36.984  31.510  31.274  1.00  0.00     0.023 A 
ATOM     73  C   UNL A   1      36.277  32.149  32.326  1.00  0.00     0.031 A 
ATOM     74  C   UNL A   1      36.397  31.596  29.992  1.00  0.00     0.131 A 
ATOM     75  C   UNL A   1      35.055  32.829  32.068  1.00  0.00     0.055 A 
ATOM     76  C   UNL A   1      35.200  32.274  29.743  1.00  0.00     0.041 A 
ATOM     77  F   UNL A   1      37.015  31.097  28.911  1.00  0.00    -0.206 F 
ATOM     78  C   UNL A   1      34.528  32.902  30.777  1.00  0.00     0.022 A 
BRANCH  75  79
ATOM     79  S   UNL A   1      34.145  33.707  33.393  1.00  0.00     0.124 S 
ATOM     80  O   UNL A   1      34.136  35.082  32.909  1.00  0.00    -0.237 OA
ATOM     81  O   UNL A   1      32.863  33.013  33.410  1.00  0.00    -0.237 OA
ATOM     82  O   UNL A   1      34.971  33.485  34.582  1.00  0.00    -0.744 OA
ENDBRANCH  75  79
ENDBRANCH  48  72
BRANCH  60  83
ATOM     83  C   UNL A   1      42.734  30.396  33.692  1.00  0.00     0.023 A 
ATOM     84  C   UNL A   1      42.238  29.074  33.788  1.00  0.00     0.031 A 
ATOM     85  C   UNL A   1      43.342  30.946  34.836  1.00  0.00     0.131 A 
ATOM     86  C   UNL A   1      42.353  28.366  35.003  1.00  0.00     0.055 A 
ATOM     87  C   UNL A   1      43.476  30.233  36.025  1.00  0.00     0.041 A 
ATOM     88  F   UNL A   1      43.849  32.189  34.805  1.00  0.00    -0.206 F 
ATOM     89  C   UNL A   1      42.977  28.941  36.116  1.00  0.00     0.022 A 
BRANCH  86  90
ATOM     90  S   UNL A   1      41.666  26.684  35.180  1.00  0.00     0.124 S 
ATOM     91  O   UNL A   1      42.775  25.820  34.793  1.00  0.00    -0.237 OA
ATOM     92  O   UNL A   1      41.287  26.644  36.591  1.00  0.00    -0.237 OA
ATOM     93  O   UNL A   1      40.536  26.678  34.248  1.00  0.00    -0.744 OA
ENDBRANCH  86  90
ENDBRANCH  60  83
ENDBRANCH  34  35
ENDBRANCH  27  29
ENDBRANCH  26  27
ENDBRANCH  25  26
ENDBRANCH   1  25
TORSDOF 18
ENDMDL
MODEL 3
REMARK VINA RESULT:     -11.6      2.537      4.493
REMARK SMILES O=C(CCc1cn(-c2ccc(Br)cc2)nc1-c1ccccc1)OCCOC(=O)c1ccc(-c2c3nc(c(-c4cc(S(=O)(=O)[O-])ccc4F)c4ccc([nH]4)c(-c4cc(S(=O)(=O)[O-])ccc4F)c4nc(c(-c5cc(S(=O)(=O)[O-])ccc5F)c5ccc2[nH]5)C=C4)C=C3)cc1
REMARK SMILES IDX 24 1 23 2 2 3 1 4 3 5 4 6 5 7 6 8 16 9 7 10 15 11 17 12
REMARK SMILES IDX 18 13 22 14 19 15 21 16 20 17 8 18 9 19 14 20 10 21 13 22
REMARK SMILES IDX 11 23 12 24 25 25 26 26 27 27 28 28 29 29 30 30 91 31 31 32
REMARK SMILES IDX 90 33 32 34 33 35 34 36 84 37 35 38 89 39 83 40 85 41 36 42
REMARK SMILES IDX 88 43 82 44 81 45 37 47 69 48 49 49 68 50 50 51 53 52 67 53
REMARK SMILES IDX 86 54 51 55 52 56 66 58 87 59 54 60 38 61 39 62 47 63 40 64
REMARK SMILES IDX 46 65 48 66 45 67 41 68 42 69 43 70 44 71 70 72 71 73 79 74
REMARK SMILES IDX 72 75 78 76 80 77 77 78 73 79 74 80 75 81 76 82 55 83 56 84
REMARK SMILES IDX 64 85 57 86 63 87 65 88 62 89 58 90 59 91 60 92 61 93
REMARK H PARENT 85 46 53 57
REMARK Flexibility Score: inf
ROOT
ATOM      1  C   UNL A   1      34.664  31.151  27.537  1.00  0.00     0.274 C 
ENDROOT
BRANCH   1   2
ATOM      2  O   UNL A   1      33.251  31.418  27.597  1.00  0.00    -0.462 OA
BRANCH   2   3
ATOM      3  C   UNL A   1      32.338  31.025  26.677  1.00  0.00     0.306 C 
ATOM      4  O   UNL A   1      31.314  31.690  26.512  1.00  0.00    -0.252 OA
BRANCH   3   5
ATOM      5  C   UNL A   1      32.546  29.747  25.892  1.00  0.00     0.127 C 
BRANCH   5   6
ATOM      6  C   UNL A   1      31.721  28.567  26.384  1.00  0.00     0.051 C 
BRANCH   6   7
ATOM      7  C   UNL A   1      31.609  27.478  25.369  1.00  0.00    -0.001 A 
ATOM      8  C   UNL A   1      32.267  26.273  25.465  1.00  0.00     0.119 A 
ATOM      9  C   UNL A   1      30.760  27.329  24.217  1.00  0.00     0.096 A 
ATOM     10  N   UNL A   1      31.792  25.470  24.466  1.00  0.00    -0.240 N 
ATOM     11  N   UNL A   1      30.974  26.136  23.628  1.00  0.00    -0.168 NA
BRANCH   9  12
ATOM     12  C   UNL A   1      29.703  28.212  23.709  1.00  0.00     0.002 A 
ATOM     13  C   UNL A   1      30.001  29.554  23.404  1.00  0.00     0.010 A 
ATOM     14  C   UNL A   1      28.395  27.756  23.511  1.00  0.00     0.010 A 
ATOM     15  C   UNL A   1      29.014  30.418  22.916  1.00  0.00     0.001 A 
ATOM     16  C   UNL A   1      27.406  28.622  23.028  1.00  0.00     0.001 A 
ATOM     17  C   UNL A   1      27.713  29.953  22.742  1.00  0.00     0.000 A 
ENDBRANCH   9  12
BRANCH  10  18
ATOM     18  C   UNL A   1      32.018  24.083  24.341  1.00  0.00     0.065 A 
ATOM     19  C   UNL A   1      32.102  23.508  23.063  1.00  0.00     0.029 A 
ATOM     20  C   UNL A   1      32.148  23.292  25.487  1.00  0.00     0.029 A 
ATOM     21  C   UNL A   1      32.298  22.133  22.934  1.00  0.00     0.018 A 
ATOM     22  C   UNL A   1      32.286  21.908  25.350  1.00  0.00     0.018 A 
ATOM     23  C   UNL A   1      32.362  21.337  24.077  1.00  0.00     0.018 A 
ATOM     24  Br  UNL A   1      32.548  19.465  23.897  1.00  0.00    -0.051 Br
ENDBRANCH  10  18
ENDBRANCH   6   7
ENDBRANCH   5   6
ENDBRANCH   3   5
ENDBRANCH   2   3
ENDBRANCH   1   2
BRANCH   1  25
ATOM     25  C   UNL A   1      35.329  30.976  28.891  1.00  0.00     0.275 C 
BRANCH  25  26
ATOM     26  O   UNL A   1      35.869  29.671  29.029  1.00  0.00    -0.458 OA
BRANCH  26  27
ATOM     27  C   UNL A   1      36.703  29.432  30.069  1.00  0.00     0.338 C 
ATOM     28  O   UNL A   1      36.580  29.824  31.219  1.00  0.00    -0.246 OA
BRANCH  27  29
ATOM     29  C   UNL A   1      37.846  28.679  29.527  1.00  0.00     0.060 A 
ATOM     30  C   UNL A   1      38.495  27.746  30.329  1.00  0.00     0.016 A 
ATOM     31  C   UNL A   1      38.387  29.067  28.296  1.00  0.00     0.016 A 
ATOM     32  C   UNL A   1      39.797  27.397  30.004  1.00  0.00     0.010 A 
ATOM     33  C   UNL A   1      39.689  28.762  27.998  1.00  0.00     0.010 A 
ATOM     34  C   UNL A   1      40.413  28.004  28.901  1.00  0.00    -0.014 A 
BRANCH  34  35
ATOM     35  C   UNL A   1      41.794  27.718  28.568  1.00  0.00     0.031 A 
ATOM     36  C   UNL A   1      41.913  26.453  27.813  1.00  0.00     0.074 A 
ATOM     37  C   UNL A   1      42.817  28.571  28.783  1.00  0.00     0.049 A 
ATOM     38  N   UNL A   1      42.236  25.306  28.304  1.00  0.00    -0.248 NA
ATOM     39  C   UNL A   1      41.368  26.377  26.445  1.00  0.00     0.031 C 
ATOM     40  C   UNL A   1      42.775  29.951  29.273  1.00  0.00     0.029 A 
ATOM     41  N   UNL A   1      44.147  28.385  28.548  1.00  0.00    -0.354 N 
ATOM     42  C   UNL A   1      42.241  24.434  27.228  1.00  0.00     0.074 A 
ATOM     43  C   UNL A   1      41.448  25.065  26.211  1.00  0.00     0.031 C 
ATOM     44  C   UNL A   1      43.990  30.532  29.106  1.00  0.00     0.029 A 
ATOM     45  C   UNL A   1      44.936  29.536  28.621  1.00  0.00     0.049 A 
ATOM     46  H   UNL A   1      44.526  27.501  28.340  1.00  0.00     0.167 HD
ATOM     47  C   UNL A   1      43.158  23.431  27.169  1.00  0.00     0.034 A 
ATOM     48  C   UNL A   1      46.258  29.655  28.291  1.00  0.00     0.034 A 
ATOM     49  C   UNL A   1      43.781  23.237  28.465  1.00  0.00     0.049 A 
ATOM     50  C   UNL A   1      46.831  28.285  28.373  1.00  0.00     0.074 A 
ATOM     51  C   UNL A   1      43.310  22.944  29.730  1.00  0.00     0.029 A 
ATOM     52  N   UNL A   1      45.041  23.766  28.652  1.00  0.00    -0.354 N 
ATOM     53  N   UNL A   1      46.935  27.628  29.496  1.00  0.00    -0.248 NA
ATOM     54  C   UNL A   1      46.774  27.455  27.176  1.00  0.00     0.031 C 
ATOM     55  C   UNL A   1      44.082  23.761  30.609  1.00  0.00     0.029 A 
ATOM     56  C   UNL A   1      45.054  24.424  29.858  1.00  0.00     0.049 A 
ATOM     57  H   UNL A   1      45.800  23.686  28.030  1.00  0.00     0.167 HD
ATOM     58  C   UNL A   1      46.502  26.343  29.203  1.00  0.00     0.074 A 
ATOM     59  C   UNL A   1      46.490  26.276  27.739  1.00  0.00     0.031 C 
ATOM     60  C   UNL A   1      45.909  25.561  30.153  1.00  0.00     0.034 A 
BRANCH  47  61
ATOM     61  C   UNL A   1      43.803  22.932  25.894  1.00  0.00     0.023 A 
ATOM     62  C   UNL A   1      43.832  21.536  25.716  1.00  0.00     0.031 A 
ATOM     63  C   UNL A   1      44.629  23.678  25.024  1.00  0.00     0.131 A 
ATOM     64  C   UNL A   1      44.737  20.943  24.823  1.00  0.00     0.055 A 
ATOM     65  C   UNL A   1      45.476  23.084  24.086  1.00  0.00     0.041 A 
ATOM     66  F   UNL A   1      44.739  25.009  25.081  1.00  0.00    -0.206 F 
ATOM     67  C   UNL A   1      45.563  21.706  24.006  1.00  0.00     0.022 A 
BRANCH  64  68
ATOM     68  S   UNL A   1      44.941  19.146  24.893  1.00  0.00     0.124 S 
ATOM     69  O   UNL A   1      46.206  19.028  25.608  1.00  0.00    -0.237 OA
ATOM     70  O   UNL A   1      43.746  18.738  25.622  1.00  0.00    -0.237 OA
ATOM     71  O   UNL A   1      44.977  18.757  23.486  1.00  0.00    -0.744 OA
ENDBRANCH  64  68
ENDBRANCH  47  61
BRANCH  48  72
ATOM     72  C   UNL A   1      46.941  30.778  27.566  1.00  0.00     0.023 A 
ATOM     73  C   UNL A   1      46.255  31.843  26.924  1.00  0.00     0.031 A 
ATOM     74  C   UNL A   1      48.333  30.949  27.734  1.00  0.00     0.131 A 
ATOM     75  C   UNL A   1      46.961  33.000  26.491  1.00  0.00     0.055 A 
ATOM     76  C   UNL A   1      49.018  32.093  27.315  1.00  0.00     0.041 A 
ATOM     77  F   UNL A   1      49.068  30.044  28.396  1.00  0.00    -0.206 F 
ATOM     78  C   UNL A   1      48.335  33.128  26.701  1.00  0.00     0.022 A 
BRANCH  75  79
ATOM     79  S   UNL A   1      46.099  34.413  25.707  1.00  0.00     0.124 S 
ATOM     80  O   UNL A   1      47.170  35.054  24.954  1.00  0.00    -0.237 OA
ATOM     81  O   UNL A   1      45.058  33.755  24.926  1.00  0.00    -0.237 OA
ATOM     82  O   UNL A   1      45.604  35.189  26.845  1.00  0.00    -0.744 OA
ENDBRANCH  75  79
ENDBRANCH  48  72
BRANCH  60  83
ATOM     83  C   UNL A   1      46.006  25.988  31.608  1.00  0.00     0.023 A 
ATOM     84  C   UNL A   1      44.948  26.505  32.392  1.00  0.00     0.031 A 
ATOM     85  C   UNL A   1      47.232  25.743  32.253  1.00  0.00     0.131 A 
ATOM     86  C   UNL A   1      45.150  26.766  33.764  1.00  0.00     0.055 A 
ATOM     87  C   UNL A   1      47.419  25.976  33.613  1.00  0.00     0.041 A 
ATOM     88  F   UNL A   1      48.271  25.235  31.569  1.00  0.00    -0.206 F 
ATOM     89  C   UNL A   1      46.380  26.495  34.374  1.00  0.00     0.022 A 
BRANCH  86  90
ATOM     90  S   UNL A   1      43.827  27.492  34.789  1.00  0.00     0.124 S 
ATOM     91  O   UNL A   1      44.252  28.876  34.964  1.00  0.00    -0.237 OA
ATOM     92  O   UNL A   1      42.639  27.289  33.963  1.00  0.00    -0.237 OA
ATOM     93  O   UNL A   1      43.861  26.686  36.011  1.00  0.00    -0.744 OA
ENDBRANCH  86  90
ENDBRANCH  60  83
ENDBRANCH  34  35
ENDBRANCH  27  29
ENDBRANCH  26  27
ENDBRANCH  25  26
ENDBRANCH   1  25
TORSDOF 18
ENDMDL
