MODEL 1
REMARK VINA RESULT:     -12.6      0.000      0.000
REMARK SMILES O=C(COc1ccc2c(=O)c(-c3ccc4c(c3)OCCO4)coc2c1)OCCOC(=O)c1ccc(-c2c3nc(c(-c4cc(S(=O)(=O)[O-])ccc4F)c4ccc([nH]4)c(-c4cc(S(=O)(=O)[O-])ccc4F)c4nc(c(-c5cc(S(=O)(=O)[O-])ccc5F)c5ccc2[nH]5)C=C4)C=C3)cc1
REMARK SMILES IDX 27 1 26 2 2 3 1 4 3 5 4 6 5 7 6 8 25 9 7 10 24 11 8 12 23 13
REMARK SMILES IDX 9 14 22 15 10 16 11 17 12 18 13 19 17 20 14 21 16 22 15 23
REMARK SMILES IDX 18 24 21 25 19 26 20 27 28 28 29 29 30 30 31 31 32 32 33 33
REMARK SMILES IDX 94 34 34 35 93 36 35 37 36 38 37 39 87 40 38 41 92 42 86 43
REMARK SMILES IDX 88 44 39 45 91 46 85 47 84 48 40 50 72 51 52 52 71 53 53 54
REMARK SMILES IDX 56 55 70 56 89 57 54 58 55 59 69 61 90 62 57 63 41 64 42 65
REMARK SMILES IDX 50 66 43 67 49 68 51 69 48 70 44 71 45 72 46 73 47 74 73 75
REMARK SMILES IDX 74 76 82 77 75 78 81 79 83 80 80 81 76 82 77 83 78 84 79 85
REMARK SMILES IDX 58 86 59 87 67 88 60 89 66 90 68 91 65 92 61 93 62 94 63 95
REMARK SMILES IDX 64 96
REMARK H PARENT 88 49 56 60
REMARK Flexibility Score: inf
ROOT
ATOM      1  C   UNL A   1      44.683  20.059  25.228  1.00  0.00     0.274 C 
ENDROOT
BRANCH   1   2
ATOM      2  O   UNL A   1      43.245  19.953  25.235  1.00  0.00    -0.460 OA
BRANCH   2   3
ATOM      3  C   UNL A   1      42.572  18.973  25.888  1.00  0.00     0.344 C 
ATOM      4  O   UNL A   1      43.104  17.884  26.087  1.00  0.00    -0.248 OA
BRANCH   3   5
ATOM      5  C   UNL A   1      41.186  19.292  26.437  1.00  0.00     0.351 C 
BRANCH   5   6
ATOM      6  O   UNL A   1      40.132  19.111  25.491  1.00  0.00    -0.482 OA
BRANCH   6   7
ATOM      7  C   UNL A   1      39.270  20.171  25.547  1.00  0.00     0.123 A 
ATOM      8  C   UNL A   1      39.690  21.397  26.067  1.00  0.00     0.047 A 
ATOM      9  C   UNL A   1      37.975  19.998  25.063  1.00  0.00     0.094 A 
ATOM     10  C   UNL A   1      38.785  22.445  26.166  1.00  0.00     0.020 A 
ATOM     11  C   UNL A   1      37.073  21.055  25.145  1.00  0.00     0.141 A 
ATOM     12  C   UNL A   1      37.478  22.266  25.704  1.00  0.00     0.066 A 
ATOM     13  O   UNL A   1      35.806  20.850  24.663  1.00  0.00    -0.463 OA
ATOM     14  C   UNL A   1      36.524  23.375  25.776  1.00  0.00     0.200 A 
ATOM     15  C   UNL A   1      34.948  21.927  24.650  1.00  0.00     0.208 A 
ATOM     16  O   UNL A   1      36.838  24.436  26.307  1.00  0.00    -0.288 OA
ATOM     17  C   UNL A   1      35.199  23.150  25.141  1.00  0.00     0.065 A 
BRANCH  17  18
ATOM     18  C   UNL A   1      34.248  24.258  24.995  1.00  0.00    -0.007 A 
ATOM     19  C   UNL A   1      33.417  24.665  26.047  1.00  0.00     0.013 A 
ATOM     20  C   UNL A   1      34.218  24.962  23.783  1.00  0.00     0.059 A 
ATOM     21  C   UNL A   1      32.579  25.774  25.891  1.00  0.00     0.051 A 
ATOM     22  C   UNL A   1      33.398  26.075  23.637  1.00  0.00     0.161 A 
ATOM     23  C   UNL A   1      32.565  26.475  24.685  1.00  0.00     0.161 A 
ATOM     24  O   UNL A   1      33.471  26.733  22.435  1.00  0.00    -0.486 OA
ATOM     25  O   UNL A   1      31.729  27.558  24.606  1.00  0.00    -0.486 OA
ATOM     26  C   UNL A   1      32.937  28.055  22.552  1.00  0.00     0.271 C 
ATOM     27  C   UNL A   1      31.591  28.016  23.256  1.00  0.00     0.271 C 
ENDBRANCH  17  18
ENDBRANCH   6   7
ENDBRANCH   5   6
ENDBRANCH   3   5
ENDBRANCH   2   3
ENDBRANCH   1   2
BRANCH   1  28
ATOM     28  C   UNL A   1      45.117  21.521  25.351  1.00  0.00     0.275 C 
BRANCH  28  29
ATOM     29  O   UNL A   1      44.082  22.285  25.997  1.00  0.00    -0.458 OA
BRANCH  29  30
ATOM     30  C   UNL A   1      43.481  23.239  25.238  1.00  0.00     0.338 C 
ATOM     31  O   UNL A   1      43.232  23.168  24.049  1.00  0.00    -0.246 OA
BRANCH  30  32
ATOM     32  C   UNL A   1      42.976  24.299  26.141  1.00  0.00     0.060 A 
ATOM     33  C   UNL A   1      43.478  25.599  25.997  1.00  0.00     0.016 A 
ATOM     34  C   UNL A   1      41.991  24.027  27.094  1.00  0.00     0.016 A 
ATOM     35  C   UNL A   1      43.010  26.627  26.823  1.00  0.00     0.010 A 
ATOM     36  C   UNL A   1      41.533  25.051  27.925  1.00  0.00     0.010 A 
ATOM     37  C   UNL A   1      42.056  26.350  27.810  1.00  0.00    -0.014 A 
BRANCH  37  38
ATOM     38  C   UNL A   1      41.723  27.351  28.854  1.00  0.00     0.031 A 
ATOM     39  C   UNL A   1      42.481  27.302  30.150  1.00  0.00     0.074 A 
ATOM     40  C   UNL A   1      40.727  28.237  28.686  1.00  0.00     0.049 A 
ATOM     41  N   UNL A   1      42.286  27.970  31.256  1.00  0.00    -0.248 NA
ATOM     42  C   UNL A   1      43.600  26.348  30.206  1.00  0.00     0.031 C 
ATOM     43  C   UNL A   1      39.931  28.395  27.471  1.00  0.00     0.029 A 
ATOM     44  N   UNL A   1      40.192  29.152  29.560  1.00  0.00    -0.354 N 
ATOM     45  C   UNL A   1      43.255  27.516  32.145  1.00  0.00     0.074 A 
ATOM     46  C   UNL A   1      44.008  26.489  31.456  1.00  0.00     0.031 C 
ATOM     47  C   UNL A   1      38.982  29.323  27.689  1.00  0.00     0.029 A 
ATOM     48  C   UNL A   1      39.084  29.800  29.069  1.00  0.00     0.049 A 
ATOM     49  H   UNL A   1      40.568  29.327  30.452  1.00  0.00     0.167 HD
ATOM     50  C   UNL A   1      43.498  27.922  33.415  1.00  0.00     0.034 A 
ATOM     51  C   UNL A   1      38.227  30.647  29.676  1.00  0.00     0.034 A 
ATOM     52  C   UNL A   1      42.723  28.928  34.097  1.00  0.00     0.049 A 
ATOM     53  C   UNL A   1      38.460  31.029  31.118  1.00  0.00     0.074 A 
ATOM     54  C   UNL A   1      42.902  29.439  35.370  1.00  0.00     0.029 A 
ATOM     55  N   UNL A   1      41.601  29.557  33.571  1.00  0.00    -0.354 N 
ATOM     56  N   UNL A   1      39.403  30.625  31.939  1.00  0.00    -0.248 NA
ATOM     57  C   UNL A   1      37.517  31.985  31.717  1.00  0.00     0.031 C 
ATOM     58  C   UNL A   1      41.850  30.322  35.639  1.00  0.00     0.029 A 
ATOM     59  C   UNL A   1      41.056  30.420  34.508  1.00  0.00     0.049 A 
ATOM     60  H   UNL A   1      41.247  29.410  32.664  1.00  0.00     0.167 HD
ATOM     61  C   UNL A   1      39.181  31.299  33.138  1.00  0.00     0.074 A 
ATOM     62  C   UNL A   1      38.017  32.134  32.936  1.00  0.00     0.031 C 
ATOM     63  C   UNL A   1      39.886  31.240  34.297  1.00  0.00     0.034 A 
BRANCH  50  64
ATOM     64  C   UNL A   1      44.612  27.224  34.154  1.00  0.00     0.023 A 
ATOM     65  C   UNL A   1      44.380  26.055  34.903  1.00  0.00     0.031 A 
ATOM     66  C   UNL A   1      45.906  27.769  34.167  1.00  0.00     0.131 A 
ATOM     67  C   UNL A   1      45.403  25.524  35.702  1.00  0.00     0.055 A 
ATOM     68  C   UNL A   1      46.943  27.186  34.899  1.00  0.00     0.041 A 
ATOM     69  F   UNL A   1      46.180  28.896  33.491  1.00  0.00    -0.206 F 
ATOM     70  C   UNL A   1      46.689  26.068  35.687  1.00  0.00     0.022 A 
BRANCH  67  71
ATOM     71  S   UNL A   1      44.981  24.221  36.891  1.00  0.00     0.124 S 
ATOM     72  O   UNL A   1      44.369  23.217  36.024  1.00  0.00    -0.237 OA
ATOM     73  O   UNL A   1      46.282  23.875  37.453  1.00  0.00    -0.237 OA
ATOM     74  O   UNL A   1      44.058  24.882  37.811  1.00  0.00    -0.744 OA
ENDBRANCH  67  71
ENDBRANCH  50  64
BRANCH  51  75
ATOM     75  C   UNL A   1      37.027  31.146  28.946  1.00  0.00     0.023 A 
ATOM     76  C   UNL A   1      36.018  30.273  28.514  1.00  0.00     0.031 A 
ATOM     77  C   UNL A   1      36.897  32.513  28.639  1.00  0.00     0.131 A 
ATOM     78  C   UNL A   1      34.938  30.771  27.766  1.00  0.00     0.055 A 
ATOM     79  C   UNL A   1      35.800  33.009  27.932  1.00  0.00     0.041 A 
ATOM     80  F   UNL A   1      37.833  33.389  29.033  1.00  0.00    -0.206 F 
ATOM     81  C   UNL A   1      34.818  32.134  27.482  1.00  0.00     0.022 A 
BRANCH  78  82
ATOM     82  S   UNL A   1      33.714  29.601  27.115  1.00  0.00     0.124 S 
ATOM     83  O   UNL A   1      34.035  29.597  25.692  1.00  0.00    -0.237 OA
ATOM     84  O   UNL A   1      34.040  28.383  27.851  1.00  0.00    -0.237 OA
ATOM     85  O   UNL A   1      32.436  30.214  27.467  1.00  0.00    -0.744 OA
ENDBRANCH  78  82
ENDBRANCH  51  75
BRANCH  63  86
ATOM     86  C   UNL A   1      39.448  32.143  35.425  1.00  0.00     0.023 A 
ATOM     87  C   UNL A   1      39.875  33.477  35.520  1.00  0.00     0.031 A 
ATOM     88  C   UNL A   1      38.558  31.660  36.401  1.00  0.00     0.131 A 
ATOM     89  C   UNL A   1      39.435  34.276  36.587  1.00  0.00     0.055 A 
ATOM     90  C   UNL A   1      38.087  32.472  37.433  1.00  0.00     0.041 A 
ATOM     91  F   UNL A   1      38.118  30.391  36.356  1.00  0.00    -0.206 F 
ATOM     92  C   UNL A   1      38.531  33.787  37.535  1.00  0.00     0.022 A 
BRANCH  89  93
ATOM     93  S   UNL A   1      40.093  35.959  36.753  1.00  0.00     0.124 S 
ATOM     94  O   UNL A   1      41.525  35.713  36.887  1.00  0.00    -0.237 OA
ATOM     95  O   UNL A   1      39.667  36.587  35.506  1.00  0.00    -0.237 OA
ATOM     96  O   UNL A   1      39.436  36.468  37.956  1.00  0.00    -0.744 OA
ENDBRANCH  89  93
ENDBRANCH  63  86
ENDBRANCH  37  38
ENDBRANCH  30  32
ENDBRANCH  29  30
ENDBRANCH  28  29
ENDBRANCH   1  28
TORSDOF 17
ENDMDL
MODEL 2
REMARK VINA RESULT:     -12.0      2.065      2.296
REMARK SMILES O=C(COc1ccc2c(=O)c(-c3ccc4c(c3)OCCO4)coc2c1)OCCOC(=O)c1ccc(-c2c3nc(c(-c4cc(S(=O)(=O)[O-])ccc4F)c4ccc([nH]4)c(-c4cc(S(=O)(=O)[O-])ccc4F)c4nc(c(-c5cc(S(=O)(=O)[O-])ccc5F)c5ccc2[nH]5)C=C4)C=C3)cc1
REMARK SMILES IDX 27 1 26 2 2 3 1 4 3 5 4 6 5 7 6 8 25 9 7 10 24 11 8 12 23 13
REMARK SMILES IDX 9 14 22 15 10 16 11 17 12 18 13 19 17 20 14 21 16 22 15 23
REMARK SMILES IDX 18 24 21 25 19 26 20 27 28 28 29 29 30 30 31 31 32 32 33 33
REMARK SMILES IDX 94 34 34 35 93 36 35 37 36 38 37 39 87 40 38 41 92 42 86 43
REMARK SMILES IDX 88 44 39 45 91 46 85 47 84 48 40 50 72 51 52 52 71 53 53 54
REMARK SMILES IDX 56 55 70 56 89 57 54 58 55 59 69 61 90 62 57 63 41 64 42 65
REMARK SMILES IDX 50 66 43 67 49 68 51 69 48 70 44 71 45 72 46 73 47 74 73 75
REMARK SMILES IDX 74 76 82 77 75 78 81 79 83 80 80 81 76 82 77 83 78 84 79 85
REMARK SMILES IDX 58 86 59 87 67 88 60 89 66 90 68 91 65 92 61 93 62 94 63 95
REMARK SMILES IDX 64 96
REMARK H PARENT 88 49 56 60
REMARK Flexibility Score: inf
ROOT
ATOM      1  C   UNL A   1      45.050  20.987  25.302  1.00  0.00     0.274 C 
ENDROOT
BRANCH   1   2
ATOM      2  O   UNL A   1      44.797  19.661  25.810  1.00  0.00    -0.460 OA
BRANCH   2   3
ATOM      3  C   UNL A   1      43.671  18.958  25.536  1.00  0.00     0.344 C 
ATOM      4  O   UNL A   1      43.669  18.116  24.641  1.00  0.00    -0.248 OA
BRANCH   3   5
ATOM      5  C   UNL A   1      42.447  19.181  26.418  1.00  0.00     0.351 C 
BRANCH   5   6
ATOM      6  O   UNL A   1      41.223  18.732  25.838  1.00  0.00    -0.482 OA
BRANCH   6   7
ATOM      7  C   UNL A   1      40.320  19.758  25.807  1.00  0.00     0.123 A 
ATOM      8  C   UNL A   1      40.692  21.041  26.213  1.00  0.00     0.047 A 
ATOM      9  C   UNL A   1      39.030  19.491  25.351  1.00  0.00     0.094 A 
ATOM     10  C   UNL A   1      39.746  22.056  26.227  1.00  0.00     0.020 A 
ATOM     11  C   UNL A   1      38.087  20.515  25.347  1.00  0.00     0.141 A 
ATOM     12  C   UNL A   1      38.446  21.786  25.794  1.00  0.00     0.066 A 
ATOM     13  O   UNL A   1      36.827  20.218  24.896  1.00  0.00    -0.463 OA
ATOM     14  C   UNL A   1      37.447  22.858  25.776  1.00  0.00     0.200 A 
ATOM     15  C   UNL A   1      35.926  21.254  24.795  1.00  0.00     0.208 A 
ATOM     16  O   UNL A   1      37.721  23.973  26.209  1.00  0.00    -0.288 OA
ATOM     17  C   UNL A   1      36.129  22.525  25.174  1.00  0.00     0.065 A 
BRANCH  17  18
ATOM     18  C   UNL A   1      35.134  23.577  24.940  1.00  0.00    -0.007 A 
ATOM     19  C   UNL A   1      34.423  24.173  25.990  1.00  0.00     0.013 A 
ATOM     20  C   UNL A   1      34.937  24.035  23.629  1.00  0.00     0.059 A 
ATOM     21  C   UNL A   1      33.538  25.224  25.730  1.00  0.00     0.051 A 
ATOM     22  C   UNL A   1      34.071  25.093  23.377  1.00  0.00     0.161 A 
ATOM     23  C   UNL A   1      33.358  25.680  24.425  1.00  0.00     0.161 A 
ATOM     24  O   UNL A   1      33.978  25.508  22.072  1.00  0.00    -0.486 OA
ATOM     25  O   UNL A   1      32.485  26.722  24.245  1.00  0.00    -0.486 OA
ATOM     26  C   UNL A   1      33.422  26.823  22.001  1.00  0.00     0.271 C 
ATOM     27  C   UNL A   1      32.172  26.910  22.860  1.00  0.00     0.271 C 
ENDBRANCH  17  18
ENDBRANCH   6   7
ENDBRANCH   5   6
ENDBRANCH   3   5
ENDBRANCH   2   3
ENDBRANCH   1   2
BRANCH   1  28
ATOM     28  C   UNL A   1      44.505  22.046  26.261  1.00  0.00     0.275 C 
BRANCH  28  29
ATOM     29  O   UNL A   1      44.761  23.361  25.735  1.00  0.00    -0.458 OA
BRANCH  29  30
ATOM     30  C   UNL A   1      43.718  23.969  25.112  1.00  0.00     0.338 C 
ATOM     31  O   UNL A   1      43.224  23.650  24.046  1.00  0.00    -0.246 OA
BRANCH  30  32
ATOM     32  C   UNL A   1      43.132  24.957  26.047  1.00  0.00     0.060 A 
ATOM     33  C   UNL A   1      43.787  26.183  26.227  1.00  0.00     0.016 A 
ATOM     34  C   UNL A   1      41.931  24.697  26.713  1.00  0.00     0.016 A 
ATOM     35  C   UNL A   1      43.251  27.144  27.090  1.00  0.00     0.010 A 
ATOM     36  C   UNL A   1      41.403  25.653  27.582  1.00  0.00     0.010 A 
ATOM     37  C   UNL A   1      42.072  26.871  27.794  1.00  0.00    -0.014 A 
BRANCH  37  38
ATOM     38  C   UNL A   1      41.614  27.757  28.892  1.00  0.00     0.031 A 
ATOM     39  C   UNL A   1      42.315  27.664  30.218  1.00  0.00     0.074 A 
ATOM     40  C   UNL A   1      40.558  28.576  28.742  1.00  0.00     0.049 A 
ATOM     41  N   UNL A   1      42.018  28.227  31.360  1.00  0.00    -0.248 NA
ATOM     42  C   UNL A   1      43.504  26.799  30.258  1.00  0.00     0.031 C 
ATOM     43  C   UNL A   1      39.806  28.766  27.503  1.00  0.00     0.029 A 
ATOM     44  N   UNL A   1      39.913  29.375  29.654  1.00  0.00    -0.354 N 
ATOM     45  C   UNL A   1      42.981  27.780  32.259  1.00  0.00     0.074 A 
ATOM     46  C   UNL A   1      43.844  26.871  31.534  1.00  0.00     0.031 C 
ATOM     47  C   UNL A   1      38.777  29.599  27.743  1.00  0.00     0.029 A 
ATOM     48  C   UNL A   1      38.779  29.972  29.158  1.00  0.00     0.049 A 
ATOM     49  H   UNL A   1      40.234  29.507  30.575  1.00  0.00     0.167 HD
ATOM     50  C   UNL A   1      43.134  28.102  33.567  1.00  0.00     0.034 A 
ATOM     51  C   UNL A   1      37.831  30.700  29.783  1.00  0.00     0.034 A 
ATOM     52  C   UNL A   1      42.250  28.988  34.283  1.00  0.00     0.049 A 
ATOM     53  C   UNL A   1      37.969  30.984  31.260  1.00  0.00     0.074 A 
ATOM     54  C   UNL A   1      42.331  29.410  35.598  1.00  0.00     0.029 A 
ATOM     55  N   UNL A   1      41.106  29.568  33.750  1.00  0.00    -0.354 N 
ATOM     56  N   UNL A   1      38.904  30.590  32.094  1.00  0.00    -0.248 NA
ATOM     57  C   UNL A   1      36.926  31.814  31.880  1.00  0.00     0.031 C 
ATOM     58  C   UNL A   1      41.201  30.185  35.880  1.00  0.00     0.029 A 
ATOM     59  C   UNL A   1      40.452  30.310  34.720  1.00  0.00     0.049 A 
ATOM     60  H   UNL A   1      40.805  29.467  32.818  1.00  0.00     0.167 HD
ATOM     61  C   UNL A   1      38.576  31.148  33.328  1.00  0.00     0.074 A 
ATOM     62  C   UNL A   1      37.358  31.905  33.131  1.00  0.00     0.031 C 
ATOM     63  C   UNL A   1      39.231  31.053  34.513  1.00  0.00     0.034 A 
BRANCH  50  64
ATOM     64  C   UNL A   1      44.266  27.435  34.307  1.00  0.00     0.023 A 
ATOM     65  C   UNL A   1      45.549  28.009  34.362  1.00  0.00     0.031 A 
ATOM     66  C   UNL A   1      44.080  26.178  34.906  1.00  0.00     0.131 A 
ATOM     67  C   UNL A   1      46.613  27.287  34.922  1.00  0.00     0.055 A 
ATOM     68  C   UNL A   1      45.126  25.502  35.538  1.00  0.00     0.041 A 
ATOM     69  F   UNL A   1      42.883  25.572  34.864  1.00  0.00    -0.206 F 
ATOM     70  C   UNL A   1      46.406  26.048  35.531  1.00  0.00     0.022 A 
BRANCH  67  71
ATOM     71  S   UNL A   1      48.299  27.914  34.688  1.00  0.00     0.124 S 
ATOM     72  O   UNL A   1      48.926  26.813  33.961  1.00  0.00    -0.237 OA
ATOM     73  O   UNL A   1      48.077  29.139  33.928  1.00  0.00    -0.237 OA
ATOM     74  O   UNL A   1      48.787  28.104  36.053  1.00  0.00    -0.744 OA
ENDBRANCH  67  71
ENDBRANCH  50  64
BRANCH  51  75
ATOM     75  C   UNL A   1      36.628  31.161  29.033  1.00  0.00     0.023 A 
ATOM     76  C   UNL A   1      35.680  30.253  28.540  1.00  0.00     0.031 A 
ATOM     77  C   UNL A   1      36.434  32.530  28.768  1.00  0.00     0.131 A 
ATOM     78  C   UNL A   1      34.598  30.720  27.776  1.00  0.00     0.055 A 
ATOM     79  C   UNL A   1      35.334  32.993  28.045  1.00  0.00     0.041 A 
ATOM     80  F   UNL A   1      37.311  33.439  29.222  1.00  0.00    -0.206 F 
ATOM     81  C   UNL A   1      34.413  32.085  27.535  1.00  0.00     0.022 A 
BRANCH  78  82
ATOM     82  S   UNL A   1      33.458  29.512  27.047  1.00  0.00     0.124 S 
ATOM     83  O   UNL A   1      34.120  29.203  25.785  1.00  0.00    -0.237 OA
ATOM     84  O   UNL A   1      33.460  28.452  28.051  1.00  0.00    -0.237 OA
ATOM     85  O   UNL A   1      32.204  30.253  26.932  1.00  0.00    -0.744 OA
ENDBRANCH  78  82
ENDBRANCH  51  75
BRANCH  63  86
ATOM     86  C   UNL A   1      38.672  31.827  35.682  1.00  0.00     0.023 A 
ATOM     87  C   UNL A   1      38.034  31.192  36.760  1.00  0.00     0.031 A 
ATOM     88  C   UNL A   1      38.815  33.226  35.726  1.00  0.00     0.131 A 
ATOM     89  C   UNL A   1      37.535  31.958  37.825  1.00  0.00     0.055 A 
ATOM     90  C   UNL A   1      38.359  33.978  36.809  1.00  0.00     0.041 A 
ATOM     91  F   UNL A   1      39.418  33.883  34.721  1.00  0.00    -0.206 F 
ATOM     92  C   UNL A   1      37.709  33.345  37.864  1.00  0.00     0.022 A 
BRANCH  89  93
ATOM     93  S   UNL A   1      36.613  31.127  39.148  1.00  0.00     0.124 S 
ATOM     94  O   UNL A   1      35.461  32.007  39.314  1.00  0.00    -0.237 OA
ATOM     95  O   UNL A   1      36.337  29.818  38.564  1.00  0.00    -0.237 OA
ATOM     96  O   UNL A   1      37.552  31.118  40.268  1.00  0.00    -0.744 OA
ENDBRANCH  89  93
ENDBRANCH  63  86
ENDBRANCH  37  38
ENDBRANCH  30  32
ENDBRANCH  29  30
ENDBRANCH  28  29
ENDBRANCH   1  28
TORSDOF 17
ENDMDL
MODEL 3
REMARK VINA RESULT:     -12.0      2.686      9.434
REMARK SMILES O=C(COc1ccc2c(=O)c(-c3ccc4c(c3)OCCO4)coc2c1)OCCOC(=O)c1ccc(-c2c3nc(c(-c4cc(S(=O)(=O)[O-])ccc4F)c4ccc([nH]4)c(-c4cc(S(=O)(=O)[O-])ccc4F)c4nc(c(-c5cc(S(=O)(=O)[O-])ccc5F)c5ccc2[nH]5)C=C4)C=C3)cc1
REMARK SMILES IDX 27 1 26 2 2 3 1 4 3 5 4 6 5 7 6 8 25 9 7 10 24 11 8 12 23 13
REMARK SMILES IDX 9 14 22 15 10 16 11 17 12 18 13 19 17 20 14 21 16 22 15 23
REMARK SMILES IDX 18 24 21 25 19 26 20 27 28 28 29 29 30 30 31 31 32 32 33 33
REMARK SMILES IDX 94 34 34 35 93 36 35 37 36 38 37 39 87 40 38 41 92 42 86 43
REMARK SMILES IDX 88 44 39 45 91 46 85 47 84 48 40 50 72 51 52 52 71 53 53 54
REMARK SMILES IDX 56 55 70 56 89 57 54 58 55 59 69 61 90 62 57 63 41 64 42 65
REMARK SMILES IDX 50 66 43 67 49 68 51 69 48 70 44 71 45 72 46 73 47 74 73 75
REMARK SMILES IDX 74 76 82 77 75 78 81 79 83 80 80 81 76 82 77 83 78 84 79 85
REMARK SMILES IDX 58 86 59 87 67 88 60 89 66 90 68 91 65 92 61 93 62 94 63 95
REMARK SMILES IDX 64 96
REMARK H PARENT 88 49 56 60
REMARK Flexibility Score: inf
ROOT
ATOM      1  C   UNL A   1      31.419  30.801  26.847  1.00  0.00     0.274 C 
ENDROOT
BRANCH   1   2
ATOM      2  O   UNL A   1      32.205  30.134  25.839  1.00  0.00    -0.460 OA
BRANCH   2   3
ATOM      3  C   UNL A   1      31.689  29.675  24.672  1.00  0.00     0.344 C 
ATOM      4  O   UNL A   1      30.519  29.911  24.378  1.00  0.00    -0.248 OA
BRANCH   3   5
ATOM      5  C   UNL A   1      32.617  28.941  23.711  1.00  0.00     0.351 C 
BRANCH   5   6
ATOM      6  O   UNL A   1      33.759  28.357  24.338  1.00  0.00    -0.482 OA
BRANCH   6   7
ATOM      7  C   UNL A   1      33.734  27.000  24.178  1.00  0.00     0.123 A 
ATOM      8  C   UNL A   1      33.452  26.440  22.930  1.00  0.00     0.047 A 
ATOM      9  C   UNL A   1      34.010  26.197  25.284  1.00  0.00     0.094 A 
ATOM     10  C   UNL A   1      33.378  25.060  22.800  1.00  0.00     0.020 A 
ATOM     11  C   UNL A   1      33.953  24.813  25.147  1.00  0.00     0.141 A 
ATOM     12  C   UNL A   1      33.629  24.253  23.912  1.00  0.00     0.066 A 
ATOM     13  O   UNL A   1      34.225  24.053  26.256  1.00  0.00    -0.463 OA
ATOM     14  C   UNL A   1      33.583  22.795  23.779  1.00  0.00     0.200 A 
ATOM     15  C   UNL A   1      34.272  22.686  26.095  1.00  0.00     0.208 A 
ATOM     16  O   UNL A   1      33.252  22.276  22.717  1.00  0.00    -0.288 OA
ATOM     17  C   UNL A   1      33.995  22.008  24.971  1.00  0.00     0.065 A 
BRANCH  17  18
ATOM     18  C   UNL A   1      34.163  20.553  24.877  1.00  0.00    -0.007 A 
ATOM     19  C   UNL A   1      35.422  19.961  24.714  1.00  0.00     0.013 A 
ATOM     20  C   UNL A   1      33.031  19.736  25.016  1.00  0.00     0.059 A 
ATOM     21  C   UNL A   1      35.546  18.568  24.705  1.00  0.00     0.051 A 
ATOM     22  C   UNL A   1      33.161  18.352  25.026  1.00  0.00     0.161 A 
ATOM     23  C   UNL A   1      34.417  17.765  24.855  1.00  0.00     0.161 A 
ATOM     24  O   UNL A   1      32.008  17.633  25.218  1.00  0.00    -0.486 OA
ATOM     25  O   UNL A   1      34.614  16.408  24.850  1.00  0.00    -0.486 OA
ATOM     26  C   UNL A   1      32.311  16.298  25.630  1.00  0.00     0.271 C 
ATOM     27  C   UNL A   1      33.376  15.699  24.727  1.00  0.00     0.271 C 
ENDBRANCH  17  18
ENDBRANCH   6   7
ENDBRANCH   5   6
ENDBRANCH   3   5
ENDBRANCH   2   3
ENDBRANCH   1   2
BRANCH   1  28
ATOM     28  C   UNL A   1      31.471  32.318  26.656  1.00  0.00     0.275 C 
BRANCH  28  29
ATOM     29  O   UNL A   1      32.838  32.769  26.689  1.00  0.00    -0.458 OA
BRANCH  29  30
ATOM     30  C   UNL A   1      33.197  33.508  27.771  1.00  0.00     0.338 C 
ATOM     31  O   UNL A   1      32.529  34.366  28.317  1.00  0.00    -0.246 OA
BRANCH  30  32
ATOM     32  C   UNL A   1      34.455  32.948  28.317  1.00  0.00     0.060 A 
ATOM     33  C   UNL A   1      34.430  31.667  28.883  1.00  0.00     0.016 A 
ATOM     34  C   UNL A   1      35.656  33.659  28.240  1.00  0.00     0.016 A 
ATOM     35  C   UNL A   1      35.604  31.102  29.392  1.00  0.00     0.010 A 
ATOM     36  C   UNL A   1      36.824  33.099  28.758  1.00  0.00     0.010 A 
ATOM     37  C   UNL A   1      36.801  31.828  29.358  1.00  0.00    -0.014 A 
BRANCH  37  38
ATOM     38  C   UNL A   1      37.998  31.366  30.103  1.00  0.00     0.031 A 
ATOM     39  C   UNL A   1      38.870  30.321  29.467  1.00  0.00     0.074 A 
ATOM     40  C   UNL A   1      38.269  31.810  31.343  1.00  0.00     0.049 A 
ATOM     41  N   UNL A   1      39.883  29.663  29.967  1.00  0.00    -0.248 NA
ATOM     42  C   UNL A   1      38.534  29.958  28.081  1.00  0.00     0.031 C 
ATOM     43  C   UNL A   1      37.510  32.833  32.059  1.00  0.00     0.029 A 
ATOM     44  N   UNL A   1      39.243  31.428  32.233  1.00  0.00    -0.354 N 
ATOM     45  C   UNL A   1      40.305  28.802  28.959  1.00  0.00     0.074 A 
ATOM     46  C   UNL A   1      39.410  28.999  27.837  1.00  0.00     0.031 C 
ATOM     47  C   UNL A   1      38.022  32.969  33.295  1.00  0.00     0.029 A 
ATOM     48  C   UNL A   1      39.124  32.021  33.467  1.00  0.00     0.049 A 
ATOM     49  H   UNL A   1      39.957  30.790  32.007  1.00  0.00     0.167 HD
ATOM     50  C   UNL A   1      41.345  27.932  28.966  1.00  0.00     0.034 A 
ATOM     51  C   UNL A   1      39.798  31.794  34.613  1.00  0.00     0.034 A 
ATOM     52  C   UNL A   1      42.211  27.728  30.101  1.00  0.00     0.049 A 
ATOM     53  C   UNL A   1      40.901  30.762  34.632  1.00  0.00     0.074 A 
ATOM     54  C   UNL A   1      43.313  26.899  30.206  1.00  0.00     0.029 A 
ATOM     55  N   UNL A   1      42.054  28.341  31.338  1.00  0.00    -0.354 N 
ATOM     56  N   UNL A   1      41.319  29.981  33.662  1.00  0.00    -0.248 NA
ATOM     57  C   UNL A   1      41.627  30.584  35.898  1.00  0.00     0.031 C 
ATOM     58  C   UNL A   1      43.779  26.956  31.524  1.00  0.00     0.029 A 
ATOM     59  C   UNL A   1      43.014  27.877  32.223  1.00  0.00     0.049 A 
ATOM     60  H   UNL A   1      41.362  29.007  31.553  1.00  0.00     0.167 HD
ATOM     61  C   UNL A   1      42.373  29.242  34.195  1.00  0.00     0.074 A 
ATOM     62  C   UNL A   1      42.527  29.668  35.569  1.00  0.00     0.031 C 
ATOM     63  C   UNL A   1      43.150  28.304  33.596  1.00  0.00     0.034 A 
BRANCH  50  64
ATOM     64  C   UNL A   1      41.549  27.101  27.725  1.00  0.00     0.023 A 
ATOM     65  C   UNL A   1      41.190  25.742  27.681  1.00  0.00     0.031 A 
ATOM     66  C   UNL A   1      42.171  27.656  26.594  1.00  0.00     0.131 A 
ATOM     67  C   UNL A   1      41.537  24.964  26.567  1.00  0.00     0.055 A 
ATOM     68  C   UNL A   1      42.439  26.895  25.454  1.00  0.00     0.041 A 
ATOM     69  F   UNL A   1      42.558  28.941  26.588  1.00  0.00    -0.206 F 
ATOM     70  C   UNL A   1      42.139  25.536  25.444  1.00  0.00     0.022 A 
BRANCH  67  71
ATOM     71  S   UNL A   1      41.350  23.163  26.680  1.00  0.00     0.124 S 
ATOM     72  O   UNL A   1      42.004  22.720  25.451  1.00  0.00    -0.237 OA
ATOM     73  O   UNL A   1      42.046  22.852  27.924  1.00  0.00    -0.237 OA
ATOM     74  O   UNL A   1      39.901  22.970  26.709  1.00  0.00    -0.744 OA
ENDBRANCH  67  71
ENDBRANCH  50  64
BRANCH  51  75
ATOM     75  C   UNL A   1      39.410  32.509  35.862  1.00  0.00     0.023 A 
ATOM     76  C   UNL A   1      38.557  31.920  36.808  1.00  0.00     0.031 A 
ATOM     77  C   UNL A   1      39.864  33.819  36.105  1.00  0.00     0.131 A 
ATOM     78  C   UNL A   1      38.157  32.653  37.937  1.00  0.00     0.055 A 
ATOM     79  C   UNL A   1      39.497  34.527  37.250  1.00  0.00     0.041 A 
ATOM     80  F   UNL A   1      40.684  34.424  35.232  1.00  0.00    -0.206 F 
ATOM     81  C   UNL A   1      38.629  33.948  38.169  1.00  0.00     0.022 A 
BRANCH  78  82
ATOM     82  S   UNL A   1      36.957  31.912  39.078  1.00  0.00     0.124 S 
ATOM     83  O   UNL A   1      35.773  32.727  38.835  1.00  0.00    -0.237 OA
ATOM     84  O   UNL A   1      36.898  30.534  38.600  1.00  0.00    -0.237 OA
ATOM     85  O   UNL A   1      37.579  32.086  40.388  1.00  0.00    -0.744 OA
ENDBRANCH  78  82
ENDBRANCH  51  75
BRANCH  63  86
ATOM     86  C   UNL A   1      44.275  27.708  34.409  1.00  0.00     0.023 A 
ATOM     87  C   UNL A   1      44.121  26.513  35.130  1.00  0.00     0.031 A 
ATOM     88  C   UNL A   1      45.532  28.339  34.428  1.00  0.00     0.131 A 
ATOM     89  C   UNL A   1      45.200  26.000  35.867  1.00  0.00     0.055 A 
ATOM     90  C   UNL A   1      46.614  27.799  35.124  1.00  0.00     0.041 A 
ATOM     91  F   UNL A   1      45.733  29.483  33.755  1.00  0.00    -0.206 F 
ATOM     92  C   UNL A   1      46.450  26.626  35.855  1.00  0.00     0.022 A 
BRANCH  89  93
ATOM     93  S   UNL A   1      44.942  24.519  36.884  1.00  0.00     0.124 S 
ATOM     94  O   UNL A   1      46.300  24.210  37.320  1.00  0.00    -0.237 OA
ATOM     95  O   UNL A   1      44.034  25.002  37.919  1.00  0.00    -0.237 OA
ATOM     96  O   UNL A   1      44.358  23.558  35.950  1.00  0.00    -0.744 OA
ENDBRANCH  89  93
ENDBRANCH  63  86
ENDBRANCH  37  38
ENDBRANCH  30  32
ENDBRANCH  29  30
ENDBRANCH  28  29
ENDBRANCH   1  28
TORSDOF 17
ENDMDL
