MODEL 1
REMARK VINA RESULT:     -13.7      0.000      0.000
REMARK SMILES Cc1ccc(C(=O)NC2(CC(=O)OCCOC(=O)c3ccc(-c4c5nc(c(-c6cc(S(=O)(=O)[O-])ccc6F)c6ccc([nH]6)c(-c6cc(S(=O)(=O)[O-])ccc6F)c6nc(c(-c7cc(S(=O)(=O)[O-])ccc7F)c7ccc4[nH]7)C=C6)C=C5)cc3)CCC2)cc1
REMARK SMILES IDX 14 1 13 2 11 3 12 4 10 5 9 6 82 7 84 8 83 9 8 10 6 11 7 12
REMARK SMILES IDX 5 14 1 15 2 16 3 17 86 18 4 19 85 20 15 21 16 22 17 23 18 24
REMARK SMILES IDX 19 25 20 26 81 27 21 28 80 29 22 30 23 31 24 32 74 33 25 34
REMARK SMILES IDX 79 35 73 36 75 37 26 38 78 39 72 40 71 41 27 43 59 44 39 45
REMARK SMILES IDX 58 46 40 47 43 48 57 49 76 50 41 51 42 52 56 54 77 55 44 56
REMARK SMILES IDX 28 57 29 58 37 59 30 60 36 61 38 62 35 63 31 64 32 65 33 66
REMARK SMILES IDX 34 67 60 68 61 69 69 70 62 71 68 72 70 73 67 74 63 75 64 76
REMARK SMILES IDX 65 77 66 78 45 79 46 80 54 81 47 82 53 83 55 84 52 85 48 86
REMARK SMILES IDX 49 87 50 88 51 89
REMARK H PARENT 8 13 75 42 43 53
REMARK Flexibility Score: inf
ROOT
ATOM      1  C   UNL A   1      35.621  23.298  23.496  1.00  0.00     0.274 C 
ENDROOT
BRANCH   1   2
ATOM      2  O   UNL A   1      34.303  24.495  22.503  1.00  0.00    -0.462 OA
BRANCH   2   3
ATOM      3  C   UNL A   1      33.480  25.670  22.332  1.00  0.00     0.308 C 
ATOM      4  O   UNL A   1      33.589  26.359  21.316  1.00  0.00    -0.252 OA
BRANCH   3   5
ATOM      5  C   UNL A   1      32.304  26.185  23.130  1.00  0.00     0.151 C 
BRANCH   5   6
ATOM      6  C   UNL A   1      32.138  26.396  24.620  1.00  0.00     0.051 C 
ATOM      7  C   UNL A   1      32.660  27.819  25.012  1.00  0.00     0.029 C 
ATOM      8  C   UNL A   1      33.198  25.855  25.626  1.00  0.00     0.029 C 
ATOM      9  C   UNL A   1      33.996  27.146  25.392  1.00  0.00     0.005 C 
BRANCH   6  10
ATOM     10  N   UNL A   1      30.758  26.193  25.084  1.00  0.00    -0.346 N 
ATOM     11  C   UNL A   1      30.413  25.094  25.800  1.00  0.00     0.251 C 
ATOM     12  O   UNL A   1      29.581  25.081  26.690  1.00  0.00    -0.269 OA
ATOM     13  H   UNL A   1      30.072  26.865  24.870  1.00  0.00     0.164 HD
BRANCH  11  14
ATOM     14  C   UNL A   1      31.259  23.949  25.494  1.00  0.00     0.039 A 
ATOM     15  C   UNL A   1      34.133  19.797  24.731  1.00  0.00     0.044 C 
ATOM     16  C   UNL A   1      33.224  20.959  25.056  1.00  0.00    -0.051 A 
ATOM     17  C   UNL A   1      32.320  21.553  23.705  1.00  0.00     0.004 A 
ATOM     18  C   UNL A   1      33.181  21.797  26.599  1.00  0.00     0.004 A 
ATOM     19  C   UNL A   1      31.379  23.063  23.870  1.00  0.00     0.014 A 
ATOM     20  C   UNL A   1      32.226  23.286  26.854  1.00  0.00     0.014 A 
ENDBRANCH  11  14
ENDBRANCH   6  10
ENDBRANCH   5   6
ENDBRANCH   3   5
ENDBRANCH   2   3
ENDBRANCH   1   2
BRANCH   1  21
ATOM     21  C   UNL A   1      36.073  23.566  25.317  1.00  0.00     0.275 C 
BRANCH  21  22
ATOM     22  O   UNL A   1      37.577  24.058  25.956  1.00  0.00    -0.458 OA
BRANCH  22  23
ATOM     23  C   UNL A   1      38.860  23.733  26.509  1.00  0.00     0.338 C 
ATOM     24  O   UNL A   1      39.271  22.574  26.436  1.00  0.00    -0.246 OA
BRANCH  23  25
ATOM     25  C   UNL A   1      39.861  24.771  27.096  1.00  0.00     0.060 A 
ATOM     26  C   UNL A   1      40.404  25.910  26.434  1.00  0.00     0.016 A 
ATOM     27  C   UNL A   1      39.857  24.837  28.453  1.00  0.00     0.016 A 
ATOM     28  C   UNL A   1      40.572  27.209  27.104  1.00  0.00     0.010 A 
ATOM     29  C   UNL A   1      39.835  26.117  29.004  1.00  0.00     0.010 A 
ATOM     30  C   UNL A   1      40.130  27.381  28.416  1.00  0.00    -0.014 A 
BRANCH  30  31
ATOM     31  C   UNL A   1      39.848  28.631  29.315  1.00  0.00     0.031 A 
ATOM     32  C   UNL A   1      38.797  29.765  29.190  1.00  0.00     0.074 A 
ATOM     33  C   UNL A   1      40.614  28.668  30.446  1.00  0.00     0.049 A 
ATOM     34  N   UNL A   1      38.982  31.056  29.060  1.00  0.00    -0.248 NA
ATOM     35  C   UNL A   1      37.361  29.531  29.357  1.00  0.00     0.031 C 
ATOM     36  C   UNL A   1      40.673  29.567  31.581  1.00  0.00     0.029 A 
ATOM     37  N   UNL A   1      41.727  27.849  30.705  1.00  0.00    -0.354 N 
ATOM     38  C   UNL A   1      37.741  31.690  29.345  1.00  0.00     0.074 A 
ATOM     39  C   UNL A   1      36.748  30.695  29.137  1.00  0.00     0.031 C 
ATOM     40  C   UNL A   1      41.935  29.513  32.083  1.00  0.00     0.029 A 
ATOM     41  C   UNL A   1      42.729  28.632  31.224  1.00  0.00     0.049 A 
ATOM     42  H   UNL A   1      41.779  26.879  30.544  1.00  0.00     0.167 HD
ATOM     43  C   UNL A   1      37.576  32.725  30.240  1.00  0.00     0.034 A 
ATOM     44  C   UNL A   1      43.773  28.868  30.375  1.00  0.00     0.034 A 
ATOM     45  C   UNL A   1      38.816  32.924  30.956  1.00  0.00     0.049 A 
ATOM     46  C   UNL A   1      43.801  30.336  30.044  1.00  0.00     0.074 A 
ATOM     47  C   UNL A   1      39.241  32.679  32.249  1.00  0.00     0.029 A 
ATOM     48  N   UNL A   1      39.937  33.183  30.215  1.00  0.00    -0.354 N 
ATOM     49  N   UNL A   1      42.806  31.137  30.301  1.00  0.00    -0.248 NA
ATOM     50  C   UNL A   1      44.918  31.030  29.423  1.00  0.00     0.031 C 
ATOM     51  C   UNL A   1      40.662  32.804  32.260  1.00  0.00     0.029 A 
ATOM     52  C   UNL A   1      41.067  33.140  30.981  1.00  0.00     0.049 A 
ATOM     53  H   UNL A   1      39.929  33.378  29.251  1.00  0.00     0.167 HD
ATOM     54  C   UNL A   1      43.135  32.419  29.994  1.00  0.00     0.074 A 
ATOM     55  C   UNL A   1      44.445  32.290  29.372  1.00  0.00     0.031 C 
ATOM     56  C   UNL A   1      42.302  33.460  30.303  1.00  0.00     0.034 A 
BRANCH  43  57
ATOM     57  C   UNL A   1      36.268  33.369  30.755  1.00  0.00     0.023 A 
ATOM     58  C   UNL A   1      35.449  34.086  29.842  1.00  0.00     0.031 A 
ATOM     59  C   UNL A   1      35.725  33.264  32.053  1.00  0.00     0.131 A 
ATOM     60  C   UNL A   1      34.242  34.712  30.223  1.00  0.00     0.055 A 
ATOM     61  C   UNL A   1      34.530  33.911  32.445  1.00  0.00     0.041 A 
ATOM     62  F   UNL A   1      36.290  32.494  32.994  1.00  0.00    -0.206 F 
ATOM     63  C   UNL A   1      33.785  34.646  31.532  1.00  0.00     0.022 A 
BRANCH  60  64
ATOM     64  S   UNL A   1      33.264  35.592  28.967  1.00  0.00     0.124 S 
ATOM     65  O   UNL A   1      32.630  34.492  28.245  1.00  0.00    -0.237 OA
ATOM     66  O   UNL A   1      32.385  36.425  29.779  1.00  0.00    -0.237 OA
ATOM     67  O   UNL A   1      34.272  36.328  28.202  1.00  0.00    -0.744 OA
ENDBRANCH  60  64
ENDBRANCH  43  57
BRANCH  44  68
ATOM     68  C   UNL A   1      44.090  27.692  29.448  1.00  0.00     0.023 A 
ATOM     69  C   UNL A   1      43.943  27.882  28.041  1.00  0.00     0.031 A 
ATOM     70  C   UNL A   1      44.838  26.568  29.838  1.00  0.00     0.131 A 
ATOM     71  C   UNL A   1      44.613  27.066  27.102  1.00  0.00     0.055 A 
ATOM     72  C   UNL A   1      45.456  25.714  28.896  1.00  0.00     0.041 A 
ATOM     73  F   UNL A   1      45.076  26.321  31.134  1.00  0.00    -0.206 F 
ATOM     74  C   UNL A   1      45.363  25.970  27.524  1.00  0.00     0.022 A 
BRANCH  71  75
ATOM     75  S   UNL A   1      44.803  27.687  25.383  1.00  0.00     0.124 S 
ATOM     76  O   UNL A   1      45.547  26.614  24.736  1.00  0.00    -0.237 OA
ATOM     77  O   UNL A   1      43.413  27.854  24.957  1.00  0.00    -0.237 OA
ATOM     78  O   UNL A   1      45.533  28.945  25.538  1.00  0.00    -0.744 OA
ENDBRANCH  71  75
ENDBRANCH  44  68
BRANCH  56  79
ATOM     79  C   UNL A   1      42.532  34.894  29.923  1.00  0.00     0.023 A 
ATOM     80  C   UNL A   1      43.308  35.719  30.725  1.00  0.00     0.031 A 
ATOM     81  C   UNL A   1      41.977  35.495  28.762  1.00  0.00     0.131 A 
ATOM     82  C   UNL A   1      43.663  37.000  30.294  1.00  0.00     0.055 A 
ATOM     83  C   UNL A   1      42.251  36.806  28.383  1.00  0.00     0.041 A 
ATOM     84  F   UNL A   1      41.164  34.847  27.918  1.00  0.00    -0.206 F 
ATOM     85  C   UNL A   1      43.133  37.559  29.133  1.00  0.00     0.022 A 
BRANCH  82  86
ATOM     86  S   UNL A   1      44.917  37.864  31.253  1.00  0.00     0.124 S 
ATOM     87  O   UNL A   1      44.369  39.214  31.342  1.00  0.00    -0.237 OA
ATOM     88  O   UNL A   1      44.912  37.100  32.498  1.00  0.00    -0.237 OA
ATOM     89  O   UNL A   1      46.122  37.729  30.441  1.00  0.00    -0.744 OA
ENDBRANCH  82  86
ENDBRANCH  56  79
ENDBRANCH  30  31
ENDBRANCH  23  25
ENDBRANCH  22  23
ENDBRANCH  21  22
ENDBRANCH   1  21
TORSDOF 17
ENDMDL
MODEL 2
REMARK VINA RESULT:     -13.1      2.992      3.653
REMARK SMILES Cc1ccc(C(=O)NC2(CC(=O)OCCOC(=O)c3ccc(-c4c5nc(c(-c6cc(S(=O)(=O)[O-])ccc6F)c6ccc([nH]6)c(-c6cc(S(=O)(=O)[O-])ccc6F)c6nc(c(-c7cc(S(=O)(=O)[O-])ccc7F)c7ccc4[nH]7)C=C6)C=C5)cc3)CCC2)cc1
REMARK SMILES IDX 14 1 13 2 11 3 12 4 10 5 9 6 82 7 84 8 83 9 8 10 6 11 7 12
REMARK SMILES IDX 5 14 1 15 2 16 3 17 86 18 4 19 85 20 15 21 16 22 17 23 18 24
REMARK SMILES IDX 19 25 20 26 81 27 21 28 80 29 22 30 23 31 24 32 74 33 25 34
REMARK SMILES IDX 79 35 73 36 75 37 26 38 78 39 72 40 71 41 27 43 59 44 39 45
REMARK SMILES IDX 58 46 40 47 43 48 57 49 76 50 41 51 42 52 56 54 77 55 44 56
REMARK SMILES IDX 28 57 29 58 37 59 30 60 36 61 38 62 35 63 31 64 32 65 33 66
REMARK SMILES IDX 34 67 60 68 61 69 69 70 62 71 68 72 70 73 67 74 63 75 64 76
REMARK SMILES IDX 65 77 66 78 45 79 46 80 54 81 47 82 53 83 55 84 52 85 48 86
REMARK SMILES IDX 49 87 50 88 51 89
REMARK H PARENT 8 13 75 42 43 53
REMARK Flexibility Score: inf
ROOT
ATOM      1  C   UNL A   1      35.985  24.029  25.201  1.00  0.00     0.274 C 
ENDROOT
BRANCH   1   2
ATOM      2  O   UNL A   1      34.704  24.520  23.693  1.00  0.00    -0.462 OA
BRANCH   2   3
ATOM      3  C   UNL A   1      33.751  25.366  23.012  1.00  0.00     0.308 C 
ATOM      4  O   UNL A   1      33.827  25.527  21.792  1.00  0.00    -0.252 OA
BRANCH   3   5
ATOM      5  C   UNL A   1      32.481  26.025  23.498  1.00  0.00     0.151 C 
BRANCH   5   6
ATOM      6  C   UNL A   1      32.095  26.534  24.871  1.00  0.00     0.051 C 
ATOM      7  C   UNL A   1      32.542  28.026  25.024  1.00  0.00     0.029 C 
ATOM      8  C   UNL A   1      32.999  26.255  26.108  1.00  0.00     0.029 C 
ATOM      9  C   UNL A   1      33.812  27.500  25.724  1.00  0.00     0.005 C 
BRANCH   6  10
ATOM     10  N   UNL A   1      30.664  26.376  25.165  1.00  0.00    -0.346 N 
ATOM     11  C   UNL A   1      30.203  25.306  25.858  1.00  0.00     0.251 C 
ATOM     12  O   UNL A   1      29.268  25.337  26.639  1.00  0.00    -0.269 OA
ATOM     13  H   UNL A   1      30.028  27.060  24.854  1.00  0.00     0.164 HD
BRANCH  11  14
ATOM     14  C   UNL A   1      31.048  24.133  25.684  1.00  0.00     0.039 A 
ATOM     15  C   UNL A   1      34.087  20.136  24.752  1.00  0.00     0.044 C 
ATOM     16  C   UNL A   1      33.242  21.377  24.921  1.00  0.00    -0.051 A 
ATOM     17  C   UNL A   1      33.336  22.090  26.495  1.00  0.00     0.004 A 
ATOM     18  C   UNL A   1      32.104  21.985  23.729  1.00  0.00     0.004 A 
ATOM     19  C   UNL A   1      32.225  23.422  26.927  1.00  0.00     0.014 A 
ATOM     20  C   UNL A   1      30.994  23.344  24.072  1.00  0.00     0.014 A 
ENDBRANCH  11  14
ENDBRANCH   6  10
ENDBRANCH   5   6
ENDBRANCH   3   5
ENDBRANCH   2   3
ENDBRANCH   1   2
BRANCH   1  21
ATOM     21  C   UNL A   1      36.997  22.426  25.200  1.00  0.00     0.275 C 
BRANCH  21  22
ATOM     22  O   UNL A   1      38.557  22.178  25.846  1.00  0.00    -0.458 OA
BRANCH  22  23
ATOM     23  C   UNL A   1      39.603  22.557  26.751  1.00  0.00     0.338 C 
ATOM     24  O   UNL A   1      40.023  21.735  27.565  1.00  0.00    -0.246 OA
BRANCH  23  25
ATOM     25  C   UNL A   1      40.363  23.916  26.708  1.00  0.00     0.060 A 
ATOM     26  C   UNL A   1      39.826  25.190  26.358  1.00  0.00     0.016 A 
ATOM     27  C   UNL A   1      41.478  23.951  27.482  1.00  0.00     0.016 A 
ATOM     28  C   UNL A   1      40.177  26.422  27.082  1.00  0.00     0.010 A 
ATOM     29  C   UNL A   1      41.640  25.086  28.275  1.00  0.00     0.010 A 
ATOM     30  C   UNL A   1      41.012  26.363  28.199  1.00  0.00    -0.014 A 
BRANCH  30  31
ATOM     31  C   UNL A   1      41.339  27.352  29.366  1.00  0.00     0.031 A 
ATOM     32  C   UNL A   1      40.431  28.315  30.176  1.00  0.00     0.074 A 
ATOM     33  C   UNL A   1      42.636  27.281  29.789  1.00  0.00     0.049 A 
ATOM     34  N   UNL A   1      40.499  29.619  30.289  1.00  0.00    -0.248 NA
ATOM     35  C   UNL A   1      39.397  27.837  31.096  1.00  0.00     0.031 C 
ATOM     36  C   UNL A   1      43.377  27.936  30.848  1.00  0.00     0.029 A 
ATOM     37  N   UNL A   1      43.675  26.606  29.124  1.00  0.00    -0.354 N 
ATOM     38  C   UNL A   1      39.691  29.987  31.400  1.00  0.00     0.074 A 
ATOM     39  C   UNL A   1      38.778  28.914  31.581  1.00  0.00     0.031 C 
ATOM     40  C   UNL A   1      44.683  27.977  30.472  1.00  0.00     0.029 A 
ATOM     41  C   UNL A   1      44.785  27.415  29.123  1.00  0.00     0.049 A 
ATOM     42  H   UNL A   1      43.617  25.707  28.727  1.00  0.00     0.167 HD
ATOM     43  C   UNL A   1      40.108  30.787  32.443  1.00  0.00     0.034 A 
ATOM     44  C   UNL A   1      45.093  27.970  27.914  1.00  0.00     0.034 A 
ATOM     45  C   UNL A   1      41.527  31.027  32.307  1.00  0.00     0.049 A 
ATOM     46  C   UNL A   1      44.914  29.462  28.010  1.00  0.00     0.074 A 
ATOM     47  C   UNL A   1      42.653  30.599  32.985  1.00  0.00     0.029 A 
ATOM     48  N   UNL A   1      41.961  31.596  31.140  1.00  0.00    -0.354 N 
ATOM     49  N   UNL A   1      44.283  30.035  28.996  1.00  0.00    -0.248 NA
ATOM     50  C   UNL A   1      45.418  30.426  27.047  1.00  0.00     0.031 C 
ATOM     51  C   UNL A   1      43.784  30.934  32.183  1.00  0.00     0.029 A 
ATOM     52  C   UNL A   1      43.324  31.574  31.047  1.00  0.00     0.049 A 
ATOM     53  H   UNL A   1      41.365  31.974  30.455  1.00  0.00     0.167 HD
ATOM     54  C   UNL A   1      44.357  31.387  28.887  1.00  0.00     0.074 A 
ATOM     55  C   UNL A   1      45.013  31.584  27.602  1.00  0.00     0.031 C 
ATOM     56  C   UNL A   1      43.887  32.206  29.876  1.00  0.00     0.034 A 
BRANCH  43  57
ATOM     57  C   UNL A   1      39.388  31.110  33.772  1.00  0.00     0.023 A 
ATOM     58  C   UNL A   1      38.342  32.071  33.772  1.00  0.00     0.031 A 
ATOM     59  C   UNL A   1      39.596  30.488  35.022  1.00  0.00     0.131 A 
ATOM     60  C   UNL A   1      37.633  32.433  34.939  1.00  0.00     0.055 A 
ATOM     61  C   UNL A   1      38.907  30.867  36.197  1.00  0.00     0.041 A 
ATOM     62  F   UNL A   1      40.436  29.453  35.163  1.00  0.00    -0.206 F 
ATOM     63  C   UNL A   1      37.925  31.849  36.163  1.00  0.00     0.022 A 
BRANCH  60  64
ATOM     64  S   UNL A   1      36.300  33.666  34.819  1.00  0.00     0.124 S 
ATOM     65  O   UNL A   1      35.339  32.995  33.949  1.00  0.00    -0.237 OA
ATOM     66  O   UNL A   1      35.904  33.835  36.213  1.00  0.00    -0.237 OA
ATOM     67  O   UNL A   1      36.961  34.828  34.224  1.00  0.00    -0.744 OA
ENDBRANCH  60  64
ENDBRANCH  43  57
BRANCH  44  68
ATOM     68  C   UNL A   1      44.777  27.063  26.722  1.00  0.00     0.023 A 
ATOM     69  C   UNL A   1      45.364  25.762  26.687  1.00  0.00     0.031 A 
ATOM     70  C   UNL A   1      43.695  27.269  25.849  1.00  0.00     0.131 A 
ATOM     71  C   UNL A   1      44.813  24.713  25.918  1.00  0.00     0.055 A 
ATOM     72  C   UNL A   1      43.184  26.235  25.031  1.00  0.00     0.041 A 
ATOM     73  F   UNL A   1      43.042  28.439  25.833  1.00  0.00    -0.206 F 
ATOM     74  C   UNL A   1      43.727  24.948  25.077  1.00  0.00     0.022 A 
BRANCH  71  75
ATOM     75  S   UNL A   1      45.284  22.986  26.331  1.00  0.00     0.124 S 
ATOM     76  O   UNL A   1      44.511  22.206  25.374  1.00  0.00    -0.237 OA
ATOM     77  O   UNL A   1      46.734  23.002  26.128  1.00  0.00    -0.237 OA
ATOM     78  O   UNL A   1      44.882  22.832  27.729  1.00  0.00    -0.744 OA
ENDBRANCH  71  75
ENDBRANCH  44  68
BRANCH  56  79
ATOM     79  C   UNL A   1      43.837  33.705  29.807  1.00  0.00     0.023 A 
ATOM     80  C   UNL A   1      43.228  34.341  28.733  1.00  0.00     0.031 A 
ATOM     81  C   UNL A   1      44.405  34.555  30.793  1.00  0.00     0.131 A 
ATOM     82  C   UNL A   1      43.031  35.724  28.744  1.00  0.00     0.055 A 
ATOM     83  C   UNL A   1      44.294  35.942  30.754  1.00  0.00     0.041 A 
ATOM     84  F   UNL A   1      45.072  34.096  31.860  1.00  0.00    -0.206 F 
ATOM     85  C   UNL A   1      43.567  36.536  29.741  1.00  0.00     0.022 A 
BRANCH  82  86
ATOM     86  S   UNL A   1      41.963  36.404  27.464  1.00  0.00     0.124 S 
ATOM     87  O   UNL A   1      41.936  37.825  27.801  1.00  0.00    -0.237 OA
ATOM     88  O   UNL A   1      42.701  36.059  26.253  1.00  0.00    -0.237 OA
ATOM     89  O   UNL A   1      40.704  35.691  27.655  1.00  0.00    -0.744 OA
ENDBRANCH  82  86
ENDBRANCH  56  79
ENDBRANCH  30  31
ENDBRANCH  23  25
ENDBRANCH  22  23
ENDBRANCH  21  22
ENDBRANCH   1  21
TORSDOF 17
ENDMDL
MODEL 3
REMARK VINA RESULT:     -13.1      1.235      2.651
REMARK SMILES Cc1ccc(C(=O)NC2(CC(=O)OCCOC(=O)c3ccc(-c4c5nc(c(-c6cc(S(=O)(=O)[O-])ccc6F)c6ccc([nH]6)c(-c6cc(S(=O)(=O)[O-])ccc6F)c6nc(c(-c7cc(S(=O)(=O)[O-])ccc7F)c7ccc4[nH]7)C=C6)C=C5)cc3)CCC2)cc1
REMARK SMILES IDX 14 1 13 2 11 3 12 4 10 5 9 6 82 7 84 8 83 9 8 10 6 11 7 12
REMARK SMILES IDX 5 14 1 15 2 16 3 17 86 18 4 19 85 20 15 21 16 22 17 23 18 24
REMARK SMILES IDX 19 25 20 26 81 27 21 28 80 29 22 30 23 31 24 32 74 33 25 34
REMARK SMILES IDX 79 35 73 36 75 37 26 38 78 39 72 40 71 41 27 43 59 44 39 45
REMARK SMILES IDX 58 46 40 47 43 48 57 49 76 50 41 51 42 52 56 54 77 55 44 56
REMARK SMILES IDX 28 57 29 58 37 59 30 60 36 61 38 62 35 63 31 64 32 65 33 66
REMARK SMILES IDX 34 67 60 68 61 69 69 70 62 71 68 72 70 73 67 74 63 75 64 76
REMARK SMILES IDX 65 77 66 78 45 79 46 80 54 81 47 82 53 83 55 84 52 85 48 86
REMARK SMILES IDX 49 87 50 88 51 89
REMARK H PARENT 8 13 75 42 43 53
REMARK Flexibility Score: inf
ROOT
ATOM      1  C   UNL A   1      35.983  20.649  24.962  1.00  0.00     0.274 C 
ENDROOT
BRANCH   1   2
ATOM      2  O   UNL A   1      34.479  21.982  25.305  1.00  0.00    -0.462 OA
BRANCH   2   3
ATOM      3  C   UNL A   1      33.344  22.795  24.932  1.00  0.00     0.308 C 
ATOM      4  O   UNL A   1      32.206  22.324  24.970  1.00  0.00    -0.252 OA
BRANCH   3   5
ATOM      5  C   UNL A   1      33.236  24.272  24.631  1.00  0.00     0.151 C 
BRANCH   5   6
ATOM      6  C   UNL A   1      32.340  25.022  23.669  1.00  0.00     0.051 C 
ATOM      7  C   UNL A   1      32.689  24.615  22.199  1.00  0.00     0.029 C 
ATOM      8  C   UNL A   1      32.684  26.476  23.227  1.00  0.00     0.029 C 
ATOM      9  C   UNL A   1      33.581  25.872  22.137  1.00  0.00     0.005 C 
BRANCH   6  10
ATOM     10  N   UNL A   1      30.908  24.836  23.945  1.00  0.00    -0.346 N 
ATOM     11  C   UNL A   1      30.124  25.876  24.319  1.00  0.00     0.251 C 
ATOM     12  O   UNL A   1      28.954  26.009  24.005  1.00  0.00    -0.269 OA
ATOM     13  H   UNL A   1      30.512  23.939  23.858  1.00  0.00     0.164 HD
BRANCH  11  14
ATOM     14  C   UNL A   1      30.875  26.909  25.018  1.00  0.00     0.039 A 
ATOM     15  C   UNL A   1      33.255  30.759  27.384  1.00  0.00     0.044 C 
ATOM     16  C   UNL A   1      32.442  29.696  26.681  1.00  0.00    -0.051 A 
ATOM     17  C   UNL A   1      32.443  28.160  27.476  1.00  0.00     0.004 A 
ATOM     18  C   UNL A   1      31.695  29.887  25.102  1.00  0.00     0.004 A 
ATOM     19  C   UNL A   1      31.724  26.743  26.657  1.00  0.00     0.014 A 
ATOM     20  C   UNL A   1      30.915  28.528  24.242  1.00  0.00     0.014 A 
ENDBRANCH  11  14
ENDBRANCH   6  10
ENDBRANCH   5   6
ENDBRANCH   3   5
ENDBRANCH   2   3
ENDBRANCH   1   2
BRANCH   1  21
ATOM     21  C   UNL A   1      37.802  21.049  25.315  1.00  0.00     0.275 C 
BRANCH  21  22
ATOM     22  O   UNL A   1      38.452  22.511  25.908  1.00  0.00    -0.458 OA
BRANCH  22  23
ATOM     23  C   UNL A   1      38.293  23.895  26.247  1.00  0.00     0.338 C 
ATOM     24  O   UNL A   1      37.233  24.463  25.983  1.00  0.00    -0.246 OA
BRANCH  23  25
ATOM     25  C   UNL A   1      39.327  24.734  27.056  1.00  0.00     0.060 A 
ATOM     26  C   UNL A   1      40.181  25.759  26.555  1.00  0.00     0.016 A 
ATOM     27  C   UNL A   1      39.069  24.795  28.388  1.00  0.00     0.016 A 
ATOM     28  C   UNL A   1      40.440  27.005  27.295  1.00  0.00     0.010 A 
ATOM     29  C   UNL A   1      39.165  26.056  28.974  1.00  0.00     0.010 A 
ATOM     30  C   UNL A   1      39.786  27.248  28.503  1.00  0.00    -0.014 A 
BRANCH  30  31
ATOM     31  C   UNL A   1      39.559  28.525  29.379  1.00  0.00     0.031 A 
ATOM     32  C   UNL A   1      38.522  29.674  29.263  1.00  0.00     0.074 A 
ATOM     33  C   UNL A   1      40.365  28.577  30.481  1.00  0.00     0.049 A 
ATOM     34  N   UNL A   1      38.724  30.958  29.093  1.00  0.00    -0.248 NA
ATOM     35  C   UNL A   1      37.089  29.470  29.487  1.00  0.00     0.031 C 
ATOM     36  C   UNL A   1      40.481  29.503  31.589  1.00  0.00     0.029 A 
ATOM     37  N   UNL A   1      41.473  27.746  30.721  1.00  0.00    -0.354 N 
ATOM     38  C   UNL A   1      37.505  31.620  29.406  1.00  0.00     0.074 A 
ATOM     39  C   UNL A   1      36.489  30.639  29.260  1.00  0.00     0.031 C 
ATOM     40  C   UNL A   1      41.758  29.440  32.047  1.00  0.00     0.029 A 
ATOM     41  C   UNL A   1      42.506  28.523  31.182  1.00  0.00     0.049 A 
ATOM     42  H   UNL A   1      41.503  26.771  30.582  1.00  0.00     0.167 HD
ATOM     43  C   UNL A   1      37.390  32.680  30.280  1.00  0.00     0.034 A 
ATOM     44  C   UNL A   1      43.523  28.720  30.291  1.00  0.00     0.034 A 
ATOM     45  C   UNL A   1      38.658  32.875  30.945  1.00  0.00     0.049 A 
ATOM     46  C   UNL A   1      43.563  30.178  29.921  1.00  0.00     0.074 A 
ATOM     47  C   UNL A   1      39.125  32.655  32.228  1.00  0.00     0.029 A 
ATOM     48  N   UNL A   1      39.755  33.096  30.158  1.00  0.00    -0.354 N 
ATOM     49  N   UNL A   1      42.591  31.003  30.193  1.00  0.00    -0.248 NA
ATOM     50  C   UNL A   1      44.668  30.837  29.244  1.00  0.00     0.031 C 
ATOM     51  C   UNL A   1      40.548  32.756  32.185  1.00  0.00     0.029 A 
ATOM     52  C   UNL A   1      40.912  33.052  30.884  1.00  0.00     0.049 A 
ATOM     53  H   UNL A   1      39.715  33.267  29.190  1.00  0.00     0.167 HD
ATOM     54  C   UNL A   1      42.930  32.271  29.842  1.00  0.00     0.074 A 
ATOM     55  C   UNL A   1      44.214  32.103  29.177  1.00  0.00     0.031 C 
ATOM     56  C   UNL A   1      42.126  33.333  30.154  1.00  0.00     0.034 A 
BRANCH  43  57
ATOM     57  C   UNL A   1      36.112  33.360  30.824  1.00  0.00     0.023 A 
ATOM     58  C   UNL A   1      35.320  34.143  29.942  1.00  0.00     0.031 A 
ATOM     59  C   UNL A   1      35.571  33.232  32.122  1.00  0.00     0.131 A 
ATOM     60  C   UNL A   1      34.142  34.805  30.352  1.00  0.00     0.055 A 
ATOM     61  C   UNL A   1      34.406  33.914  32.543  1.00  0.00     0.041 A 
ATOM     62  F   UNL A   1      36.107  32.406  33.031  1.00  0.00    -0.206 F 
ATOM     63  C   UNL A   1      33.689  34.712  31.660  1.00  0.00     0.022 A 
BRANCH  60  64
ATOM     64  S   UNL A   1      33.197  35.769  29.133  1.00  0.00     0.124 S 
ATOM     65  O   UNL A   1      32.419  34.733  28.459  1.00  0.00    -0.237 OA
ATOM     66  O   UNL A   1      32.449  36.694  29.977  1.00  0.00    -0.237 OA
ATOM     67  O   UNL A   1      34.234  36.392  28.311  1.00  0.00    -0.744 OA
ENDBRANCH  60  64
ENDBRANCH  43  57
BRANCH  44  68
ATOM     68  C   UNL A   1      43.786  27.515  29.383  1.00  0.00     0.023 A 
ATOM     69  C   UNL A   1      43.733  27.710  27.970  1.00  0.00     0.031 A 
ATOM     70  C   UNL A   1      44.411  26.333  29.815  1.00  0.00     0.131 A 
ATOM     71  C   UNL A   1      44.379  26.834  27.070  1.00  0.00     0.055 A 
ATOM     72  C   UNL A   1      45.003  25.424  28.908  1.00  0.00     0.041 A 
ATOM     73  F   UNL A   1      44.556  26.073  31.122  1.00  0.00    -0.206 F 
ATOM     74  C   UNL A   1      45.007  25.679  27.534  1.00  0.00     0.022 A 
BRANCH  71  75
ATOM     75  S   UNL A   1      44.715  27.426  25.363  1.00  0.00     0.124 S 
ATOM     76  O   UNL A   1      45.470  28.651  25.592  1.00  0.00    -0.237 OA
ATOM     77  O   UNL A   1      45.463  26.306  24.788  1.00  0.00    -0.237 OA
ATOM     78  O   UNL A   1      43.386  27.612  24.784  1.00  0.00    -0.744 OA
ENDBRANCH  71  75
ENDBRANCH  44  68
BRANCH  56  79
ATOM     79  C   UNL A   1      42.366  34.753  29.729  1.00  0.00     0.023 A 
ATOM     80  C   UNL A   1      43.362  35.510  30.332  1.00  0.00     0.031 A 
ATOM     81  C   UNL A   1      41.607  35.409  28.725  1.00  0.00     0.131 A 
ATOM     82  C   UNL A   1      43.700  36.769  29.830  1.00  0.00     0.055 A 
ATOM     83  C   UNL A   1      41.881  36.703  28.290  1.00  0.00     0.041 A 
ATOM     84  F   UNL A   1      40.579  34.833  28.088  1.00  0.00    -0.206 F 
ATOM     85  C   UNL A   1      42.962  37.381  28.819  1.00  0.00     0.022 A 
BRANCH  82  86
ATOM     86  S   UNL A   1      45.198  37.528  30.477  1.00  0.00     0.124 S 
ATOM     87  O   UNL A   1      45.659  36.538  31.446  1.00  0.00    -0.237 OA
ATOM     88  O   UNL A   1      46.009  37.653  29.270  1.00  0.00    -0.237 OA
ATOM     89  O   UNL A   1      44.725  38.787  31.046  1.00  0.00    -0.744 OA
ENDBRANCH  82  86
ENDBRANCH  56  79
ENDBRANCH  30  31
ENDBRANCH  23  25
ENDBRANCH  22  23
ENDBRANCH  21  22
ENDBRANCH   1  21
TORSDOF 17
ENDMDL
