MODEL 1
REMARK VINA RESULT:     -11.7      0.000      0.000
REMARK SMILES CCOc1ccc(-c2csc3ncn([C@H](C)C(=O)OCCOC(=O)c4ccc(-c5c6nc(c(-c7cc(S(=O)(=O)[O-])ccc7F)c7ccc([nH]7)c(-c7cc(S(=O)(=O)[O-])ccc7F)c7nc(c(-c8cc(S(=O)(=O)[O-])ccc8F)c8ccc5[nH]8)C=C7)C=C6)cc4)c(=O)c23)cc1
REMARK SMILES IDX 20 1 19 2 17 3 18 4 15 5 16 6 14 7 8 8 9 9 90 10 10 11 11 12
REMARK SMILES IDX 88 13 12 14 89 15 13 16 7 17 4 18 5 19 92 20 6 21 91 22 3 23
REMARK SMILES IDX 2 24 1 25 21 26 22 27 23 28 24 29 25 30 26 31 87 32 27 33
REMARK SMILES IDX 86 34 28 35 29 36 30 37 80 38 31 39 85 40 79 41 81 42 32 43
REMARK SMILES IDX 84 44 78 45 77 46 33 48 65 49 45 50 64 51 46 52 49 53 63 54
REMARK SMILES IDX 82 55 47 56 48 57 62 59 83 60 50 61 34 62 35 63 43 64 36 65
REMARK SMILES IDX 42 66 44 67 41 68 37 69 38 70 39 71 40 72 66 73 67 74 75 75
REMARK SMILES IDX 68 76 74 77 76 78 73 79 69 80 70 81 71 82 72 83 51 84 52 85
REMARK SMILES IDX 60 86 53 87 59 88 61 89 58 90 54 91 55 92 56 93 57 94
REMARK H PARENT 81 47 49 58
REMARK Flexibility Score: inf
ROOT
ATOM      1  C   UNL A   1      34.388  31.203  27.453  1.00  0.00     0.274 C 
ENDROOT
BRANCH   1   2
ATOM      2  O   UNL A   1      33.421  30.138  27.533  1.00  0.00    -0.461 OA
BRANCH   2   3
ATOM      3  C   UNL A   1      33.867  28.904  27.156  1.00  0.00     0.329 C 
ATOM      4  O   UNL A   1      34.999  28.687  26.734  1.00  0.00    -0.250 OA
BRANCH   3   5
ATOM      5  C   UNL A   1      32.745  27.858  27.138  1.00  0.00     0.198 C 
ATOM      6  C   UNL A   1      31.383  28.221  27.722  1.00  0.00     0.044 C 
BRANCH   5   7
ATOM      7  N   UNL A   1      32.676  27.454  25.739  1.00  0.00    -0.284 N 
ATOM      8  C   UNL A   1      32.967  24.565  23.339  1.00  0.00     0.007 A 
ATOM      9  C   UNL A   1      32.968  24.751  21.969  1.00  0.00     0.076 A 
ATOM     10  C   UNL A   1      32.839  25.818  24.021  1.00  0.00     0.085 A 
ATOM     11  S   UNL A   1      32.834  26.395  21.523  1.00  0.00    -0.123 S 
ATOM     12  C   UNL A   1      32.762  26.887  23.152  1.00  0.00     0.131 A 
ATOM     13  C   UNL A   1      32.812  26.103  25.442  1.00  0.00     0.263 A 
ATOM     14  N   UNL A   1      32.654  28.198  23.476  1.00  0.00    -0.227 NA
ATOM     15  O   UNL A   1      32.893  25.226  26.299  1.00  0.00    -0.268 OA
ATOM     16  C   UNL A   1      32.620  28.421  24.749  1.00  0.00     0.204 A 
BRANCH   8  17
ATOM     17  C   UNL A   1      33.110  23.229  23.902  1.00  0.00    -0.016 A 
ATOM     18  C   UNL A   1      33.434  20.650  24.944  1.00  0.00     0.119 A 
ATOM     19  C   UNL A   1      32.153  21.160  24.740  1.00  0.00     0.047 A 
ATOM     20  C   UNL A   1      34.550  21.412  24.609  1.00  0.00     0.047 A 
ATOM     21  C   UNL A   1      31.991  22.449  24.221  1.00  0.00     0.012 A 
ATOM     22  C   UNL A   1      34.390  22.703  24.112  1.00  0.00     0.012 A 
BRANCH  18  23
ATOM     23  O   UNL A   1      33.558  19.351  25.350  1.00  0.00    -0.494 OA
BRANCH  23  24
ATOM     24  C   UNL A   1      32.624  18.465  24.719  1.00  0.00     0.226 C 
ATOM     25  C   UNL A   1      33.261  17.697  23.571  1.00  0.00     0.049 C 
ENDBRANCH  23  24
ENDBRANCH  18  23
ENDBRANCH   8  17
ENDBRANCH   5   7
ENDBRANCH   3   5
ENDBRANCH   2   3
ENDBRANCH   1   2
BRANCH   1  26
ATOM     26  C   UNL A   1      35.057  31.438  28.800  1.00  0.00     0.275 C 
BRANCH  26  27
ATOM     27  O   UNL A   1      36.392  30.931  28.815  1.00  0.00    -0.458 OA
BRANCH  27  28
ATOM     28  C   UNL A   1      36.569  29.896  29.667  1.00  0.00     0.338 C 
ATOM     29  O   UNL A   1      36.070  29.771  30.773  1.00  0.00    -0.246 OA
BRANCH  28  30
ATOM     30  C   UNL A   1      37.620  29.005  29.199  1.00  0.00     0.060 A 
ATOM     31  C   UNL A   1      38.103  28.060  30.114  1.00  0.00     0.016 A 
ATOM     32  C   UNL A   1      38.335  29.394  28.064  1.00  0.00     0.016 A 
ATOM     33  C   UNL A   1      39.409  27.646  29.994  1.00  0.00     0.010 A 
ATOM     34  C   UNL A   1      39.646  29.012  27.971  1.00  0.00     0.010 A 
ATOM     35  C   UNL A   1      40.182  28.200  28.973  1.00  0.00    -0.014 A 
BRANCH  35  36
ATOM     36  C   UNL A   1      41.573  27.823  28.871  1.00  0.00     0.031 A 
ATOM     37  C   UNL A   1      41.755  26.539  28.166  1.00  0.00     0.074 A 
ATOM     38  C   UNL A   1      42.561  28.671  29.209  1.00  0.00     0.049 A 
ATOM     39  N   UNL A   1      42.196  25.423  28.642  1.00  0.00    -0.248 NA
ATOM     40  C   UNL A   1      41.176  26.425  26.815  1.00  0.00     0.031 C 
ATOM     41  C   UNL A   1      42.426  30.069  29.634  1.00  0.00     0.029 A 
ATOM     42  N   UNL A   1      43.906  28.503  29.115  1.00  0.00    -0.354 N 
ATOM     43  C   UNL A   1      42.185  24.545  27.565  1.00  0.00     0.074 A 
ATOM     44  C   UNL A   1      41.312  25.122  26.586  1.00  0.00     0.031 C 
ATOM     45  C   UNL A   1      43.631  30.677  29.543  1.00  0.00     0.029 A 
ATOM     46  C   UNL A   1      44.632  29.687  29.179  1.00  0.00     0.049 A 
ATOM     47  H   UNL A   1      44.330  27.620  29.011  1.00  0.00     0.167 HD
ATOM     48  C   UNL A   1      43.144  23.592  27.432  1.00  0.00     0.034 A 
ATOM     49  C   UNL A   1      45.947  29.848  28.881  1.00  0.00     0.034 A 
ATOM     50  C   UNL A   1      43.814  23.364  28.693  1.00  0.00     0.049 A 
ATOM     51  C   UNL A   1      46.576  28.509  28.969  1.00  0.00     0.074 A 
ATOM     52  C   UNL A   1      43.427  22.905  29.935  1.00  0.00     0.029 A 
ATOM     53  N   UNL A   1      45.017  24.007  28.875  1.00  0.00    -0.354 N 
ATOM     54  N   UNL A   1      46.665  27.831  30.079  1.00  0.00    -0.248 NA
ATOM     55  C   UNL A   1      46.736  27.719  27.756  1.00  0.00     0.031 C 
ATOM     56  C   UNL A   1      44.221  23.627  30.873  1.00  0.00     0.029 A 
ATOM     57  C   UNL A   1      45.095  24.459  30.170  1.00  0.00     0.049 A 
ATOM     58  H   UNL A   1      45.711  24.125  28.187  1.00  0.00     0.167 HD
ATOM     59  C   UNL A   1      46.449  26.513  29.714  1.00  0.00     0.074 A 
ATOM     60  C   UNL A   1      46.659  26.487  28.271  1.00  0.00     0.031 C 
ATOM     61  C   UNL A   1      45.838  25.643  30.572  1.00  0.00     0.034 A 
BRANCH  48  62
ATOM     62  C   UNL A   1      43.761  23.191  26.104  1.00  0.00     0.023 A 
ATOM     63  C   UNL A   1      43.772  21.818  25.799  1.00  0.00     0.031 A 
ATOM     64  C   UNL A   1      44.567  24.004  25.269  1.00  0.00     0.131 A 
ATOM     65  C   UNL A   1      44.616  21.303  24.800  1.00  0.00     0.055 A 
ATOM     66  C   UNL A   1      45.355  23.494  24.233  1.00  0.00     0.041 A 
ATOM     67  F   UNL A   1      44.724  25.320  25.449  1.00  0.00    -0.206 F 
ATOM     68  C   UNL A   1      45.409  22.133  24.013  1.00  0.00     0.022 A 
BRANCH  65  69
ATOM     69  S   UNL A   1      44.789  19.508  24.663  1.00  0.00     0.124 S 
ATOM     70  O   UNL A   1      43.841  19.043  25.669  1.00  0.00    -0.237 OA
ATOM     71  O   UNL A   1      44.418  19.278  23.270  1.00  0.00    -0.237 OA
ATOM     72  O   UNL A   1      46.197  19.279  24.978  1.00  0.00    -0.744 OA
ENDBRANCH  65  69
ENDBRANCH  48  62
BRANCH  49  73
ATOM     73  C   UNL A   1      46.591  31.019  28.228  1.00  0.00     0.023 A 
ATOM     74  C   UNL A   1      45.942  31.792  27.244  1.00  0.00     0.031 A 
ATOM     75  C   UNL A   1      47.791  31.542  28.758  1.00  0.00     0.131 A 
ATOM     76  C   UNL A   1      46.490  33.029  26.835  1.00  0.00     0.055 A 
ATOM     77  C   UNL A   1      48.332  32.762  28.347  1.00  0.00     0.041 A 
ATOM     78  F   UNL A   1      48.435  30.926  29.762  1.00  0.00    -0.206 F 
ATOM     79  C   UNL A   1      47.676  33.518  27.388  1.00  0.00     0.022 A 
BRANCH  76  80
ATOM     80  S   UNL A   1      45.607  34.076  25.634  1.00  0.00     0.124 S 
ATOM     81  O   UNL A   1      46.700  34.785  24.977  1.00  0.00    -0.237 OA
ATOM     82  O   UNL A   1      44.895  33.092  24.826  1.00  0.00    -0.237 OA
ATOM     83  O   UNL A   1      44.750  34.913  26.474  1.00  0.00    -0.744 OA
ENDBRANCH  76  80
ENDBRANCH  49  73
BRANCH  61  84
ATOM     84  C   UNL A   1      45.773  26.039  32.034  1.00  0.00     0.023 A 
ATOM     85  C   UNL A   1      44.654  26.629  32.668  1.00  0.00     0.031 A 
ATOM     86  C   UNL A   1      46.883  25.721  32.834  1.00  0.00     0.131 A 
ATOM     87  C   UNL A   1      44.684  26.887  34.053  1.00  0.00     0.055 A 
ATOM     88  C   UNL A   1      46.901  25.958  34.208  1.00  0.00     0.041 A 
ATOM     89  F   UNL A   1      47.965  25.136  32.295  1.00  0.00    -0.206 F 
ATOM     90  C   UNL A   1      45.803  26.549  34.822  1.00  0.00     0.022 A 
BRANCH  87  91
ATOM     91  S   UNL A   1      43.267  27.681  34.882  1.00  0.00     0.124 S 
ATOM     92  O   UNL A   1      43.751  29.024  35.177  1.00  0.00    -0.237 OA
ATOM     93  O   UNL A   1      42.215  27.587  33.873  1.00  0.00    -0.237 OA
ATOM     94  O   UNL A   1      43.049  26.842  36.063  1.00  0.00    -0.744 OA
ENDBRANCH  87  91
ENDBRANCH  61  84
ENDBRANCH  35  36
ENDBRANCH  28  30
ENDBRANCH  27  28
ENDBRANCH  26  27
ENDBRANCH   1  26
TORSDOF 18
ENDMDL
MODEL 2
REMARK VINA RESULT:     -11.7      4.887     10.612
REMARK SMILES CCOc1ccc(-c2csc3ncn([C@H](C)C(=O)OCCOC(=O)c4ccc(-c5c6nc(c(-c7cc(S(=O)(=O)[O-])ccc7F)c7ccc([nH]7)c(-c7cc(S(=O)(=O)[O-])ccc7F)c7nc(c(-c8cc(S(=O)(=O)[O-])ccc8F)c8ccc5[nH]8)C=C7)C=C6)cc4)c(=O)c23)cc1
REMARK SMILES IDX 20 1 19 2 17 3 18 4 15 5 16 6 14 7 8 8 9 9 90 10 10 11 11 12
REMARK SMILES IDX 88 13 12 14 89 15 13 16 7 17 4 18 5 19 92 20 6 21 91 22 3 23
REMARK SMILES IDX 2 24 1 25 21 26 22 27 23 28 24 29 25 30 26 31 87 32 27 33
REMARK SMILES IDX 86 34 28 35 29 36 30 37 80 38 31 39 85 40 79 41 81 42 32 43
REMARK SMILES IDX 84 44 78 45 77 46 33 48 65 49 45 50 64 51 46 52 49 53 63 54
REMARK SMILES IDX 82 55 47 56 48 57 62 59 83 60 50 61 34 62 35 63 43 64 36 65
REMARK SMILES IDX 42 66 44 67 41 68 37 69 38 70 39 71 40 72 66 73 67 74 75 75
REMARK SMILES IDX 68 76 74 77 76 78 73 79 69 80 70 81 71 82 72 83 51 84 52 85
REMARK SMILES IDX 60 86 53 87 59 88 61 89 58 90 54 91 55 92 56 93 57 94
REMARK H PARENT 81 47 49 58
REMARK Flexibility Score: inf
ROOT
ATOM      1  C   UNL A   1      41.989  20.762  26.289  1.00  0.00     0.274 C 
ENDROOT
BRANCH   1   2
ATOM      2  O   UNL A   1      43.053  21.665  26.648  1.00  0.00    -0.461 OA
BRANCH   2   3
ATOM      3  C   UNL A   1      43.791  22.152  25.607  1.00  0.00     0.329 C 
ATOM      4  O   UNL A   1      43.302  22.583  24.567  1.00  0.00    -0.250 OA
BRANCH   3   5
ATOM      5  C   UNL A   1      45.295  21.928  25.803  1.00  0.00     0.198 C 
ATOM      6  C   UNL A   1      46.040  21.007  24.840  1.00  0.00     0.044 C 
BRANCH   5   7
ATOM      7  N   UNL A   1      45.841  23.279  25.836  1.00  0.00    -0.284 N 
ATOM      8  C   UNL A   1      46.608  26.249  28.022  1.00  0.00     0.007 A 
ATOM      9  C   UNL A   1      47.020  27.458  27.494  1.00  0.00     0.076 A 
ATOM     10  C   UNL A   1      46.390  25.288  26.983  1.00  0.00     0.085 A 
ATOM     11  S   UNL A   1      47.125  27.435  25.789  1.00  0.00    -0.123 S 
ATOM     12  C   UNL A   1      46.631  25.807  25.727  1.00  0.00     0.131 A 
ATOM     13  C   UNL A   1      45.940  23.914  27.069  1.00  0.00     0.263 A 
ATOM     14  N   UNL A   1      46.501  25.165  24.540  1.00  0.00    -0.227 NA
ATOM     15  O   UNL A   1      45.679  23.363  28.137  1.00  0.00    -0.268 OA
ATOM     16  C   UNL A   1      46.110  23.938  24.648  1.00  0.00     0.204 A 
BRANCH   8  17
ATOM     17  C   UNL A   1      46.427  26.096  29.460  1.00  0.00    -0.016 A 
ATOM     18  C   UNL A   1      46.031  25.845  32.221  1.00  0.00     0.119 A 
ATOM     19  C   UNL A   1      47.326  25.874  31.706  1.00  0.00     0.047 A 
ATOM     20  C   UNL A   1      44.937  25.963  31.368  1.00  0.00     0.047 A 
ATOM     21  C   UNL A   1      47.523  25.998  30.326  1.00  0.00     0.012 A 
ATOM     22  C   UNL A   1      45.133  26.066  29.992  1.00  0.00     0.012 A 
BRANCH  18  23
ATOM     23  O   UNL A   1      45.873  25.831  33.578  1.00  0.00    -0.494 OA
BRANCH  23  24
ATOM     24  C   UNL A   1      46.314  24.611  34.190  1.00  0.00     0.226 C 
ATOM     25  C   UNL A   1      45.248  23.528  34.125  1.00  0.00     0.049 C 
ENDBRANCH  23  24
ENDBRANCH  18  23
ENDBRANCH   8  17
ENDBRANCH   5   7
ENDBRANCH   3   5
ENDBRANCH   2   3
ENDBRANCH   1   2
BRANCH   1  26
ATOM     26  C   UNL A   1      40.830  20.861  27.273  1.00  0.00     0.275 C 
BRANCH  26  27
ATOM     27  O   UNL A   1      40.815  22.127  27.933  1.00  0.00    -0.458 OA
BRANCH  27  28
ATOM     28  C   UNL A   1      40.081  23.064  27.292  1.00  0.00     0.338 C 
ATOM     29  O   UNL A   1      39.095  22.868  26.601  1.00  0.00    -0.246 OA
BRANCH  28  30
ATOM     30  C   UNL A   1      40.731  24.365  27.343  1.00  0.00     0.060 A 
ATOM     31  C   UNL A   1      41.804  24.501  28.233  1.00  0.00     0.016 A 
ATOM     32  C   UNL A   1      40.024  25.458  26.836  1.00  0.00     0.016 A 
ATOM     33  C   UNL A   1      42.046  25.741  28.777  1.00  0.00     0.010 A 
ATOM     34  C   UNL A   1      40.240  26.682  27.409  1.00  0.00     0.010 A 
ATOM     35  C   UNL A   1      41.199  26.791  28.419  1.00  0.00    -0.014 A 
BRANCH  35  36
ATOM     36  C   UNL A   1      41.399  28.086  29.029  1.00  0.00     0.031 A 
ATOM     37  C   UNL A   1      42.572  28.791  28.474  1.00  0.00     0.074 A 
ATOM     38  C   UNL A   1      40.484  28.628  29.851  1.00  0.00     0.049 A 
ATOM     39  N   UNL A   1      43.673  29.100  29.071  1.00  0.00    -0.248 NA
ATOM     40  C   UNL A   1      42.607  28.991  27.013  1.00  0.00     0.031 C 
ATOM     41  C   UNL A   1      39.164  28.086  30.194  1.00  0.00     0.029 A 
ATOM     42  N   UNL A   1      40.485  29.847  30.451  1.00  0.00    -0.354 N 
ATOM     43  C   UNL A   1      44.427  29.764  28.110  1.00  0.00     0.074 A 
ATOM     44  C   UNL A   1      43.854  29.420  26.843  1.00  0.00     0.031 C 
ATOM     45  C   UNL A   1      38.415  29.064  30.750  1.00  0.00     0.029 A 
ATOM     46  C   UNL A   1      39.238  30.252  30.916  1.00  0.00     0.049 A 
ATOM     47  H   UNL A   1      41.297  30.396  30.549  1.00  0.00     0.167 HD
ATOM     48  C   UNL A   1      45.243  30.794  28.454  1.00  0.00     0.034 A 
ATOM     49  C   UNL A   1      38.895  31.497  31.336  1.00  0.00     0.034 A 
ATOM     50  C   UNL A   1      45.525  30.770  29.872  1.00  0.00     0.049 A 
ATOM     51  C   UNL A   1      40.154  32.195  31.689  1.00  0.00     0.074 A 
ATOM     52  C   UNL A   1      46.156  29.889  30.726  1.00  0.00     0.029 A 
ATOM     53  N   UNL A   1      44.771  31.605  30.664  1.00  0.00    -0.354 N 
ATOM     54  N   UNL A   1      40.932  31.819  32.666  1.00  0.00    -0.248 NA
ATOM     55  C   UNL A   1      40.787  33.059  30.702  1.00  0.00     0.031 C 
ATOM     56  C   UNL A   1      45.451  29.986  31.962  1.00  0.00     0.029 A 
ATOM     57  C   UNL A   1      44.453  30.955  31.831  1.00  0.00     0.049 A 
ATOM     58  H   UNL A   1      44.501  32.522  30.430  1.00  0.00     0.167 HD
ATOM     59  C   UNL A   1      42.220  32.021  32.198  1.00  0.00     0.074 A 
ATOM     60  C   UNL A   1      42.067  32.925  31.064  1.00  0.00     0.031 C 
ATOM     61  C   UNL A   1      43.241  31.204  32.595  1.00  0.00     0.034 A 
BRANCH  48  62
ATOM     62  C   UNL A   1      45.426  32.046  27.614  1.00  0.00     0.023 A 
ATOM     63  C   UNL A   1      46.726  32.310  27.144  1.00  0.00     0.031 A 
ATOM     64  C   UNL A   1      44.505  33.115  27.481  1.00  0.00     0.131 A 
ATOM     65  C   UNL A   1      47.084  33.586  26.680  1.00  0.00     0.055 A 
ATOM     66  C   UNL A   1      44.851  34.364  26.957  1.00  0.00     0.041 A 
ATOM     67  F   UNL A   1      43.246  33.063  27.928  1.00  0.00    -0.206 F 
ATOM     68  C   UNL A   1      46.155  34.618  26.583  1.00  0.00     0.022 A 
BRANCH  65  69
ATOM     69  S   UNL A   1      48.833  33.926  26.367  1.00  0.00     0.124 S 
ATOM     70  O   UNL A   1      49.095  35.010  27.307  1.00  0.00    -0.237 OA
ATOM     71  O   UNL A   1      49.447  32.639  26.676  1.00  0.00    -0.237 OA
ATOM     72  O   UNL A   1      48.856  34.305  24.956  1.00  0.00    -0.744 OA
ENDBRANCH  65  69
ENDBRANCH  48  62
BRANCH  49  73
ATOM     73  C   UNL A   1      37.595  32.192  31.142  1.00  0.00     0.023 A 
ATOM     74  C   UNL A   1      36.836  32.695  32.218  1.00  0.00     0.031 A 
ATOM     75  C   UNL A   1      37.200  32.588  29.845  1.00  0.00     0.131 A 
ATOM     76  C   UNL A   1      35.742  33.557  31.975  1.00  0.00     0.055 A 
ATOM     77  C   UNL A   1      36.115  33.435  29.610  1.00  0.00     0.041 A 
ATOM     78  F   UNL A   1      37.912  32.236  28.763  1.00  0.00    -0.206 F 
ATOM     79  C   UNL A   1      35.386  33.933  30.677  1.00  0.00     0.022 A 
BRANCH  76  80
ATOM     80  S   UNL A   1      34.816  34.285  33.365  1.00  0.00     0.124 S 
ATOM     81  O   UNL A   1      35.362  35.636  33.429  1.00  0.00    -0.237 OA
ATOM     82  O   UNL A   1      33.433  34.166  32.916  1.00  0.00    -0.237 OA
ATOM     83  O   UNL A   1      35.168  33.427  34.496  1.00  0.00    -0.744 OA
ENDBRANCH  76  80
ENDBRANCH  49  73
BRANCH  61  84
ATOM     84  C   UNL A   1      43.013  30.357  33.831  1.00  0.00     0.023 A 
ATOM     85  C   UNL A   1      42.449  29.059  33.835  1.00  0.00     0.031 A 
ATOM     86  C   UNL A   1      43.473  30.872  35.055  1.00  0.00     0.131 A 
ATOM     87  C   UNL A   1      42.354  28.337  35.042  1.00  0.00     0.055 A 
ATOM     88  C   UNL A   1      43.396  30.146  36.242  1.00  0.00     0.041 A 
ATOM     89  F   UNL A   1      44.042  32.088  35.110  1.00  0.00    -0.206 F 
ATOM     90  C   UNL A   1      42.829  28.876  36.241  1.00  0.00     0.022 A 
BRANCH  87  91
ATOM     91  S   UNL A   1      41.595  26.679  35.074  1.00  0.00     0.124 S 
ATOM     92  O   UNL A   1      40.471  26.798  34.153  1.00  0.00    -0.237 OA
ATOM     93  O   UNL A   1      42.692  25.819  34.638  1.00  0.00    -0.237 OA
ATOM     94  O   UNL A   1      41.214  26.506  36.478  1.00  0.00    -0.744 OA
ENDBRANCH  87  91
ENDBRANCH  61  84
ENDBRANCH  35  36
ENDBRANCH  28  30
ENDBRANCH  27  28
ENDBRANCH  26  27
ENDBRANCH   1  26
TORSDOF 18
ENDMDL
MODEL 3
REMARK VINA RESULT:     -11.5      4.876     10.897
REMARK SMILES CCOc1ccc(-c2csc3ncn([C@H](C)C(=O)OCCOC(=O)c4ccc(-c5c6nc(c(-c7cc(S(=O)(=O)[O-])ccc7F)c7ccc([nH]7)c(-c7cc(S(=O)(=O)[O-])ccc7F)c7nc(c(-c8cc(S(=O)(=O)[O-])ccc8F)c8ccc5[nH]8)C=C7)C=C6)cc4)c(=O)c23)cc1
REMARK SMILES IDX 20 1 19 2 17 3 18 4 15 5 16 6 14 7 8 8 9 9 90 10 10 11 11 12
REMARK SMILES IDX 88 13 12 14 89 15 13 16 7 17 4 18 5 19 92 20 6 21 91 22 3 23
REMARK SMILES IDX 2 24 1 25 21 26 22 27 23 28 24 29 25 30 26 31 87 32 27 33
REMARK SMILES IDX 86 34 28 35 29 36 30 37 80 38 31 39 85 40 79 41 81 42 32 43
REMARK SMILES IDX 84 44 78 45 77 46 33 48 65 49 45 50 64 51 46 52 49 53 63 54
REMARK SMILES IDX 82 55 47 56 48 57 62 59 83 60 50 61 34 62 35 63 43 64 36 65
REMARK SMILES IDX 42 66 44 67 41 68 37 69 38 70 39 71 40 72 66 73 67 74 75 75
REMARK SMILES IDX 68 76 74 77 76 78 73 79 69 80 70 81 71 82 72 83 51 84 52 85
REMARK SMILES IDX 60 86 53 87 59 88 61 89 58 90 54 91 55 92 56 93 57 94
REMARK H PARENT 81 47 49 58
REMARK Flexibility Score: inf
ROOT
ATOM      1  C   UNL A   1      42.495  20.886  26.924  1.00  0.00     0.274 C 
ENDROOT
BRANCH   1   2
ATOM      2  O   UNL A   1      42.638  21.224  25.531  1.00  0.00    -0.461 OA
BRANCH   2   3
ATOM      3  C   UNL A   1      43.601  22.147  25.242  1.00  0.00     0.329 C 
ATOM      4  O   UNL A   1      43.387  23.187  24.627  1.00  0.00    -0.250 OA
BRANCH   3   5
ATOM      5  C   UNL A   1      45.008  21.655  25.604  1.00  0.00     0.198 C 
ATOM      6  C   UNL A   1      45.581  20.444  24.874  1.00  0.00     0.044 C 
BRANCH   5   7
ATOM      7  N   UNL A   1      45.834  22.848  25.463  1.00  0.00    -0.284 N 
ATOM      8  C   UNL A   1      47.066  25.973  27.169  1.00  0.00     0.007 A 
ATOM      9  C   UNL A   1      47.774  26.946  26.489  1.00  0.00     0.076 A 
ATOM     10  C   UNL A   1      46.722  24.890  26.296  1.00  0.00     0.085 A 
ATOM     11  S   UNL A   1      48.003  26.567  24.839  1.00  0.00    -0.123 S 
ATOM     12  C   UNL A   1      47.168  25.092  25.006  1.00  0.00     0.131 A 
ATOM     13  C   UNL A   1      45.975  23.679  26.569  1.00  0.00     0.263 A 
ATOM     14  N   UNL A   1      46.993  24.270  23.944  1.00  0.00    -0.227 NA
ATOM     15  O   UNL A   1      45.517  23.413  27.678  1.00  0.00    -0.268 OA
ATOM     16  C   UNL A   1      46.334  23.192  24.218  1.00  0.00     0.204 A 
BRANCH   8  17
ATOM     17  C   UNL A   1      46.744  26.145  28.580  1.00  0.00    -0.016 A 
ATOM     18  C   UNL A   1      46.153  26.418  31.304  1.00  0.00     0.119 A 
ATOM     19  C   UNL A   1      45.212  26.797  30.349  1.00  0.00     0.047 A 
ATOM     20  C   UNL A   1      47.375  25.884  30.906  1.00  0.00     0.047 A 
ATOM     21  C   UNL A   1      45.508  26.662  28.987  1.00  0.00     0.012 A 
ATOM     22  C   UNL A   1      47.679  25.768  29.551  1.00  0.00     0.012 A 
BRANCH  18  23
ATOM     23  O   UNL A   1      45.794  26.462  32.622  1.00  0.00    -0.494 OA
BRANCH  23  24
ATOM     24  C   UNL A   1      46.034  25.232  33.318  1.00  0.00     0.226 C 
ATOM     25  C   UNL A   1      44.956  24.199  33.029  1.00  0.00     0.049 C 
ENDBRANCH  23  24
ENDBRANCH  18  23
ENDBRANCH   8  17
ENDBRANCH   5   7
ENDBRANCH   3   5
ENDBRANCH   2   3
ENDBRANCH   1   2
BRANCH   1  26
ATOM     26  C   UNL A   1      41.065  21.109  27.398  1.00  0.00     0.275 C 
BRANCH  26  27
ATOM     27  O   UNL A   1      40.923  22.370  28.054  1.00  0.00    -0.458 OA
BRANCH  27  28
ATOM     28  C   UNL A   1      40.144  23.246  27.380  1.00  0.00     0.338 C 
ATOM     29  O   UNL A   1      39.188  22.974  26.672  1.00  0.00    -0.246 OA
BRANCH  28  30
ATOM     30  C   UNL A   1      40.707  24.587  27.420  1.00  0.00     0.060 A 
ATOM     31  C   UNL A   1      41.750  24.807  28.330  1.00  0.00     0.016 A 
ATOM     32  C   UNL A   1      39.942  25.623  26.879  1.00  0.00     0.016 A 
ATOM     33  C   UNL A   1      41.898  26.070  28.855  1.00  0.00     0.010 A 
ATOM     34  C   UNL A   1      40.066  26.867  27.434  1.00  0.00     0.010 A 
ATOM     35  C   UNL A   1      40.994  27.056  28.460  1.00  0.00    -0.014 A 
BRANCH  35  36
ATOM     36  C   UNL A   1      41.096  28.371  29.051  1.00  0.00     0.031 A 
ATOM     37  C   UNL A   1      42.229  29.144  28.503  1.00  0.00     0.074 A 
ATOM     38  C   UNL A   1      40.132  28.865  29.847  1.00  0.00     0.049 A 
ATOM     39  N   UNL A   1      43.297  29.536  29.113  1.00  0.00    -0.248 NA
ATOM     40  C   UNL A   1      42.278  29.321  27.040  1.00  0.00     0.031 C 
ATOM     41  C   UNL A   1      38.846  28.242  30.177  1.00  0.00     0.029 A 
ATOM     42  N   UNL A   1      40.041  30.091  30.426  1.00  0.00    -0.354 N 
ATOM     43  C   UNL A   1      44.022  30.232  28.154  1.00  0.00     0.074 A 
ATOM     44  C   UNL A   1      43.496  29.830  26.883  1.00  0.00     0.031 C 
ATOM     45  C   UNL A   1      38.023  29.177  30.703  1.00  0.00     0.029 A 
ATOM     46  C   UNL A   1      38.762  30.419  30.862  1.00  0.00     0.049 A 
ATOM     47  H   UNL A   1      40.813  30.695  30.527  1.00  0.00     0.167 HD
ATOM     48  C   UNL A   1      44.762  31.320  28.493  1.00  0.00     0.034 A 
ATOM     49  C   UNL A   1      38.330  31.646  31.253  1.00  0.00     0.034 A 
ATOM     50  C   UNL A   1      45.018  31.338  29.915  1.00  0.00     0.049 A 
ATOM     51  C   UNL A   1      39.533  32.432  31.615  1.00  0.00     0.074 A 
ATOM     52  C   UNL A   1      45.691  30.516  30.796  1.00  0.00     0.029 A 
ATOM     53  N   UNL A   1      44.196  32.134  30.679  1.00  0.00    -0.354 N 
ATOM     54  N   UNL A   1      40.316  32.126  32.612  1.00  0.00    -0.248 NA
ATOM     55  C   UNL A   1      40.125  33.320  30.623  1.00  0.00     0.031 C 
ATOM     56  C   UNL A   1      44.959  30.586  32.017  1.00  0.00     0.029 A 
ATOM     57  C   UNL A   1      43.902  31.484  31.852  1.00  0.00     0.049 A 
ATOM     58  H   UNL A   1      43.870  33.028  30.425  1.00  0.00     0.167 HD
ATOM     59  C   UNL A   1      41.596  32.405  32.162  1.00  0.00     0.074 A 
ATOM     60  C   UNL A   1      41.404  33.278  31.010  1.00  0.00     0.031 C 
ATOM     61  C   UNL A   1      42.662  31.665  32.591  1.00  0.00     0.034 A 
BRANCH  48  62
ATOM     62  C   UNL A   1      44.876  32.567  27.634  1.00  0.00     0.023 A 
ATOM     63  C   UNL A   1      44.166  33.702  28.066  1.00  0.00     0.031 A 
ATOM     64  C   UNL A   1      45.387  32.638  26.313  1.00  0.00     0.131 A 
ATOM     65  C   UNL A   1      43.906  34.771  27.193  1.00  0.00     0.055 A 
ATOM     66  C   UNL A   1      45.180  33.733  25.470  1.00  0.00     0.041 A 
ATOM     67  F   UNL A   1      46.033  31.631  25.718  1.00  0.00    -0.206 F 
ATOM     68  C   UNL A   1      44.408  34.796  25.895  1.00  0.00     0.022 A 
BRANCH  65  69
ATOM     69  S   UNL A   1      42.749  36.055  27.727  1.00  0.00     0.124 S 
ATOM     70  O   UNL A   1      41.567  35.268  28.057  1.00  0.00    -0.237 OA
ATOM     71  O   UNL A   1      43.464  36.651  28.852  1.00  0.00    -0.237 OA
ATOM     72  O   UNL A   1      42.622  36.908  26.548  1.00  0.00    -0.744 OA
ENDBRANCH  65  69
ENDBRANCH  48  62
BRANCH  49  73
ATOM     73  C   UNL A   1      36.990  32.249  31.025  1.00  0.00     0.023 A 
ATOM     74  C   UNL A   1      36.295  32.955  32.028  1.00  0.00     0.031 A 
ATOM     75  C   UNL A   1      36.480  32.344  29.711  1.00  0.00     0.131 A 
ATOM     76  C   UNL A   1      35.149  33.716  31.699  1.00  0.00     0.055 A 
ATOM     77  C   UNL A   1      35.345  33.092  29.392  1.00  0.00     0.041 A 
ATOM     78  F   UNL A   1      37.121  31.783  28.674  1.00  0.00    -0.206 F 
ATOM     79  C   UNL A   1      34.679  33.791  30.385  1.00  0.00     0.022 A 
BRANCH  76  80
ATOM     80  S   UNL A   1      34.303  34.705  32.973  1.00  0.00     0.124 S 
ATOM     81  O   UNL A   1      32.936  34.760  32.466  1.00  0.00    -0.237 OA
ATOM     82  O   UNL A   1      34.516  33.910  34.178  1.00  0.00    -0.237 OA
ATOM     83  O   UNL A   1      35.019  35.980  32.947  1.00  0.00    -0.744 OA
ENDBRANCH  76  80
ENDBRANCH  49  73
BRANCH  61  84
ATOM     84  C   UNL A   1      42.468  30.825  33.838  1.00  0.00     0.023 A 
ATOM     85  C   UNL A   1      42.147  29.447  33.849  1.00  0.00     0.031 A 
ATOM     86  C   UNL A   1      42.707  31.449  35.074  1.00  0.00     0.131 A 
ATOM     87  C   UNL A   1      42.064  28.753  35.073  1.00  0.00     0.055 A 
ATOM     88  C   UNL A   1      42.644  30.754  36.281  1.00  0.00     0.041 A 
ATOM     89  F   UNL A   1      43.042  32.749  35.127  1.00  0.00    -0.206 F 
ATOM     90  C   UNL A   1      42.316  29.403  36.285  1.00  0.00     0.022 A 
BRANCH  87  91
ATOM     91  S   UNL A   1      41.613  26.987  35.111  1.00  0.00     0.124 S 
ATOM     92  O   UNL A   1      40.506  26.895  34.167  1.00  0.00    -0.237 OA
ATOM     93  O   UNL A   1      42.855  26.333  34.706  1.00  0.00    -0.237 OA
ATOM     94  O   UNL A   1      41.239  26.760  36.509  1.00  0.00    -0.744 OA
ENDBRANCH  87  91
ENDBRANCH  61  84
ENDBRANCH  35  36
ENDBRANCH  28  30
ENDBRANCH  27  28
ENDBRANCH  26  27
ENDBRANCH   1  26
TORSDOF 18
ENDMDL
