MODEL 1
REMARK VINA RESULT:     -11.8      0.000      0.000
REMARK SMILES COc1ccccc1NC(=O)N[C@@](C)(C(=O)OCCOC(=O)c1ccc(-c2c3nc(c(-c4cc(S(=O)(=O)[O-])ccc4F)c4ccc([nH]4)c(-c4cc(S(=O)(=O)[O-])ccc4F)c4nc(c(-c5cc(S(=O)(=O)[O-])ccc5F)c5ccc2[nH]5)C=C4)C=C3)cc1)C(F)(F)F
REMARK SMILES IDX 18 1 17 2 15 3 16 4 13 5 14 6 12 7 9 8 10 9 11 11 8 13 3 14
REMARK SMILES IDX 4 15 5 16 7 17 6 18 2 19 1 20 86 21 87 22 88 23 89 24 19 25
REMARK SMILES IDX 20 26 21 27 22 28 23 29 24 30 85 31 25 32 84 33 26 34 27 35
REMARK SMILES IDX 28 36 78 37 29 38 83 39 77 40 79 41 30 42 82 43 76 44 75 45
REMARK SMILES IDX 31 47 63 48 43 49 62 50 44 51 47 52 61 53 80 54 45 55 46 56
REMARK SMILES IDX 60 58 81 59 48 60 32 61 33 62 41 63 34 64 40 65 42 66 39 67
REMARK SMILES IDX 35 68 36 69 37 70 38 71 64 72 65 73 73 74 66 75 72 76 74 77
REMARK SMILES IDX 71 78 67 79 68 80 69 81 70 82 49 83 50 84 58 85 51 86 57 87
REMARK SMILES IDX 59 88 56 89 52 90 53 91 54 92 55 93
REMARK H PARENT 9 10 12 12 79 46 47 57
REMARK Flexibility Score: inf
ROOT
ATOM      1  C   UNL A   1      34.326  21.019  24.525  1.00  0.00     0.274 C 
ENDROOT
BRANCH   1   2
ATOM      2  O   UNL A   1      34.210  22.446  24.343  1.00  0.00    -0.460 OA
BRANCH   2   3
ATOM      3  C   UNL A   1      32.996  22.935  24.740  1.00  0.00     0.341 C 
ATOM      4  O   UNL A   1      32.144  22.242  25.289  1.00  0.00    -0.249 OA
BRANCH   3   5
ATOM      5  C   UNL A   1      32.902  24.466  24.599  1.00  0.00     0.232 C 
ATOM      6  C   UNL A   1      31.441  24.841  24.884  1.00  0.00     0.058 C 
BRANCH   5   7
ATOM      7  N   UNL A   1      33.203  24.820  23.179  1.00  0.00    -0.314 N 
ATOM      8  N   UNL A   1      33.360  27.158  22.694  1.00  0.00    -0.305 N 
ATOM      9  C   UNL A   1      33.331  25.869  22.371  1.00  0.00     0.320 C 
ATOM     10  H   UNL A   1      33.823  27.676  21.995  1.00  0.00     0.172 HD
ATOM     11  O   UNL A   1      33.583  25.573  21.195  1.00  0.00    -0.248 OA
ATOM     12  H   UNL A   1      33.362  23.995  22.666  1.00  0.00     0.166 HD
BRANCH   8  13
ATOM     13  C   UNL A   1      32.937  28.006  23.723  1.00  0.00     0.085 A 
ATOM     14  C   UNL A   1      31.573  28.353  23.739  1.00  0.00     0.142 A 
ATOM     15  C   UNL A   1      31.070  29.291  24.637  1.00  0.00     0.048 A 
ATOM     16  C   UNL A   1      31.918  29.828  25.600  1.00  0.00     0.004 A 
ATOM     17  C   UNL A   1      33.744  28.461  24.754  1.00  0.00     0.030 A 
ATOM     18  C   UNL A   1      33.240  29.386  25.683  1.00  0.00     0.002 A 
BRANCH  14  19
ATOM     19  O   UNL A   1      30.740  27.811  22.789  1.00  0.00    -0.495 OA
ATOM     20  C   UNL A   1      29.564  28.616  22.650  1.00  0.00     0.278 C 
ENDBRANCH  14  19
ENDBRANCH   8  13
ENDBRANCH   5   7
BRANCH   5  21
ATOM     21  C   UNL A   1      33.854  24.918  25.719  1.00  0.00     0.422 C 
ATOM     22  F   UNL A   1      35.033  25.338  25.229  1.00  0.00    -0.168 F 
ATOM     23  F   UNL A   1      33.322  25.912  26.463  1.00  0.00    -0.168 F 
ATOM     24  F   UNL A   1      34.146  23.937  26.612  1.00  0.00    -0.168 F 
ENDBRANCH   5  21
ENDBRANCH   3   5
ENDBRANCH   2   3
ENDBRANCH   1   2
BRANCH   1  25
ATOM     25  C   UNL A   1      35.585  20.688  25.322  1.00  0.00     0.275 C 
BRANCH  25  26
ATOM     26  O   UNL A   1      36.566  21.716  25.098  1.00  0.00    -0.458 OA
BRANCH  26  27
ATOM     27  C   UNL A   1      37.849  21.371  25.384  1.00  0.00     0.338 C 
ATOM     28  O   UNL A   1      38.389  20.320  25.084  1.00  0.00    -0.246 OA
BRANCH  27  29
ATOM     29  C   UNL A   1      38.544  22.465  26.112  1.00  0.00     0.060 A 
ATOM     30  C   UNL A   1      38.096  23.782  26.053  1.00  0.00     0.016 A 
ATOM     31  C   UNL A   1      39.734  22.191  26.786  1.00  0.00     0.016 A 
ATOM     32  C   UNL A   1      38.899  24.829  26.521  1.00  0.00     0.010 A 
ATOM     33  C   UNL A   1      40.465  23.233  27.378  1.00  0.00     0.010 A 
ATOM     34  C   UNL A   1      40.093  24.581  27.211  1.00  0.00    -0.014 A 
BRANCH  34  35
ATOM     35  C   UNL A   1      40.985  25.687  27.705  1.00  0.00     0.031 A 
ATOM     36  C   UNL A   1      40.418  26.756  28.614  1.00  0.00     0.074 A 
ATOM     37  C   UNL A   1      42.291  25.780  27.369  1.00  0.00     0.049 A 
ATOM     38  N   UNL A   1      40.852  27.970  28.847  1.00  0.00    -0.248 NA
ATOM     39  C   UNL A   1      39.176  26.421  29.328  1.00  0.00     0.031 C 
ATOM     40  C   UNL A   1      43.049  24.811  26.578  1.00  0.00     0.029 A 
ATOM     41  N   UNL A   1      43.222  26.756  27.659  1.00  0.00    -0.354 N 
ATOM     42  C   UNL A   1      39.883  28.578  29.643  1.00  0.00     0.074 A 
ATOM     43  C   UNL A   1      38.849  27.588  29.866  1.00  0.00     0.031 C 
ATOM     44  C   UNL A   1      44.329  25.205  26.497  1.00  0.00     0.029 A 
ATOM     45  C   UNL A   1      44.461  26.524  27.103  1.00  0.00     0.049 A 
ATOM     46  H   UNL A   1      43.020  27.544  28.214  1.00  0.00     0.167 HD
ATOM     47  C   UNL A   1      39.856  29.847  30.126  1.00  0.00     0.034 A 
ATOM     48  C   UNL A   1      45.560  27.303  27.013  1.00  0.00     0.034 A 
ATOM     49  C   UNL A   1      40.941  30.789  29.988  1.00  0.00     0.049 A 
ATOM     50  C   UNL A   1      45.510  28.713  27.545  1.00  0.00     0.074 A 
ATOM     51  C   UNL A   1      41.014  32.097  30.440  1.00  0.00     0.029 A 
ATOM     52  N   UNL A   1      42.161  30.514  29.388  1.00  0.00    -0.354 N 
ATOM     53  N   UNL A   1      44.523  29.337  28.143  1.00  0.00    -0.248 NA
ATOM     54  C   UNL A   1      46.715  29.535  27.356  1.00  0.00     0.031 C 
ATOM     55  C   UNL A   1      42.261  32.622  30.082  1.00  0.00     0.029 A 
ATOM     56  C   UNL A   1      42.990  31.624  29.460  1.00  0.00     0.049 A 
ATOM     57  H   UNL A   1      42.405  29.655  28.972  1.00  0.00     0.167 HD
ATOM     58  C   UNL A   1      44.992  30.622  28.404  1.00  0.00     0.074 A 
ATOM     59  C   UNL A   1      46.357  30.675  27.928  1.00  0.00     0.031 C 
ATOM     60  C   UNL A   1      44.347  31.670  28.975  1.00  0.00     0.034 A 
BRANCH  47  61
ATOM     61  C   UNL A   1      38.587  30.315  30.797  1.00  0.00     0.023 A 
ATOM     62  C   UNL A   1      37.559  30.966  30.098  1.00  0.00     0.031 A 
ATOM     63  C   UNL A   1      38.408  30.095  32.177  1.00  0.00     0.131 A 
ATOM     64  C   UNL A   1      36.428  31.427  30.789  1.00  0.00     0.055 A 
ATOM     65  C   UNL A   1      37.248  30.491  32.845  1.00  0.00     0.041 A 
ATOM     66  F   UNL A   1      39.364  29.490  32.902  1.00  0.00    -0.206 F 
ATOM     67  C   UNL A   1      36.253  31.173  32.152  1.00  0.00     0.022 A 
BRANCH  64  68
ATOM     68  S   UNL A   1      35.236  32.468  29.903  1.00  0.00     0.124 S 
ATOM     69  O   UNL A   1      34.336  32.869  30.983  1.00  0.00    -0.237 OA
ATOM     70  O   UNL A   1      36.083  33.521  29.357  1.00  0.00    -0.237 OA
ATOM     71  O   UNL A   1      34.652  31.561  28.918  1.00  0.00    -0.744 OA
ENDBRANCH  64  68
ENDBRANCH  47  61
BRANCH  48  72
ATOM     72  C   UNL A   1      46.778  26.819  26.297  1.00  0.00     0.023 A 
ATOM     73  C   UNL A   1      47.839  26.224  27.000  1.00  0.00     0.031 A 
ATOM     74  C   UNL A   1      46.928  27.001  24.911  1.00  0.00     0.131 A 
ATOM     75  C   UNL A   1      49.016  25.869  26.320  1.00  0.00     0.055 A 
ATOM     76  C   UNL A   1      48.072  26.586  24.229  1.00  0.00     0.041 A 
ATOM     77  F   UNL A   1      45.951  27.576  24.191  1.00  0.00    -0.206 F 
ATOM     78  C   UNL A   1      49.132  26.029  24.938  1.00  0.00     0.022 A 
BRANCH  75  79
ATOM     79  S   UNL A   1      50.436  25.290  27.287  1.00  0.00     0.124 S 
ATOM     80  O   UNL A   1      50.753  26.468  28.086  1.00  0.00    -0.237 OA
ATOM     81  O   UNL A   1      49.867  24.157  28.011  1.00  0.00    -0.237 OA
ATOM     82  O   UNL A   1      51.423  24.941  26.267  1.00  0.00    -0.744 OA
ENDBRANCH  75  79
ENDBRANCH  48  72
BRANCH  60  83
ATOM     83  C   UNL A   1      45.137  32.941  29.155  1.00  0.00     0.023 A 
ATOM     84  C   UNL A   1      45.277  33.876  28.114  1.00  0.00     0.031 A 
ATOM     85  C   UNL A   1      45.784  33.203  30.375  1.00  0.00     0.131 A 
ATOM     86  C   UNL A   1      46.090  35.005  28.295  1.00  0.00     0.055 A 
ATOM     87  C   UNL A   1      46.552  34.353  30.565  1.00  0.00     0.041 A 
ATOM     88  F   UNL A   1      45.684  32.341  31.400  1.00  0.00    -0.206 F 
ATOM     89  C   UNL A   1      46.718  35.254  29.518  1.00  0.00     0.022 A 
BRANCH  86  90
ATOM     90  S   UNL A   1      46.386  36.103  26.882  1.00  0.00     0.124 S 
ATOM     91  O   UNL A   1      45.653  35.430  25.814  1.00  0.00    -0.237 OA
ATOM     92  O   UNL A   1      45.821  37.367  27.344  1.00  0.00    -0.237 OA
ATOM     93  O   UNL A   1      47.840  36.092  26.737  1.00  0.00    -0.744 OA
ENDBRANCH  86  90
ENDBRANCH  60  83
ENDBRANCH  34  35
ENDBRANCH  27  29
ENDBRANCH  26  27
ENDBRANCH  25  26
ENDBRANCH   1  25
TORSDOF 18
ENDMDL
MODEL 2
REMARK VINA RESULT:     -11.7      4.940      9.724
REMARK SMILES COc1ccccc1NC(=O)N[C@@](C)(C(=O)OCCOC(=O)c1ccc(-c2c3nc(c(-c4cc(S(=O)(=O)[O-])ccc4F)c4ccc([nH]4)c(-c4cc(S(=O)(=O)[O-])ccc4F)c4nc(c(-c5cc(S(=O)(=O)[O-])ccc5F)c5ccc2[nH]5)C=C4)C=C3)cc1)C(F)(F)F
REMARK SMILES IDX 18 1 17 2 15 3 16 4 13 5 14 6 12 7 9 8 10 9 11 11 8 13 3 14
REMARK SMILES IDX 4 15 5 16 7 17 6 18 2 19 1 20 86 21 87 22 88 23 89 24 19 25
REMARK SMILES IDX 20 26 21 27 22 28 23 29 24 30 85 31 25 32 84 33 26 34 27 35
REMARK SMILES IDX 28 36 78 37 29 38 83 39 77 40 79 41 30 42 82 43 76 44 75 45
REMARK SMILES IDX 31 47 63 48 43 49 62 50 44 51 47 52 61 53 80 54 45 55 46 56
REMARK SMILES IDX 60 58 81 59 48 60 32 61 33 62 41 63 34 64 40 65 42 66 39 67
REMARK SMILES IDX 35 68 36 69 37 70 38 71 64 72 65 73 73 74 66 75 72 76 74 77
REMARK SMILES IDX 71 78 67 79 68 80 69 81 70 82 49 83 50 84 58 85 51 86 57 87
REMARK SMILES IDX 59 88 56 89 52 90 53 91 54 92 55 93
REMARK H PARENT 9 10 12 12 79 46 47 57
REMARK Flexibility Score: inf
ROOT
ATOM      1  C   UNL A   1      31.350  29.662  24.783  1.00  0.00     0.274 C 
ENDROOT
BRANCH   1   2
ATOM      2  O   UNL A   1      32.181  28.598  24.273  1.00  0.00    -0.460 OA
BRANCH   2   3
ATOM      3  C   UNL A   1      31.538  27.815  23.355  1.00  0.00     0.341 C 
ATOM      4  O   UNL A   1      30.748  28.265  22.529  1.00  0.00    -0.249 OA
BRANCH   3   5
ATOM      5  C   UNL A   1      32.058  26.365  23.347  1.00  0.00     0.232 C 
ATOM      6  C   UNL A   1      33.316  26.349  24.226  1.00  0.00     0.058 C 
BRANCH   5   7
ATOM      7  N   UNL A   1      32.463  26.025  21.949  1.00  0.00    -0.314 N 
ATOM      8  N   UNL A   1      32.935  23.718  21.528  1.00  0.00    -0.305 N 
ATOM      9  C   UNL A   1      32.878  25.006  21.203  1.00  0.00     0.320 C 
ATOM     10  H   UNL A   1      32.915  23.160  20.717  1.00  0.00     0.172 HD
ATOM     11  O   UNL A   1      33.110  25.304  20.024  1.00  0.00    -0.248 OA
ATOM     12  H   UNL A   1      32.400  26.832  21.389  1.00  0.00     0.166 HD
BRANCH   8  13
ATOM     13  C   UNL A   1      33.014  22.912  22.669  1.00  0.00     0.085 A 
ATOM     14  C   UNL A   1      34.253  22.873  23.334  1.00  0.00     0.142 A 
ATOM     15  C   UNL A   1      34.481  22.006  24.401  1.00  0.00     0.048 A 
ATOM     16  C   UNL A   1      33.431  21.228  24.876  1.00  0.00     0.004 A 
ATOM     17  C   UNL A   1      31.949  22.217  23.220  1.00  0.00     0.030 A 
ATOM     18  C   UNL A   1      32.160  21.361  24.313  1.00  0.00     0.002 A 
BRANCH  14  19
ATOM     19  O   UNL A   1      35.283  23.651  22.864  1.00  0.00    -0.495 OA
ATOM     20  C   UNL A   1      36.530  22.965  23.022  1.00  0.00     0.278 C 
ENDBRANCH  14  19
ENDBRANCH   8  13
ENDBRANCH   5   7
BRANCH   5  21
ATOM     21  C   UNL A   1      30.875  25.631  24.001  1.00  0.00     0.422 C 
ATOM     22  F   UNL A   1      31.287  24.767  24.945  1.00  0.00    -0.168 F 
ATOM     23  F   UNL A   1      29.996  26.490  24.561  1.00  0.00    -0.168 F 
ATOM     24  F   UNL A   1      30.136  24.905  23.123  1.00  0.00    -0.168 F 
ENDBRANCH   5  21
ENDBRANCH   3   5
ENDBRANCH   2   3
ENDBRANCH   1   2
BRANCH   1  25
ATOM     25  C   UNL A   1      31.762  30.018  26.209  1.00  0.00     0.275 C 
BRANCH  25  26
ATOM     26  O   UNL A   1      33.187  30.208  26.252  1.00  0.00    -0.458 OA
BRANCH  26  27
ATOM     27  C   UNL A   1      33.627  31.137  27.141  1.00  0.00     0.338 C 
ATOM     28  O   UNL A   1      32.991  32.097  27.542  1.00  0.00    -0.246 OA
BRANCH  27  29
ATOM     29  C   UNL A   1      35.008  30.827  27.595  1.00  0.00     0.060 A 
ATOM     30  C   UNL A   1      35.440  29.517  27.777  1.00  0.00     0.016 A 
ATOM     31  C   UNL A   1      35.863  31.871  27.948  1.00  0.00     0.016 A 
ATOM     32  C   UNL A   1      36.640  29.249  28.447  1.00  0.00     0.010 A 
ATOM     33  C   UNL A   1      37.127  31.594  28.490  1.00  0.00     0.010 A 
ATOM     34  C   UNL A   1      37.522  30.279  28.803  1.00  0.00    -0.014 A 
BRANCH  34  35
ATOM     35  C   UNL A   1      38.806  30.022  29.543  1.00  0.00     0.031 A 
ATOM     36  C   UNL A   1      39.843  29.096  28.943  1.00  0.00     0.074 A 
ATOM     37  C   UNL A   1      39.087  30.582  30.741  1.00  0.00     0.049 A 
ATOM     38  N   UNL A   1      40.810  28.434  29.529  1.00  0.00    -0.248 NA
ATOM     39  C   UNL A   1      39.755  28.862  27.494  1.00  0.00     0.031 C 
ATOM     40  C   UNL A   1      38.265  31.564  31.448  1.00  0.00     0.029 A 
ATOM     41  N   UNL A   1      40.162  30.397  31.586  1.00  0.00    -0.354 N 
ATOM     42  C   UNL A   1      41.371  27.623  28.545  1.00  0.00     0.074 A 
ATOM     43  C   UNL A   1      40.645  27.896  27.320  1.00  0.00     0.031 C 
ATOM     44  C   UNL A   1      38.886  31.936  32.576  1.00  0.00     0.029 A 
ATOM     45  C   UNL A   1      40.080  31.120  32.755  1.00  0.00     0.049 A 
ATOM     46  H   UNL A   1      40.919  29.805  31.371  1.00  0.00     0.167 HD
ATOM     47  C   UNL A   1      42.385  26.727  28.659  1.00  0.00     0.034 A 
ATOM     48  C   UNL A   1      40.824  31.086  33.881  1.00  0.00     0.034 A 
ATOM     49  C   UNL A   1      43.170  26.544  29.856  1.00  0.00     0.049 A 
ATOM     50  C   UNL A   1      41.940  30.078  33.997  1.00  0.00     0.074 A 
ATOM     51  C   UNL A   1      44.218  25.664  30.076  1.00  0.00     0.029 A 
ATOM     52  N   UNL A   1      43.026  27.280  31.023  1.00  0.00    -0.354 N 
ATOM     53  N   UNL A   1      42.350  29.194  33.119  1.00  0.00    -0.248 NA
ATOM     54  C   UNL A   1      42.670  30.043  35.273  1.00  0.00     0.031 C 
ATOM     55  C   UNL A   1      44.682  25.843  31.385  1.00  0.00     0.029 A 
ATOM     56  C   UNL A   1      43.964  26.876  31.963  1.00  0.00     0.049 A 
ATOM     57  H   UNL A   1      42.355  27.987  31.165  1.00  0.00     0.167 HD
ATOM     58  C   UNL A   1      43.388  28.501  33.738  1.00  0.00     0.074 A 
ATOM     59  C   UNL A   1      43.562  29.089  35.048  1.00  0.00     0.031 C 
ATOM     60  C   UNL A   1      44.124  27.462  33.269  1.00  0.00     0.034 A 
BRANCH  47  61
ATOM     61  C   UNL A   1      42.665  25.830  27.478  1.00  0.00     0.023 A 
ATOM     62  C   UNL A   1      42.162  24.523  27.386  1.00  0.00     0.031 A 
ATOM     63  C   UNL A   1      43.458  26.307  26.415  1.00  0.00     0.131 A 
ATOM     64  C   UNL A   1      42.504  23.718  26.289  1.00  0.00     0.055 A 
ATOM     65  C   UNL A   1      43.734  25.526  25.291  1.00  0.00     0.041 A 
ATOM     66  F   UNL A   1      43.979  27.544  26.453  1.00  0.00    -0.206 F 
ATOM     67  C   UNL A   1      43.266  24.218  25.229  1.00  0.00     0.022 A 
BRANCH  64  68
ATOM     68  S   UNL A   1      42.035  21.966  26.319  1.00  0.00     0.124 S 
ATOM     69  O   UNL A   1      42.284  21.619  27.716  1.00  0.00    -0.237 OA
ATOM     70  O   UNL A   1      40.636  22.009  25.913  1.00  0.00    -0.237 OA
ATOM     71  O   UNL A   1      42.946  21.350  25.358  1.00  0.00    -0.744 OA
ENDBRANCH  64  68
ENDBRANCH  47  61
BRANCH  48  72
ATOM     72  C   UNL A   1      40.482  31.957  35.045  1.00  0.00     0.023 A 
ATOM     73  C   UNL A   1      39.496  31.574  35.969  1.00  0.00     0.031 A 
ATOM     74  C   UNL A   1      41.089  33.214  35.215  1.00  0.00     0.131 A 
ATOM     75  C   UNL A   1      39.121  32.455  36.996  1.00  0.00     0.055 A 
ATOM     76  C   UNL A   1      40.760  34.058  36.276  1.00  0.00     0.041 A 
ATOM     77  F   UNL A   1      42.029  33.638  34.353  1.00  0.00    -0.206 F 
ATOM     78  C   UNL A   1      39.759  33.685  37.167  1.00  0.00     0.022 A 
BRANCH  75  79
ATOM     79  S   UNL A   1      37.712  32.012  38.048  1.00  0.00     0.124 S 
ATOM     80  O   UNL A   1      38.292  32.113  39.382  1.00  0.00    -0.237 OA
ATOM     81  O   UNL A   1      36.736  33.038  37.694  1.00  0.00    -0.237 OA
ATOM     82  O   UNL A   1      37.374  30.658  37.614  1.00  0.00    -0.744 OA
ENDBRANCH  75  79
ENDBRANCH  48  72
BRANCH  60  83
ATOM     83  C   UNL A   1      45.213  26.937  34.170  1.00  0.00     0.023 A 
ATOM     84  C   UNL A   1      44.978  25.888  35.076  1.00  0.00     0.031 A 
ATOM     85  C   UNL A   1      46.493  27.516  34.141  1.00  0.00     0.131 A 
ATOM     86  C   UNL A   1      45.994  25.486  35.955  1.00  0.00     0.055 A 
ATOM     87  C   UNL A   1      47.515  27.079  34.985  1.00  0.00     0.041 A 
ATOM     88  F   UNL A   1      46.769  28.523  33.295  1.00  0.00    -0.206 F 
ATOM     89  C   UNL A   1      47.265  26.067  35.907  1.00  0.00     0.022 A 
BRANCH  86  90
ATOM     90  S   UNL A   1      45.611  24.248  37.225  1.00  0.00     0.124 S 
ATOM     91  O   UNL A   1      45.221  23.095  36.420  1.00  0.00    -0.237 OA
ATOM     92  O   UNL A   1      46.878  24.129  37.938  1.00  0.00    -0.237 OA
ATOM     93  O   UNL A   1      44.527  24.864  37.989  1.00  0.00    -0.744 OA
ENDBRANCH  86  90
ENDBRANCH  60  83
ENDBRANCH  34  35
ENDBRANCH  27  29
ENDBRANCH  26  27
ENDBRANCH  25  26
ENDBRANCH   1  25
TORSDOF 18
ENDMDL
MODEL 3
REMARK VINA RESULT:     -11.7      4.561      9.756
REMARK SMILES COc1ccccc1NC(=O)N[C@@](C)(C(=O)OCCOC(=O)c1ccc(-c2c3nc(c(-c4cc(S(=O)(=O)[O-])ccc4F)c4ccc([nH]4)c(-c4cc(S(=O)(=O)[O-])ccc4F)c4nc(c(-c5cc(S(=O)(=O)[O-])ccc5F)c5ccc2[nH]5)C=C4)C=C3)cc1)C(F)(F)F
REMARK SMILES IDX 18 1 17 2 15 3 16 4 13 5 14 6 12 7 9 8 10 9 11 11 8 13 3 14
REMARK SMILES IDX 4 15 5 16 7 17 6 18 2 19 1 20 86 21 87 22 88 23 89 24 19 25
REMARK SMILES IDX 20 26 21 27 22 28 23 29 24 30 85 31 25 32 84 33 26 34 27 35
REMARK SMILES IDX 28 36 78 37 29 38 83 39 77 40 79 41 30 42 82 43 76 44 75 45
REMARK SMILES IDX 31 47 63 48 43 49 62 50 44 51 47 52 61 53 80 54 45 55 46 56
REMARK SMILES IDX 60 58 81 59 48 60 32 61 33 62 41 63 34 64 40 65 42 66 39 67
REMARK SMILES IDX 35 68 36 69 37 70 38 71 64 72 65 73 73 74 66 75 72 76 74 77
REMARK SMILES IDX 71 78 67 79 68 80 69 81 70 82 49 83 50 84 58 85 51 86 57 87
REMARK SMILES IDX 59 88 56 89 52 90 53 91 54 92 55 93
REMARK H PARENT 9 10 12 12 79 46 47 57
REMARK Flexibility Score: inf
ROOT
ATOM      1  C   UNL A   1      31.065  28.881  24.523  1.00  0.00     0.274 C 
ENDROOT
BRANCH   1   2
ATOM      2  O   UNL A   1      31.107  27.481  24.872  1.00  0.00    -0.460 OA
BRANCH   2   3
ATOM      3  C   UNL A   1      31.557  26.692  23.851  1.00  0.00     0.341 C 
ATOM      4  O   UNL A   1      31.463  27.011  22.669  1.00  0.00    -0.249 OA
BRANCH   3   5
ATOM      5  C   UNL A   1      32.356  25.475  24.354  1.00  0.00     0.232 C 
ATOM      6  C   UNL A   1      32.313  24.431  23.230  1.00  0.00     0.058 C 
BRANCH   5   7
ATOM      7  N   UNL A   1      31.641  24.909  25.539  1.00  0.00    -0.314 N 
ATOM      8  N   UNL A   1      32.821  23.228  26.768  1.00  0.00    -0.305 N 
ATOM      9  C   UNL A   1      31.761  23.979  26.481  1.00  0.00     0.320 C 
ATOM     10  H   UNL A   1      32.775  22.913  27.699  1.00  0.00     0.172 HD
ATOM     11  O   UNL A   1      30.796  23.917  27.256  1.00  0.00    -0.248 OA
ATOM     12  H   UNL A   1      30.793  25.391  25.666  1.00  0.00     0.166 HD
BRANCH   8  13
ATOM     13  C   UNL A   1      33.982  22.750  26.151  1.00  0.00     0.085 A 
ATOM     14  C   UNL A   1      33.820  21.721  25.204  1.00  0.00     0.142 A 
ATOM     15  C   UNL A   1      34.916  21.083  24.628  1.00  0.00     0.048 A 
ATOM     16  C   UNL A   1      36.197  21.535  24.927  1.00  0.00     0.004 A 
ATOM     17  C   UNL A   1      35.253  23.263  26.355  1.00  0.00     0.030 A 
ATOM     18  C   UNL A   1      36.363  22.646  25.757  1.00  0.00     0.002 A 
BRANCH  14  19
ATOM     19  O   UNL A   1      32.551  21.286  24.908  1.00  0.00    -0.495 OA
ATOM     20  C   UNL A   1      32.528  19.856  24.829  1.00  0.00     0.278 C 
ENDBRANCH  14  19
ENDBRANCH   8  13
ENDBRANCH   5   7
BRANCH   5  21
ATOM     21  C   UNL A   1      33.752  26.096  24.527  1.00  0.00     0.422 C 
ATOM     22  F   UNL A   1      34.727  25.216  24.241  1.00  0.00    -0.168 F 
ATOM     23  F   UNL A   1      33.918  27.187  23.747  1.00  0.00    -0.168 F 
ATOM     24  F   UNL A   1      33.998  26.534  25.789  1.00  0.00    -0.168 F 
ENDBRANCH   5  21
ENDBRANCH   3   5
ENDBRANCH   2   3
ENDBRANCH   1   2
BRANCH   1  25
ATOM     25  C   UNL A   1      32.328  29.587  25.009  1.00  0.00     0.275 C 
BRANCH  25  26
ATOM     26  O   UNL A   1      32.229  29.800  26.429  1.00  0.00    -0.458 OA
BRANCH  26  27
ATOM     27  C   UNL A   1      32.754  30.969  26.881  1.00  0.00     0.338 C 
ATOM     28  O   UNL A   1      32.187  32.048  26.894  1.00  0.00    -0.246 OA
BRANCH  27  29
ATOM     29  C   UNL A   1      34.136  30.769  27.391  1.00  0.00     0.060 A 
ATOM     30  C   UNL A   1      34.650  29.498  27.628  1.00  0.00     0.016 A 
ATOM     31  C   UNL A   1      34.904  31.880  27.740  1.00  0.00     0.016 A 
ATOM     32  C   UNL A   1      35.841  29.334  28.346  1.00  0.00     0.010 A 
ATOM     33  C   UNL A   1      36.165  31.707  28.333  1.00  0.00     0.010 A 
ATOM     34  C   UNL A   1      36.637  30.432  28.699  1.00  0.00    -0.014 A 
BRANCH  34  35
ATOM     35  C   UNL A   1      37.909  30.286  29.490  1.00  0.00     0.031 A 
ATOM     36  C   UNL A   1      39.056  29.479  28.919  1.00  0.00     0.074 A 
ATOM     37  C   UNL A   1      38.083  30.845  30.708  1.00  0.00     0.049 A 
ATOM     38  N   UNL A   1      40.058  28.903  29.535  1.00  0.00    -0.248 NA
ATOM     39  C   UNL A   1      39.051  29.268  27.464  1.00  0.00     0.031 C 
ATOM     40  C   UNL A   1      37.139  31.726  31.395  1.00  0.00     0.029 A 
ATOM     41  N   UNL A   1      39.136  30.748  31.595  1.00  0.00    -0.354 N 
ATOM     42  C   UNL A   1      40.737  28.171  28.562  1.00  0.00     0.074 A 
ATOM     43  C   UNL A   1      40.039  28.397  27.312  1.00  0.00     0.031 C 
ATOM     44  C   UNL A   1      37.674  32.134  32.556  1.00  0.00     0.029 A 
ATOM     45  C   UNL A   1      38.934  31.435  32.772  1.00  0.00     0.049 A 
ATOM     46  H   UNL A   1      39.955  30.238  31.403  1.00  0.00     0.167 HD
ATOM     47  C   UNL A   1      41.828  27.377  28.705  1.00  0.00     0.034 A 
ATOM     48  C   UNL A   1      39.630  31.449  33.928  1.00  0.00     0.034 A 
ATOM     49  C   UNL A   1      42.578  27.246  29.932  1.00  0.00     0.049 A 
ATOM     50  C   UNL A   1      40.835  30.554  34.076  1.00  0.00     0.074 A 
ATOM     51  C   UNL A   1      43.697  26.468  30.182  1.00  0.00     0.029 A 
ATOM     52  N   UNL A   1      42.313  27.939  31.104  1.00  0.00    -0.354 N 
ATOM     53  N   UNL A   1      41.366  29.733  33.201  1.00  0.00    -0.248 NA
ATOM     54  C   UNL A   1      41.511  30.562  35.381  1.00  0.00     0.031 C 
ATOM     55  C   UNL A   1      44.087  26.664  31.513  1.00  0.00     0.029 A 
ATOM     56  C   UNL A   1      43.247  27.609  32.076  1.00  0.00     0.049 A 
ATOM     57  H   UNL A   1      41.571  28.574  31.228  1.00  0.00     0.167 HD
ATOM     58  C   UNL A   1      42.441  29.132  33.852  1.00  0.00     0.074 A 
ATOM     59  C   UNL A   1      42.501  29.706  35.179  1.00  0.00     0.031 C 
ATOM     60  C   UNL A   1      43.294  28.180  33.398  1.00  0.00     0.034 A 
BRANCH  47  61
ATOM     61  C   UNL A   1      42.245  26.537  27.522  1.00  0.00     0.023 A 
ATOM     62  C   UNL A   1      41.850  25.199  27.370  1.00  0.00     0.031 A 
ATOM     63  C   UNL A   1      43.058  27.101  26.519  1.00  0.00     0.131 A 
ATOM     64  C   UNL A   1      42.315  24.453  26.276  1.00  0.00     0.055 A 
ATOM     65  C   UNL A   1      43.457  26.376  25.396  1.00  0.00     0.041 A 
ATOM     66  F   UNL A   1      43.480  28.373  26.618  1.00  0.00    -0.206 F 
ATOM     67  C   UNL A   1      43.096  25.038  25.275  1.00  0.00     0.022 A 
BRANCH  64  68
ATOM     68  S   UNL A   1      41.981  22.671  26.237  1.00  0.00     0.124 S 
ATOM     69  O   UNL A   1      42.653  22.272  25.001  1.00  0.00    -0.237 OA
ATOM     70  O   UNL A   1      42.598  22.208  27.474  1.00  0.00    -0.237 OA
ATOM     71  O   UNL A   1      40.523  22.594  26.198  1.00  0.00    -0.744 OA
ENDBRANCH  64  68
ENDBRANCH  47  61
BRANCH  48  72
ATOM     72  C   UNL A   1      39.157  32.258  35.091  1.00  0.00     0.023 A 
ATOM     73  C   UNL A   1      39.641  33.558  35.312  1.00  0.00     0.031 A 
ATOM     74  C   UNL A   1      38.263  31.721  36.034  1.00  0.00     0.131 A 
ATOM     75  C   UNL A   1      39.259  34.260  36.467  1.00  0.00     0.055 A 
ATOM     76  C   UNL A   1      37.833  32.447  37.145  1.00  0.00     0.041 A 
ATOM     77  F   UNL A   1      37.778  30.477  35.881  1.00  0.00    -0.206 F 
ATOM     78  C   UNL A   1      38.344  33.721  37.374  1.00  0.00     0.022 A 
BRANCH  75  79
ATOM     79  S   UNL A   1      40.054  35.851  36.820  1.00  0.00     0.124 S 
ATOM     80  O   UNL A   1      39.653  36.647  35.666  1.00  0.00    -0.237 OA
ATOM     81  O   UNL A   1      39.445  36.217  38.095  1.00  0.00    -0.237 OA
ATOM     82  O   UNL A   1      41.475  35.514  36.885  1.00  0.00    -0.744 OA
ENDBRANCH  75  79
ENDBRANCH  48  72
BRANCH  60  83
ATOM     83  C   UNL A   1      44.391  27.745  34.335  1.00  0.00     0.023 A 
ATOM     84  C   UNL A   1      44.233  26.644  35.196  1.00  0.00     0.031 A 
ATOM     85  C   UNL A   1      45.599  28.461  34.389  1.00  0.00     0.131 A 
ATOM     86  C   UNL A   1      45.245  26.324  36.113  1.00  0.00     0.055 A 
ATOM     87  C   UNL A   1      46.623  28.108  35.270  1.00  0.00     0.041 A 
ATOM     88  F   UNL A   1      45.801  29.522  33.590  1.00  0.00    -0.206 F 
ATOM     89  C   UNL A   1      46.444  27.042  36.146  1.00  0.00     0.022 A 
BRANCH  86  90
ATOM     90  S   UNL A   1      44.942  25.006  37.323  1.00  0.00     0.124 S 
ATOM     91  O   UNL A   1      45.116  25.710  38.589  1.00  0.00    -0.237 OA
ATOM     92  O   UNL A   1      43.578  24.596  37.003  1.00  0.00    -0.237 OA
ATOM     93  O   UNL A   1      45.973  24.016  37.018  1.00  0.00    -0.744 OA
ENDBRANCH  86  90
ENDBRANCH  60  83
ENDBRANCH  34  35
ENDBRANCH  27  29
ENDBRANCH  26  27
ENDBRANCH  25  26
ENDBRANCH   1  25
TORSDOF 18
ENDMDL
