MODEL 1
REMARK VINA RESULT:     -11.7      0.000      0.000
REMARK SMILES C[C@@H]1CN(C(=O)NC[C@@H]2CC[C@H](C(=O)OCCOC(=O)c3ccc(-c4c5nc(c(-c6cc(S(=O)(=O)[O-])ccc6F)c6ccc([nH]6)c(-c6cc(S(=O)(=O)[O-])ccc6F)c6nc(c(-c7cc(S(=O)(=O)[O-])ccc7F)c7ccc4[nH]7)C=C6)C=C5)cc3)O2)CC(C)(C)O1
REMARK SMILES IDX 16 1 15 2 13 3 14 4 12 5 9 6 10 7 84 8 11 9 8 10 7 11 5 12
REMARK SMILES IDX 6 13 4 15 1 16 2 17 3 18 89 19 86 20 85 21 87 22 88 23 17 24
REMARK SMILES IDX 18 25 19 26 20 27 21 28 22 29 83 30 23 31 82 32 24 33 25 34
REMARK SMILES IDX 26 35 76 36 27 37 81 38 75 39 77 40 28 41 80 42 74 43 73 44
REMARK SMILES IDX 29 46 61 47 41 48 60 49 42 50 45 51 59 52 78 53 43 54 44 55
REMARK SMILES IDX 58 57 79 58 46 59 30 60 31 61 39 62 32 63 38 64 40 65 37 66
REMARK SMILES IDX 33 67 34 68 35 69 36 70 62 71 63 72 71 73 64 74 70 75 72 76
REMARK SMILES IDX 69 77 65 78 66 79 67 80 68 81 47 82 48 83 56 84 49 85 55 86
REMARK SMILES IDX 57 87 54 88 50 89 51 90 52 91 53 92
REMARK H PARENT 7 14 77 45 45 56
REMARK Flexibility Score: inf
ROOT
ATOM      1  C   UNL A   1      36.406  20.092  24.998  1.00  0.00     0.274 C 
ENDROOT
BRANCH   1   2
ATOM      2  O   UNL A   1      36.044  21.464  24.756  1.00  0.00    -0.460 OA
BRANCH   2   3
ATOM      3  C   UNL A   1      35.469  22.119  25.804  1.00  0.00     0.335 C 
ATOM      4  O   UNL A   1      35.917  23.138  26.318  1.00  0.00    -0.249 OA
BRANCH   3   5
ATOM      5  C   UNL A   1      34.191  21.427  26.298  1.00  0.00     0.228 C 
ATOM      6  C   UNL A   1      31.990  22.117  25.956  1.00  0.00     0.138 C 
ATOM      7  C   UNL A   1      32.508  22.850  27.180  1.00  0.00     0.037 C 
ATOM      8  O   UNL A   1      33.129  21.502  25.335  1.00  0.00    -0.361 OA
ATOM      9  C   UNL A   1      33.646  21.965  27.614  1.00  0.00     0.047 C 
BRANCH   6  10
ATOM     10  C   UNL A   1      31.231  23.016  24.976  1.00  0.00     0.149 C 
BRANCH  10  11
ATOM     11  N   UNL A   1      30.536  24.112  25.632  1.00  0.00    -0.335 N 
ATOM     12  C   UNL A   1      30.700  25.433  25.785  1.00  0.00     0.317 C 
ATOM     13  O   UNL A   1      29.792  25.988  26.417  1.00  0.00    -0.249 OA
ATOM     14  H   UNL A   1      29.724  23.798  26.090  1.00  0.00     0.165 HD
BRANCH  12  15
ATOM     15  N   UNL A   1      31.730  26.145  25.256  1.00  0.00    -0.319 N 
ATOM     16  C   UNL A   1      30.586  28.870  24.065  1.00  0.00     0.040 C 
ATOM     17  C   UNL A   1      31.966  28.230  23.966  1.00  0.00     0.135 C 
ATOM     18  C   UNL A   1      31.935  26.689  23.919  1.00  0.00     0.153 C 
ATOM     19  O   UNL A   1      32.857  28.747  24.974  1.00  0.00    -0.369 OA
ATOM     20  C   UNL A   1      32.840  28.103  26.268  1.00  0.00     0.081 C 
ATOM     21  C   UNL A   1      32.811  26.560  26.152  1.00  0.00     0.156 C 
ATOM     22  C   UNL A   1      31.681  28.625  27.130  1.00  0.00     0.044 C 
ATOM     23  C   UNL A   1      34.155  28.528  26.940  1.00  0.00     0.044 C 
ENDBRANCH  12  15
ENDBRANCH  10  11
ENDBRANCH   6  10
ENDBRANCH   3   5
ENDBRANCH   2   3
ENDBRANCH   1   2
BRANCH   1  24
ATOM     24  C   UNL A   1      37.926  19.898  25.016  1.00  0.00     0.275 C 
BRANCH  24  25
ATOM     25  O   UNL A   1      38.615  21.097  25.413  1.00  0.00    -0.458 OA
BRANCH  25  26
ATOM     26  C   UNL A   1      39.637  20.906  26.281  1.00  0.00     0.338 C 
ATOM     27  O   UNL A   1      40.209  19.856  26.521  1.00  0.00    -0.246 OA
BRANCH  26  28
ATOM     28  C   UNL A   1      40.088  22.198  26.823  1.00  0.00     0.060 A 
ATOM     29  C   UNL A   1      39.583  23.362  26.238  1.00  0.00     0.016 A 
ATOM     30  C   UNL A   1      41.065  22.274  27.819  1.00  0.00     0.016 A 
ATOM     31  C   UNL A   1      40.056  24.608  26.636  1.00  0.00     0.010 A 
ATOM     32  C   UNL A   1      41.539  23.530  28.221  1.00  0.00     0.010 A 
ATOM     33  C   UNL A   1      41.049  24.703  27.621  1.00  0.00    -0.014 A 
BRANCH  33  34
ATOM     34  C   UNL A   1      41.589  26.042  27.964  1.00  0.00     0.031 A 
ATOM     35  C   UNL A   1      42.967  26.437  27.512  1.00  0.00     0.074 A 
ATOM     36  C   UNL A   1      40.812  26.923  28.621  1.00  0.00     0.049 A 
ATOM     37  N   UNL A   1      43.601  27.568  27.679  1.00  0.00    -0.248 NA
ATOM     38  C   UNL A   1      43.731  25.419  26.776  1.00  0.00     0.031 C 
ATOM     39  C   UNL A   1      39.448  26.661  29.083  1.00  0.00     0.029 A 
ATOM     40  N   UNL A   1      41.051  28.219  29.002  1.00  0.00    -0.354 N 
ATOM     41  C   UNL A   1      44.842  27.404  27.071  1.00  0.00     0.074 A 
ATOM     42  C   UNL A   1      44.879  26.048  26.563  1.00  0.00     0.031 C 
ATOM     43  C   UNL A   1      38.968  27.766  29.676  1.00  0.00     0.029 A 
ATOM     44  C   UNL A   1      39.997  28.802  29.665  1.00  0.00     0.049 A 
ATOM     45  H   UNL A   1      41.898  28.686  28.820  1.00  0.00     0.167 HD
ATOM     46  C   UNL A   1      45.850  28.302  26.943  1.00  0.00     0.034 A 
ATOM     47  C   UNL A   1      39.879  30.029  30.210  1.00  0.00     0.034 A 
ATOM     48  C   UNL A   1      45.804  29.648  27.466  1.00  0.00     0.049 A 
ATOM     49  C   UNL A   1      41.031  30.994  30.091  1.00  0.00     0.074 A 
ATOM     50  C   UNL A   1      46.770  30.638  27.393  1.00  0.00     0.029 A 
ATOM     51  N   UNL A   1      44.734  30.194  28.166  1.00  0.00    -0.354 N 
ATOM     52  N   UNL A   1      42.198  30.823  29.514  1.00  0.00    -0.248 NA
ATOM     53  C   UNL A   1      40.840  32.322  30.687  1.00  0.00     0.031 C 
ATOM     54  C   UNL A   1      46.310  31.758  28.097  1.00  0.00     0.029 A 
ATOM     55  C   UNL A   1      45.028  31.495  28.551  1.00  0.00     0.049 A 
ATOM     56  H   UNL A   1      43.891  29.726  28.360  1.00  0.00     0.167 HD
ATOM     57  C   UNL A   1      42.875  32.029  29.667  1.00  0.00     0.074 A 
ATOM     58  C   UNL A   1      41.972  32.926  30.361  1.00  0.00     0.031 C 
ATOM     59  C   UNL A   1      44.129  32.368  29.271  1.00  0.00     0.034 A 
BRANCH  46  60
ATOM     60  C   UNL A   1      47.108  27.831  26.253  1.00  0.00     0.023 A 
ATOM     61  C   UNL A   1      47.319  28.034  24.877  1.00  0.00     0.031 A 
ATOM     62  C   UNL A   1      48.095  27.138  26.976  1.00  0.00     0.131 A 
ATOM     63  C   UNL A   1      48.455  27.492  24.256  1.00  0.00     0.055 A 
ATOM     64  C   UNL A   1      49.259  26.664  26.365  1.00  0.00     0.041 A 
ATOM     65  F   UNL A   1      47.939  26.896  28.288  1.00  0.00    -0.206 F 
ATOM     66  C   UNL A   1      49.437  26.828  24.995  1.00  0.00     0.022 A 
BRANCH  63  67
ATOM     67  S   UNL A   1      48.569  27.553  22.446  1.00  0.00     0.124 S 
ATOM     68  O   UNL A   1      49.810  28.300  22.254  1.00  0.00    -0.237 OA
ATOM     69  O   UNL A   1      48.610  26.141  22.084  1.00  0.00    -0.237 OA
ATOM     70  O   UNL A   1      47.355  28.264  22.050  1.00  0.00    -0.744 OA
ENDBRANCH  63  67
ENDBRANCH  46  60
BRANCH  47  71
ATOM     71  C   UNL A   1      38.641  30.410  30.945  1.00  0.00     0.023 A 
ATOM     72  C   UNL A   1      37.598  31.098  30.307  1.00  0.00     0.031 A 
ATOM     73  C   UNL A   1      38.510  30.132  32.317  1.00  0.00     0.131 A 
ATOM     74  C   UNL A   1      36.486  31.524  31.049  1.00  0.00     0.055 A 
ATOM     75  C   UNL A   1      37.379  30.516  33.041  1.00  0.00     0.041 A 
ATOM     76  F   UNL A   1      39.479  29.475  32.973  1.00  0.00    -0.206 F 
ATOM     77  C   UNL A   1      36.365  31.227  32.409  1.00  0.00     0.022 A 
BRANCH  74  78
ATOM     78  S   UNL A   1      35.229  32.542  30.227  1.00  0.00     0.124 S 
ATOM     79  O   UNL A   1      34.244  32.714  31.288  1.00  0.00    -0.237 OA
ATOM     80  O   UNL A   1      35.994  33.731  29.864  1.00  0.00    -0.237 OA
ATOM     81  O   UNL A   1      34.800  31.713  29.103  1.00  0.00    -0.744 OA
ENDBRANCH  74  78
ENDBRANCH  47  71
BRANCH  59  82
ATOM     82  C   UNL A   1      44.572  33.780  29.570  1.00  0.00     0.023 A 
ATOM     83  C   UNL A   1      44.379  34.822  28.645  1.00  0.00     0.031 A 
ATOM     84  C   UNL A   1      45.244  34.075  30.769  1.00  0.00     0.131 A 
ATOM     85  C   UNL A   1      44.919  36.092  28.900  1.00  0.00     0.055 A 
ATOM     86  C   UNL A   1      45.724  35.356  31.044  1.00  0.00     0.041 A 
ATOM     87  F   UNL A   1      45.456  33.119  31.688  1.00  0.00    -0.206 F 
ATOM     88  C   UNL A   1      45.580  36.369  30.100  1.00  0.00     0.022 A 
BRANCH  85  89
ATOM     89  S   UNL A   1      44.855  37.345  27.588  1.00  0.00     0.124 S 
ATOM     90  O   UNL A   1      45.918  36.902  26.692  1.00  0.00    -0.237 OA
ATOM     91  O   UNL A   1      43.493  37.196  27.085  1.00  0.00    -0.237 OA
ATOM     92  O   UNL A   1      45.122  38.596  28.296  1.00  0.00    -0.744 OA
ENDBRANCH  85  89
ENDBRANCH  59  82
ENDBRANCH  33  34
ENDBRANCH  26  28
ENDBRANCH  25  26
ENDBRANCH  24  25
ENDBRANCH   1  24
TORSDOF 17
ENDMDL
MODEL 2
REMARK VINA RESULT:     -11.3      0.905      1.547
REMARK SMILES C[C@@H]1CN(C(=O)NC[C@@H]2CC[C@H](C(=O)OCCOC(=O)c3ccc(-c4c5nc(c(-c6cc(S(=O)(=O)[O-])ccc6F)c6ccc([nH]6)c(-c6cc(S(=O)(=O)[O-])ccc6F)c6nc(c(-c7cc(S(=O)(=O)[O-])ccc7F)c7ccc4[nH]7)C=C6)C=C5)cc3)O2)CC(C)(C)O1
REMARK SMILES IDX 16 1 15 2 13 3 14 4 12 5 9 6 10 7 84 8 11 9 8 10 7 11 5 12
REMARK SMILES IDX 6 13 4 15 1 16 2 17 3 18 89 19 86 20 85 21 87 22 88 23 17 24
REMARK SMILES IDX 18 25 19 26 20 27 21 28 22 29 83 30 23 31 82 32 24 33 25 34
REMARK SMILES IDX 26 35 76 36 27 37 81 38 75 39 77 40 28 41 80 42 74 43 73 44
REMARK SMILES IDX 29 46 61 47 41 48 60 49 42 50 45 51 59 52 78 53 43 54 44 55
REMARK SMILES IDX 58 57 79 58 46 59 30 60 31 61 39 62 32 63 38 64 40 65 37 66
REMARK SMILES IDX 33 67 34 68 35 69 36 70 62 71 63 72 71 73 64 74 70 75 72 76
REMARK SMILES IDX 69 77 65 78 66 79 67 80 68 81 47 82 48 83 56 84 49 85 55 86
REMARK SMILES IDX 57 87 54 88 50 89 51 90 52 91 53 92
REMARK H PARENT 7 14 77 45 45 56
REMARK Flexibility Score: inf
ROOT
ATOM      1  C   UNL A   1      35.890  21.029  25.393  1.00  0.00     0.274 C 
ENDROOT
BRANCH   1   2
ATOM      2  O   UNL A   1      35.695  22.331  24.808  1.00  0.00    -0.460 OA
BRANCH   2   3
ATOM      3  C   UNL A   1      34.416  22.803  24.826  1.00  0.00     0.335 C 
ATOM      4  O   UNL A   1      33.782  23.056  25.845  1.00  0.00    -0.249 OA
BRANCH   3   5
ATOM      5  C   UNL A   1      33.833  22.970  23.417  1.00  0.00     0.228 C 
ATOM      6  C   UNL A   1      32.152  24.441  22.750  1.00  0.00     0.138 C 
ATOM      7  C   UNL A   1      31.473  23.193  23.283  1.00  0.00     0.037 C 
ATOM      8  O   UNL A   1      33.537  24.341  23.113  1.00  0.00    -0.361 OA
ATOM      9  C   UNL A   1      32.567  22.166  23.155  1.00  0.00     0.047 C 
BRANCH   6  10
ATOM     10  C   UNL A   1      31.529  25.745  23.258  1.00  0.00     0.149 C 
BRANCH  10  11
ATOM     11  N   UNL A   1      30.912  25.606  24.568  1.00  0.00    -0.335 N 
ATOM     12  C   UNL A   1      31.099  26.091  25.803  1.00  0.00     0.317 C 
ATOM     13  O   UNL A   1      30.262  25.707  26.630  1.00  0.00    -0.249 OA
ATOM     14  H   UNL A   1      30.148  24.986  24.539  1.00  0.00     0.165 HD
BRANCH  12  15
ATOM     15  N   UNL A   1      32.074  26.974  26.141  1.00  0.00    -0.319 N 
ATOM     16  C   UNL A   1      33.640  27.831  23.501  1.00  0.00     0.040 C 
ATOM     17  C   UNL A   1      33.926  28.103  24.974  1.00  0.00     0.135 C 
ATOM     18  C   UNL A   1      33.514  26.951  25.910  1.00  0.00     0.153 C 
ATOM     19  O   UNL A   1      33.399  29.381  25.382  1.00  0.00    -0.369 OA
ATOM     20  C   UNL A   1      32.021  29.421  25.820  1.00  0.00     0.081 C 
ATOM     21  C   UNL A   1      31.672  28.240  26.757  1.00  0.00     0.156 C 
ATOM     22  C   UNL A   1      31.063  29.491  24.622  1.00  0.00     0.044 C 
ATOM     23  C   UNL A   1      31.892  30.736  26.604  1.00  0.00     0.044 C 
ENDBRANCH  12  15
ENDBRANCH  10  11
ENDBRANCH   6  10
ENDBRANCH   3   5
ENDBRANCH   2   3
ENDBRANCH   1   2
BRANCH   1  24
ATOM     24  C   UNL A   1      37.259  20.443  25.037  1.00  0.00     0.275 C 
BRANCH  24  25
ATOM     25  O   UNL A   1      38.311  21.417  25.168  1.00  0.00    -0.458 OA
BRANCH  25  26
ATOM     26  C   UNL A   1      39.204  21.161  26.153  1.00  0.00     0.338 C 
ATOM     27  O   UNL A   1      39.643  20.072  26.481  1.00  0.00    -0.246 OA
BRANCH  26  28
ATOM     28  C   UNL A   1      39.709  22.423  26.719  1.00  0.00     0.060 A 
ATOM     29  C   UNL A   1      39.213  23.618  26.189  1.00  0.00     0.016 A 
ATOM     30  C   UNL A   1      40.723  22.442  27.678  1.00  0.00     0.016 A 
ATOM     31  C   UNL A   1      39.734  24.838  26.608  1.00  0.00     0.010 A 
ATOM     32  C   UNL A   1      41.245  23.672  28.101  1.00  0.00     0.010 A 
ATOM     33  C   UNL A   1      40.764  24.877  27.557  1.00  0.00    -0.014 A 
BRANCH  33  34
ATOM     34  C   UNL A   1      41.352  26.189  27.921  1.00  0.00     0.031 A 
ATOM     35  C   UNL A   1      42.748  26.536  27.487  1.00  0.00     0.074 A 
ATOM     36  C   UNL A   1      40.603  27.092  28.581  1.00  0.00     0.049 A 
ATOM     37  N   UNL A   1      43.424  27.640  27.673  1.00  0.00    -0.248 NA
ATOM     38  C   UNL A   1      43.480  25.498  26.747  1.00  0.00     0.031 C 
ATOM     39  C   UNL A   1      39.225  26.878  29.026  1.00  0.00     0.029 A 
ATOM     40  N   UNL A   1      40.888  28.373  28.979  1.00  0.00    -0.354 N 
ATOM     41  C   UNL A   1      44.664  27.435  27.076  1.00  0.00     0.074 A 
ATOM     42  C   UNL A   1      44.654  26.084  26.552  1.00  0.00     0.031 C 
ATOM     43  C   UNL A   1      38.781  27.994  29.627  1.00  0.00     0.029 A 
ATOM     44  C   UNL A   1      39.850  28.990  29.638  1.00  0.00     0.049 A 
ATOM     45  H   UNL A   1      41.754  28.810  28.810  1.00  0.00     0.167 HD
ATOM     46  C   UNL A   1      45.707  28.295  26.968  1.00  0.00     0.034 A 
ATOM     47  C   UNL A   1      39.773  30.214  30.196  1.00  0.00     0.034 A 
ATOM     48  C   UNL A   1      45.707  29.636  27.506  1.00  0.00     0.049 A 
ATOM     49  C   UNL A   1      40.963  31.135  30.100  1.00  0.00     0.074 A 
ATOM     50  C   UNL A   1      46.712  30.588  27.454  1.00  0.00     0.029 A 
ATOM     51  N   UNL A   1      44.652  30.215  28.202  1.00  0.00    -0.354 N 
ATOM     52  N   UNL A   1      42.128  30.925  29.532  1.00  0.00    -0.248 NA
ATOM     53  C   UNL A   1      40.817  32.462  30.709  1.00  0.00     0.031 C 
ATOM     54  C   UNL A   1      46.287  31.718  28.166  1.00  0.00     0.029 A 
ATOM     55  C   UNL A   1      44.992  31.499  28.605  1.00  0.00     0.049 A 
ATOM     56  H   UNL A   1      43.790  29.777  28.382  1.00  0.00     0.167 HD
ATOM     57  C   UNL A   1      42.849  32.103  29.705  1.00  0.00     0.074 A 
ATOM     58  C   UNL A   1      41.975  33.026  30.401  1.00  0.00     0.031 C 
ATOM     59  C   UNL A   1      44.120  32.397  29.326  1.00  0.00     0.034 A 
BRANCH  46  60
ATOM     60  C   UNL A   1      46.953  27.783  26.285  1.00  0.00     0.023 A 
ATOM     61  C   UNL A   1      47.212  28.041  24.927  1.00  0.00     0.031 A 
ATOM     62  C   UNL A   1      47.878  26.997  26.995  1.00  0.00     0.131 A 
ATOM     63  C   UNL A   1      48.330  27.463  24.306  1.00  0.00     0.055 A 
ATOM     64  C   UNL A   1      49.027  26.484  26.388  1.00  0.00     0.041 A 
ATOM     65  F   UNL A   1      47.672  26.700  28.288  1.00  0.00    -0.206 F 
ATOM     66  C   UNL A   1      49.251  26.705  25.033  1.00  0.00     0.022 A 
BRANCH  63  67
ATOM     67  S   UNL A   1      48.497  27.607  22.505  1.00  0.00     0.124 S 
ATOM     68  O   UNL A   1      47.274  28.325  22.152  1.00  0.00    -0.237 OA
ATOM     69  O   UNL A   1      49.740  28.354  22.360  1.00  0.00    -0.237 OA
ATOM     70  O   UNL A   1      48.546  26.218  22.053  1.00  0.00    -0.744 OA
ENDBRANCH  63  67
ENDBRANCH  46  60
BRANCH  47  71
ATOM     71  C   UNL A   1      38.544  30.634  30.923  1.00  0.00     0.023 A 
ATOM     72  C   UNL A   1      37.504  31.309  30.266  1.00  0.00     0.031 A 
ATOM     73  C   UNL A   1      38.418  30.408  32.305  1.00  0.00     0.131 A 
ATOM     74  C   UNL A   1      36.400  31.773  30.998  1.00  0.00     0.055 A 
ATOM     75  C   UNL A   1      37.295  30.829  33.021  1.00  0.00     0.041 A 
ATOM     76  F   UNL A   1      39.384  29.766  32.980  1.00  0.00    -0.206 F 
ATOM     77  C   UNL A   1      36.284  31.527  32.369  1.00  0.00     0.022 A 
BRANCH  74  78
ATOM     78  S   UNL A   1      35.149  32.774  30.146  1.00  0.00     0.124 S 
ATOM     79  O   UNL A   1      34.672  31.847  29.126  1.00  0.00    -0.237 OA
ATOM     80  O   UNL A   1      34.217  33.075  31.227  1.00  0.00    -0.237 OA
ATOM     81  O   UNL A   1      35.910  33.916  29.645  1.00  0.00    -0.744 OA
ENDBRANCH  74  78
ENDBRANCH  47  71
BRANCH  59  82
ATOM     82  C   UNL A   1      44.614  33.789  29.646  1.00  0.00     0.023 A 
ATOM     83  C   UNL A   1      44.382  34.869  28.775  1.00  0.00     0.031 A 
ATOM     84  C   UNL A   1      45.371  34.024  30.806  1.00  0.00     0.131 A 
ATOM     85  C   UNL A   1      44.967  36.116  29.039  1.00  0.00     0.055 A 
ATOM     86  C   UNL A   1      45.898  35.284  31.094  1.00  0.00     0.041 A 
ATOM     87  F   UNL A   1      45.624  33.029  31.672  1.00  0.00    -0.206 F 
ATOM     88  C   UNL A   1      45.713  36.334  30.200  1.00  0.00     0.022 A 
BRANCH  85  89
ATOM     89  S   UNL A   1      44.842  37.419  27.782  1.00  0.00     0.124 S 
ATOM     90  O   UNL A   1      44.559  38.599  28.593  1.00  0.00    -0.237 OA
ATOM     91  O   UNL A   1      46.161  37.375  27.158  1.00  0.00    -0.237 OA
ATOM     92  O   UNL A   1      43.739  36.973  26.932  1.00  0.00    -0.744 OA
ENDBRANCH  85  89
ENDBRANCH  59  82
ENDBRANCH  33  34
ENDBRANCH  26  28
ENDBRANCH  25  26
ENDBRANCH  24  25
ENDBRANCH   1  24
TORSDOF 17
ENDMDL
MODEL 3
REMARK VINA RESULT:     -11.1      1.738      1.971
REMARK SMILES C[C@@H]1CN(C(=O)NC[C@@H]2CC[C@H](C(=O)OCCOC(=O)c3ccc(-c4c5nc(c(-c6cc(S(=O)(=O)[O-])ccc6F)c6ccc([nH]6)c(-c6cc(S(=O)(=O)[O-])ccc6F)c6nc(c(-c7cc(S(=O)(=O)[O-])ccc7F)c7ccc4[nH]7)C=C6)C=C5)cc3)O2)CC(C)(C)O1
REMARK SMILES IDX 16 1 15 2 13 3 14 4 12 5 9 6 10 7 84 8 11 9 8 10 7 11 5 12
REMARK SMILES IDX 6 13 4 15 1 16 2 17 3 18 89 19 86 20 85 21 87 22 88 23 17 24
REMARK SMILES IDX 18 25 19 26 20 27 21 28 22 29 83 30 23 31 82 32 24 33 25 34
REMARK SMILES IDX 26 35 76 36 27 37 81 38 75 39 77 40 28 41 80 42 74 43 73 44
REMARK SMILES IDX 29 46 61 47 41 48 60 49 42 50 45 51 59 52 78 53 43 54 44 55
REMARK SMILES IDX 58 57 79 58 46 59 30 60 31 61 39 62 32 63 38 64 40 65 37 66
REMARK SMILES IDX 33 67 34 68 35 69 36 70 62 71 63 72 71 73 64 74 70 75 72 76
REMARK SMILES IDX 69 77 65 78 66 79 67 80 68 81 47 82 48 83 56 84 49 85 55 86
REMARK SMILES IDX 57 87 54 88 50 89 51 90 52 91 53 92
REMARK H PARENT 7 14 77 45 45 56
REMARK Flexibility Score: inf
ROOT
ATOM      1  C   UNL A   1      36.258  21.133  25.691  1.00  0.00     0.274 C 
ENDROOT
BRANCH   1   2
ATOM      2  O   UNL A   1      35.243  21.010  24.677  1.00  0.00    -0.460 OA
BRANCH   2   3
ATOM      3  C   UNL A   1      34.769  22.182  24.167  1.00  0.00     0.335 C 
ATOM      4  O   UNL A   1      35.396  23.235  24.146  1.00  0.00    -0.249 OA
BRANCH   3   5
ATOM      5  C   UNL A   1      33.338  22.051  23.630  1.00  0.00     0.228 C 
ATOM      6  C   UNL A   1      31.367  22.707  24.690  1.00  0.00     0.138 C 
ATOM      7  C   UNL A   1      31.703  21.311  25.185  1.00  0.00     0.037 C 
ATOM      8  O   UNL A   1      32.523  23.179  23.982  1.00  0.00    -0.361 OA
ATOM      9  C   UNL A   1      32.600  20.801  24.088  1.00  0.00     0.047 C 
BRANCH   6  10
ATOM     10  C   UNL A   1      30.955  23.673  25.805  1.00  0.00     0.149 C 
BRANCH  10  11
ATOM     11  N   UNL A   1      30.431  24.932  25.299  1.00  0.00    -0.335 N 
ATOM     12  C   UNL A   1      30.914  26.131  24.946  1.00  0.00     0.317 C 
ATOM     13  O   UNL A   1      30.060  26.914  24.512  1.00  0.00    -0.249 OA
ATOM     14  H   UNL A   1      29.454  24.893  25.184  1.00  0.00     0.165 HD
BRANCH  12  15
ATOM     15  N   UNL A   1      32.228  26.472  24.991  1.00  0.00    -0.319 N 
ATOM     16  C   UNL A   1      32.742  28.843  22.924  1.00  0.00     0.040 C 
ATOM     17  C   UNL A   1      33.709  27.993  23.742  1.00  0.00     0.135 C 
ATOM     18  C   UNL A   1      33.240  26.538  23.943  1.00  0.00     0.153 C 
ATOM     19  O   UNL A   1      34.070  28.648  24.974  1.00  0.00    -0.369 OA
ATOM     20  C   UNL A   1      33.200  28.445  26.111  1.00  0.00     0.081 C 
ATOM     21  C   UNL A   1      32.767  26.967  26.259  1.00  0.00     0.156 C 
ATOM     22  C   UNL A   1      31.987  29.384  26.053  1.00  0.00     0.044 C 
ATOM     23  C   UNL A   1      34.045  28.843  27.332  1.00  0.00     0.044 C 
ENDBRANCH  12  15
ENDBRANCH  10  11
ENDBRANCH   6  10
ENDBRANCH   3   5
ENDBRANCH   2   3
ENDBRANCH   1   2
BRANCH   1  24
ATOM     24  C   UNL A   1      37.644  20.754  25.159  1.00  0.00     0.275 C 
BRANCH  24  25
ATOM     25  O   UNL A   1      38.604  21.807  25.363  1.00  0.00    -0.458 OA
BRANCH  25  26
ATOM     26  C   UNL A   1      39.485  21.589  26.368  1.00  0.00     0.338 C 
ATOM     27  O   UNL A   1      39.967  20.519  26.702  1.00  0.00    -0.246 OA
BRANCH  26  28
ATOM     28  C   UNL A   1      39.916  22.870  26.950  1.00  0.00     0.060 A 
ATOM     29  C   UNL A   1      39.377  24.043  26.413  1.00  0.00     0.016 A 
ATOM     30  C   UNL A   1      40.906  22.932  27.933  1.00  0.00     0.016 A 
ATOM     31  C   UNL A   1      39.830  25.284  26.849  1.00  0.00     0.010 A 
ATOM     32  C   UNL A   1      41.359  24.183  28.372  1.00  0.00     0.010 A 
ATOM     33  C   UNL A   1      40.835  25.366  27.821  1.00  0.00    -0.014 A 
BRANCH  33  34
ATOM     34  C   UNL A   1      41.351  26.703  28.204  1.00  0.00     0.031 A 
ATOM     35  C   UNL A   1      42.760  27.094  27.858  1.00  0.00     0.074 A 
ATOM     36  C   UNL A   1      40.529  27.587  28.800  1.00  0.00     0.049 A 
ATOM     37  N   UNL A   1      43.384  28.224  28.072  1.00  0.00    -0.248 NA
ATOM     38  C   UNL A   1      43.575  26.074  27.183  1.00  0.00     0.031 C 
ATOM     39  C   UNL A   1      39.133  27.330  29.157  1.00  0.00     0.029 A 
ATOM     40  N   UNL A   1      40.743  28.882  29.198  1.00  0.00    -0.354 N 
ATOM     41  C   UNL A   1      44.666  28.056  27.560  1.00  0.00     0.074 A 
ATOM     42  C   UNL A   1      44.738  26.699  27.056  1.00  0.00     0.031 C 
ATOM     43  C   UNL A   1      38.613  28.437  29.712  1.00  0.00     0.029 A 
ATOM     44  C   UNL A   1      39.643  29.469  29.778  1.00  0.00     0.049 A 
ATOM     45  H   UNL A   1      41.602  29.348  29.080  1.00  0.00     0.167 HD
ATOM     46  C   UNL A   1      45.684  28.950  27.509  1.00  0.00     0.034 A 
ATOM     47  C   UNL A   1      39.487  30.697  30.312  1.00  0.00     0.034 A 
ATOM     48  C   UNL A   1      45.603  30.297  28.026  1.00  0.00     0.049 A 
ATOM     49  C   UNL A   1      40.648  31.658  30.281  1.00  0.00     0.074 A 
ATOM     50  C   UNL A   1      46.575  31.284  28.027  1.00  0.00     0.029 A 
ATOM     51  N   UNL A   1      44.484  30.847  28.642  1.00  0.00    -0.354 N 
ATOM     52  N   UNL A   1      41.855  31.483  29.794  1.00  0.00    -0.248 NA
ATOM     53  C   UNL A   1      40.417  32.987  30.860  1.00  0.00     0.031 C 
ATOM     54  C   UNL A   1      46.065  32.406  28.693  1.00  0.00     0.029 A 
ATOM     55  C   UNL A   1      44.752  32.147  29.049  1.00  0.00     0.049 A 
ATOM     56  H   UNL A   1      43.628  30.381  28.773  1.00  0.00     0.167 HD
ATOM     57  C   UNL A   1      42.522  32.688  29.997  1.00  0.00     0.074 A 
ATOM     58  C   UNL A   1      41.572  33.588  30.620  1.00  0.00     0.031 C 
ATOM     59  C   UNL A   1      43.804  33.022  29.697  1.00  0.00     0.034 A 
BRANCH  46  60
ATOM     60  C   UNL A   1      46.989  28.475  26.917  1.00  0.00     0.023 A 
ATOM     61  C   UNL A   1      47.163  28.327  25.528  1.00  0.00     0.031 A 
ATOM     62  C   UNL A   1      48.064  28.132  27.755  1.00  0.00     0.131 A 
ATOM     63  C   UNL A   1      48.357  27.787  25.026  1.00  0.00     0.055 A 
ATOM     64  C   UNL A   1      49.277  27.663  27.244  1.00  0.00     0.041 A 
ATOM     65  F   UNL A   1      47.950  28.233  29.089  1.00  0.00    -0.206 F 
ATOM     66  C   UNL A   1      49.423  27.476  25.872  1.00  0.00     0.022 A 
BRANCH  63  67
ATOM     67  S   UNL A   1      48.451  27.375  23.262  1.00  0.00     0.124 S 
ATOM     68  O   UNL A   1      49.789  27.851  22.918  1.00  0.00    -0.237 OA
ATOM     69  O   UNL A   1      48.269  25.929  23.264  1.00  0.00    -0.237 OA
ATOM     70  O   UNL A   1      47.355  28.142  22.672  1.00  0.00    -0.744 OA
ENDBRANCH  63  67
ENDBRANCH  46  60
BRANCH  47  71
ATOM     71  C   UNL A   1      38.199  31.082  30.951  1.00  0.00     0.023 A 
ATOM     72  C   UNL A   1      37.197  31.747  30.228  1.00  0.00     0.031 A 
ATOM     73  C   UNL A   1      37.974  30.832  32.317  1.00  0.00     0.131 A 
ATOM     74  C   UNL A   1      36.033  32.178  30.881  1.00  0.00     0.055 A 
ATOM     75  C   UNL A   1      36.793  31.221  32.952  1.00  0.00     0.041 A 
ATOM     76  F   UNL A   1      38.901  30.199  33.053  1.00  0.00    -0.206 F 
ATOM     77  C   UNL A   1      35.820  31.909  32.236  1.00  0.00     0.022 A 
BRANCH  74  78
ATOM     78  S   UNL A   1      34.829  33.167  29.952  1.00  0.00     0.124 S 
ATOM     79  O   UNL A   1      34.212  32.159  29.097  1.00  0.00    -0.237 OA
ATOM     80  O   UNL A   1      33.991  33.703  31.019  1.00  0.00    -0.237 OA
ATOM     81  O   UNL A   1      35.658  34.151  29.259  1.00  0.00    -0.744 OA
ENDBRANCH  74  78
ENDBRANCH  47  71
BRANCH  59  82
ATOM     82  C   UNL A   1      44.227  34.434  30.029  1.00  0.00     0.023 A 
ATOM     83  C   UNL A   1      44.811  34.754  31.268  1.00  0.00     0.031 A 
ATOM     84  C   UNL A   1      43.992  35.479  29.118  1.00  0.00     0.131 A 
ATOM     85  C   UNL A   1      45.070  36.093  31.593  1.00  0.00     0.055 A 
ATOM     86  C   UNL A   1      44.311  36.803  29.424  1.00  0.00     0.041 A 
ATOM     87  F   UNL A   1      43.437  35.231  27.921  1.00  0.00    -0.206 F 
ATOM     88  C   UNL A   1      44.836  37.119  30.674  1.00  0.00     0.022 A 
BRANCH  85  89
ATOM     89  S   UNL A   1      45.604  36.493  33.281  1.00  0.00     0.124 S 
ATOM     90  O   UNL A   1      46.054  37.873  33.140  1.00  0.00    -0.237 OA
ATOM     91  O   UNL A   1      44.379  36.296  34.048  1.00  0.00    -0.237 OA
ATOM     92  O   UNL A   1      46.663  35.520  33.545  1.00  0.00    -0.744 OA
ENDBRANCH  85  89
ENDBRANCH  59  82
ENDBRANCH  33  34
ENDBRANCH  26  28
ENDBRANCH  25  26
ENDBRANCH  24  25
ENDBRANCH   1  24
TORSDOF 17
ENDMDL
