MODEL 1
REMARK VINA RESULT:     -10.4      0.000      0.000
REMARK SMILES C[C@]1(C(=O)NCc2ccc(C(=O)OCCOC(=O)c3ccc(-c4c5nc(c(-c6cc(S(=O)(=O)[O-])ccc6F)c6ccc([nH]6)c(-c6cc(S(=O)(=O)[O-])ccc6F)c6nc(c(-c7cc(S(=O)(=O)[O-])ccc7F)c7ccc4[nH]7)C=C6)C=C5)cc3)o2)CCC[NH2+]C1
REMARK SMILES IDX 14 1 13 2 11 3 12 4 10 5 7 6 8 7 82 8 9 9 6 10 5 11 3 12
REMARK SMILES IDX 4 13 2 15 1 16 83 17 87 18 84 19 86 20 85 21 15 24 16 25
REMARK SMILES IDX 17 26 18 27 19 28 20 29 81 30 21 31 80 32 22 33 23 34 24 35
REMARK SMILES IDX 74 36 25 37 79 38 73 39 75 40 26 41 78 42 72 43 71 44 27 46
REMARK SMILES IDX 59 47 39 48 58 49 40 50 43 51 57 52 76 53 41 54 42 55 56 57
REMARK SMILES IDX 77 58 44 59 28 60 29 61 37 62 30 63 36 64 38 65 35 66 31 67
REMARK SMILES IDX 32 68 33 69 34 70 60 71 61 72 69 73 62 74 68 75 70 76 67 77
REMARK SMILES IDX 63 78 64 79 65 80 66 81 45 82 46 83 54 84 47 85 53 86 55 87
REMARK SMILES IDX 52 88 48 89 49 90 50 91 51 92
REMARK H PARENT 5 14 86 22 86 23 75 45 43 56
REMARK Flexibility Score: inf
ROOT
ATOM      1  C   UNL A   1      41.188  19.792  26.807  1.00  0.00     0.275 C 
ENDROOT
BRANCH   1   2
ATOM      2  O   UNL A   1      41.747  18.906  25.820  1.00  0.00    -0.456 OA
BRANCH   2   3
ATOM      3  C   UNL A   1      42.932  18.310  26.148  1.00  0.00     0.374 C 
ATOM      4  O   UNL A   1      43.031  17.326  26.871  1.00  0.00    -0.242 OA
BRANCH   3   5
ATOM      5  C   UNL A   1      44.019  18.972  25.464  1.00  0.00     0.211 A 
ATOM      6  C   UNL A   1      44.970  20.687  24.443  1.00  0.00     0.124 A 
ATOM      7  C   UNL A   1      45.961  19.748  24.638  1.00  0.00     0.048 A 
ATOM      8  O   UNL A   1      43.777  20.197  24.893  1.00  0.00    -0.452 OA
ATOM      9  C   UNL A   1      45.353  18.651  25.293  1.00  0.00     0.058 A 
BRANCH   6  10
ATOM     10  C   UNL A   1      44.975  22.036  23.827  1.00  0.00     0.191 C 
BRANCH  10  11
ATOM     11  N   UNL A   1      45.964  22.892  24.436  1.00  0.00    -0.348 N 
ATOM     12  C   UNL A   1      46.007  23.620  25.577  1.00  0.00     0.232 C 
ATOM     13  O   UNL A   1      47.161  23.829  25.980  1.00  0.00    -0.274 OA
ATOM     14  H   UNL A   1      46.789  22.963  23.904  1.00  0.00     0.163 HD
BRANCH  12  15
ATOM     15  C   UNL A   1      44.818  24.363  26.233  1.00  0.00     0.095 C 
ATOM     16  C   UNL A   1      44.624  25.631  25.367  1.00  0.00     0.028 C 
ATOM     17  C   UNL A   1      43.450  23.668  26.342  1.00  0.00     0.028 C 
ATOM     18  C   UNL A   1      45.251  24.827  27.653  1.00  0.00     0.277 C 
ATOM     19  C   UNL A   1      43.393  22.627  27.461  1.00  0.00     0.063 C 
ATOM     20  N   UNL A   1      45.217  23.737  28.641  1.00  0.00    -0.345 N 
ATOM     21  C   UNL A   1      43.870  23.203  28.789  1.00  0.00     0.260 C 
ATOM     22  H   UNL A   1      45.839  22.989  28.335  1.00  0.00     0.346 HD
ATOM     23  H   UNL A   1      45.518  24.108  29.543  1.00  0.00     0.346 HD
ENDBRANCH  12  15
ENDBRANCH  10  11
ENDBRANCH   6  10
ENDBRANCH   3   5
ENDBRANCH   2   3
ENDBRANCH   1   2
BRANCH   1  24
ATOM     24  C   UNL A   1      40.286  20.847  26.157  1.00  0.00     0.275 C 
BRANCH  24  25
ATOM     25  O   UNL A   1      39.946  21.908  27.068  1.00  0.00    -0.458 OA
BRANCH  25  26
ATOM     26  C   UNL A   1      39.193  22.905  26.540  1.00  0.00     0.338 C 
ATOM     27  O   UNL A   1      38.156  22.775  25.911  1.00  0.00    -0.246 OA
BRANCH  26  28
ATOM     28  C   UNL A   1      39.741  24.212  26.938  1.00  0.00     0.060 A 
ATOM     29  C   UNL A   1      39.890  24.472  28.300  1.00  0.00     0.016 A 
ATOM     30  C   UNL A   1      40.039  25.202  25.997  1.00  0.00     0.016 A 
ATOM     31  C   UNL A   1      40.321  25.725  28.726  1.00  0.00     0.010 A 
ATOM     32  C   UNL A   1      40.472  26.462  26.431  1.00  0.00     0.010 A 
ATOM     33  C   UNL A   1      40.598  26.742  27.804  1.00  0.00    -0.014 A 
BRANCH  33  34
ATOM     34  C   UNL A   1      40.965  28.098  28.295  1.00  0.00     0.031 A 
ATOM     35  C   UNL A   1      42.403  28.544  28.284  1.00  0.00     0.074 A 
ATOM     36  C   UNL A   1      40.005  28.948  28.710  1.00  0.00     0.049 A 
ATOM     37  N   UNL A   1      42.934  29.654  28.732  1.00  0.00    -0.248 NA
ATOM     38  C   UNL A   1      43.375  27.610  27.698  1.00  0.00     0.031 C 
ATOM     39  C   UNL A   1      38.571  28.660  28.707  1.00  0.00     0.029 A 
ATOM     40  N   UNL A   1      40.087  30.227  29.202  1.00  0.00    -0.354 N 
ATOM     41  C   UNL A   1      44.302  29.545  28.502  1.00  0.00     0.074 A 
ATOM     42  C   UNL A   1      44.520  28.245  27.902  1.00  0.00     0.031 C 
ATOM     43  C   UNL A   1      37.907  29.737  29.157  1.00  0.00     0.029 A 
ATOM     44  C   UNL A   1      38.868  30.768  29.539  1.00  0.00     0.049 A 
ATOM     45  H   UNL A   1      40.938  30.712  29.304  1.00  0.00     0.167 HD
ATOM     46  C   UNL A   1      45.281  30.449  28.763  1.00  0.00     0.034 A 
ATOM     47  C   UNL A   1      38.558  31.945  30.119  1.00  0.00     0.034 A 
ATOM     48  C   UNL A   1      45.043  31.748  29.350  1.00  0.00     0.049 A 
ATOM     49  C   UNL A   1      39.671  32.899  30.473  1.00  0.00     0.074 A 
ATOM     50  C   UNL A   1      45.961  32.744  29.641  1.00  0.00     0.029 A 
ATOM     51  N   UNL A   1      43.801  32.234  29.740  1.00  0.00    -0.354 N 
ATOM     52  N   UNL A   1      40.964  32.772  30.278  1.00  0.00    -0.248 NA
ATOM     53  C   UNL A   1      39.283  34.153  31.129  1.00  0.00     0.031 C 
ATOM     54  C   UNL A   1      45.287  33.795  30.273  1.00  0.00     0.029 A 
ATOM     55  C   UNL A   1      43.936  33.496  30.303  1.00  0.00     0.049 A 
ATOM     56  H   UNL A   1      42.949  31.753  29.633  1.00  0.00     0.167 HD
ATOM     57  C   UNL A   1      41.539  33.944  30.762  1.00  0.00     0.074 A 
ATOM     58  C   UNL A   1      40.450  34.770  31.245  1.00  0.00     0.031 C 
ATOM     59  C   UNL A   1      42.846  34.306  30.800  1.00  0.00     0.034 A 
BRANCH  46  60
ATOM     60  C   UNL A   1      46.706  30.036  28.473  1.00  0.00     0.023 A 
ATOM     61  C   UNL A   1      47.526  29.440  29.448  1.00  0.00     0.031 A 
ATOM     62  C   UNL A   1      47.262  30.266  27.201  1.00  0.00     0.131 A 
ATOM     63  C   UNL A   1      48.871  29.163  29.158  1.00  0.00     0.055 A 
ATOM     64  C   UNL A   1      48.578  29.912  26.894  1.00  0.00     0.041 A 
ATOM     65  F   UNL A   1      46.537  30.850  26.233  1.00  0.00    -0.206 F 
ATOM     66  C   UNL A   1      49.395  29.371  27.880  1.00  0.00     0.022 A 
BRANCH  63  67
ATOM     67  S   UNL A   1      49.968  28.661  30.515  1.00  0.00     0.124 S 
ATOM     68  O   UNL A   1      49.158  27.652  31.193  1.00  0.00    -0.237 OA
ATOM     69  O   UNL A   1      51.141  28.166  29.806  1.00  0.00    -0.237 OA
ATOM     70  O   UNL A   1      50.169  29.896  31.269  1.00  0.00    -0.744 OA
ENDBRANCH  63  67
ENDBRANCH  46  60
BRANCH  47  71
ATOM     71  C   UNL A   1      37.141  32.268  30.458  1.00  0.00     0.023 A 
ATOM     72  C   UNL A   1      36.285  32.872  29.522  1.00  0.00     0.031 A 
ATOM     73  C   UNL A   1      36.636  32.020  31.747  1.00  0.00     0.131 A 
ATOM     74  C   UNL A   1      34.986  33.244  29.902  1.00  0.00     0.055 A 
ATOM     75  C   UNL A   1      35.324  32.338  32.102  1.00  0.00     0.041 A 
ATOM     76  F   UNL A   1      37.413  31.454  32.685  1.00  0.00    -0.206 F 
ATOM     77  C   UNL A   1      34.494  32.966  31.180  1.00  0.00     0.022 A 
BRANCH  74  78
ATOM     78  S   UNL A   1      33.969  34.188  28.732  1.00  0.00     0.124 S 
ATOM     79  O   UNL A   1      34.867  35.280  28.371  1.00  0.00    -0.237 OA
ATOM     80  O   UNL A   1      33.706  33.201  27.690  1.00  0.00    -0.237 OA
ATOM     81  O   UNL A   1      32.805  34.576  29.526  1.00  0.00    -0.744 OA
ENDBRANCH  74  78
ENDBRANCH  47  71
BRANCH  59  82
ATOM     82  C   UNL A   1      43.162  35.678  31.348  1.00  0.00     0.023 A 
ATOM     83  C   UNL A   1      43.412  36.776  30.506  1.00  0.00     0.031 A 
ATOM     84  C   UNL A   1      43.229  35.884  32.738  1.00  0.00     0.131 A 
ATOM     85  C   UNL A   1      43.775  38.014  31.058  1.00  0.00     0.055 A 
ATOM     86  C   UNL A   1      43.531  37.132  33.283  1.00  0.00     0.041 A 
ATOM     87  F   UNL A   1      43.002  34.873  33.591  1.00  0.00    -0.206 F 
ATOM     88  C   UNL A   1      43.820  38.203  32.442  1.00  0.00     0.022 A 
BRANCH  85  89
ATOM     89  S   UNL A   1      44.280  39.354  29.945  1.00  0.00     0.124 S 
ATOM     90  O   UNL A   1      43.006  40.003  29.652  1.00  0.00    -0.237 OA
ATOM     91  O   UNL A   1      45.210  40.116  30.773  1.00  0.00    -0.237 OA
ATOM     92  O   UNL A   1      44.891  38.652  28.817  1.00  0.00    -0.744 OA
ENDBRANCH  85  89
ENDBRANCH  59  82
ENDBRANCH  33  34
ENDBRANCH  26  28
ENDBRANCH  25  26
ENDBRANCH  24  25
ENDBRANCH   1  24
TORSDOF 17
ENDMDL
MODEL 2
REMARK VINA RESULT:     -10.3      4.238      7.046
REMARK SMILES C[C@]1(C(=O)NCc2ccc(C(=O)OCCOC(=O)c3ccc(-c4c5nc(c(-c6cc(S(=O)(=O)[O-])ccc6F)c6ccc([nH]6)c(-c6cc(S(=O)(=O)[O-])ccc6F)c6nc(c(-c7cc(S(=O)(=O)[O-])ccc7F)c7ccc4[nH]7)C=C6)C=C5)cc3)o2)CCC[NH2+]C1
REMARK SMILES IDX 14 1 13 2 11 3 12 4 10 5 7 6 8 7 82 8 9 9 6 10 5 11 3 12
REMARK SMILES IDX 4 13 2 15 1 16 83 17 87 18 84 19 86 20 85 21 15 24 16 25
REMARK SMILES IDX 17 26 18 27 19 28 20 29 81 30 21 31 80 32 22 33 23 34 24 35
REMARK SMILES IDX 74 36 25 37 79 38 73 39 75 40 26 41 78 42 72 43 71 44 27 46
REMARK SMILES IDX 59 47 39 48 58 49 40 50 43 51 57 52 76 53 41 54 42 55 56 57
REMARK SMILES IDX 77 58 44 59 28 60 29 61 37 62 30 63 36 64 38 65 35 66 31 67
REMARK SMILES IDX 32 68 33 69 34 70 60 71 61 72 69 73 62 74 68 75 70 76 67 77
REMARK SMILES IDX 63 78 64 79 65 80 66 81 45 82 46 83 54 84 47 85 53 86 55 87
REMARK SMILES IDX 52 88 48 89 49 90 50 91 51 92
REMARK H PARENT 5 14 86 22 86 23 75 45 43 56
REMARK Flexibility Score: inf
ROOT
ATOM      1  C   UNL A   1      35.955  21.962  24.259  1.00  0.00     0.275 C 
ENDROOT
BRANCH   1   2
ATOM      2  O   UNL A   1      34.720  21.315  23.904  1.00  0.00    -0.456 OA
BRANCH   2   3
ATOM      3  C   UNL A   1      34.091  20.631  24.905  1.00  0.00     0.374 C 
ATOM      4  O   UNL A   1      34.060  19.409  24.990  1.00  0.00    -0.242 OA
BRANCH   3   5
ATOM      5  C   UNL A   1      33.542  21.562  25.864  1.00  0.00     0.211 A 
ATOM      6  C   UNL A   1      32.117  23.115  26.530  1.00  0.00     0.124 A 
ATOM      7  C   UNL A   1      32.823  22.725  27.650  1.00  0.00     0.048 A 
ATOM      8  O   UNL A   1      32.589  22.452  25.435  1.00  0.00    -0.452 OA
ATOM      9  C   UNL A   1      33.734  21.729  27.224  1.00  0.00     0.058 A 
BRANCH   6  10
ATOM     10  C   UNL A   1      31.030  24.103  26.325  1.00  0.00     0.191 C 
BRANCH  10  11
ATOM     11  N   UNL A   1      31.321  25.353  26.986  1.00  0.00    -0.348 N 
ATOM     12  C   UNL A   1      31.535  26.619  26.556  1.00  0.00     0.232 C 
ATOM     13  O   UNL A   1      31.283  27.476  27.417  1.00  0.00    -0.274 OA
ATOM     14  H   UNL A   1      31.376  25.265  27.965  1.00  0.00     0.163 HD
BRANCH  12  15
ATOM     15  C   UNL A   1      32.252  27.032  25.248  1.00  0.00     0.095 C 
ATOM     16  C   UNL A   1      33.635  26.342  25.327  1.00  0.00     0.028 C 
ATOM     17  C   UNL A   1      31.632  26.664  23.890  1.00  0.00     0.028 C 
ATOM     18  C   UNL A   1      32.491  28.568  25.282  1.00  0.00     0.277 C 
ATOM     19  C   UNL A   1      30.453  27.559  23.505  1.00  0.00     0.063 C 
ATOM     20  N   UNL A   1      31.280  29.338  24.954  1.00  0.00    -0.345 N 
ATOM     21  C   UNL A   1      30.813  29.036  23.609  1.00  0.00     0.260 C 
ATOM     22  H   UNL A   1      30.545  29.105  25.622  1.00  0.00     0.346 HD
ATOM     23  H   UNL A   1      31.506  30.332  25.002  1.00  0.00     0.346 HD
ENDBRANCH  12  15
ENDBRANCH  10  11
ENDBRANCH   6  10
ENDBRANCH   3   5
ENDBRANCH   2   3
ENDBRANCH   1   2
BRANCH   1  24
ATOM     24  C   UNL A   1      37.012  20.940  24.692  1.00  0.00     0.275 C 
BRANCH  24  25
ATOM     25  O   UNL A   1      37.559  21.239  25.990  1.00  0.00    -0.458 OA
BRANCH  25  26
ATOM     26  C   UNL A   1      38.906  21.121  26.090  1.00  0.00     0.338 C 
ATOM     27  O   UNL A   1      39.579  20.165  25.741  1.00  0.00    -0.246 OA
BRANCH  26  28
ATOM     28  C   UNL A   1      39.484  22.384  26.579  1.00  0.00     0.060 A 
ATOM     29  C   UNL A   1      38.931  23.578  26.118  1.00  0.00     0.016 A 
ATOM     30  C   UNL A   1      40.601  22.404  27.419  1.00  0.00     0.016 A 
ATOM     31  C   UNL A   1      39.500  24.795  26.483  1.00  0.00     0.010 A 
ATOM     32  C   UNL A   1      41.170  23.632  27.784  1.00  0.00     0.010 A 
ATOM     33  C   UNL A   1      40.636  24.840  27.302  1.00  0.00    -0.014 A 
BRANCH  33  34
ATOM     34  C   UNL A   1      41.276  26.152  27.596  1.00  0.00     0.031 A 
ATOM     35  C   UNL A   1      42.633  26.475  27.031  1.00  0.00     0.074 A 
ATOM     36  C   UNL A   1      40.622  27.071  28.333  1.00  0.00     0.049 A 
ATOM     37  N   UNL A   1      43.387  27.528  27.226  1.00  0.00    -0.248 NA
ATOM     38  C   UNL A   1      43.225  25.474  26.132  1.00  0.00     0.031 C 
ATOM     39  C   UNL A   1      39.276  26.905  28.882  1.00  0.00     0.029 A 
ATOM     40  N   UNL A   1      40.994  28.329  28.738  1.00  0.00    -0.354 N 
ATOM     41  C   UNL A   1      44.549  27.309  26.493  1.00  0.00     0.074 A 
ATOM     42  C   UNL A   1      44.410  26.007  25.874  1.00  0.00     0.031 C 
ATOM     43  C   UNL A   1      38.928  28.025  29.535  1.00  0.00     0.029 A 
ATOM     44  C   UNL A   1      40.046  28.964  29.507  1.00  0.00     0.049 A 
ATOM     45  H   UNL A   1      41.857  28.739  28.500  1.00  0.00     0.167 HD
ATOM     46  C   UNL A   1      45.627  28.122  26.347  1.00  0.00     0.034 A 
ATOM     47  C   UNL A   1      40.082  30.152  30.144  1.00  0.00     0.034 A 
ATOM     48  C   UNL A   1      45.742  29.425  26.961  1.00  0.00     0.049 A 
ATOM     49  C   UNL A   1      41.323  31.002  30.033  1.00  0.00     0.074 A 
ATOM     50  C   UNL A   1      46.782  30.335  26.866  1.00  0.00     0.029 A 
ATOM     51  N   UNL A   1      44.788  30.006  27.789  1.00  0.00    -0.354 N 
ATOM     52  N   UNL A   1      42.428  30.771  29.361  1.00  0.00    -0.248 NA
ATOM     53  C   UNL A   1      41.323  32.272  30.768  1.00  0.00     0.031 C 
ATOM     54  C   UNL A   1      46.493  31.427  27.692  1.00  0.00     0.029 A 
ATOM     55  C   UNL A   1      45.234  31.241  28.239  1.00  0.00     0.049 A 
ATOM     56  H   UNL A   1      43.922  29.601  28.022  1.00  0.00     0.167 HD
ATOM     57  C   UNL A   1      43.241  31.881  29.572  1.00  0.00     0.074 A 
ATOM     58  C   UNL A   1      42.494  32.786  30.421  1.00  0.00     0.031 C 
ATOM     59  C   UNL A   1      44.490  32.131  29.102  1.00  0.00     0.034 A 
BRANCH  46  60
ATOM     60  C   UNL A   1      46.793  27.596  25.542  1.00  0.00     0.023 A 
ATOM     61  C   UNL A   1      47.049  28.025  24.227  1.00  0.00     0.031 A 
ATOM     62  C   UNL A   1      47.651  26.627  26.093  1.00  0.00     0.131 A 
ATOM     63  C   UNL A   1      48.086  27.436  23.486  1.00  0.00     0.055 A 
ATOM     64  C   UNL A   1      48.732  26.104  25.379  1.00  0.00     0.041 A 
ATOM     65  F   UNL A   1      47.448  26.161  27.336  1.00  0.00    -0.206 F 
ATOM     66  C   UNL A   1      48.945  26.497  24.063  1.00  0.00     0.022 A 
BRANCH  63  67
ATOM     67  S   UNL A   1      48.208  27.807  21.714  1.00  0.00     0.124 S 
ATOM     68  O   UNL A   1      46.896  28.388  21.441  1.00  0.00    -0.237 OA
ATOM     69  O   UNL A   1      49.336  28.729  21.661  1.00  0.00    -0.237 OA
ATOM     70  O   UNL A   1      48.441  26.500  21.104  1.00  0.00    -0.744 OA
ENDBRANCH  63  67
ENDBRANCH  46  60
BRANCH  47  71
ATOM     71  C   UNL A   1      38.934  30.587  30.993  1.00  0.00     0.023 A 
ATOM     72  C   UNL A   1      37.875  31.340  30.460  1.00  0.00     0.031 A 
ATOM     73  C   UNL A   1      38.907  30.294  32.368  1.00  0.00     0.131 A 
ATOM     74  C   UNL A   1      36.857  31.809  31.306  1.00  0.00     0.055 A 
ATOM     75  C   UNL A   1      37.861  30.712  33.194  1.00  0.00     0.041 A 
ATOM     76  F   UNL A   1      39.898  29.586  32.933  1.00  0.00    -0.206 F 
ATOM     77  C   UNL A   1      36.834  31.485  32.665  1.00  0.00     0.022 A 
BRANCH  74  78
ATOM     78  S   UNL A   1      35.605  32.933  30.626  1.00  0.00     0.124 S 
ATOM     79  O   UNL A   1      35.714  32.669  29.195  1.00  0.00    -0.237 OA
ATOM     80  O   UNL A   1      34.386  32.462  31.275  1.00  0.00    -0.237 OA
ATOM     81  O   UNL A   1      36.063  34.253  31.053  1.00  0.00    -0.744 OA
ENDBRANCH  74  78
ENDBRANCH  47  71
BRANCH  59  82
ATOM     82  C   UNL A   1      45.106  33.461  29.469  1.00  0.00     0.023 A 
ATOM     83  C   UNL A   1      44.963  34.596  28.652  1.00  0.00     0.031 A 
ATOM     84  C   UNL A   1      45.863  33.587  30.647  1.00  0.00     0.131 A 
ATOM     85  C   UNL A   1      45.615  35.792  28.994  1.00  0.00     0.055 A 
ATOM     86  C   UNL A   1      46.460  34.794  31.013  1.00  0.00     0.041 A 
ATOM     87  F   UNL A   1      46.036  32.536  31.465  1.00  0.00    -0.206 F 
ATOM     88  C   UNL A   1      46.349  35.902  30.178  1.00  0.00     0.022 A 
BRANCH  85  89
ATOM     89  S   UNL A   1      45.571  37.177  27.824  1.00  0.00     0.124 S 
ATOM     90  O   UNL A   1      46.772  36.945  27.029  1.00  0.00    -0.237 OA
ATOM     91  O   UNL A   1      44.300  36.967  27.137  1.00  0.00    -0.237 OA
ATOM     92  O   UNL A   1      45.618  38.357  28.687  1.00  0.00    -0.744 OA
ENDBRANCH  85  89
ENDBRANCH  59  82
ENDBRANCH  33  34
ENDBRANCH  26  28
ENDBRANCH  25  26
ENDBRANCH  24  25
ENDBRANCH   1  24
TORSDOF 17
ENDMDL
MODEL 3
REMARK VINA RESULT:     -10.2      5.669     11.205
REMARK SMILES C[C@]1(C(=O)NCc2ccc(C(=O)OCCOC(=O)c3ccc(-c4c5nc(c(-c6cc(S(=O)(=O)[O-])ccc6F)c6ccc([nH]6)c(-c6cc(S(=O)(=O)[O-])ccc6F)c6nc(c(-c7cc(S(=O)(=O)[O-])ccc7F)c7ccc4[nH]7)C=C6)C=C5)cc3)o2)CCC[NH2+]C1
REMARK SMILES IDX 14 1 13 2 11 3 12 4 10 5 7 6 8 7 82 8 9 9 6 10 5 11 3 12
REMARK SMILES IDX 4 13 2 15 1 16 83 17 87 18 84 19 86 20 85 21 15 24 16 25
REMARK SMILES IDX 17 26 18 27 19 28 20 29 81 30 21 31 80 32 22 33 23 34 24 35
REMARK SMILES IDX 74 36 25 37 79 38 73 39 75 40 26 41 78 42 72 43 71 44 27 46
REMARK SMILES IDX 59 47 39 48 58 49 40 50 43 51 57 52 76 53 41 54 42 55 56 57
REMARK SMILES IDX 77 58 44 59 28 60 29 61 37 62 30 63 36 64 38 65 35 66 31 67
REMARK SMILES IDX 32 68 33 69 34 70 60 71 61 72 69 73 62 74 68 75 70 76 67 77
REMARK SMILES IDX 63 78 64 79 65 80 66 81 45 82 46 83 54 84 47 85 53 86 55 87
REMARK SMILES IDX 52 88 48 89 49 90 50 91 51 92
REMARK H PARENT 5 14 86 22 86 23 75 45 43 56
REMARK Flexibility Score: inf
ROOT
ATOM      1  C   UNL A   1      31.407  29.457  25.293  1.00  0.00     0.275 C 
ENDROOT
BRANCH   1   2
ATOM      2  O   UNL A   1      32.152  28.276  25.644  1.00  0.00    -0.456 OA
BRANCH   2   3
ATOM      3  C   UNL A   1      31.517  27.388  26.466  1.00  0.00     0.374 C 
ATOM      4  O   UNL A   1      31.166  27.641  27.613  1.00  0.00    -0.242 OA
BRANCH   3   5
ATOM      5  C   UNL A   1      31.268  26.155  25.756  1.00  0.00     0.211 A 
ATOM      6  C   UNL A   1      30.830  23.992  25.629  1.00  0.00     0.124 A 
ATOM      7  C   UNL A   1      30.712  24.492  24.349  1.00  0.00     0.048 A 
ATOM      8  O   UNL A   1      31.223  24.988  26.477  1.00  0.00    -0.452 OA
ATOM      9  C   UNL A   1      30.990  25.877  24.430  1.00  0.00     0.058 A 
BRANCH   6  10
ATOM     10  C   UNL A   1      30.656  22.632  26.194  1.00  0.00     0.191 C 
BRANCH  10  11
ATOM     11  N   UNL A   1      31.863  22.166  26.833  1.00  0.00    -0.348 N 
ATOM     12  C   UNL A   1      33.117  21.898  26.397  1.00  0.00     0.232 C 
ATOM     13  O   UNL A   1      33.973  21.978  27.291  1.00  0.00    -0.274 OA
ATOM     14  H   UNL A   1      31.750  22.008  27.798  1.00  0.00     0.163 HD
BRANCH  12  15
ATOM     15  C   UNL A   1      33.499  21.302  25.020  1.00  0.00     0.095 C 
ATOM     16  C   UNL A   1      32.548  20.094  24.840  1.00  0.00     0.028 C 
ATOM     17  C   UNL A   1      33.384  22.169  23.755  1.00  0.00     0.028 C 
ATOM     18  C   UNL A   1      34.949  20.748  25.109  1.00  0.00     0.277 C 
ATOM     19  C   UNL A   1      34.523  23.179  23.614  1.00  0.00     0.063 C 
ATOM     20  N   UNL A   1      35.968  21.807  25.021  1.00  0.00    -0.345 N 
ATOM     21  C   UNL A   1      35.886  22.511  23.749  1.00  0.00     0.260 C 
ATOM     22  H   UNL A   1      35.823  22.473  25.780  1.00  0.00     0.346 HD
ATOM     23  H   UNL A   1      36.890  21.376  25.093  1.00  0.00     0.346 HD
ENDBRANCH  12  15
ENDBRANCH  10  11
ENDBRANCH   6  10
ENDBRANCH   3   5
ENDBRANCH   2   3
ENDBRANCH   1   2
BRANCH   1  24
ATOM     24  C   UNL A   1      31.853  30.663  26.128  1.00  0.00     0.275 C 
BRANCH  24  25
ATOM     25  O   UNL A   1      33.239  30.579  26.509  1.00  0.00    -0.458 OA
BRANCH  25  26
ATOM     26  C   UNL A   1      33.692  31.606  27.268  1.00  0.00     0.338 C 
ATOM     27  O   UNL A   1      33.114  32.658  27.486  1.00  0.00    -0.246 OA
BRANCH  26  28
ATOM     28  C   UNL A   1      34.960  31.230  27.915  1.00  0.00     0.060 A 
ATOM     29  C   UNL A   1      35.096  29.920  28.374  1.00  0.00     0.016 A 
ATOM     30  C   UNL A   1      35.977  32.163  28.138  1.00  0.00     0.016 A 
ATOM     31  C   UNL A   1      36.242  29.543  29.070  1.00  0.00     0.010 A 
ATOM     32  C   UNL A   1      37.128  31.778  28.839  1.00  0.00     0.010 A 
ATOM     33  C   UNL A   1      37.262  30.466  29.330  1.00  0.00    -0.014 A 
BRANCH  33  34
ATOM     34  C   UNL A   1      38.429  30.057  30.158  1.00  0.00     0.031 A 
ATOM     35  C   UNL A   1      38.583  30.579  31.561  1.00  0.00     0.074 A 
ATOM     36  C   UNL A   1      39.329  29.180  29.668  1.00  0.00     0.049 A 
ATOM     37  N   UNL A   1      39.559  30.398  32.415  1.00  0.00    -0.248 NA
ATOM     38  C   UNL A   1      37.493  31.427  32.068  1.00  0.00     0.031 C 
ATOM     39  C   UNL A   1      39.258  28.552  28.349  1.00  0.00     0.029 A 
ATOM     40  N   UNL A   1      40.472  28.660  30.224  1.00  0.00    -0.354 N 
ATOM     41  C   UNL A   1      39.214  31.123  33.551  1.00  0.00     0.074 A 
ATOM     42  C   UNL A   1      37.952  31.772  33.262  1.00  0.00     0.031 C 
ATOM     43  C   UNL A   1      40.298  27.716  28.205  1.00  0.00     0.029 A 
ATOM     44  C   UNL A   1      41.145  27.796  29.392  1.00  0.00     0.049 A 
ATOM     45  H   UNL A   1      40.779  28.883  31.132  1.00  0.00     0.167 HD
ATOM     46  C   UNL A   1      39.888  31.232  34.725  1.00  0.00     0.034 A 
ATOM     47  C   UNL A   1      42.326  27.163  29.550  1.00  0.00     0.034 A 
ATOM     48  C   UNL A   1      41.140  30.566  35.001  1.00  0.00     0.049 A 
ATOM     49  C   UNL A   1      43.094  27.364  30.832  1.00  0.00     0.074 A 
ATOM     50  C   UNL A   1      41.896  30.596  36.161  1.00  0.00     0.029 A 
ATOM     51  N   UNL A   1      41.826  29.751  34.107  1.00  0.00    -0.354 N 
ATOM     52  N   UNL A   1      42.773  28.077  31.888  1.00  0.00    -0.248 NA
ATOM     53  C   UNL A   1      44.387  26.677  30.943  1.00  0.00     0.031 C 
ATOM     54  C   UNL A   1      43.070  29.866  35.944  1.00  0.00     0.029 A 
ATOM     55  C   UNL A   1      43.012  29.308  34.677  1.00  0.00     0.049 A 
ATOM     56  H   UNL A   1      41.516  29.522  33.202  1.00  0.00     0.167 HD
ATOM     57  C   UNL A   1      43.811  27.900  32.797  1.00  0.00     0.074 A 
ATOM     58  C   UNL A   1      44.761  27.002  32.171  1.00  0.00     0.031 C 
ATOM     59  C   UNL A   1      43.964  28.427  34.039  1.00  0.00     0.034 A 
BRANCH  46  60
ATOM     60  C   UNL A   1      39.312  32.155  35.775  1.00  0.00     0.023 A 
ATOM     61  C   UNL A   1      39.719  33.495  35.898  1.00  0.00     0.031 A 
ATOM     62  C   UNL A   1      38.355  31.675  36.688  1.00  0.00     0.131 A 
ATOM     63  C   UNL A   1      39.227  34.284  36.950  1.00  0.00     0.055 A 
ATOM     64  C   UNL A   1      37.807  32.488  37.682  1.00  0.00     0.041 A 
ATOM     65  F   UNL A   1      37.940  30.399  36.636  1.00  0.00    -0.206 F 
ATOM     66  C   UNL A   1      38.254  33.797  37.827  1.00  0.00     0.022 A 
BRANCH  63  67
ATOM     67  S   UNL A   1      39.980  35.908  37.246  1.00  0.00     0.124 S 
ATOM     68  O   UNL A   1      39.686  36.605  35.996  1.00  0.00    -0.237 OA
ATOM     69  O   UNL A   1      39.261  36.381  38.423  1.00  0.00    -0.237 OA
ATOM     70  O   UNL A   1      41.393  35.599  37.459  1.00  0.00    -0.744 OA
ENDBRANCH  63  67
ENDBRANCH  46  60
BRANCH  47  71
ATOM     71  C   UNL A   1      42.887  26.328  28.448  1.00  0.00     0.023 A 
ATOM     72  C   UNL A   1      43.954  26.783  27.657  1.00  0.00     0.031 A 
ATOM     73  C   UNL A   1      42.326  25.076  28.139  1.00  0.00     0.131 A 
ATOM     74  C   UNL A   1      44.397  26.010  26.571  1.00  0.00     0.055 A 
ATOM     75  C   UNL A   1      42.809  24.285  27.096  1.00  0.00     0.041 A 
ATOM     76  F   UNL A   1      41.297  24.596  28.856  1.00  0.00    -0.206 F 
ATOM     77  C   UNL A   1      43.844  24.757  26.296  1.00  0.00     0.022 A 
BRANCH  74  78
ATOM     78  S   UNL A   1      45.649  26.707  25.457  1.00  0.00     0.124 S 
ATOM     79  O   UNL A   1      45.953  25.566  24.600  1.00  0.00    -0.237 OA
ATOM     80  O   UNL A   1      44.924  27.807  24.830  1.00  0.00    -0.237 OA
ATOM     81  O   UNL A   1      46.725  27.110  26.361  1.00  0.00    -0.744 OA
ENDBRANCH  74  78
ENDBRANCH  47  71
BRANCH  59  82
ATOM     82  C   UNL A   1      45.190  28.007  34.816  1.00  0.00     0.023 A 
ATOM     83  C   UNL A   1      45.185  26.886  35.663  1.00  0.00     0.031 A 
ATOM     84  C   UNL A   1      46.377  28.756  34.718  1.00  0.00     0.131 A 
ATOM     85  C   UNL A   1      46.324  26.577  36.423  1.00  0.00     0.055 A 
ATOM     86  C   UNL A   1      47.526  28.409  35.430  1.00  0.00     0.041 A 
ATOM     87  F   UNL A   1      46.441  29.838  33.927  1.00  0.00    -0.206 F 
ATOM     88  C   UNL A   1      47.500  27.322  36.299  1.00  0.00     0.022 A 
BRANCH  85  89
ATOM     89  S   UNL A   1      46.222  25.243  37.649  1.00  0.00     0.124 S 
ATOM     90  O   UNL A   1      46.844  24.130  36.940  1.00  0.00    -0.237 OA
ATOM     91  O   UNL A   1      46.981  25.790  38.770  1.00  0.00    -0.237 OA
ATOM     92  O   UNL A   1      44.786  25.102  37.885  1.00  0.00    -0.744 OA
ENDBRANCH  85  89
ENDBRANCH  59  82
ENDBRANCH  33  34
ENDBRANCH  26  28
ENDBRANCH  25  26
ENDBRANCH  24  25
ENDBRANCH   1  24
TORSDOF 17
ENDMDL
