MODEL 1
REMARK VINA RESULT:     -10.8      0.000      0.000
REMARK SMILES Cc1nc(CCC(=O)OCCOC(=O)c2ccc(-c3c4nc(c(-c5cc(S(=O)(=O)[O-])ccc5F)c5ccc([nH]5)c(-c5cc(S(=O)(=O)[O-])ccc5F)c5nc(c(-c6cc(S(=O)(=O)[O-])ccc6F)c6ccc3[nH]6)C=C5)C=C4)cc2)cc([C@@H]2CCC[N@@H+]2C(C)C)n1
REMARK SMILES IDX 10 1 9 2 7 3 8 4 6 5 5 6 4 7 1 8 2 9 3 10 88 11 79 12 78 13
REMARK SMILES IDX 80 14 81 15 84 16 82 17 83 18 85 20 86 21 87 22 11 23 12 24
REMARK SMILES IDX 13 25 14 26 15 27 16 28 77 29 17 30 76 31 18 32 19 33 20 34
REMARK SMILES IDX 70 35 21 36 75 37 69 38 71 39 22 40 74 41 68 42 67 43 23 45
REMARK SMILES IDX 55 46 35 47 54 48 36 49 39 50 53 51 72 52 37 53 38 54 52 56
REMARK SMILES IDX 73 57 40 58 24 59 25 60 33 61 26 62 32 63 34 64 31 65 27 66
REMARK SMILES IDX 28 67 29 68 30 69 56 70 57 71 65 72 58 73 64 74 66 75 63 76
REMARK SMILES IDX 59 77 60 78 61 79 62 80 41 81 42 82 50 83 43 84 49 85 51 86
REMARK SMILES IDX 48 87 44 88 45 89 46 90 47 91
REMARK H PARENT 84 19 71 44 39 55
REMARK Flexibility Score: inf
ROOT
ATOM      1  C   UNL A   1      37.215  20.768  24.639  1.00  0.00     0.274 C 
ENDROOT
BRANCH   1   2
ATOM      2  O   UNL A   1      36.093  19.947  25.013  1.00  0.00    -0.462 OA
BRANCH   2   3
ATOM      3  C   UNL A   1      34.867  20.515  25.012  1.00  0.00     0.306 C 
ATOM      4  O   UNL A   1      33.880  20.038  24.466  1.00  0.00    -0.252 OA
BRANCH   3   5
ATOM      5  C   UNL A   1      34.850  21.853  25.723  1.00  0.00     0.129 C 
BRANCH   5   6
ATOM      6  C   UNL A   1      34.634  23.060  24.803  1.00  0.00     0.068 C 
BRANCH   6   7
ATOM      7  C   UNL A   1      33.524  23.946  25.302  1.00  0.00     0.045 A 
ATOM      8  C   UNL A   1      30.278  23.335  26.854  1.00  0.00     0.089 C 
ATOM      9  C   UNL A   1      31.479  24.051  26.327  1.00  0.00     0.126 A 
ATOM     10  N   UNL A   1      32.391  23.328  25.675  1.00  0.00    -0.238 NA
ATOM     11  N   UNL A   1      31.615  25.350  26.614  1.00  0.00    -0.232 NA
ATOM     12  C   UNL A   1      32.695  25.994  26.119  1.00  0.00     0.102 A 
ATOM     13  C   UNL A   1      33.707  25.304  25.472  1.00  0.00     0.054 A 
BRANCH  12  14
ATOM     14  C   UNL A   1      32.838  27.485  26.384  1.00  0.00     0.234 C 
ATOM     15  C   UNL A   1      31.848  27.991  27.427  1.00  0.00     0.078 C 
ATOM     16  N   UNL A   1      32.760  28.464  25.265  1.00  0.00    -0.325 N 
ATOM     17  C   UNL A   1      31.887  29.499  27.269  1.00  0.00     0.068 C 
ATOM     18  C   UNL A   1      32.504  29.762  25.900  1.00  0.00     0.263 C 
ATOM     19  H   UNL A   1      33.646  28.445  24.759  1.00  0.00     0.348 HD
BRANCH  16  20
ATOM     20  C   UNL A   1      31.885  28.153  24.120  1.00  0.00     0.178 C 
ATOM     21  C   UNL A   1      30.729  29.128  23.851  1.00  0.00     0.075 C 
ATOM     22  C   UNL A   1      32.723  27.997  22.840  1.00  0.00     0.075 C 
ENDBRANCH  16  20
ENDBRANCH  12  14
ENDBRANCH   6   7
ENDBRANCH   5   6
ENDBRANCH   3   5
ENDBRANCH   2   3
ENDBRANCH   1   2
BRANCH   1  23
ATOM     23  C   UNL A   1      38.537  20.132  25.076  1.00  0.00     0.275 C 
BRANCH  23  24
ATOM     24  O   UNL A   1      38.841  20.516  26.428  1.00  0.00    -0.458 OA
BRANCH  24  25
ATOM     25  C   UNL A   1      40.149  20.528  26.769  1.00  0.00     0.338 C 
ATOM     26  O   UNL A   1      40.929  19.595  26.786  1.00  0.00    -0.246 OA
BRANCH  25  27
ATOM     27  C   UNL A   1      40.534  21.918  27.042  1.00  0.00     0.060 A 
ATOM     28  C   UNL A   1      39.937  22.942  26.301  1.00  0.00     0.016 A 
ATOM     29  C   UNL A   1      41.504  22.202  28.003  1.00  0.00     0.016 A 
ATOM     30  C   UNL A   1      40.304  24.265  26.524  1.00  0.00     0.010 A 
ATOM     31  C   UNL A   1      41.869  23.530  28.228  1.00  0.00     0.010 A 
ATOM     32  C   UNL A   1      41.275  24.567  27.487  1.00  0.00    -0.014 A 
BRANCH  32  33
ATOM     33  C   UNL A   1      41.720  25.966  27.680  1.00  0.00     0.031 A 
ATOM     34  C   UNL A   1      43.053  26.394  27.141  1.00  0.00     0.074 A 
ATOM     35  C   UNL A   1      40.930  26.837  28.336  1.00  0.00     0.049 A 
ATOM     36  N   UNL A   1      43.682  27.530  27.290  1.00  0.00    -0.248 NA
ATOM     37  C   UNL A   1      43.777  25.403  26.331  1.00  0.00     0.031 C 
ATOM     38  C   UNL A   1      39.597  26.536  28.860  1.00  0.00     0.029 A 
ATOM     39  N   UNL A   1      41.141  28.146  28.686  1.00  0.00    -0.354 N 
ATOM     40  C   UNL A   1      44.884  27.388  26.607  1.00  0.00     0.074 A 
ATOM     41  C   UNL A   1      44.905  26.046  26.066  1.00  0.00     0.031 C 
ATOM     42  C   UNL A   1      39.112  27.628  29.473  1.00  0.00     0.029 A 
ATOM     43  C   UNL A   1      40.117  28.687  29.430  1.00  0.00     0.049 A 
ATOM     44  H   UNL A   1      41.945  28.650  28.428  1.00  0.00     0.167 HD
ATOM     45  C   UNL A   1      45.875  28.301  26.446  1.00  0.00     0.034 A 
ATOM     46  C   UNL A   1      40.022  29.886  30.037  1.00  0.00     0.034 A 
ATOM     47  C   UNL A   1      45.835  29.631  27.003  1.00  0.00     0.049 A 
ATOM     48  C   UNL A   1      41.170  30.856  29.908  1.00  0.00     0.074 A 
ATOM     49  C   UNL A   1      46.776  30.640  26.902  1.00  0.00     0.029 A 
ATOM     50  N   UNL A   1      44.796  30.137  27.776  1.00  0.00    -0.354 N 
ATOM     51  N   UNL A   1      42.308  30.710  29.268  1.00  0.00    -0.248 NA
ATOM     52  C   UNL A   1      41.020  32.154  30.579  1.00  0.00     0.031 C 
ATOM     53  C   UNL A   1      46.338  31.728  27.665  1.00  0.00     0.029 A 
ATOM     54  C   UNL A   1      45.087  31.431  28.181  1.00  0.00     0.049 A 
ATOM     55  H   UNL A   1      43.971  29.647  28.004  1.00  0.00     0.167 HD
ATOM     56  C   UNL A   1      42.996  31.909  29.437  1.00  0.00     0.074 A 
ATOM     57  C   UNL A   1      42.139  32.770  30.227  1.00  0.00     0.031 C 
ATOM     58  C   UNL A   1      44.221  32.270  28.977  1.00  0.00     0.034 A 
BRANCH  45  59
ATOM     59  C   UNL A   1      47.104  27.861  25.688  1.00  0.00     0.023 A 
ATOM     60  C   UNL A   1      47.259  28.114  24.313  1.00  0.00     0.031 A 
ATOM     61  C   UNL A   1      48.121  27.145  26.344  1.00  0.00     0.131 A 
ATOM     62  C   UNL A   1      48.370  27.599  23.627  1.00  0.00     0.055 A 
ATOM     63  C   UNL A   1      49.261  26.701  25.672  1.00  0.00     0.041 A 
ATOM     64  F   UNL A   1      48.017  26.853  27.651  1.00  0.00    -0.206 F 
ATOM     65  C   UNL A   1      49.383  26.915  24.302  1.00  0.00     0.022 A 
BRANCH  62  66
ATOM     66  S   UNL A   1      48.406  27.721  21.818  1.00  0.00     0.124 S 
ATOM     67  O   UNL A   1      48.693  26.341  21.434  1.00  0.00    -0.237 OA
ATOM     68  O   UNL A   1      47.066  28.206  21.507  1.00  0.00    -0.237 OA
ATOM     69  O   UNL A   1      49.488  28.670  21.560  1.00  0.00    -0.744 OA
ENDBRANCH  62  66
ENDBRANCH  45  59
BRANCH  46  70
ATOM     70  C   UNL A   1      38.826  30.225  30.860  1.00  0.00     0.023 A 
ATOM     71  C   UNL A   1      37.745  30.934  30.313  1.00  0.00     0.031 A 
ATOM     72  C   UNL A   1      38.767  29.882  32.223  1.00  0.00     0.131 A 
ATOM     73  C   UNL A   1      36.673  31.316  31.135  1.00  0.00     0.055 A 
ATOM     74  C   UNL A   1      37.674  30.218  33.023  1.00  0.00     0.041 A 
ATOM     75  F   UNL A   1      39.775  29.205  32.797  1.00  0.00    -0.206 F 
ATOM     76  C   UNL A   1      36.624  30.952  32.482  1.00  0.00     0.022 A 
BRANCH  73  77
ATOM     77  S   UNL A   1      35.377  32.376  30.435  1.00  0.00     0.124 S 
ATOM     78  O   UNL A   1      36.112  33.607  30.166  1.00  0.00    -0.237 OA
ATOM     79  O   UNL A   1      34.958  31.610  29.266  1.00  0.00    -0.237 OA
ATOM     80  O   UNL A   1      34.390  32.461  31.509  1.00  0.00    -0.744 OA
ENDBRANCH  73  77
ENDBRANCH  46  70
BRANCH  58  81
ATOM     81  C   UNL A   1      44.676  33.675  29.281  1.00  0.00     0.023 A 
ATOM     82  C   UNL A   1      44.376  34.753  28.429  1.00  0.00     0.031 A 
ATOM     83  C   UNL A   1      45.434  33.935  30.437  1.00  0.00     0.131 A 
ATOM     84  C   UNL A   1      44.877  36.031  28.718  1.00  0.00     0.055 A 
ATOM     85  C   UNL A   1      45.880  35.220  30.749  1.00  0.00     0.041 A 
ATOM     86  F   UNL A   1      45.750  32.943  31.284  1.00  0.00    -0.206 F 
ATOM     87  C   UNL A   1      45.613  36.274  29.880  1.00  0.00     0.022 A 
BRANCH  84  88
ATOM     88  S   UNL A   1      44.627  37.360  27.508  1.00  0.00     0.124 S 
ATOM     89  O   UNL A   1      45.775  37.186  26.625  1.00  0.00    -0.237 OA
ATOM     90  O   UNL A   1      43.326  37.022  26.938  1.00  0.00    -0.237 OA
ATOM     91  O   UNL A   1      44.650  38.574  28.322  1.00  0.00    -0.744 OA
ENDBRANCH  84  88
ENDBRANCH  58  81
ENDBRANCH  32  33
ENDBRANCH  25  27
ENDBRANCH  24  25
ENDBRANCH  23  24
ENDBRANCH   1  23
TORSDOF 18
ENDMDL
MODEL 2
REMARK VINA RESULT:     -10.8      4.903     10.689
REMARK SMILES Cc1nc(CCC(=O)OCCOC(=O)c2ccc(-c3c4nc(c(-c5cc(S(=O)(=O)[O-])ccc5F)c5ccc([nH]5)c(-c5cc(S(=O)(=O)[O-])ccc5F)c5nc(c(-c6cc(S(=O)(=O)[O-])ccc6F)c6ccc3[nH]6)C=C5)C=C4)cc2)cc([C@@H]2CCC[N@@H+]2C(C)C)n1
REMARK SMILES IDX 10 1 9 2 7 3 8 4 6 5 5 6 4 7 1 8 2 9 3 10 88 11 79 12 78 13
REMARK SMILES IDX 80 14 81 15 84 16 82 17 83 18 85 20 86 21 87 22 11 23 12 24
REMARK SMILES IDX 13 25 14 26 15 27 16 28 77 29 17 30 76 31 18 32 19 33 20 34
REMARK SMILES IDX 70 35 21 36 75 37 69 38 71 39 22 40 74 41 68 42 67 43 23 45
REMARK SMILES IDX 55 46 35 47 54 48 36 49 39 50 53 51 72 52 37 53 38 54 52 56
REMARK SMILES IDX 73 57 40 58 24 59 25 60 33 61 26 62 32 63 34 64 31 65 27 66
REMARK SMILES IDX 28 67 29 68 30 69 56 70 57 71 65 72 58 73 64 74 66 75 63 76
REMARK SMILES IDX 59 77 60 78 61 79 62 80 41 81 42 82 50 83 43 84 49 85 51 86
REMARK SMILES IDX 48 87 44 88 45 89 46 90 47 91
REMARK H PARENT 84 19 71 44 39 55
REMARK Flexibility Score: inf
ROOT
ATOM      1  C   UNL A   1      31.655  31.566  26.590  1.00  0.00     0.274 C 
ENDROOT
BRANCH   1   2
ATOM      2  O   UNL A   1      32.786  30.678  26.541  1.00  0.00    -0.462 OA
BRANCH   2   3
ATOM      3  C   UNL A   1      32.568  29.398  26.166  1.00  0.00     0.306 C 
ATOM      4  O   UNL A   1      31.504  28.807  26.299  1.00  0.00    -0.252 OA
BRANCH   3   5
ATOM      5  C   UNL A   1      33.811  28.741  25.602  1.00  0.00     0.129 C 
BRANCH   5   6
ATOM      6  C   UNL A   1      33.803  28.566  24.080  1.00  0.00     0.068 C 
BRANCH   6   7
ATOM      7  C   UNL A   1      33.427  27.162  23.686  1.00  0.00     0.045 A 
ATOM      8  C   UNL A   1      32.613  25.535  20.522  1.00  0.00     0.089 C 
ATOM      9  C   UNL A   1      32.918  25.732  21.971  1.00  0.00     0.126 A 
ATOM     10  N   UNL A   1      33.039  26.985  22.412  1.00  0.00    -0.238 NA
ATOM     11  N   UNL A   1      33.139  24.647  22.722  1.00  0.00    -0.232 NA
ATOM     12  C   UNL A   1      33.396  24.833  24.035  1.00  0.00     0.102 A 
ATOM     13  C   UNL A   1      33.584  26.102  24.558  1.00  0.00     0.054 A 
BRANCH  12  14
ATOM     14  C   UNL A   1      33.592  23.609  24.919  1.00  0.00     0.234 C 
ATOM     15  C   UNL A   1      33.449  23.931  26.402  1.00  0.00     0.078 C 
ATOM     16  N   UNL A   1      34.831  22.791  24.814  1.00  0.00    -0.325 N 
ATOM     17  C   UNL A   1      34.039  22.720  27.099  1.00  0.00     0.068 C 
ATOM     18  C   UNL A   1      34.881  22.001  26.050  1.00  0.00     0.263 C 
ATOM     19  H   UNL A   1      34.761  22.207  23.981  1.00  0.00     0.348 HD
BRANCH  16  20
ATOM     20  C   UNL A   1      36.092  23.468  24.462  1.00  0.00     0.178 C 
ATOM     21  C   UNL A   1      37.180  23.505  25.545  1.00  0.00     0.075 C 
ATOM     22  C   UNL A   1      36.678  22.860  23.177  1.00  0.00     0.075 C 
ENDBRANCH  16  20
ENDBRANCH  12  14
ENDBRANCH   6   7
ENDBRANCH   5   6
ENDBRANCH   3   5
ENDBRANCH   2   3
ENDBRANCH   1   2
BRANCH   1  23
ATOM     23  C   UNL A   1      32.094  33.008  26.858  1.00  0.00     0.275 C 
BRANCH  23  24
ATOM     24  O   UNL A   1      33.027  33.040  27.951  1.00  0.00    -0.458 OA
BRANCH  24  25
ATOM     25  C   UNL A   1      34.166  33.739  27.748  1.00  0.00     0.338 C 
ATOM     26  O   UNL A   1      34.292  34.843  27.254  1.00  0.00    -0.246 OA
BRANCH  25  27
ATOM     27  C   UNL A   1      35.278  32.971  28.323  1.00  0.00     0.060 A 
ATOM     28  C   UNL A   1      35.008  31.736  28.918  1.00  0.00     0.016 A 
ATOM     29  C   UNL A   1      36.573  33.488  28.301  1.00  0.00     0.016 A 
ATOM     30  C   UNL A   1      36.042  31.001  29.491  1.00  0.00     0.010 A 
ATOM     31  C   UNL A   1      37.609  32.749  28.874  1.00  0.00     0.010 A 
ATOM     32  C   UNL A   1      37.348  31.506  29.476  1.00  0.00    -0.014 A 
BRANCH  32  33
ATOM     33  C   UNL A   1      38.439  30.761  30.146  1.00  0.00     0.031 A 
ATOM     34  C   UNL A   1      38.809  31.112  31.557  1.00  0.00     0.074 A 
ATOM     35  C   UNL A   1      39.089  29.784  29.486  1.00  0.00     0.049 A 
ATOM     36  N   UNL A   1      39.796  30.669  32.290  1.00  0.00    -0.248 NA
ATOM     37  C   UNL A   1      37.954  32.103  32.227  1.00  0.00     0.031 C 
ATOM     38  C   UNL A   1      38.778  29.333  28.129  1.00  0.00     0.029 A 
ATOM     39  N   UNL A   1      40.152  29.005  29.863  1.00  0.00    -0.354 N 
ATOM     40  C   UNL A   1      39.693  31.337  33.505  1.00  0.00     0.074 A 
ATOM     41  C   UNL A   1      38.563  32.235  33.397  1.00  0.00     0.031 C 
ATOM     42  C   UNL A   1      39.639  28.362  27.783  1.00  0.00     0.029 A 
ATOM     43  C   UNL A   1      40.591  28.157  28.872  1.00  0.00     0.049 A 
ATOM     44  H   UNL A   1      40.561  29.047  30.757  1.00  0.00     0.167 HD
ATOM     45  C   UNL A   1      40.472  31.205  34.607  1.00  0.00     0.034 A 
ATOM     46  C   UNL A   1      41.661  27.339  28.837  1.00  0.00     0.034 A 
ATOM     47  C   UNL A   1      41.600  30.309  34.687  1.00  0.00     0.049 A 
ATOM     48  C   UNL A   1      42.557  27.267  30.048  1.00  0.00     0.074 A 
ATOM     49  C   UNL A   1      42.456  30.090  35.751  1.00  0.00     0.029 A 
ATOM     50  N   UNL A   1      42.035  29.485  33.655  1.00  0.00    -0.354 N 
ATOM     51  N   UNL A   1      42.459  27.910  31.189  1.00  0.00    -0.248 NA
ATOM     52  C   UNL A   1      43.707  26.357  29.968  1.00  0.00     0.031 C 
ATOM     53  C   UNL A   1      43.443  29.186  35.342  1.00  0.00     0.029 A 
ATOM     54  C   UNL A   1      43.161  28.780  34.047  1.00  0.00     0.049 A 
ATOM     55  H   UNL A   1      41.604  29.413  32.771  1.00  0.00     0.167 HD
ATOM     56  C   UNL A   1      43.518  27.459  31.972  1.00  0.00     0.074 A 
ATOM     57  C   UNL A   1      44.233  26.481  31.178  1.00  0.00     0.031 C 
ATOM     58  C   UNL A   1      43.866  27.815  33.235  1.00  0.00     0.034 A 
BRANCH  45  59
ATOM     59  C   UNL A   1      40.160  32.097  35.784  1.00  0.00     0.023 A 
ATOM     60  C   UNL A   1      39.123  31.801  36.687  1.00  0.00     0.031 A 
ATOM     61  C   UNL A   1      40.890  33.282  35.987  1.00  0.00     0.131 A 
ATOM     62  C   UNL A   1      38.802  32.709  37.708  1.00  0.00     0.055 A 
ATOM     63  C   UNL A   1      40.615  34.144  37.050  1.00  0.00     0.041 A 
ATOM     64  F   UNL A   1      41.876  33.630  35.144  1.00  0.00    -0.206 F 
ATOM     65  C   UNL A   1      39.557  33.867  37.910  1.00  0.00     0.022 A 
BRANCH  62  66
ATOM     66  S   UNL A   1      37.302  32.422  38.686  1.00  0.00     0.124 S 
ATOM     67  O   UNL A   1      37.568  33.221  39.879  1.00  0.00    -0.237 OA
ATOM     68  O   UNL A   1      36.251  32.918  37.806  1.00  0.00    -0.237 OA
ATOM     69  O   UNL A   1      37.305  30.976  38.901  1.00  0.00    -0.744 OA
ENDBRANCH  62  66
ENDBRANCH  45  59
BRANCH  46  70
ATOM     70  C   UNL A   1      41.977  26.560  27.606  1.00  0.00     0.023 A 
ATOM     71  C   UNL A   1      41.699  25.186  27.524  1.00  0.00     0.031 A 
ATOM     72  C   UNL A   1      42.607  27.170  26.507  1.00  0.00     0.131 A 
ATOM     73  C   UNL A   1      42.089  24.461  26.387  1.00  0.00     0.055 A 
ATOM     74  C   UNL A   1      42.945  26.456  25.357  1.00  0.00     0.041 A 
ATOM     75  F   UNL A   1      42.898  28.482  26.533  1.00  0.00    -0.206 F 
ATOM     76  C   UNL A   1      42.698  25.088  25.299  1.00  0.00     0.022 A 
BRANCH  73  77
ATOM     77  S   UNL A   1      41.867  22.660  26.388  1.00  0.00     0.124 S 
ATOM     78  O   UNL A   1      42.551  22.274  25.159  1.00  0.00    -0.237 OA
ATOM     79  O   UNL A   1      42.521  22.275  27.634  1.00  0.00    -0.237 OA
ATOM     80  O   UNL A   1      40.415  22.496  26.372  1.00  0.00    -0.744 OA
ENDBRANCH  73  77
ENDBRANCH  46  70
BRANCH  58  81
ATOM     81  C   UNL A   1      45.045  27.099  33.845  1.00  0.00     0.023 A 
ATOM     82  C   UNL A   1      44.936  25.798  34.365  1.00  0.00     0.031 A 
ATOM     83  C   UNL A   1      46.297  27.738  33.914  1.00  0.00     0.131 A 
ATOM     84  C   UNL A   1      46.044  25.198  34.982  1.00  0.00     0.055 A 
ATOM     85  C   UNL A   1      47.410  27.113  34.477  1.00  0.00     0.041 A 
ATOM     86  F   UNL A   1      46.457  28.981  33.433  1.00  0.00    -0.206 F 
ATOM     87  C   UNL A   1      47.284  25.841  35.027  1.00  0.00     0.022 A 
BRANCH  84  88
ATOM     88  S   UNL A   1      45.823  23.596  35.805  1.00  0.00     0.124 S 
ATOM     89  O   UNL A   1      46.418  22.676  34.841  1.00  0.00    -0.237 OA
ATOM     90  O   UNL A   1      46.562  23.780  37.051  1.00  0.00    -0.237 OA
ATOM     91  O   UNL A   1      44.374  23.484  35.956  1.00  0.00    -0.744 OA
ENDBRANCH  84  88
ENDBRANCH  58  81
ENDBRANCH  32  33
ENDBRANCH  25  27
ENDBRANCH  24  25
ENDBRANCH  23  24
ENDBRANCH   1  23
TORSDOF 18
ENDMDL
MODEL 3
REMARK VINA RESULT:     -10.7      5.414      9.015
REMARK SMILES Cc1nc(CCC(=O)OCCOC(=O)c2ccc(-c3c4nc(c(-c5cc(S(=O)(=O)[O-])ccc5F)c5ccc([nH]5)c(-c5cc(S(=O)(=O)[O-])ccc5F)c5nc(c(-c6cc(S(=O)(=O)[O-])ccc6F)c6ccc3[nH]6)C=C5)C=C4)cc2)cc([C@@H]2CCC[N@@H+]2C(C)C)n1
REMARK SMILES IDX 10 1 9 2 7 3 8 4 6 5 5 6 4 7 1 8 2 9 3 10 88 11 79 12 78 13
REMARK SMILES IDX 80 14 81 15 84 16 82 17 83 18 85 20 86 21 87 22 11 23 12 24
REMARK SMILES IDX 13 25 14 26 15 27 16 28 77 29 17 30 76 31 18 32 19 33 20 34
REMARK SMILES IDX 70 35 21 36 75 37 69 38 71 39 22 40 74 41 68 42 67 43 23 45
REMARK SMILES IDX 55 46 35 47 54 48 36 49 39 50 53 51 72 52 37 53 38 54 52 56
REMARK SMILES IDX 73 57 40 58 24 59 25 60 33 61 26 62 32 63 34 64 31 65 27 66
REMARK SMILES IDX 28 67 29 68 30 69 56 70 57 71 65 72 58 73 64 74 66 75 63 76
REMARK SMILES IDX 59 77 60 78 61 79 62 80 41 81 42 82 50 83 43 84 49 85 51 86
REMARK SMILES IDX 48 87 44 88 45 89 46 90 47 91
REMARK H PARENT 84 19 71 44 39 55
REMARK Flexibility Score: inf
ROOT
ATOM      1  C   UNL A   1      31.905  31.258  26.889  1.00  0.00     0.274 C 
ENDROOT
BRANCH   1   2
ATOM      2  O   UNL A   1      33.287  30.859  26.844  1.00  0.00    -0.462 OA
BRANCH   2   3
ATOM      3  C   UNL A   1      33.560  29.551  26.647  1.00  0.00     0.306 C 
ATOM      4  O   UNL A   1      34.508  28.955  27.143  1.00  0.00    -0.252 OA
BRANCH   3   5
ATOM      5  C   UNL A   1      32.586  28.896  25.689  1.00  0.00     0.129 C 
BRANCH   5   6
ATOM      6  C   UNL A   1      32.158  27.479  26.087  1.00  0.00     0.068 C 
BRANCH   6   7
ATOM      7  C   UNL A   1      32.756  26.442  25.175  1.00  0.00     0.045 A 
ATOM      8  C   UNL A   1      32.602  25.815  21.583  1.00  0.00     0.089 C 
ATOM      9  C   UNL A   1      32.995  25.704  23.020  1.00  0.00     0.126 A 
ATOM     10  N   UNL A   1      32.329  26.452  23.901  1.00  0.00    -0.238 NA
ATOM     11  N   UNL A   1      34.044  24.935  23.330  1.00  0.00    -0.232 NA
ATOM     12  C   UNL A   1      34.382  24.825  24.633  1.00  0.00     0.102 A 
ATOM     13  C   UNL A   1      33.769  25.605  25.601  1.00  0.00     0.054 A 
BRANCH  12  14
ATOM     14  C   UNL A   1      35.535  23.908  25.012  1.00  0.00     0.234 C 
ATOM     15  C   UNL A   1      36.252  23.338  23.793  1.00  0.00     0.078 C 
ATOM     16  N   UNL A   1      35.312  22.746  25.915  1.00  0.00    -0.325 N 
ATOM     17  C   UNL A   1      37.079  22.197  24.355  1.00  0.00     0.068 C 
ATOM     18  C   UNL A   1      36.475  21.872  25.717  1.00  0.00     0.263 C 
ATOM     19  H   UNL A   1      35.242  23.091  26.872  1.00  0.00     0.348 HD
BRANCH  16  20
ATOM     20  C   UNL A   1      34.008  22.060  25.866  1.00  0.00     0.178 C 
ATOM     21  C   UNL A   1      34.024  20.575  25.475  1.00  0.00     0.075 C 
ATOM     22  C   UNL A   1      33.276  22.221  27.209  1.00  0.00     0.075 C 
ENDBRANCH  16  20
ENDBRANCH  12  14
ENDBRANCH   6   7
ENDBRANCH   5   6
ENDBRANCH   3   5
ENDBRANCH   2   3
ENDBRANCH   1   2
BRANCH   1  23
ATOM     23  C   UNL A   1      31.771  32.764  27.134  1.00  0.00     0.275 C 
BRANCH  23  24
ATOM     24  O   UNL A   1      33.074  33.354  27.274  1.00  0.00    -0.458 OA
BRANCH  24  25
ATOM     25  C   UNL A   1      33.249  34.178  28.331  1.00  0.00     0.338 C 
ATOM     26  O   UNL A   1      32.557  35.118  28.673  1.00  0.00    -0.246 OA
BRANCH  25  27
ATOM     27  C   UNL A   1      34.403  33.695  29.098  1.00  0.00     0.060 A 
ATOM     28  C   UNL A   1      35.645  34.308  28.906  1.00  0.00     0.016 A 
ATOM     29  C   UNL A   1      34.263  32.621  29.976  1.00  0.00     0.016 A 
ATOM     30  C   UNL A   1      36.759  33.852  29.603  1.00  0.00     0.010 A 
ATOM     31  C   UNL A   1      35.381  32.166  30.677  1.00  0.00     0.010 A 
ATOM     32  C   UNL A   1      36.635  32.775  30.490  1.00  0.00    -0.014 A 
BRANCH  32  33
ATOM     33  C   UNL A   1      37.831  32.241  31.181  1.00  0.00     0.031 A 
ATOM     34  C   UNL A   1      38.589  31.103  30.564  1.00  0.00     0.074 A 
ATOM     35  C   UNL A   1      38.223  32.775  32.353  1.00  0.00     0.049 A 
ATOM     36  N   UNL A   1      39.590  30.414  31.046  1.00  0.00    -0.248 NA
ATOM     37  C   UNL A   1      38.153  30.681  29.225  1.00  0.00     0.031 C 
ATOM     38  C   UNL A   1      37.584  33.912  33.017  1.00  0.00     0.029 A 
ATOM     39  N   UNL A   1      39.244  32.423  33.198  1.00  0.00    -0.354 N 
ATOM     40  C   UNL A   1      39.896  29.465  30.078  1.00  0.00     0.074 A 
ATOM     41  C   UNL A   1      38.955  29.652  28.993  1.00  0.00     0.031 C 
ATOM     42  C   UNL A   1      38.224  34.159  34.172  1.00  0.00     0.029 A 
ATOM     43  C   UNL A   1      39.282  33.169  34.354  1.00  0.00     0.049 A 
ATOM     44  H   UNL A   1      39.889  31.707  32.997  1.00  0.00     0.167 HD
ATOM     45  C   UNL A   1      40.876  28.529  30.097  1.00  0.00     0.034 A 
ATOM     46  C   UNL A   1      40.058  33.040  35.448  1.00  0.00     0.034 A 
ATOM     47  C   UNL A   1      41.797  28.356  31.195  1.00  0.00     0.049 A 
ATOM     48  C   UNL A   1      41.091  31.940  35.478  1.00  0.00     0.074 A 
ATOM     49  C   UNL A   1      42.830  27.446  31.322  1.00  0.00     0.029 A 
ATOM     50  N   UNL A   1      41.789  29.109  32.363  1.00  0.00    -0.354 N 
ATOM     51  N   UNL A   1      41.367  31.040  34.562  1.00  0.00    -0.248 NA
ATOM     52  C   UNL A   1      41.919  31.842  36.687  1.00  0.00     0.031 C 
ATOM     53  C   UNL A   1      43.403  27.604  32.589  1.00  0.00     0.029 A 
ATOM     54  C   UNL A   1      42.779  28.665  33.226  1.00  0.00     0.049 A 
ATOM     55  H   UNL A   1      41.169  29.852  32.551  1.00  0.00     0.167 HD
ATOM     56  C   UNL A   1      42.420  30.288  35.074  1.00  0.00     0.074 A 
ATOM     57  C   UNL A   1      42.737  30.849  36.372  1.00  0.00     0.031 C 
ATOM     58  C   UNL A   1      43.072  29.233  34.521  1.00  0.00     0.034 A 
BRANCH  45  59
ATOM     59  C   UNL A   1      40.955  27.586  28.920  1.00  0.00     0.023 A 
ATOM     60  C   UNL A   1      41.920  27.741  27.908  1.00  0.00     0.031 A 
ATOM     61  C   UNL A   1      40.027  26.538  28.790  1.00  0.00     0.131 A 
ATOM     62  C   UNL A   1      41.894  26.904  26.782  1.00  0.00     0.055 A 
ATOM     63  C   UNL A   1      40.054  25.661  27.703  1.00  0.00     0.041 A 
ATOM     64  F   UNL A   1      39.068  26.356  29.711  1.00  0.00    -0.206 F 
ATOM     65  C   UNL A   1      40.982  25.850  26.684  1.00  0.00     0.022 A 
BRANCH  62  66
ATOM     66  S   UNL A   1      42.982  27.295  25.384  1.00  0.00     0.124 S 
ATOM     67  O   UNL A   1      43.033  26.015  24.681  1.00  0.00    -0.237 OA
ATOM     68  O   UNL A   1      42.258  28.366  24.709  1.00  0.00    -0.237 OA
ATOM     69  O   UNL A   1      44.233  27.696  26.025  1.00  0.00    -0.744 OA
ENDBRANCH  62  66
ENDBRANCH  45  59
BRANCH  46  70
ATOM     70  C   UNL A   1      39.863  33.936  36.624  1.00  0.00     0.023 A 
ATOM     71  C   UNL A   1      39.314  33.453  37.822  1.00  0.00     0.031 A 
ATOM     72  C   UNL A   1      40.180  35.304  36.549  1.00  0.00     0.131 A 
ATOM     73  C   UNL A   1      39.059  34.338  38.881  1.00  0.00     0.055 A 
ATOM     74  C   UNL A   1      39.975  36.170  37.624  1.00  0.00     0.041 A 
ATOM     75  F   UNL A   1      40.706  35.819  35.426  1.00  0.00    -0.206 F 
ATOM     76  C   UNL A   1      39.398  35.690  38.795  1.00  0.00     0.022 A 
BRANCH  73  77
ATOM     77  S   UNL A   1      38.194  33.712  40.348  1.00  0.00     0.124 S 
ATOM     78  O   UNL A   1      39.083  32.642  40.785  1.00  0.00    -0.237 OA
ATOM     79  O   UNL A   1      38.148  34.895  41.200  1.00  0.00    -0.237 OA
ATOM     80  O   UNL A   1      36.903  33.276  39.821  1.00  0.00    -0.744 OA
ENDBRANCH  73  77
ENDBRANCH  46  70
BRANCH  58  81
ATOM     81  C   UNL A   1      44.225  28.657  35.306  1.00  0.00     0.023 A 
ATOM     82  C   UNL A   1      44.030  27.702  36.319  1.00  0.00     0.031 A 
ATOM     83  C   UNL A   1      45.539  29.083  35.039  1.00  0.00     0.131 A 
ATOM     84  C   UNL A   1      45.125  27.245  37.067  1.00  0.00     0.055 A 
ATOM     85  C   UNL A   1      46.631  28.581  35.748  1.00  0.00     0.041 A 
ATOM     86  F   UNL A   1      45.782  29.993  34.083  1.00  0.00    -0.206 F 
ATOM     87  C   UNL A   1      46.426  27.666  36.777  1.00  0.00     0.022 A 
BRANCH  84  88
ATOM     88  S   UNL A   1      44.820  26.155  38.484  1.00  0.00     0.124 S 
ATOM     89  O   UNL A   1      44.991  24.832  37.892  1.00  0.00    -0.237 OA
ATOM     90  O   UNL A   1      45.855  26.570  39.426  1.00  0.00    -0.237 OA
ATOM     91  O   UNL A   1      43.452  26.484  38.882  1.00  0.00    -0.744 OA
ENDBRANCH  84  88
ENDBRANCH  58  81
ENDBRANCH  32  33
ENDBRANCH  25  27
ENDBRANCH  24  25
ENDBRANCH  23  24
ENDBRANCH   1  23
TORSDOF 18
ENDMDL
