MODEL 1
REMARK VINA RESULT:     -11.7      0.000      0.000
REMARK SMILES CC1(C)S[C@H](c2ccc(Br)cc2)[NH2+][C@H]1C(=O)OCCOC(=O)c1ccc(-c2c3nc(c(-c4cc(S(=O)(=O)[O-])ccc4F)c4ccc([nH]4)c(-c4cc(S(=O)(=O)[O-])ccc4F)c4nc(c(-c5cc(S(=O)(=O)[O-])ccc5F)c5ccc2[nH]5)C=C4)C=C3)cc1
REMARK SMILES IDX 19 1 18 2 17 3 15 4 16 5 14 6 1 7 2 8 3 9 4 10 5 11 13 12
REMARK SMILES IDX 6 15 7 16 12 17 8 18 11 19 9 20 10 21 20 22 21 23 22 24
REMARK SMILES IDX 23 25 24 26 85 27 25 28 84 29 26 30 27 31 28 32 78 33 29 34
REMARK SMILES IDX 83 35 77 36 79 37 30 38 82 39 76 40 75 41 31 43 63 44 43 45
REMARK SMILES IDX 62 46 44 47 47 48 61 49 80 50 45 51 46 52 60 54 81 55 48 56
REMARK SMILES IDX 32 57 33 58 41 59 34 60 40 61 42 62 39 63 35 64 36 65 37 66
REMARK SMILES IDX 38 67 64 68 65 69 73 70 66 71 72 72 74 73 71 74 67 75 68 76
REMARK SMILES IDX 69 77 70 78 49 79 50 80 58 81 51 82 57 83 59 84 56 85 52 86
REMARK SMILES IDX 53 87 54 88 55 89
REMARK H PARENT 13 13 13 14 79 42 47 53
REMARK Flexibility Score: inf
ROOT
ATOM      1  C   UNL A   1      31.841  32.274  27.151  1.00  0.00     0.275 C 
ENDROOT
BRANCH   1   2
ATOM      2  C   UNL A   1      31.877  30.893  26.493  1.00  0.00     0.274 C 
BRANCH   2   3
ATOM      3  O   UNL A   1      32.322  29.863  27.399  1.00  0.00    -0.458 OA
BRANCH   3   4
ATOM      4  C   UNL A   1      31.792  28.632  27.191  1.00  0.00     0.366 C 
ATOM      5  O   UNL A   1      31.460  27.874  28.099  1.00  0.00    -0.245 OA
BRANCH   4   6
ATOM      6  C   UNL A   1      31.727  28.204  25.715  1.00  0.00     0.310 C 
ATOM      7  C   UNL A   1      33.668  26.444  25.780  1.00  0.00     0.030 C 
ATOM      8  C   UNL A   1      32.931  27.541  25.011  1.00  0.00     0.079 C 
ATOM      9  C   UNL A   1      33.920  28.571  24.461  1.00  0.00     0.030 C 
ATOM     10  S   UNL A   1      32.128  26.719  23.562  1.00  0.00    -0.081 SA
ATOM     11  C   UNL A   1      30.423  27.104  24.079  1.00  0.00     0.274 C 
ATOM     12  N   UNL A   1      30.517  27.350  25.523  1.00  0.00    -0.319 N 
ATOM     13  H   UNL A   1      30.621  26.469  26.026  1.00  0.00     0.348 HD
ATOM     14  H   UNL A   1      29.677  27.805  25.880  1.00  0.00     0.348 HD
BRANCH  11  15
ATOM     15  C   UNL A   1      29.789  28.231  23.263  1.00  0.00     0.020 A 
ATOM     16  C   UNL A   1      30.609  29.068  22.479  1.00  0.00     0.012 A 
ATOM     17  C   UNL A   1      28.399  28.451  23.213  1.00  0.00     0.012 A 
ATOM     18  C   UNL A   1      30.066  30.103  21.711  1.00  0.00     0.016 A 
ATOM     19  C   UNL A   1      27.855  29.495  22.456  1.00  0.00     0.016 A 
ATOM     20  C   UNL A   1      28.691  30.316  21.709  1.00  0.00     0.018 A 
ATOM     21  Br  UNL A   1      27.960  31.714  20.670  1.00  0.00    -0.051 Br
ENDBRANCH  11  15
ENDBRANCH   4   6
ENDBRANCH   3   4
ENDBRANCH   2   3
ENDBRANCH   1   2
BRANCH   1  22
ATOM     22  O   UNL A   1      33.148  32.870  27.209  1.00  0.00    -0.458 OA
BRANCH  22  23
ATOM     23  C   UNL A   1      33.328  33.760  28.214  1.00  0.00     0.338 C 
ATOM     24  O   UNL A   1      32.619  34.713  28.482  1.00  0.00    -0.246 OA
BRANCH  23  25
ATOM     25  C   UNL A   1      34.486  33.360  29.028  1.00  0.00     0.060 A 
ATOM     26  C   UNL A   1      35.734  33.923  28.750  1.00  0.00     0.016 A 
ATOM     27  C   UNL A   1      34.358  32.364  29.994  1.00  0.00     0.016 A 
ATOM     28  C   UNL A   1      36.867  33.489  29.431  1.00  0.00     0.010 A 
ATOM     29  C   UNL A   1      35.495  31.941  30.693  1.00  0.00     0.010 A 
ATOM     30  C   UNL A   1      36.757  32.496  30.410  1.00  0.00    -0.014 A 
BRANCH  30  31
ATOM     31  C   UNL A   1      37.969  32.007  31.114  1.00  0.00     0.031 A 
ATOM     32  C   UNL A   1      38.804  30.925  30.495  1.00  0.00     0.074 A 
ATOM     33  C   UNL A   1      38.310  32.536  32.303  1.00  0.00     0.049 A 
ATOM     34  N   UNL A   1      39.808  30.259  31.004  1.00  0.00    -0.248 NA
ATOM     35  C   UNL A   1      38.455  30.537  29.121  1.00  0.00     0.031 C 
ATOM     36  C   UNL A   1      37.607  33.631  32.974  1.00  0.00     0.029 A 
ATOM     37  N   UNL A   1      39.327  32.215  33.165  1.00  0.00    -0.354 N 
ATOM     38  C   UNL A   1      40.201  29.355  30.022  1.00  0.00     0.074 A 
ATOM     39  C   UNL A   1      39.310  29.549  28.896  1.00  0.00     0.031 C 
ATOM     40  C   UNL A   1      38.209  33.884  34.146  1.00  0.00     0.029 A 
ATOM     41  C   UNL A   1      39.300  32.933  34.338  1.00  0.00     0.049 A 
ATOM     42  H   UNL A   1      40.013  31.537  32.964  1.00  0.00     0.167 HD
ATOM     43  C   UNL A   1      41.209  28.450  30.063  1.00  0.00     0.034 A 
ATOM     44  C   UNL A   1      40.040  32.808  35.457  1.00  0.00     0.034 A 
ATOM     45  C   UNL A   1      42.088  28.276  31.197  1.00  0.00     0.049 A 
ATOM     46  C   UNL A   1      41.104  31.742  35.510  1.00  0.00     0.074 A 
ATOM     47  C   UNL A   1      43.144  27.394  31.345  1.00  0.00     0.029 A 
ATOM     48  N   UNL A   1      42.006  28.997  32.382  1.00  0.00    -0.354 N 
ATOM     49  N   UNL A   1      41.443  30.868  34.591  1.00  0.00    -0.248 NA
ATOM     50  C   UNL A   1      41.881  31.644  36.752  1.00  0.00     0.031 C 
ATOM     51  C   UNL A   1      43.662  27.540  32.637  1.00  0.00     0.029 A 
ATOM     52  C   UNL A   1      42.973  28.560  33.275  1.00  0.00     0.049 A 
ATOM     53  H   UNL A   1      41.356  29.714  32.561  1.00  0.00     0.167 HD
ATOM     54  C   UNL A   1      42.488  30.128  35.139  1.00  0.00     0.074 A 
ATOM     55  C   UNL A   1      42.730  30.669  36.461  1.00  0.00     0.031 C 
ATOM     56  C   UNL A   1      43.187  29.099  34.597  1.00  0.00     0.034 A 
BRANCH  43  57
ATOM     57  C   UNL A   1      41.367  27.539  28.871  1.00  0.00     0.023 A 
ATOM     58  C   UNL A   1      42.357  27.753  27.895  1.00  0.00     0.031 A 
ATOM     59  C   UNL A   1      40.486  26.457  28.689  1.00  0.00     0.131 A 
ATOM     60  C   UNL A   1      42.398  26.941  26.751  1.00  0.00     0.055 A 
ATOM     61  C   UNL A   1      40.580  25.609  27.585  1.00  0.00     0.041 A 
ATOM     62  F   UNL A   1      39.507  26.217  29.575  1.00  0.00    -0.206 F 
ATOM     63  C   UNL A   1      41.531  25.856  26.600  1.00  0.00     0.022 A 
BRANCH  60  64
ATOM     64  S   UNL A   1      43.512  27.405  25.396  1.00  0.00     0.124 S 
ATOM     65  O   UNL A   1      44.384  28.379  26.050  1.00  0.00    -0.237 OA
ATOM     66  O   UNL A   1      44.128  26.132  25.043  1.00  0.00    -0.237 OA
ATOM     67  O   UNL A   1      42.613  27.965  24.389  1.00  0.00    -0.744 OA
ENDBRANCH  60  64
ENDBRANCH  43  57
BRANCH  44  68
ATOM     68  C   UNL A   1      39.759  33.665  36.643  1.00  0.00     0.023 A 
ATOM     69  C   UNL A   1      39.130  33.146  37.784  1.00  0.00     0.031 A 
ATOM     70  C   UNL A   1      40.086  35.034  36.632  1.00  0.00     0.131 A 
ATOM     71  C   UNL A   1      38.814  33.996  38.855  1.00  0.00     0.055 A 
ATOM     72  C   UNL A   1      39.816  35.865  37.720  1.00  0.00     0.041 A 
ATOM     73  F   UNL A   1      40.689  35.581  35.565  1.00  0.00    -0.206 F 
ATOM     74  C   UNL A   1      39.164  35.349  38.836  1.00  0.00     0.022 A 
BRANCH  71  75
ATOM     75  S   UNL A   1      37.869  33.325  40.250  1.00  0.00     0.124 S 
ATOM     76  O   UNL A   1      36.620  32.939  39.605  1.00  0.00    -0.237 OA
ATOM     77  O   UNL A   1      38.726  32.233  40.697  1.00  0.00    -0.237 OA
ATOM     78  O   UNL A   1      37.773  34.456  41.171  1.00  0.00    -0.744 OA
ENDBRANCH  71  75
ENDBRANCH  44  68
BRANCH  56  79
ATOM     79  C   UNL A   1      44.306  28.526  35.429  1.00  0.00     0.023 A 
ATOM     80  C   UNL A   1      44.084  27.489  36.352  1.00  0.00     0.031 A 
ATOM     81  C   UNL A   1      45.609  29.042  35.309  1.00  0.00     0.131 A 
ATOM     82  C   UNL A   1      45.140  27.033  37.155  1.00  0.00     0.055 A 
ATOM     83  C   UNL A   1      46.666  28.548  36.074  1.00  0.00     0.041 A 
ATOM     84  F   UNL A   1      45.874  30.033  34.444  1.00  0.00    -0.206 F 
ATOM     85  C   UNL A   1      46.432  27.547  37.012  1.00  0.00     0.022 A 
BRANCH  82  86
ATOM     86  S   UNL A   1      44.788  25.809  38.447  1.00  0.00     0.124 S 
ATOM     87  O   UNL A   1      44.046  24.793  37.709  1.00  0.00    -0.237 OA
ATOM     88  O   UNL A   1      46.126  25.427  38.889  1.00  0.00    -0.237 OA
ATOM     89  O   UNL A   1      44.005  26.560  39.426  1.00  0.00    -0.744 OA
ENDBRANCH  82  86
ENDBRANCH  56  79
ENDBRANCH  30  31
ENDBRANCH  23  25
ENDBRANCH  22  23
ENDBRANCH   1  22
TORSDOF 15
ENDMDL
MODEL 2
REMARK VINA RESULT:     -11.6      5.808     10.890
REMARK SMILES CC1(C)S[C@H](c2ccc(Br)cc2)[NH2+][C@H]1C(=O)OCCOC(=O)c1ccc(-c2c3nc(c(-c4cc(S(=O)(=O)[O-])ccc4F)c4ccc([nH]4)c(-c4cc(S(=O)(=O)[O-])ccc4F)c4nc(c(-c5cc(S(=O)(=O)[O-])ccc5F)c5ccc2[nH]5)C=C4)C=C3)cc1
REMARK SMILES IDX 19 1 18 2 17 3 15 4 16 5 14 6 1 7 2 8 3 9 4 10 5 11 13 12
REMARK SMILES IDX 6 15 7 16 12 17 8 18 11 19 9 20 10 21 20 22 21 23 22 24
REMARK SMILES IDX 23 25 24 26 85 27 25 28 84 29 26 30 27 31 28 32 78 33 29 34
REMARK SMILES IDX 83 35 77 36 79 37 30 38 82 39 76 40 75 41 31 43 63 44 43 45
REMARK SMILES IDX 62 46 44 47 47 48 61 49 80 50 45 51 46 52 60 54 81 55 48 56
REMARK SMILES IDX 32 57 33 58 41 59 34 60 40 61 42 62 39 63 35 64 36 65 37 66
REMARK SMILES IDX 38 67 64 68 65 69 73 70 66 71 72 72 74 73 71 74 67 75 68 76
REMARK SMILES IDX 69 77 70 78 49 79 50 80 58 81 51 82 57 83 59 84 56 85 52 86
REMARK SMILES IDX 53 87 54 88 55 89
REMARK H PARENT 13 13 13 14 79 42 47 53
REMARK Flexibility Score: inf
ROOT
ATOM      1  C   UNL A   1      37.522  19.965  24.998  1.00  0.00     0.275 C 
ENDROOT
BRANCH   1   2
ATOM      2  C   UNL A   1      35.998  20.108  24.985  1.00  0.00     0.274 C 
BRANCH   2   3
ATOM      3  O   UNL A   1      35.563  21.403  25.447  1.00  0.00    -0.458 OA
BRANCH   3   4
ATOM      4  C   UNL A   1      35.003  22.202  24.505  1.00  0.00     0.366 C 
ATOM      5  O   UNL A   1      35.593  22.575  23.495  1.00  0.00    -0.245 OA
BRANCH   4   6
ATOM      6  C   UNL A   1      33.588  22.698  24.845  1.00  0.00     0.310 C 
ATOM      7  C   UNL A   1      32.352  20.397  24.632  1.00  0.00     0.030 C 
ATOM      8  C   UNL A   1      32.329  21.911  24.420  1.00  0.00     0.079 C 
ATOM      9  C   UNL A   1      31.889  22.249  22.993  1.00  0.00     0.030 C 
ATOM     10  S   UNL A   1      31.045  22.585  25.567  1.00  0.00    -0.081 SA
ATOM     11  C   UNL A   1      32.209  23.586  26.548  1.00  0.00     0.274 C 
ATOM     12  N   UNL A   1      33.521  22.972  26.312  1.00  0.00    -0.319 N 
ATOM     13  H   UNL A   1      33.605  22.102  26.838  1.00  0.00     0.348 HD
ATOM     14  H   UNL A   1      34.280  23.583  26.614  1.00  0.00     0.348 HD
BRANCH  11  15
ATOM     15  C   UNL A   1      32.122  25.080  26.240  1.00  0.00     0.020 A 
ATOM     16  C   UNL A   1      33.303  25.847  26.166  1.00  0.00     0.012 A 
ATOM     17  C   UNL A   1      30.904  25.737  25.973  1.00  0.00     0.012 A 
ATOM     18  C   UNL A   1      33.265  27.214  25.877  1.00  0.00     0.016 A 
ATOM     19  C   UNL A   1      30.863  27.109  25.697  1.00  0.00     0.016 A 
ATOM     20  C   UNL A   1      32.043  27.840  25.651  1.00  0.00     0.018 A 
ATOM     21  Br  UNL A   1      31.994  29.688  25.260  1.00  0.00    -0.051 Br
ENDBRANCH  11  15
ENDBRANCH   4   6
ENDBRANCH   3   4
ENDBRANCH   2   3
ENDBRANCH   1   2
BRANCH   1  22
ATOM     22  O   UNL A   1      38.160  21.127  25.554  1.00  0.00    -0.458 OA
BRANCH  22  23
ATOM     23  C   UNL A   1      39.353  20.895  26.151  1.00  0.00     0.338 C 
ATOM     24  O   UNL A   1      39.948  19.834  26.209  1.00  0.00    -0.246 OA
BRANCH  23  25
ATOM     25  C   UNL A   1      39.904  22.159  26.664  1.00  0.00     0.060 A 
ATOM     26  C   UNL A   1      39.446  23.364  26.125  1.00  0.00     0.016 A 
ATOM     27  C   UNL A   1      40.937  22.150  27.599  1.00  0.00     0.016 A 
ATOM     28  C   UNL A   1      40.021  24.570  26.512  1.00  0.00     0.010 A 
ATOM     29  C   UNL A   1      41.502  23.365  28.004  1.00  0.00     0.010 A 
ATOM     30  C   UNL A   1      41.053  24.581  27.456  1.00  0.00    -0.014 A 
BRANCH  30  31
ATOM     31  C   UNL A   1      41.691  25.863  27.846  1.00  0.00     0.031 A 
ATOM     32  C   UNL A   1      40.900  26.888  28.606  1.00  0.00     0.074 A 
ATOM     33  C   UNL A   1      42.973  26.100  27.516  1.00  0.00     0.049 A 
ATOM     34  N   UNL A   1      41.217  28.119  28.914  1.00  0.00    -0.248 NA
ATOM     35  C   UNL A   1      39.571  26.469  29.075  1.00  0.00     0.031 C 
ATOM     36  C   UNL A   1      43.857  25.156  26.829  1.00  0.00     0.029 A 
ATOM     37  N   UNL A   1      43.754  27.213  27.701  1.00  0.00    -0.354 N 
ATOM     38  C   UNL A   1      40.119  28.634  29.594  1.00  0.00     0.074 A 
ATOM     39  C   UNL A   1      39.121  27.583  29.634  1.00  0.00     0.031 C 
ATOM     40  C   UNL A   1      45.055  25.733  26.643  1.00  0.00     0.029 A 
ATOM     41  C   UNL A   1      45.006  27.105  27.142  1.00  0.00     0.049 A 
ATOM     42  H   UNL A   1      43.448  28.012  28.189  1.00  0.00     0.167 HD
ATOM     43  C   UNL A   1      39.962  29.869  30.131  1.00  0.00     0.034 A 
ATOM     44  C   UNL A   1      45.985  28.021  27.007  1.00  0.00     0.034 A 
ATOM     45  C   UNL A   1      40.971  30.901  30.081  1.00  0.00     0.049 A 
ATOM     46  C   UNL A   1      45.758  29.411  27.541  1.00  0.00     0.074 A 
ATOM     47  C   UNL A   1      40.921  32.185  30.595  1.00  0.00     0.029 A 
ATOM     48  N   UNL A   1      42.214  30.767  29.474  1.00  0.00    -0.354 N 
ATOM     49  N   UNL A   1      44.703  29.900  28.149  1.00  0.00    -0.248 NA
ATOM     50  C   UNL A   1      46.854  30.374  27.366  1.00  0.00     0.031 C 
ATOM     51  C   UNL A   1      42.106  32.845  30.249  1.00  0.00     0.029 A 
ATOM     52  C   UNL A   1      42.926  31.953  29.575  1.00  0.00     0.049 A 
ATOM     53  H   UNL A   1      42.541  29.949  29.035  1.00  0.00     0.167 HD
ATOM     54  C   UNL A   1      45.016  31.224  28.448  1.00  0.00     0.074 A 
ATOM     55  C   UNL A   1      46.363  31.450  27.964  1.00  0.00     0.031 C 
ATOM     56  C   UNL A   1      44.262  32.165  29.070  1.00  0.00     0.034 A 
BRANCH  43  57
ATOM     57  C   UNL A   1      38.625  30.186  30.757  1.00  0.00     0.023 A 
ATOM     58  C   UNL A   1      37.624  30.885  30.060  1.00  0.00     0.031 A 
ATOM     59  C   UNL A   1      38.365  29.813  32.088  1.00  0.00     0.131 A 
ATOM     60  C   UNL A   1      36.438  31.248  30.719  1.00  0.00     0.055 A 
ATOM     61  C   UNL A   1      37.154  30.113  32.713  1.00  0.00     0.041 A 
ATOM     62  F   UNL A   1      39.292  29.165  32.810  1.00  0.00    -0.206 F 
ATOM     63  C   UNL A   1      36.186  30.847  32.033  1.00  0.00     0.022 A 
BRANCH  60  64
ATOM     64  S   UNL A   1      35.286  32.368  29.878  1.00  0.00     0.124 S 
ATOM     65  O   UNL A   1      34.305  32.628  30.928  1.00  0.00    -0.237 OA
ATOM     66  O   UNL A   1      36.144  33.489  29.513  1.00  0.00    -0.237 OA
ATOM     67  O   UNL A   1      34.790  31.572  28.757  1.00  0.00    -0.744 OA
ENDBRANCH  60  64
ENDBRANCH  43  57
BRANCH  44  68
ATOM     68  C   UNL A   1      47.238  27.678  26.279  1.00  0.00     0.023 A 
ATOM     69  C   UNL A   1      47.355  27.879  24.895  1.00  0.00     0.031 A 
ATOM     70  C   UNL A   1      48.330  27.106  26.958  1.00  0.00     0.131 A 
ATOM     71  C   UNL A   1      48.522  27.478  24.227  1.00  0.00     0.055 A 
ATOM     72  C   UNL A   1      49.508  26.755  26.298  1.00  0.00     0.041 A 
ATOM     73  F   UNL A   1      48.270  26.892  28.282  1.00  0.00    -0.206 F 
ATOM     74  C   UNL A   1      49.604  26.930  24.921  1.00  0.00     0.022 A 
BRANCH  71  75
ATOM     75  S   UNL A   1      48.582  27.616  22.420  1.00  0.00     0.124 S 
ATOM     76  O   UNL A   1      47.315  28.277  22.130  1.00  0.00    -0.237 OA
ATOM     77  O   UNL A   1      49.785  28.414  22.216  1.00  0.00    -0.237 OA
ATOM     78  O   UNL A   1      48.677  26.226  21.976  1.00  0.00    -0.744 OA
ENDBRANCH  71  75
ENDBRANCH  44  68
BRANCH  56  79
ATOM     79  C   UNL A   1      44.904  33.511  29.293  1.00  0.00     0.023 A 
ATOM     80  C   UNL A   1      44.749  34.564  28.375  1.00  0.00     0.031 A 
ATOM     81  C   UNL A   1      45.699  33.733  30.432  1.00  0.00     0.131 A 
ATOM     82  C   UNL A   1      45.421  35.778  28.587  1.00  0.00     0.055 A 
ATOM     83  C   UNL A   1      46.321  34.960  30.663  1.00  0.00     0.041 A 
ATOM     84  F   UNL A   1      45.879  32.760  31.338  1.00  0.00    -0.206 F 
ATOM     85  C   UNL A   1      46.194  35.986  29.731  1.00  0.00     0.022 A 
BRANCH  82  86
ATOM     86  S   UNL A   1      45.332  37.060  27.306  1.00  0.00     0.124 S 
ATOM     87  O   UNL A   1      45.785  38.244  28.028  1.00  0.00    -0.237 OA
ATOM     88  O   UNL A   1      46.242  36.547  26.286  1.00  0.00    -0.237 OA
ATOM     89  O   UNL A   1      43.920  37.068  26.926  1.00  0.00    -0.744 OA
ENDBRANCH  82  86
ENDBRANCH  56  79
ENDBRANCH  30  31
ENDBRANCH  23  25
ENDBRANCH  22  23
ENDBRANCH   1  22
TORSDOF 15
ENDMDL
MODEL 3
REMARK VINA RESULT:     -11.5      3.098      4.119
REMARK SMILES CC1(C)S[C@H](c2ccc(Br)cc2)[NH2+][C@H]1C(=O)OCCOC(=O)c1ccc(-c2c3nc(c(-c4cc(S(=O)(=O)[O-])ccc4F)c4ccc([nH]4)c(-c4cc(S(=O)(=O)[O-])ccc4F)c4nc(c(-c5cc(S(=O)(=O)[O-])ccc5F)c5ccc2[nH]5)C=C4)C=C3)cc1
REMARK SMILES IDX 19 1 18 2 17 3 15 4 16 5 14 6 1 7 2 8 3 9 4 10 5 11 13 12
REMARK SMILES IDX 6 15 7 16 12 17 8 18 11 19 9 20 10 21 20 22 21 23 22 24
REMARK SMILES IDX 23 25 24 26 85 27 25 28 84 29 26 30 27 31 28 32 78 33 29 34
REMARK SMILES IDX 83 35 77 36 79 37 30 38 82 39 76 40 75 41 31 43 63 44 43 45
REMARK SMILES IDX 62 46 44 47 47 48 61 49 80 50 45 51 46 52 60 54 81 55 48 56
REMARK SMILES IDX 32 57 33 58 41 59 34 60 40 61 42 62 39 63 35 64 36 65 37 66
REMARK SMILES IDX 38 67 64 68 65 69 73 70 66 71 72 72 74 73 71 74 67 75 68 76
REMARK SMILES IDX 69 77 70 78 49 79 50 80 58 81 51 82 57 83 59 84 56 85 52 86
REMARK SMILES IDX 53 87 54 88 55 89
REMARK H PARENT 13 13 13 14 79 42 47 53
REMARK Flexibility Score: inf
ROOT
ATOM      1  C   UNL A   1      31.618  30.343  25.589  1.00  0.00     0.275 C 
ENDROOT
BRANCH   1   2
ATOM      2  C   UNL A   1      31.334  29.064  24.798  1.00  0.00     0.274 C 
BRANCH   2   3
ATOM      3  O   UNL A   1      32.436  28.135  24.839  1.00  0.00    -0.458 OA
BRANCH   3   4
ATOM      4  C   UNL A   1      32.284  27.086  25.685  1.00  0.00     0.366 C 
ATOM      5  O   UNL A   1      32.360  27.184  26.907  1.00  0.00    -0.245 OA
BRANCH   4   6
ATOM      6  C   UNL A   1      32.109  25.724  24.992  1.00  0.00     0.310 C 
ATOM      7  C   UNL A   1      29.546  25.922  24.482  1.00  0.00     0.030 C 
ATOM      8  C   UNL A   1      30.728  25.041  24.887  1.00  0.00     0.079 C 
ATOM      9  C   UNL A   1      30.389  24.225  26.136  1.00  0.00     0.030 C 
ATOM     10  S   UNL A   1      30.992  23.845  23.502  1.00  0.00    -0.081 SA
ATOM     11  C   UNL A   1      32.663  24.441  23.085  1.00  0.00     0.274 C 
ATOM     12  N   UNL A   1      32.721  25.802  23.632  1.00  0.00    -0.319 N 
ATOM     13  H   UNL A   1      32.192  26.444  23.042  1.00  0.00     0.348 HD
ATOM     14  H   UNL A   1      33.679  26.149  23.671  1.00  0.00     0.348 HD
BRANCH  11  15
ATOM     15  C   UNL A   1      33.770  23.499  23.557  1.00  0.00     0.020 A 
ATOM     16  C   UNL A   1      35.120  23.874  23.394  1.00  0.00     0.012 A 
ATOM     17  C   UNL A   1      33.510  22.275  24.203  1.00  0.00     0.012 A 
ATOM     18  C   UNL A   1      36.160  23.044  23.821  1.00  0.00     0.016 A 
ATOM     19  C   UNL A   1      34.550  21.436  24.619  1.00  0.00     0.016 A 
ATOM     20  C   UNL A   1      35.870  21.825  24.426  1.00  0.00     0.018 A 
ATOM     21  Br  UNL A   1      37.278  20.705  25.002  1.00  0.00    -0.051 Br
ENDBRANCH  11  15
ENDBRANCH   4   6
ENDBRANCH   3   4
ENDBRANCH   2   3
ENDBRANCH   1   2
BRANCH   1  22
ATOM     22  O   UNL A   1      32.986  30.403  26.029  1.00  0.00    -0.458 OA
BRANCH  22  23
ATOM     23  C   UNL A   1      33.252  31.362  26.947  1.00  0.00     0.338 C 
ATOM     24  O   UNL A   1      32.530  32.290  27.265  1.00  0.00    -0.246 OA
BRANCH  23  25
ATOM     25  C   UNL A   1      34.536  31.076  27.604  1.00  0.00     0.060 A 
ATOM     26  C   UNL A   1      34.802  29.772  28.030  1.00  0.00     0.016 A 
ATOM     27  C   UNL A   1      35.429  32.108  27.886  1.00  0.00     0.016 A 
ATOM     28  C   UNL A   1      35.960  29.490  28.747  1.00  0.00     0.010 A 
ATOM     29  C   UNL A   1      36.604  31.821  28.591  1.00  0.00     0.010 A 
ATOM     30  C   UNL A   1      36.872  30.512  29.033  1.00  0.00    -0.014 A 
BRANCH  30  31
ATOM     31  C   UNL A   1      38.092  30.221  29.826  1.00  0.00     0.031 A 
ATOM     32  C   UNL A   1      39.119  29.266  29.290  1.00  0.00     0.074 A 
ATOM     33  C   UNL A   1      38.270  30.812  31.021  1.00  0.00     0.049 A 
ATOM     34  N   UNL A   1      40.173  28.766  29.879  1.00  0.00    -0.248 NA
ATOM     35  C   UNL A   1      38.925  28.810  27.906  1.00  0.00     0.031 C 
ATOM     36  C   UNL A   1      37.368  31.799  31.617  1.00  0.00     0.029 A 
ATOM     37  N   UNL A   1      39.262  30.660  31.956  1.00  0.00    -0.354 N 
ATOM     38  C   UNL A   1      40.762  27.917  28.948  1.00  0.00     0.074 A 
ATOM     39  C   UNL A   1      39.930  27.958  27.762  1.00  0.00     0.031 C 
ATOM     40  C   UNL A   1      37.845  32.157  32.820  1.00  0.00     0.029 A 
ATOM     41  C   UNL A   1      39.049  31.383  33.106  1.00  0.00     0.049 A 
ATOM     42  H   UNL A   1      40.053  30.089  31.816  1.00  0.00     0.167 HD
ATOM     43  C   UNL A   1      41.888  27.173  29.077  1.00  0.00     0.034 A 
ATOM     44  C   UNL A   1      39.722  31.387  34.273  1.00  0.00     0.034 A 
ATOM     45  C   UNL A   1      42.703  27.149  30.269  1.00  0.00     0.049 A 
ATOM     46  C   UNL A   1      40.925  30.493  34.422  1.00  0.00     0.074 A 
ATOM     47  C   UNL A   1      43.866  26.437  30.507  1.00  0.00     0.029 A 
ATOM     48  N   UNL A   1      42.435  27.867  31.428  1.00  0.00    -0.354 N 
ATOM     49  N   UNL A   1      41.452  29.665  33.549  1.00  0.00    -0.248 NA
ATOM     50  C   UNL A   1      41.623  30.530  35.714  1.00  0.00     0.031 C 
ATOM     51  C   UNL A   1      44.267  26.678  31.827  1.00  0.00     0.029 A 
ATOM     52  C   UNL A   1      43.393  27.593  32.393  1.00  0.00     0.049 A 
ATOM     53  H   UNL A   1      41.675  28.481  31.547  1.00  0.00     0.167 HD
ATOM     54  C   UNL A   1      42.555  29.098  34.182  1.00  0.00     0.074 A 
ATOM     55  C   UNL A   1      42.624  29.689  35.503  1.00  0.00     0.031 C 
ATOM     56  C   UNL A   1      43.435  28.178  33.712  1.00  0.00     0.034 A 
BRANCH  43  57
ATOM     57  C   UNL A   1      42.260  26.278  27.920  1.00  0.00     0.023 A 
ATOM     58  C   UNL A   1      41.722  24.987  27.775  1.00  0.00     0.031 A 
ATOM     59  C   UNL A   1      43.199  26.712  26.967  1.00  0.00     0.131 A 
ATOM     60  C   UNL A   1      42.178  24.152  26.742  1.00  0.00     0.055 A 
ATOM     61  C   UNL A   1      43.593  25.903  25.900  1.00  0.00     0.041 A 
ATOM     62  F   UNL A   1      43.764  27.925  27.067  1.00  0.00    -0.206 F 
ATOM     63  C   UNL A   1      43.092  24.609  25.790  1.00  0.00     0.022 A 
BRANCH  60  64
ATOM     64  S   UNL A   1      41.661  22.413  26.739  1.00  0.00     0.124 S 
ATOM     65  O   UNL A   1      42.504  21.851  27.791  1.00  0.00    -0.237 OA
ATOM     66  O   UNL A   1      40.238  22.505  27.041  1.00  0.00    -0.237 OA
ATOM     67  O   UNL A   1      41.984  21.962  25.386  1.00  0.00    -0.744 OA
ENDBRANCH  60  64
ENDBRANCH  43  57
BRANCH  44  68
ATOM     68  C   UNL A   1      39.237  32.210  35.417  1.00  0.00     0.023 A 
ATOM     69  C   UNL A   1      39.705  33.516  35.624  1.00  0.00     0.031 A 
ATOM     70  C   UNL A   1      38.321  31.680  36.345  1.00  0.00     0.131 A 
ATOM     71  C   UNL A   1      39.284  34.238  36.751  1.00  0.00     0.055 A 
ATOM     72  C   UNL A   1      37.866  32.420  37.436  1.00  0.00     0.041 A 
ATOM     73  F   UNL A   1      37.842  30.436  36.192  1.00  0.00    -0.206 F 
ATOM     74  C   UNL A   1      38.358  33.704  37.652  1.00  0.00     0.022 A 
BRANCH  71  75
ATOM     75  S   UNL A   1      40.021  35.864  37.068  1.00  0.00     0.124 S 
ATOM     76  O   UNL A   1      39.334  36.270  38.289  1.00  0.00    -0.237 OA
ATOM     77  O   UNL A   1      41.435  35.534  37.205  1.00  0.00    -0.237 OA
ATOM     78  O   UNL A   1      39.676  36.633  35.874  1.00  0.00    -0.744 OA
ENDBRANCH  71  75
ENDBRANCH  44  68
BRANCH  56  79
ATOM     79  C   UNL A   1      44.567  27.791  34.629  1.00  0.00     0.023 A 
ATOM     80  C   UNL A   1      44.471  26.690  35.498  1.00  0.00     0.031 A 
ATOM     81  C   UNL A   1      45.751  28.550  34.646  1.00  0.00     0.131 A 
ATOM     82  C   UNL A   1      45.522  26.407  36.383  1.00  0.00     0.055 A 
ATOM     83  C   UNL A   1      46.813  28.232  35.493  1.00  0.00     0.041 A 
ATOM     84  F   UNL A   1      45.893  29.611  33.837  1.00  0.00    -0.206 F 
ATOM     85  C   UNL A   1      46.697  27.163  36.377  1.00  0.00     0.022 A 
BRANCH  82  86
ATOM     86  S   UNL A   1      45.303  25.081  37.602  1.00  0.00     0.124 S 
ATOM     87  O   UNL A   1      43.870  24.819  37.513  1.00  0.00    -0.237 OA
ATOM     88  O   UNL A   1      46.177  24.032  37.086  1.00  0.00    -0.237 OA
ATOM     89  O   UNL A   1      45.744  25.691  38.856  1.00  0.00    -0.744 OA
ENDBRANCH  82  86
ENDBRANCH  56  79
ENDBRANCH  30  31
ENDBRANCH  23  25
ENDBRANCH  22  23
ENDBRANCH   1  22
TORSDOF 15
ENDMDL
