MODEL 1
REMARK VINA RESULT:     -12.3      0.000      0.000
REMARK SMILES CC[C@@H](C)[C@H](NC(=O)N1CCn2c1nc1ccccc12)C(=O)N[C@H](C)C(=O)OCCOC(=O)c1ccc(-c2c3nc(c(-c4cc(S(=O)(=O)[O-])ccc4F)c4ccc([nH]4)c(-c4cc(S(=O)(=O)[O-])ccc4F)c4nc(c(-c5cc(S(=O)(=O)[O-])ccc5F)c5ccc2[nH]5)C=C4)C=C3)cc1
REMARK SMILES IDX 29 1 28 2 26 3 27 4 24 5 25 6 23 7 21 8 22 9 5 11 3 12 4 13
REMARK SMILES IDX 2 14 1 15 6 16 7 17 8 19 9 20 10 21 13 22 11 23 12 24 14 25
REMARK SMILES IDX 20 26 15 27 19 28 16 29 18 30 17 31 30 32 31 33 32 34 33 35
REMARK SMILES IDX 34 36 35 37 96 38 36 39 95 40 37 41 38 42 39 43 89 44 40 45
REMARK SMILES IDX 94 46 88 47 90 48 41 49 93 50 87 51 86 52 42 54 74 55 54 56
REMARK SMILES IDX 73 57 55 58 58 59 72 60 91 61 56 62 57 63 71 65 92 66 59 67
REMARK SMILES IDX 43 68 44 69 52 70 45 71 51 72 53 73 50 74 46 75 47 76 48 77
REMARK SMILES IDX 49 78 75 79 76 80 84 81 77 82 83 83 85 84 82 85 78 86 79 87
REMARK SMILES IDX 80 88 81 89 60 90 61 91 69 92 62 93 68 94 70 95 67 96 63 97
REMARK SMILES IDX 64 98 65 99 66 100
REMARK H PARENT 23 10 6 18 90 53 58 64
REMARK Flexibility Score: inf
ROOT
ATOM      1  C   UNL A   1      38.172  21.420  25.907  1.00  0.00     0.274 C 
ENDROOT
BRANCH   1   2
ATOM      2  O   UNL A   1      37.834  22.516  25.027  1.00  0.00    -0.461 OA
BRANCH   2   3
ATOM      3  C   UNL A   1      37.135  23.546  25.565  1.00  0.00     0.328 C 
ATOM      4  O   UNL A   1      37.602  24.309  26.402  1.00  0.00    -0.250 OA
BRANCH   3   5
ATOM      5  C   UNL A   1      35.686  23.689  25.027  1.00  0.00     0.189 C 
ATOM      6  C   UNL A   1      34.968  22.429  24.557  1.00  0.00     0.043 C 
BRANCH   5   7
ATOM      7  N   UNL A   1      34.810  24.697  25.640  1.00  0.00    -0.341 N 
ATOM      8  C   UNL A   1      33.624  25.304  25.450  1.00  0.00     0.243 C 
ATOM      9  O   UNL A   1      33.446  26.268  26.216  1.00  0.00    -0.273 OA
ATOM     10  H   UNL A   1      35.230  25.042  26.461  1.00  0.00     0.164 HD
BRANCH   8  11
ATOM     11  C   UNL A   1      32.554  25.062  24.344  1.00  0.00     0.176 C 
BRANCH  11  12
ATOM     12  C   UNL A   1      31.487  23.945  24.458  1.00  0.00     0.018 C 
ATOM     13  C   UNL A   1      30.664  23.852  23.173  1.00  0.00     0.010 C 
BRANCH  12  14
ATOM     14  C   UNL A   1      30.717  23.949  25.790  1.00  0.00     0.002 C 
ATOM     15  C   UNL A   1      31.193  22.943  26.821  1.00  0.00     0.004 C 
ENDBRANCH  12  14
ENDBRANCH  11  12
BRANCH  11  16
ATOM     16  N   UNL A   1      33.130  25.162  22.996  1.00  0.00    -0.326 N 
ATOM     17  C   UNL A   1      32.996  26.167  22.094  1.00  0.00     0.324 C 
ATOM     18  H   UNL A   1      33.686  24.402  22.711  1.00  0.00     0.166 HD
ATOM     19  O   UNL A   1      33.013  25.866  20.895  1.00  0.00    -0.248 OA
BRANCH  17  20
ATOM     20  N   UNL A   1      32.741  27.446  22.482  1.00  0.00    -0.262 N 
ATOM     21  C   UNL A   1      33.682  28.259  23.271  1.00  0.00     0.152 C 
ATOM     22  C   UNL A   1      31.507  28.045  22.495  1.00  0.00     0.214 A 
ATOM     23  C   UNL A   1      32.827  29.369  23.910  1.00  0.00     0.148 C 
ATOM     24  N   UNL A   1      31.545  29.169  23.265  1.00  0.00    -0.308 N 
ATOM     25  N   UNL A   1      30.303  27.805  22.065  1.00  0.00    -0.212 NA
ATOM     26  C   UNL A   1      30.315  29.723  23.339  1.00  0.00     0.070 A 
ATOM     27  C   UNL A   1      29.552  28.863  22.537  1.00  0.00     0.091 A 
ATOM     28  C   UNL A   1      29.777  30.832  23.993  1.00  0.00     0.028 A 
ATOM     29  C   UNL A   1      28.194  29.142  22.332  1.00  0.00     0.031 A 
ATOM     30  C   UNL A   1      28.413  31.081  23.785  1.00  0.00     0.002 A 
ATOM     31  C   UNL A   1      27.636  30.259  22.962  1.00  0.00     0.002 A 
ENDBRANCH  17  20
ENDBRANCH  11  16
ENDBRANCH   8  11
ENDBRANCH   5   7
ENDBRANCH   3   5
ENDBRANCH   2   3
ENDBRANCH   1   2
BRANCH   1  32
ATOM     32  C   UNL A   1      39.685  21.240  26.045  1.00  0.00     0.275 C 
BRANCH  32  33
ATOM     33  O   UNL A   1      40.266  22.335  26.752  1.00  0.00    -0.458 OA
BRANCH  33  34
ATOM     34  C   UNL A   1      41.510  22.728  26.384  1.00  0.00     0.338 C 
ATOM     35  O   UNL A   1      42.193  22.333  25.460  1.00  0.00    -0.246 OA
BRANCH  34  36
ATOM     36  C   UNL A   1      41.743  23.915  27.213  1.00  0.00     0.060 A 
ATOM     37  C   UNL A   1      40.651  24.600  27.743  1.00  0.00     0.016 A 
ATOM     38  C   UNL A   1      43.004  24.506  27.121  1.00  0.00     0.016 A 
ATOM     39  C   UNL A   1      40.802  25.942  28.059  1.00  0.00     0.010 A 
ATOM     40  C   UNL A   1      43.141  25.854  27.397  1.00  0.00     0.010 A 
ATOM     41  C   UNL A   1      42.031  26.584  27.827  1.00  0.00    -0.014 A 
BRANCH  41  42
ATOM     42  C   UNL A   1      42.080  28.042  28.004  1.00  0.00     0.031 A 
ATOM     43  C   UNL A   1      40.742  28.722  28.070  1.00  0.00     0.074 A 
ATOM     44  C   UNL A   1      43.067  28.509  28.795  1.00  0.00     0.049 A 
ATOM     45  N   UNL A   1      40.000  28.907  29.122  1.00  0.00    -0.248 NA
ATOM     46  C   UNL A   1      40.066  29.018  26.803  1.00  0.00     0.031 C 
ATOM     47  C   UNL A   1      43.392  28.030  30.140  1.00  0.00     0.029 A 
ATOM     48  N   UNL A   1      43.864  29.613  28.605  1.00  0.00    -0.354 N 
ATOM     49  C   UNL A   1      38.759  29.336  28.666  1.00  0.00     0.074 A 
ATOM     50  C   UNL A   1      38.847  29.372  27.223  1.00  0.00     0.031 C 
ATOM     51  C   UNL A   1      44.199  28.935  30.729  1.00  0.00     0.029 A 
ATOM     52  C   UNL A   1      44.496  30.011  29.782  1.00  0.00     0.049 A 
ATOM     53  H   UNL A   1      43.975  30.069  27.740  1.00  0.00     0.167 HD
ATOM     54  C   UNL A   1      37.706  29.666  29.463  1.00  0.00     0.034 A 
ATOM     55  C   UNL A   1      44.700  31.321  30.093  1.00  0.00     0.034 A 
ATOM     56  C   UNL A   1      37.939  29.615  30.872  1.00  0.00     0.049 A 
ATOM     57  C   UNL A   1      43.356  31.665  30.705  1.00  0.00     0.074 A 
ATOM     58  C   UNL A   1      37.661  28.770  31.922  1.00  0.00     0.029 A 
ATOM     59  N   UNL A   1      38.653  30.645  31.440  1.00  0.00    -0.354 N 
ATOM     60  N   UNL A   1      42.949  31.372  31.916  1.00  0.00    -0.248 NA
ATOM     61  C   UNL A   1      42.280  32.029  29.780  1.00  0.00     0.031 C 
ATOM     62  C   UNL A   1      38.598  29.113  32.949  1.00  0.00     0.029 A 
ATOM     63  C   UNL A   1      39.429  30.110  32.438  1.00  0.00     0.049 A 
ATOM     64  H   UNL A   1      38.614  31.593  31.177  1.00  0.00     0.167 HD
ATOM     65  C   UNL A   1      41.558  31.229  31.819  1.00  0.00     0.074 A 
ATOM     66  C   UNL A   1      41.214  31.688  30.490  1.00  0.00     0.031 C 
ATOM     67  C   UNL A   1      40.778  30.568  32.728  1.00  0.00     0.034 A 
BRANCH  54  68
ATOM     68  C   UNL A   1      36.469  30.278  28.922  1.00  0.00     0.023 A 
ATOM     69  C   UNL A   1      36.040  31.572  29.253  1.00  0.00     0.031 A 
ATOM     70  C   UNL A   1      35.738  29.545  27.970  1.00  0.00     0.131 A 
ATOM     71  C   UNL A   1      34.904  32.098  28.617  1.00  0.00     0.055 A 
ATOM     72  C   UNL A   1      34.618  30.074  27.336  1.00  0.00     0.041 A 
ATOM     73  F   UNL A   1      36.121  28.300  27.637  1.00  0.00    -0.206 F 
ATOM     74  C   UNL A   1      34.199  31.360  27.655  1.00  0.00     0.022 A 
BRANCH  71  75
ATOM     75  S   UNL A   1      34.295  33.768  28.984  1.00  0.00     0.124 S 
ATOM     76  O   UNL A   1      33.139  33.878  28.097  1.00  0.00    -0.237 OA
ATOM     77  O   UNL A   1      33.984  33.667  30.408  1.00  0.00    -0.237 OA
ATOM     78  O   UNL A   1      35.423  34.631  28.652  1.00  0.00    -0.744 OA
ENDBRANCH  71  75
ENDBRANCH  54  68
BRANCH  55  79
ATOM     79  C   UNL A   1      45.380  32.091  28.995  1.00  0.00     0.023 A 
ATOM     80  C   UNL A   1      44.729  32.828  27.998  1.00  0.00     0.031 A 
ATOM     81  C   UNL A   1      46.785  31.963  28.875  1.00  0.00     0.131 A 
ATOM     82  C   UNL A   1      45.430  33.238  26.851  1.00  0.00     0.055 A 
ATOM     83  C   UNL A   1      47.492  32.428  27.762  1.00  0.00     0.041 A 
ATOM     84  F   UNL A   1      47.494  31.339  29.830  1.00  0.00    -0.206 F 
ATOM     85  C   UNL A   1      46.806  33.039  26.723  1.00  0.00     0.022 A 
BRANCH  82  86
ATOM     86  S   UNL A   1      44.542  33.944  25.434  1.00  0.00     0.124 S 
ATOM     87  O   UNL A   1      45.626  34.518  24.643  1.00  0.00    -0.237 OA
ATOM     88  O   UNL A   1      43.909  32.754  24.871  1.00  0.00    -0.237 OA
ATOM     89  O   UNL A   1      43.636  34.907  26.051  1.00  0.00    -0.744 OA
ENDBRANCH  82  86
ENDBRANCH  55  79
BRANCH  67  90
ATOM     90  C   UNL A   1      41.446  30.109  33.992  1.00  0.00     0.023 A 
ATOM     91  C   UNL A   1      41.694  28.739  34.225  1.00  0.00     0.031 A 
ATOM     92  C   UNL A   1      41.725  31.015  35.026  1.00  0.00     0.131 A 
ATOM     93  C   UNL A   1      42.120  28.308  35.487  1.00  0.00     0.055 A 
ATOM     94  C   UNL A   1      42.218  30.587  36.260  1.00  0.00     0.041 A 
ATOM     95  F   UNL A   1      41.468  32.325  34.877  1.00  0.00    -0.206 F 
ATOM     96  C   UNL A   1      42.399  29.228  36.502  1.00  0.00     0.022 A 
BRANCH  93  97
ATOM     97  S   UNL A   1      42.224  26.542  35.895  1.00  0.00     0.124 S 
ATOM     98  O   UNL A   1      40.971  26.021  35.353  1.00  0.00    -0.237 OA
ATOM     99  O   UNL A   1      43.428  26.139  35.170  1.00  0.00    -0.237 OA
ATOM    100  O   UNL A   1      42.334  26.514  37.348  1.00  0.00    -0.744 OA
ENDBRANCH  93  97
ENDBRANCH  67  90
ENDBRANCH  41  42
ENDBRANCH  34  36
ENDBRANCH  33  34
ENDBRANCH  32  33
ENDBRANCH   1  32
TORSDOF 20
ENDMDL
MODEL 2
REMARK VINA RESULT:     -11.9      1.738      2.236
REMARK SMILES CC[C@@H](C)[C@H](NC(=O)N1CCn2c1nc1ccccc12)C(=O)N[C@H](C)C(=O)OCCOC(=O)c1ccc(-c2c3nc(c(-c4cc(S(=O)(=O)[O-])ccc4F)c4ccc([nH]4)c(-c4cc(S(=O)(=O)[O-])ccc4F)c4nc(c(-c5cc(S(=O)(=O)[O-])ccc5F)c5ccc2[nH]5)C=C4)C=C3)cc1
REMARK SMILES IDX 29 1 28 2 26 3 27 4 24 5 25 6 23 7 21 8 22 9 5 11 3 12 4 13
REMARK SMILES IDX 2 14 1 15 6 16 7 17 8 19 9 20 10 21 13 22 11 23 12 24 14 25
REMARK SMILES IDX 20 26 15 27 19 28 16 29 18 30 17 31 30 32 31 33 32 34 33 35
REMARK SMILES IDX 34 36 35 37 96 38 36 39 95 40 37 41 38 42 39 43 89 44 40 45
REMARK SMILES IDX 94 46 88 47 90 48 41 49 93 50 87 51 86 52 42 54 74 55 54 56
REMARK SMILES IDX 73 57 55 58 58 59 72 60 91 61 56 62 57 63 71 65 92 66 59 67
REMARK SMILES IDX 43 68 44 69 52 70 45 71 51 72 53 73 50 74 46 75 47 76 48 77
REMARK SMILES IDX 49 78 75 79 76 80 84 81 77 82 83 83 85 84 82 85 78 86 79 87
REMARK SMILES IDX 80 88 81 89 60 90 61 91 69 92 62 93 68 94 70 95 67 96 63 97
REMARK SMILES IDX 64 98 65 99 66 100
REMARK H PARENT 23 10 6 18 90 53 58 64
REMARK Flexibility Score: inf
ROOT
ATOM      1  C   UNL A   1      39.914  21.410  26.758  1.00  0.00     0.274 C 
ENDROOT
BRANCH   1   2
ATOM      2  O   UNL A   1      38.972  21.837  25.748  1.00  0.00    -0.461 OA
BRANCH   2   3
ATOM      3  C   UNL A   1      38.311  22.999  25.971  1.00  0.00     0.328 C 
ATOM      4  O   UNL A   1      38.688  23.841  26.777  1.00  0.00    -0.250 OA
BRANCH   3   5
ATOM      5  C   UNL A   1      37.031  23.185  25.113  1.00  0.00     0.189 C 
ATOM      6  C   UNL A   1      36.858  22.302  23.882  1.00  0.00     0.043 C 
BRANCH   5   7
ATOM      7  N   UNL A   1      35.777  23.531  25.796  1.00  0.00    -0.341 N 
ATOM      8  C   UNL A   1      34.479  23.775  25.536  1.00  0.00     0.243 C 
ATOM      9  O   UNL A   1      33.866  24.228  26.519  1.00  0.00    -0.273 OA
ATOM     10  H   UNL A   1      35.940  23.610  26.764  1.00  0.00     0.164 HD
BRANCH   8  11
ATOM     11  C   UNL A   1      33.711  23.709  24.183  1.00  0.00     0.176 C 
BRANCH  11  12
ATOM     12  C   UNL A   1      33.503  22.379  23.416  1.00  0.00     0.018 C 
ATOM     13  C   UNL A   1      32.914  22.643  22.030  1.00  0.00     0.010 C 
BRANCH  12  14
ATOM     14  C   UNL A   1      32.855  21.266  24.258  1.00  0.00     0.002 C 
ATOM     15  C   UNL A   1      31.807  21.729  25.253  1.00  0.00     0.004 C 
ENDBRANCH  12  14
ENDBRANCH  11  12
BRANCH  11  16
ATOM     16  N   UNL A   1      34.069  24.826  23.297  1.00  0.00    -0.326 N 
ATOM     17  C   UNL A   1      33.250  25.739  22.717  1.00  0.00     0.324 C 
ATOM     18  H   UNL A   1      35.028  24.925  23.100  1.00  0.00     0.166 HD
ATOM     19  O   UNL A   1      33.580  26.186  21.614  1.00  0.00    -0.248 OA
BRANCH  17  20
ATOM     20  N   UNL A   1      32.051  26.073  23.268  1.00  0.00    -0.262 N 
ATOM     21  C   UNL A   1      31.197  25.120  23.998  1.00  0.00     0.152 C 
ATOM     22  C   UNL A   1      31.320  27.195  22.970  1.00  0.00     0.214 A 
ATOM     23  C   UNL A   1      29.786  25.736  23.977  1.00  0.00     0.148 C 
ATOM     24  N   UNL A   1      30.038  27.044  23.407  1.00  0.00    -0.308 N 
ATOM     25  N   UNL A   1      31.470  28.311  22.318  1.00  0.00    -0.212 NA
ATOM     26  C   UNL A   1      29.297  28.116  23.052  1.00  0.00     0.070 A 
ATOM     27  C   UNL A   1      30.236  28.924  22.397  1.00  0.00     0.091 A 
ATOM     28  C   UNL A   1      27.957  28.476  23.204  1.00  0.00     0.028 A 
ATOM     29  C   UNL A   1      29.841  30.178  21.909  1.00  0.00     0.031 A 
ATOM     30  C   UNL A   1      27.583  29.727  22.694  1.00  0.00     0.002 A 
ATOM     31  C   UNL A   1      28.507  30.569  22.067  1.00  0.00     0.002 A 
ENDBRANCH  17  20
ENDBRANCH  11  16
ENDBRANCH   8  11
ENDBRANCH   5   7
ENDBRANCH   3   5
ENDBRANCH   2   3
ENDBRANCH   1   2
BRANCH   1  32
ATOM     32  C   UNL A   1      41.253  20.985  26.153  1.00  0.00     0.275 C 
BRANCH  32  33
ATOM     33  O   UNL A   1      42.343  21.504  26.914  1.00  0.00    -0.458 OA
BRANCH  33  34
ATOM     34  C   UNL A   1      43.284  22.218  26.250  1.00  0.00     0.338 C 
ATOM     35  O   UNL A   1      44.216  21.818  25.581  1.00  0.00    -0.246 OA
BRANCH  34  36
ATOM     36  C   UNL A   1      42.774  23.591  26.322  1.00  0.00     0.060 A 
ATOM     37  C   UNL A   1      43.317  24.564  25.484  1.00  0.00     0.016 A 
ATOM     38  C   UNL A   1      42.047  23.930  27.463  1.00  0.00     0.016 A 
ATOM     39  C   UNL A   1      43.240  25.892  25.876  1.00  0.00     0.010 A 
ATOM     40  C   UNL A   1      42.008  25.251  27.873  1.00  0.00     0.010 A 
ATOM     41  C   UNL A   1      42.641  26.228  27.102  1.00  0.00    -0.014 A 
BRANCH  41  42
ATOM     42  C   UNL A   1      42.753  27.623  27.554  1.00  0.00     0.031 A 
ATOM     43  C   UNL A   1      41.453  28.367  27.658  1.00  0.00     0.074 A 
ATOM     44  C   UNL A   1      43.699  27.870  28.483  1.00  0.00     0.049 A 
ATOM     45  N   UNL A   1      40.642  28.403  28.675  1.00  0.00    -0.248 NA
ATOM     46  C   UNL A   1      40.893  28.934  26.428  1.00  0.00     0.031 C 
ATOM     47  C   UNL A   1      43.893  27.131  29.732  1.00  0.00     0.029 A 
ATOM     48  N   UNL A   1      44.565  28.934  28.557  1.00  0.00    -0.354 N 
ATOM     49  C   UNL A   1      39.464  28.990  28.226  1.00  0.00     0.074 A 
ATOM     50  C   UNL A   1      39.666  29.285  26.825  1.00  0.00     0.031 C 
ATOM     51  C   UNL A   1      44.698  27.856  30.533  1.00  0.00     0.029 A 
ATOM     52  C   UNL A   1      45.125  29.065  29.827  1.00  0.00     0.049 A 
ATOM     53  H   UNL A   1      44.767  29.534  27.803  1.00  0.00     0.167 HD
ATOM     54  C   UNL A   1      38.372  29.237  28.999  1.00  0.00     0.034 A 
ATOM     55  C   UNL A   1      45.373  30.279  30.393  1.00  0.00     0.034 A 
ATOM     56  C   UNL A   1      38.491  28.912  30.385  1.00  0.00     0.049 A 
ATOM     57  C   UNL A   1      44.006  30.594  30.968  1.00  0.00     0.074 A 
ATOM     58  C   UNL A   1      38.088  27.908  31.237  1.00  0.00     0.029 A 
ATOM     59  N   UNL A   1      39.212  29.770  31.183  1.00  0.00    -0.354 N 
ATOM     60  N   UNL A   1      43.491  30.110  32.072  1.00  0.00    -0.248 NA
ATOM     61  C   UNL A   1      43.025  31.192  30.058  1.00  0.00     0.031 C 
ATOM     62  C   UNL A   1      38.959  27.993  32.370  1.00  0.00     0.029 A 
ATOM     63  C   UNL A   1      39.879  29.010  32.112  1.00  0.00     0.049 A 
ATOM     64  H   UNL A   1      39.245  30.751  31.102  1.00  0.00     0.167 HD
ATOM     65  C   UNL A   1      42.106  30.080  31.858  1.00  0.00     0.074 A 
ATOM     66  C   UNL A   1      41.891  30.798  30.619  1.00  0.00     0.031 C 
ATOM     67  C   UNL A   1      41.224  29.316  32.573  1.00  0.00     0.034 A 
BRANCH  54  68
ATOM     68  C   UNL A   1      37.214  30.019  28.502  1.00  0.00     0.023 A 
ATOM     69  C   UNL A   1      36.070  29.432  27.943  1.00  0.00     0.031 A 
ATOM     70  C   UNL A   1      37.244  31.414  28.675  1.00  0.00     0.131 A 
ATOM     71  C   UNL A   1      34.987  30.253  27.586  1.00  0.00     0.055 A 
ATOM     72  C   UNL A   1      36.166  32.222  28.328  1.00  0.00     0.041 A 
ATOM     73  F   UNL A   1      38.330  32.006  29.203  1.00  0.00    -0.206 F 
ATOM     74  C   UNL A   1      35.027  31.640  27.785  1.00  0.00     0.022 A 
BRANCH  71  75
ATOM     75  S   UNL A   1      33.468  29.566  26.869  1.00  0.00     0.124 S 
ATOM     76  O   UNL A   1      33.303  28.325  27.622  1.00  0.00    -0.237 OA
ATOM     77  O   UNL A   1      32.494  30.613  27.168  1.00  0.00    -0.237 OA
ATOM     78  O   UNL A   1      33.793  29.402  25.456  1.00  0.00    -0.744 OA
ENDBRANCH  71  75
ENDBRANCH  54  68
BRANCH  55  79
ATOM     79  C   UNL A   1      46.175  31.191  29.507  1.00  0.00     0.023 A 
ATOM     80  C   UNL A   1      45.645  32.084  28.568  1.00  0.00     0.031 A 
ATOM     81  C   UNL A   1      47.585  31.053  29.525  1.00  0.00     0.131 A 
ATOM     82  C   UNL A   1      46.473  32.647  27.581  1.00  0.00     0.055 A 
ATOM     83  C   UNL A   1      48.415  31.666  28.582  1.00  0.00     0.041 A 
ATOM     84  F   UNL A   1      48.178  30.277  30.447  1.00  0.00    -0.206 F 
ATOM     85  C   UNL A   1      47.854  32.441  27.578  1.00  0.00     0.022 A 
BRANCH  82  86
ATOM     86  S   UNL A   1      45.753  33.578  26.200  1.00  0.00     0.124 S 
ATOM     87  O   UNL A   1      44.925  34.564  26.888  1.00  0.00    -0.237 OA
ATOM     88  O   UNL A   1      46.953  34.102  25.552  1.00  0.00    -0.237 OA
ATOM     89  O   UNL A   1      45.027  32.560  25.449  1.00  0.00    -0.744 OA
ENDBRANCH  82  86
ENDBRANCH  55  79
BRANCH  67  90
ATOM     90  C   UNL A   1      41.767  28.589  33.769  1.00  0.00     0.023 A 
ATOM     91  C   UNL A   1      42.579  27.445  33.615  1.00  0.00     0.031 A 
ATOM     92  C   UNL A   1      41.378  28.952  35.066  1.00  0.00     0.131 A 
ATOM     93  C   UNL A   1      42.899  26.658  34.728  1.00  0.00     0.055 A 
ATOM     94  C   UNL A   1      41.761  28.205  36.181  1.00  0.00     0.041 A 
ATOM     95  F   UNL A   1      40.570  30.007  35.270  1.00  0.00    -0.206 F 
ATOM     96  C   UNL A   1      42.508  27.042  36.013  1.00  0.00     0.022 A 
BRANCH  93  97
ATOM     97  S   UNL A   1      43.740  25.060  34.541  1.00  0.00     0.124 S 
ATOM     98  O   UNL A   1      42.700  24.111  34.937  1.00  0.00    -0.237 OA
ATOM     99  O   UNL A   1      44.070  25.060  33.118  1.00  0.00    -0.237 OA
ATOM    100  O   UNL A   1      44.880  25.145  35.445  1.00  0.00    -0.744 OA
ENDBRANCH  93  97
ENDBRANCH  67  90
ENDBRANCH  41  42
ENDBRANCH  34  36
ENDBRANCH  33  34
ENDBRANCH  32  33
ENDBRANCH   1  32
TORSDOF 20
ENDMDL
MODEL 3
REMARK VINA RESULT:     -11.7      2.007      2.879
REMARK SMILES CC[C@@H](C)[C@H](NC(=O)N1CCn2c1nc1ccccc12)C(=O)N[C@H](C)C(=O)OCCOC(=O)c1ccc(-c2c3nc(c(-c4cc(S(=O)(=O)[O-])ccc4F)c4ccc([nH]4)c(-c4cc(S(=O)(=O)[O-])ccc4F)c4nc(c(-c5cc(S(=O)(=O)[O-])ccc5F)c5ccc2[nH]5)C=C4)C=C3)cc1
REMARK SMILES IDX 29 1 28 2 26 3 27 4 24 5 25 6 23 7 21 8 22 9 5 11 3 12 4 13
REMARK SMILES IDX 2 14 1 15 6 16 7 17 8 19 9 20 10 21 13 22 11 23 12 24 14 25
REMARK SMILES IDX 20 26 15 27 19 28 16 29 18 30 17 31 30 32 31 33 32 34 33 35
REMARK SMILES IDX 34 36 35 37 96 38 36 39 95 40 37 41 38 42 39 43 89 44 40 45
REMARK SMILES IDX 94 46 88 47 90 48 41 49 93 50 87 51 86 52 42 54 74 55 54 56
REMARK SMILES IDX 73 57 55 58 58 59 72 60 91 61 56 62 57 63 71 65 92 66 59 67
REMARK SMILES IDX 43 68 44 69 52 70 45 71 51 72 53 73 50 74 46 75 47 76 48 77
REMARK SMILES IDX 49 78 75 79 76 80 84 81 77 82 83 83 85 84 82 85 78 86 79 87
REMARK SMILES IDX 80 88 81 89 60 90 61 91 69 92 62 93 68 94 70 95 67 96 63 97
REMARK SMILES IDX 64 98 65 99 66 100
REMARK H PARENT 23 10 6 18 90 53 58 64
REMARK Flexibility Score: inf
ROOT
ATOM      1  C   UNL A   1      40.433  20.146  26.129  1.00  0.00     0.274 C 
ENDROOT
BRANCH   1   2
ATOM      2  O   UNL A   1      39.615  21.246  25.669  1.00  0.00    -0.461 OA
BRANCH   2   3
ATOM      3  C   UNL A   1      39.246  22.169  26.591  1.00  0.00     0.328 C 
ATOM      4  O   UNL A   1      39.711  22.209  27.724  1.00  0.00    -0.250 OA
BRANCH   3   5
ATOM      5  C   UNL A   1      38.182  23.184  26.093  1.00  0.00     0.189 C 
ATOM      6  C   UNL A   1      38.234  24.605  26.643  1.00  0.00     0.043 C 
BRANCH   5   7
ATOM      7  N   UNL A   1      37.721  23.085  24.702  1.00  0.00    -0.341 N 
ATOM      8  C   UNL A   1      36.634  22.746  23.983  1.00  0.00     0.243 C 
ATOM      9  O   UNL A   1      36.867  22.662  22.765  1.00  0.00    -0.273 OA
ATOM     10  H   UNL A   1      38.446  23.357  24.094  1.00  0.00     0.164 HD
BRANCH   8  11
ATOM     11  C   UNL A   1      35.219  22.316  24.472  1.00  0.00     0.176 C 
BRANCH  11  12
ATOM     12  C   UNL A   1      35.007  21.131  25.448  1.00  0.00     0.018 C 
ATOM     13  C   UNL A   1      34.214  20.012  24.772  1.00  0.00     0.010 C 
BRANCH  12  14
ATOM     14  C   UNL A   1      34.567  21.555  26.860  1.00  0.00     0.002 C 
ATOM     15  C   UNL A   1      34.496  23.051  27.098  1.00  0.00     0.004 C 
ENDBRANCH  12  14
ENDBRANCH  11  12
BRANCH  11  16
ATOM     16  N   UNL A   1      34.235  22.336  23.381  1.00  0.00    -0.326 N 
ATOM     17  C   UNL A   1      32.930  22.705  23.428  1.00  0.00     0.324 C 
ATOM     18  H   UNL A   1      34.566  22.045  22.501  1.00  0.00     0.166 HD
ATOM     19  O   UNL A   1      32.145  22.134  22.664  1.00  0.00    -0.248 OA
BRANCH  17  20
ATOM     20  N   UNL A   1      32.471  23.589  24.356  1.00  0.00    -0.262 N 
ATOM     21  C   UNL A   1      31.337  23.310  25.252  1.00  0.00     0.152 C 
ATOM     22  C   UNL A   1      32.750  24.931  24.387  1.00  0.00     0.214 A 
ATOM     23  C   UNL A   1      30.843  24.689  25.728  1.00  0.00     0.148 C 
ATOM     24  N   UNL A   1      31.864  25.572  25.200  1.00  0.00    -0.308 N 
ATOM     25  N   UNL A   1      33.549  25.774  23.800  1.00  0.00    -0.212 NA
ATOM     26  C   UNL A   1      32.090  26.903  25.176  1.00  0.00     0.070 A 
ATOM     27  C   UNL A   1      33.189  27.004  24.313  1.00  0.00     0.091 A 
ATOM     28  C   UNL A   1      31.487  28.010  25.775  1.00  0.00     0.028 A 
ATOM     29  C   UNL A   1      33.754  28.263  24.066  1.00  0.00     0.031 A 
ATOM     30  C   UNL A   1      32.060  29.260  25.500  1.00  0.00     0.002 A 
ATOM     31  C   UNL A   1      33.179  29.386  24.670  1.00  0.00     0.002 A 
ENDBRANCH  17  20
ENDBRANCH  11  16
ENDBRANCH   8  11
ENDBRANCH   5   7
ENDBRANCH   3   5
ENDBRANCH   2   3
ENDBRANCH   1   2
BRANCH   1  32
ATOM     32  C   UNL A   1      41.906  20.332  25.763  1.00  0.00     0.275 C 
BRANCH  32  33
ATOM     33  O   UNL A   1      42.443  21.497  26.387  1.00  0.00    -0.458 OA
BRANCH  33  34
ATOM     34  C   UNL A   1      43.092  22.387  25.598  1.00  0.00     0.338 C 
ATOM     35  O   UNL A   1      43.813  22.177  24.643  1.00  0.00    -0.246 OA
BRANCH  34  36
ATOM     36  C   UNL A   1      42.527  23.676  26.012  1.00  0.00     0.060 A 
ATOM     37  C   UNL A   1      42.592  24.759  25.138  1.00  0.00     0.016 A 
ATOM     38  C   UNL A   1      42.292  23.848  27.376  1.00  0.00     0.016 A 
ATOM     39  C   UNL A   1      42.554  26.040  25.668  1.00  0.00     0.010 A 
ATOM     40  C   UNL A   1      42.297  25.125  27.907  1.00  0.00     0.010 A 
ATOM     41  C   UNL A   1      42.470  26.221  27.059  1.00  0.00    -0.014 A 
BRANCH  41  42
ATOM     42  C   UNL A   1      42.622  27.588  27.577  1.00  0.00     0.031 A 
ATOM     43  C   UNL A   1      41.336  28.327  27.815  1.00  0.00     0.074 A 
ATOM     44  C   UNL A   1      43.633  27.782  28.447  1.00  0.00     0.049 A 
ATOM     45  N   UNL A   1      40.601  28.309  28.888  1.00  0.00    -0.248 NA
ATOM     46  C   UNL A   1      40.693  28.962  26.661  1.00  0.00     0.031 C 
ATOM     47  C   UNL A   1      43.913  26.975  29.637  1.00  0.00     0.029 A 
ATOM     48  N   UNL A   1      44.508  28.840  28.517  1.00  0.00    -0.354 N 
ATOM     49  C   UNL A   1      39.397  28.921  28.559  1.00  0.00     0.074 A 
ATOM     50  C   UNL A   1      39.499  29.292  27.165  1.00  0.00     0.031 C 
ATOM     51  C   UNL A   1      44.777  27.655  30.417  1.00  0.00     0.029 A 
ATOM     52  C   UNL A   1      45.159  28.900  29.749  1.00  0.00     0.049 A 
ATOM     53  H   UNL A   1      44.659  29.480  27.785  1.00  0.00     0.167 HD
ATOM     54  C   UNL A   1      38.364  29.126  29.421  1.00  0.00     0.034 A 
ATOM     55  C   UNL A   1      45.453  30.081  30.361  1.00  0.00     0.034 A 
ATOM     56  C   UNL A   1      38.581  28.725  30.775  1.00  0.00     0.049 A 
ATOM     57  C   UNL A   1      44.132  30.365  31.050  1.00  0.00     0.074 A 
ATOM     58  C   UNL A   1      38.235  27.677  31.597  1.00  0.00     0.029 A 
ATOM     59  N   UNL A   1      39.362  29.537  31.565  1.00  0.00    -0.354 N 
ATOM     60  N   UNL A   1      43.696  29.822  32.160  1.00  0.00    -0.248 NA
ATOM     61  C   UNL A   1      43.092  31.014  30.248  1.00  0.00     0.031 C 
ATOM     62  C   UNL A   1      39.186  27.698  32.667  1.00  0.00     0.029 A 
ATOM     63  C   UNL A   1      40.090  28.726  32.400  1.00  0.00     0.049 A 
ATOM     64  H   UNL A   1      39.394  30.521  31.535  1.00  0.00     0.167 HD
ATOM     65  C   UNL A   1      42.299  29.806  32.045  1.00  0.00     0.074 A 
ATOM     66  C   UNL A   1      41.999  30.591  30.866  1.00  0.00     0.031 C 
ATOM     67  C   UNL A   1      41.467  29.005  32.778  1.00  0.00     0.034 A 
BRANCH  54  68
ATOM     68  C   UNL A   1      37.178  29.936  29.052  1.00  0.00     0.023 A 
ATOM     69  C   UNL A   1      36.932  31.219  29.562  1.00  0.00     0.031 A 
ATOM     70  C   UNL A   1      36.304  29.413  28.084  1.00  0.00     0.131 A 
ATOM     71  C   UNL A   1      35.829  31.945  29.081  1.00  0.00     0.055 A 
ATOM     72  C   UNL A   1      35.218  30.139  27.604  1.00  0.00     0.041 A 
ATOM     73  F   UNL A   1      36.510  28.183  27.581  1.00  0.00    -0.206 F 
ATOM     74  C   UNL A   1      34.979  31.415  28.100  1.00  0.00     0.022 A 
BRANCH  71  75
ATOM     75  S   UNL A   1      35.453  33.615  29.684  1.00  0.00     0.124 S 
ATOM     76  O   UNL A   1      36.592  33.894  30.554  1.00  0.00    -0.237 OA
ATOM     77  O   UNL A   1      35.413  34.381  28.441  1.00  0.00    -0.237 OA
ATOM     78  O   UNL A   1      34.170  33.460  30.362  1.00  0.00    -0.744 OA
ENDBRANCH  71  75
ENDBRANCH  54  68
BRANCH  55  79
ATOM     79  C   UNL A   1      46.194  31.039  29.472  1.00  0.00     0.023 A 
ATOM     80  C   UNL A   1      45.605  31.915  28.551  1.00  0.00     0.031 A 
ATOM     81  C   UNL A   1      47.609  30.969  29.464  1.00  0.00     0.131 A 
ATOM     82  C   UNL A   1      46.387  32.527  27.556  1.00  0.00     0.055 A 
ATOM     83  C   UNL A   1      48.391  31.630  28.512  1.00  0.00     0.041 A 
ATOM     84  F   UNL A   1      48.256  30.213  30.366  1.00  0.00    -0.206 F 
ATOM     85  C   UNL A   1      47.776  32.387  27.527  1.00  0.00     0.022 A 
BRANCH  82  86
ATOM     86  S   UNL A   1      45.598  33.436  26.198  1.00  0.00     0.124 S 
ATOM     87  O   UNL A   1      44.653  34.293  26.906  1.00  0.00    -0.237 OA
ATOM     88  O   UNL A   1      46.747  34.115  25.604  1.00  0.00    -0.237 OA
ATOM     89  O   UNL A   1      45.004  32.380  25.386  1.00  0.00    -0.744 OA
ENDBRANCH  82  86
ENDBRANCH  55  79
BRANCH  67  90
ATOM     90  C   UNL A   1      42.090  28.212  33.890  1.00  0.00     0.023 A 
ATOM     91  C   UNL A   1      42.807  27.026  33.623  1.00  0.00     0.031 A 
ATOM     92  C   UNL A   1      41.868  28.561  35.231  1.00  0.00     0.131 A 
ATOM     93  C   UNL A   1      43.197  26.190  34.675  1.00  0.00     0.055 A 
ATOM     94  C   UNL A   1      42.323  27.759  36.280  1.00  0.00     0.041 A 
ATOM     95  F   UNL A   1      41.155  29.655  35.546  1.00  0.00    -0.206 F 
ATOM     96  C   UNL A   1      42.973  26.559  36.005  1.00  0.00     0.022 A 
BRANCH  93  97
ATOM     97  S   UNL A   1      43.910  24.550  34.361  1.00  0.00     0.124 S 
ATOM     98  O   UNL A   1      45.066  24.534  35.256  1.00  0.00    -0.237 OA
ATOM     99  O   UNL A   1      42.812  23.668  34.751  1.00  0.00    -0.237 OA
ATOM    100  O   UNL A   1      44.225  24.561  32.938  1.00  0.00    -0.744 OA
ENDBRANCH  93  97
ENDBRANCH  67  90
ENDBRANCH  41  42
ENDBRANCH  34  36
ENDBRANCH  33  34
ENDBRANCH  32  33
ENDBRANCH   1  32
TORSDOF 20
ENDMDL
