MODEL 1
REMARK VINA RESULT:     -11.9      0.000      0.000
REMARK SMILES Cc1cccc(-c2cccc(C(=O)OCCOC(=O)c3ccc(-c4c5nc(c(-c6cc(S(=O)(=O)[O-])ccc6F)c6ccc([nH]6)c(-c6cc(S(=O)(=O)[O-])ccc6F)c6nc(c(-c7cc(S(=O)(=O)[O-])ccc7F)c7ccc4[nH]7)C=C6)C=C5)cc3)c2)c1
REMARK SMILES IDX 16 1 15 2 14 3 12 4 13 5 11 6 7 7 8 8 83 9 9 10 10 11 6 12
REMARK SMILES IDX 1 13 2 14 3 15 84 16 4 17 5 18 17 19 18 20 19 21 20 22 21 23
REMARK SMILES IDX 82 24 22 25 81 26 23 27 24 28 25 29 75 30 26 31 80 32 74 33
REMARK SMILES IDX 76 34 27 35 79 36 73 37 72 38 28 40 60 41 40 42 59 43 41 44
REMARK SMILES IDX 44 45 58 46 77 47 42 48 43 49 57 51 78 52 45 53 29 54 30 55
REMARK SMILES IDX 38 56 31 57 37 58 39 59 36 60 32 61 33 62 34 63 35 64 61 65
REMARK SMILES IDX 62 66 70 67 63 68 69 69 71 70 68 71 64 72 65 73 66 74 67 75
REMARK SMILES IDX 46 76 47 77 55 78 48 79 54 80 56 81 53 82 49 83 50 84 51 85
REMARK SMILES IDX 52 86
REMARK H PARENT 76 39 44 50
REMARK Flexibility Score: inf
ROOT
ATOM      1  C   UNL A   1      33.065  35.615  31.712  1.00  0.00     0.275 C 
ENDROOT
BRANCH   1   2
ATOM      2  C   UNL A   1      33.082  35.464  30.184  1.00  0.00     0.275 C 
BRANCH   2   3
ATOM      3  O   UNL A   1      33.422  34.138  29.734  1.00  0.00    -0.458 OA
BRANCH   3   4
ATOM      4  C   UNL A   1      34.212  34.165  28.634  1.00  0.00     0.338 C 
ATOM      5  O   UNL A   1      34.493  35.184  28.012  1.00  0.00    -0.246 OA
BRANCH   4   6
ATOM      6  C   UNL A   1      34.670  32.836  28.140  1.00  0.00     0.060 A 
ATOM      7  C   UNL A   1      34.363  30.488  27.486  1.00  0.00    -0.018 A 
ATOM      8  C   UNL A   1      35.751  30.313  27.675  1.00  0.00     0.009 A 
ATOM      9  C   UNL A   1      33.848  31.798  27.652  1.00  0.00     0.024 A 
ATOM     10  C   UNL A   1      36.581  31.351  28.086  1.00  0.00     0.002 A 
ATOM     11  C   UNL A   1      36.035  32.598  28.343  1.00  0.00     0.016 A 
BRANCH   7  12
ATOM     12  C   UNL A   1      33.539  29.282  27.178  1.00  0.00    -0.018 A 
ATOM     13  C   UNL A   1      34.039  25.929  25.348  1.00  0.00     0.044 C 
ATOM     14  C   UNL A   1      33.386  27.053  26.100  1.00  0.00    -0.051 A 
ATOM     15  C   UNL A   1      32.014  27.031  26.348  1.00  0.00     0.003 A 
ATOM     16  C   UNL A   1      34.127  28.166  26.529  1.00  0.00     0.012 A 
ATOM     17  C   UNL A   1      31.414  28.090  27.034  1.00  0.00     0.001 A 
ATOM     18  C   UNL A   1      32.167  29.201  27.448  1.00  0.00     0.009 A 
ENDBRANCH   7  12
ENDBRANCH   4   6
ENDBRANCH   3   4
ENDBRANCH   2   3
ENDBRANCH   1   2
BRANCH   1  19
ATOM     19  O   UNL A   1      33.618  34.524  32.499  1.00  0.00    -0.458 OA
BRANCH  19  20
ATOM     20  C   UNL A   1      34.761  34.570  33.239  1.00  0.00     0.338 C 
ATOM     21  O   UNL A   1      34.795  35.141  34.333  1.00  0.00    -0.246 OA
BRANCH  20  22
ATOM     22  C   UNL A   1      35.884  33.725  32.789  1.00  0.00     0.060 A 
ATOM     23  C   UNL A   1      36.675  34.144  31.705  1.00  0.00     0.016 A 
ATOM     24  C   UNL A   1      36.259  32.634  33.556  1.00  0.00     0.016 A 
ATOM     25  C   UNL A   1      37.914  33.564  31.481  1.00  0.00     0.010 A 
ATOM     26  C   UNL A   1      37.554  32.204  33.482  1.00  0.00     0.010 A 
ATOM     27  C   UNL A   1      38.342  32.614  32.399  1.00  0.00    -0.014 A 
BRANCH  27  28
ATOM     28  C   UNL A   1      39.454  31.718  32.153  1.00  0.00     0.031 A 
ATOM     29  C   UNL A   1      39.221  30.415  31.530  1.00  0.00     0.074 A 
ATOM     30  C   UNL A   1      40.630  32.303  32.479  1.00  0.00     0.049 A 
ATOM     31  N   UNL A   1      39.950  29.375  31.715  1.00  0.00    -0.248 NA
ATOM     32  C   UNL A   1      38.064  30.138  30.679  1.00  0.00     0.031 C 
ATOM     33  C   UNL A   1      42.014  31.964  32.232  1.00  0.00     0.029 A 
ATOM     34  N   UNL A   1      40.722  33.390  33.353  1.00  0.00    -0.354 N 
ATOM     35  C   UNL A   1      39.639  28.493  30.697  1.00  0.00     0.074 A 
ATOM     36  C   UNL A   1      38.337  28.903  30.241  1.00  0.00     0.031 C 
ATOM     37  C   UNL A   1      42.773  32.586  33.164  1.00  0.00     0.029 A 
ATOM     38  C   UNL A   1      41.873  33.247  34.107  1.00  0.00     0.049 A 
ATOM     39  H   UNL A   1      40.079  34.133  33.420  1.00  0.00     0.167 HD
ATOM     40  C   UNL A   1      40.640  27.704  30.206  1.00  0.00     0.034 A 
ATOM     41  C   UNL A   1      41.675  32.923  35.422  1.00  0.00     0.034 A 
ATOM     42  C   UNL A   1      41.861  27.955  30.978  1.00  0.00     0.049 A 
ATOM     43  C   UNL A   1      42.093  31.487  35.651  1.00  0.00     0.074 A 
ATOM     44  C   UNL A   1      42.958  28.766  30.736  1.00  0.00     0.029 A 
ATOM     45  N   UNL A   1      41.866  27.683  32.340  1.00  0.00    -0.354 N 
ATOM     46  N   UNL A   1      42.045  30.545  34.744  1.00  0.00    -0.248 NA
ATOM     47  C   UNL A   1      42.728  31.053  36.886  1.00  0.00     0.031 C 
ATOM     48  C   UNL A   1      43.549  29.076  31.994  1.00  0.00     0.029 A 
ATOM     49  C   UNL A   1      42.816  28.449  32.989  1.00  0.00     0.049 A 
ATOM     50  H   UNL A   1      41.273  27.033  32.783  1.00  0.00     0.167 HD
ATOM     51  C   UNL A   1      42.727  29.445  35.195  1.00  0.00     0.074 A 
ATOM     52  C   UNL A   1      43.119  29.813  36.550  1.00  0.00     0.031 C 
ATOM     53  C   UNL A   1      42.967  28.333  34.430  1.00  0.00     0.034 A 
BRANCH  40  54
ATOM     54  C   UNL A   1      40.666  26.991  28.867  1.00  0.00     0.023 A 
ATOM     55  C   UNL A   1      41.679  27.341  27.945  1.00  0.00     0.031 A 
ATOM     56  C   UNL A   1      39.756  26.019  28.407  1.00  0.00     0.131 A 
ATOM     57  C   UNL A   1      41.723  26.807  26.644  1.00  0.00     0.055 A 
ATOM     58  C   UNL A   1      39.789  25.497  27.102  1.00  0.00     0.041 A 
ATOM     59  F   UNL A   1      38.813  25.493  29.194  1.00  0.00    -0.206 F 
ATOM     60  C   UNL A   1      40.771  25.894  26.209  1.00  0.00     0.022 A 
BRANCH  57  61
ATOM     61  S   UNL A   1      43.051  27.333  25.524  1.00  0.00     0.124 S 
ATOM     62  O   UNL A   1      43.971  28.009  26.434  1.00  0.00    -0.237 OA
ATOM     63  O   UNL A   1      43.508  26.065  24.966  1.00  0.00    -0.237 OA
ATOM     64  O   UNL A   1      42.367  28.211  24.575  1.00  0.00    -0.744 OA
ENDBRANCH  57  61
ENDBRANCH  40  54
BRANCH  41  65
ATOM     65  C   UNL A   1      40.499  33.640  36.054  1.00  0.00     0.023 A 
ATOM     66  C   UNL A   1      39.419  32.838  36.511  1.00  0.00     0.031 A 
ATOM     67  C   UNL A   1      40.516  34.969  36.495  1.00  0.00     0.131 A 
ATOM     68  C   UNL A   1      38.535  33.292  37.504  1.00  0.00     0.055 A 
ATOM     69  C   UNL A   1      39.564  35.456  37.416  1.00  0.00     0.041 A 
ATOM     70  F   UNL A   1      41.500  35.802  36.126  1.00  0.00    -0.206 F 
ATOM     71  C   UNL A   1      38.593  34.606  37.957  1.00  0.00     0.022 A 
BRANCH  68  72
ATOM     72  S   UNL A   1      37.538  32.045  38.383  1.00  0.00     0.124 S 
ATOM     73  O   UNL A   1      38.262  31.901  39.642  1.00  0.00    -0.237 OA
ATOM     74  O   UNL A   1      36.231  32.695  38.471  1.00  0.00    -0.237 OA
ATOM     75  O   UNL A   1      37.571  30.883  37.503  1.00  0.00    -0.744 OA
ENDBRANCH  68  72
ENDBRANCH  41  65
BRANCH  53  76
ATOM     76  C   UNL A   1      43.438  27.003  34.969  1.00  0.00     0.023 A 
ATOM     77  C   UNL A   1      44.710  26.497  34.697  1.00  0.00     0.031 A 
ATOM     78  C   UNL A   1      42.655  26.241  35.874  1.00  0.00     0.131 A 
ATOM     79  C   UNL A   1      45.110  25.249  35.187  1.00  0.00     0.055 A 
ATOM     80  C   UNL A   1      43.113  25.070  36.475  1.00  0.00     0.041 A 
ATOM     81  F   UNL A   1      41.412  26.603  36.224  1.00  0.00    -0.206 F 
ATOM     82  C   UNL A   1      44.342  24.547  36.109  1.00  0.00     0.022 A 
BRANCH  79  83
ATOM     83  S   UNL A   1      46.599  24.521  34.471  1.00  0.00     0.124 S 
ATOM     84  O   UNL A   1      46.241  23.105  34.422  1.00  0.00    -0.237 OA
ATOM     85  O   UNL A   1      46.691  25.193  33.179  1.00  0.00    -0.237 OA
ATOM     86  O   UNL A   1      47.645  24.864  35.430  1.00  0.00    -0.744 OA
ENDBRANCH  79  83
ENDBRANCH  53  76
ENDBRANCH  27  28
ENDBRANCH  20  22
ENDBRANCH  19  20
ENDBRANCH   1  19
TORSDOF 15
ENDMDL
MODEL 2
REMARK VINA RESULT:     -11.9      3.827      5.808
REMARK SMILES Cc1cccc(-c2cccc(C(=O)OCCOC(=O)c3ccc(-c4c5nc(c(-c6cc(S(=O)(=O)[O-])ccc6F)c6ccc([nH]6)c(-c6cc(S(=O)(=O)[O-])ccc6F)c6nc(c(-c7cc(S(=O)(=O)[O-])ccc7F)c7ccc4[nH]7)C=C6)C=C5)cc3)c2)c1
REMARK SMILES IDX 16 1 15 2 14 3 12 4 13 5 11 6 7 7 8 8 83 9 9 10 10 11 6 12
REMARK SMILES IDX 1 13 2 14 3 15 84 16 4 17 5 18 17 19 18 20 19 21 20 22 21 23
REMARK SMILES IDX 82 24 22 25 81 26 23 27 24 28 25 29 75 30 26 31 80 32 74 33
REMARK SMILES IDX 76 34 27 35 79 36 73 37 72 38 28 40 60 41 40 42 59 43 41 44
REMARK SMILES IDX 44 45 58 46 77 47 42 48 43 49 57 51 78 52 45 53 29 54 30 55
REMARK SMILES IDX 38 56 31 57 37 58 39 59 36 60 32 61 33 62 34 63 35 64 61 65
REMARK SMILES IDX 62 66 70 67 63 68 69 69 71 70 68 71 64 72 65 73 66 74 67 75
REMARK SMILES IDX 46 76 47 77 55 78 48 79 54 80 56 81 53 82 49 83 50 84 51 85
REMARK SMILES IDX 52 86
REMARK H PARENT 76 39 44 50
REMARK Flexibility Score: inf
ROOT
ATOM      1  C   UNL A   1      34.322  31.090  27.490  1.00  0.00     0.275 C 
ENDROOT
BRANCH   1   2
ATOM      2  C   UNL A   1      32.852  30.729  27.232  1.00  0.00     0.275 C 
BRANCH   2   3
ATOM      3  O   UNL A   1      32.572  29.319  27.337  1.00  0.00    -0.458 OA
BRANCH   3   4
ATOM      4  C   UNL A   1      32.523  28.723  26.120  1.00  0.00     0.338 C 
ATOM      5  O   UNL A   1      32.340  29.322  25.066  1.00  0.00    -0.246 OA
BRANCH   4   6
ATOM      6  C   UNL A   1      32.618  27.236  26.131  1.00  0.00     0.060 A 
ATOM      7  C   UNL A   1      33.620  25.074  25.533  1.00  0.00    -0.018 A 
ATOM      8  C   UNL A   1      32.381  24.477  25.851  1.00  0.00     0.009 A 
ATOM      9  C   UNL A   1      33.742  26.468  25.758  1.00  0.00     0.024 A 
ATOM     10  C   UNL A   1      31.290  25.219  26.290  1.00  0.00     0.002 A 
ATOM     11  C   UNL A   1      31.403  26.595  26.402  1.00  0.00     0.016 A 
BRANCH   7  12
ATOM     12  C   UNL A   1      34.684  24.212  24.940  1.00  0.00    -0.018 A 
ATOM     13  C   UNL A   1      38.182  22.962  25.963  1.00  0.00     0.044 C 
ATOM     14  C   UNL A   1      36.939  23.200  25.154  1.00  0.00    -0.051 A 
ATOM     15  C   UNL A   1      36.866  22.766  23.831  1.00  0.00     0.003 A 
ATOM     16  C   UNL A   1      35.847  23.901  25.691  1.00  0.00     0.012 A 
ATOM     17  C   UNL A   1      35.712  23.008  23.083  1.00  0.00     0.001 A 
ATOM     18  C   UNL A   1      34.631  23.719  23.630  1.00  0.00     0.009 A 
ENDBRANCH   7  12
ENDBRANCH   4   6
ENDBRANCH   3   4
ENDBRANCH   2   3
ENDBRANCH   1   2
BRANCH   1  19
ATOM     19  O   UNL A   1      35.156  30.085  28.131  1.00  0.00    -0.458 OA
BRANCH  19  20
ATOM     20  C   UNL A   1      36.131  30.324  29.053  1.00  0.00     0.338 C 
ATOM     21  O   UNL A   1      35.917  31.024  30.046  1.00  0.00    -0.246 OA
BRANCH  20  22
ATOM     22  C   UNL A   1      37.371  29.532  28.934  1.00  0.00     0.060 A 
ATOM     23  C   UNL A   1      38.213  29.727  27.825  1.00  0.00     0.016 A 
ATOM     24  C   UNL A   1      37.782  28.755  30.004  1.00  0.00     0.016 A 
ATOM     25  C   UNL A   1      39.519  29.267  27.852  1.00  0.00     0.010 A 
ATOM     26  C   UNL A   1      39.115  28.487  30.135  1.00  0.00     0.010 A 
ATOM     27  C   UNL A   1      39.955  28.672  29.030  1.00  0.00    -0.014 A 
BRANCH  27  28
ATOM     28  C   UNL A   1      41.171  27.890  29.120  1.00  0.00     0.031 A 
ATOM     29  C   UNL A   1      41.167  26.482  28.721  1.00  0.00     0.074 A 
ATOM     30  C   UNL A   1      42.216  28.658  29.503  1.00  0.00     0.049 A 
ATOM     31  N   UNL A   1      41.948  25.583  29.199  1.00  0.00    -0.248 NA
ATOM     32  C   UNL A   1      40.199  25.928  27.773  1.00  0.00     0.031 C 
ATOM     33  C   UNL A   1      43.648  28.453  29.529  1.00  0.00     0.029 A 
ATOM     34  N   UNL A   1      42.060  29.880  30.165  1.00  0.00    -0.354 N 
ATOM     35  C   UNL A   1      41.895  24.512  28.327  1.00  0.00     0.074 A 
ATOM     36  C   UNL A   1      40.655  24.680  27.616  1.00  0.00     0.031 C 
ATOM     37  C   UNL A   1      44.180  29.309  30.432  1.00  0.00     0.029 A 
ATOM     38  C   UNL A   1      43.078  30.005  31.094  1.00  0.00     0.049 A 
ATOM     39  H   UNL A   1      41.349  30.539  29.998  1.00  0.00     0.167 HD
ATOM     40  C   UNL A   1      43.033  23.780  28.143  1.00  0.00     0.034 A 
ATOM     41  C   UNL A   1      42.694  29.884  32.402  1.00  0.00     0.034 A 
ATOM     42  C   UNL A   1      44.079  24.303  29.027  1.00  0.00     0.049 A 
ATOM     43  C   UNL A   1      43.200  28.568  32.951  1.00  0.00     0.074 A 
ATOM     44  C   UNL A   1      45.121  25.188  28.803  1.00  0.00     0.029 A 
ATOM     45  N   UNL A   1      43.883  24.264  30.401  1.00  0.00    -0.354 N 
ATOM     46  N   UNL A   1      43.391  27.488  32.236  1.00  0.00    -0.248 NA
ATOM     47  C   UNL A   1      43.658  28.426  34.325  1.00  0.00     0.031 C 
ATOM     48  C   UNL A   1      45.463  25.773  30.057  1.00  0.00     0.029 A 
ATOM     49  C   UNL A   1      44.635  25.237  31.030  1.00  0.00     0.049 A 
ATOM     50  H   UNL A   1      43.287  23.631  30.864  1.00  0.00     0.167 HD
ATOM     51  C   UNL A   1      44.088  26.570  32.977  1.00  0.00     0.074 A 
ATOM     52  C   UNL A   1      44.213  27.204  34.284  1.00  0.00     0.031 C 
ATOM     53  C   UNL A   1      44.554  25.382  32.475  1.00  0.00     0.034 A 
BRANCH  40  54
ATOM     54  C   UNL A   1      43.348  22.861  26.977  1.00  0.00     0.023 A 
ATOM     55  C   UNL A   1      42.878  21.529  27.033  1.00  0.00     0.031 A 
ATOM     56  C   UNL A   1      44.101  23.176  25.829  1.00  0.00     0.131 A 
ATOM     57  C   UNL A   1      43.205  20.578  26.048  1.00  0.00     0.055 A 
ATOM     58  C   UNL A   1      44.442  22.224  24.853  1.00  0.00     0.041 A 
ATOM     59  F   UNL A   1      44.517  24.419  25.565  1.00  0.00    -0.206 F 
ATOM     60  C   UNL A   1      44.001  20.916  24.960  1.00  0.00     0.022 A 
BRANCH  57  61
ATOM     61  S   UNL A   1      42.572  18.886  26.217  1.00  0.00     0.124 S 
ATOM     62  O   UNL A   1      42.512  18.723  27.666  1.00  0.00    -0.237 OA
ATOM     63  O   UNL A   1      41.293  18.962  25.520  1.00  0.00    -0.237 OA
ATOM     64  O   UNL A   1      43.590  18.075  25.547  1.00  0.00    -0.744 OA
ENDBRANCH  57  61
ENDBRANCH  40  54
BRANCH  41  65
ATOM     65  C   UNL A   1      41.368  30.548  32.711  1.00  0.00     0.023 A 
ATOM     66  C   UNL A   1      41.109  31.799  32.090  1.00  0.00     0.031 A 
ATOM     67  C   UNL A   1      40.270  29.907  33.299  1.00  0.00     0.131 A 
ATOM     68  C   UNL A   1      39.798  32.269  31.903  1.00  0.00     0.055 A 
ATOM     69  C   UNL A   1      38.965  30.433  33.200  1.00  0.00     0.041 A 
ATOM     70  F   UNL A   1      40.413  28.717  33.901  1.00  0.00    -0.206 F 
ATOM     71  C   UNL A   1      38.717  31.596  32.464  1.00  0.00     0.022 A 
BRANCH  68  72
ATOM     72  S   UNL A   1      39.539  33.583  30.666  1.00  0.00     0.124 S 
ATOM     73  O   UNL A   1      40.906  33.916  30.278  1.00  0.00    -0.237 OA
ATOM     74  O   UNL A   1      38.736  32.902  29.650  1.00  0.00    -0.237 OA
ATOM     75  O   UNL A   1      38.823  34.621  31.399  1.00  0.00    -0.744 OA
ENDBRANCH  68  72
ENDBRANCH  41  65
BRANCH  53  76
ATOM     76  C   UNL A   1      45.051  24.228  33.313  1.00  0.00     0.023 A 
ATOM     77  C   UNL A   1      46.335  24.202  33.859  1.00  0.00     0.031 A 
ATOM     78  C   UNL A   1      44.203  23.154  33.685  1.00  0.00     0.131 A 
ATOM     79  C   UNL A   1      46.778  23.107  34.609  1.00  0.00     0.055 A 
ATOM     80  C   UNL A   1      44.602  22.137  34.552  1.00  0.00     0.041 A 
ATOM     81  F   UNL A   1      42.945  23.045  33.233  1.00  0.00    -0.206 F 
ATOM     82  C   UNL A   1      45.911  22.091  34.998  1.00  0.00     0.022 A 
BRANCH  79  83
ATOM     83  S   UNL A   1      48.550  22.995  34.937  1.00  0.00     0.124 S 
ATOM     84  O   UNL A   1      48.613  23.367  36.349  1.00  0.00    -0.237 OA
ATOM     85  O   UNL A   1      48.839  21.595  34.640  1.00  0.00    -0.237 OA
ATOM     86  O   UNL A   1      49.132  23.963  34.012  1.00  0.00    -0.744 OA
ENDBRANCH  79  83
ENDBRANCH  53  76
ENDBRANCH  27  28
ENDBRANCH  20  22
ENDBRANCH  19  20
ENDBRANCH   1  19
TORSDOF 15
ENDMDL
MODEL 3
REMARK VINA RESULT:     -11.8      3.773      5.990
REMARK SMILES Cc1cccc(-c2cccc(C(=O)OCCOC(=O)c3ccc(-c4c5nc(c(-c6cc(S(=O)(=O)[O-])ccc6F)c6ccc([nH]6)c(-c6cc(S(=O)(=O)[O-])ccc6F)c6nc(c(-c7cc(S(=O)(=O)[O-])ccc7F)c7ccc4[nH]7)C=C6)C=C5)cc3)c2)c1
REMARK SMILES IDX 16 1 15 2 14 3 12 4 13 5 11 6 7 7 8 8 83 9 9 10 10 11 6 12
REMARK SMILES IDX 1 13 2 14 3 15 84 16 4 17 5 18 17 19 18 20 19 21 20 22 21 23
REMARK SMILES IDX 82 24 22 25 81 26 23 27 24 28 25 29 75 30 26 31 80 32 74 33
REMARK SMILES IDX 76 34 27 35 79 36 73 37 72 38 28 40 60 41 40 42 59 43 41 44
REMARK SMILES IDX 44 45 58 46 77 47 42 48 43 49 57 51 78 52 45 53 29 54 30 55
REMARK SMILES IDX 38 56 31 57 37 58 39 59 36 60 32 61 33 62 34 63 35 64 61 65
REMARK SMILES IDX 62 66 70 67 63 68 69 69 71 70 68 71 64 72 65 73 66 74 67 75
REMARK SMILES IDX 46 76 47 77 55 78 48 79 54 80 56 81 53 82 49 83 50 84 51 85
REMARK SMILES IDX 52 86
REMARK H PARENT 76 39 44 50
REMARK Flexibility Score: inf
ROOT
ATOM      1  C   UNL A   1      32.151  29.852  26.253  1.00  0.00     0.275 C 
ENDROOT
BRANCH   1   2
ATOM      2  C   UNL A   1      32.305  28.326  26.337  1.00  0.00     0.275 C 
BRANCH   2   3
ATOM      3  O   UNL A   1      32.732  27.715  25.104  1.00  0.00    -0.458 OA
BRANCH   3   4
ATOM      4  C   UNL A   1      31.901  26.714  24.722  1.00  0.00     0.338 C 
ATOM      5  O   UNL A   1      32.159  25.522  24.839  1.00  0.00    -0.246 OA
BRANCH   4   6
ATOM      6  C   UNL A   1      30.646  27.146  24.045  1.00  0.00     0.060 A 
ATOM      7  C   UNL A   1      29.167  28.770  22.944  1.00  0.00    -0.018 A 
ATOM      8  C   UNL A   1      28.091  27.906  23.243  1.00  0.00     0.009 A 
ATOM      9  C   UNL A   1      30.467  28.326  23.292  1.00  0.00     0.024 A 
ATOM     10  C   UNL A   1      28.269  26.705  23.922  1.00  0.00     0.002 A 
ATOM     11  C   UNL A   1      29.538  26.344  24.343  1.00  0.00     0.016 A 
BRANCH   7  12
ATOM     12  C   UNL A   1      28.854  30.097  22.337  1.00  0.00    -0.018 A 
ATOM     13  C   UNL A   1      29.155  33.798  23.364  1.00  0.00     0.044 C 
ATOM     14  C   UNL A   1      28.831  32.567  22.567  1.00  0.00    -0.051 A 
ATOM     15  C   UNL A   1      28.110  32.667  21.378  1.00  0.00     0.003 A 
ATOM     16  C   UNL A   1      29.203  31.291  23.020  1.00  0.00     0.012 A 
ATOM     17  C   UNL A   1      27.799  31.515  20.654  1.00  0.00     0.001 A 
ATOM     18  C   UNL A   1      28.170  30.244  21.124  1.00  0.00     0.009 A 
ENDBRANCH   7  12
ENDBRANCH   4   6
ENDBRANCH   3   4
ENDBRANCH   2   3
ENDBRANCH   1   2
BRANCH   1  19
ATOM     19  O   UNL A   1      32.347  30.613  27.476  1.00  0.00    -0.458 OA
BRANCH  19  20
ATOM     20  C   UNL A   1      32.939  31.837  27.571  1.00  0.00     0.338 C 
ATOM     21  O   UNL A   1      32.272  32.875  27.565  1.00  0.00    -0.246 OA
BRANCH  20  22
ATOM     22  C   UNL A   1      34.377  31.860  27.906  1.00  0.00     0.060 A 
ATOM     23  C   UNL A   1      35.098  33.060  27.779  1.00  0.00     0.016 A 
ATOM     24  C   UNL A   1      34.945  30.756  28.520  1.00  0.00     0.016 A 
ATOM     25  C   UNL A   1      36.331  33.201  28.397  1.00  0.00     0.010 A 
ATOM     26  C   UNL A   1      36.046  30.948  29.306  1.00  0.00     0.010 A 
ATOM     27  C   UNL A   1      36.771  32.138  29.177  1.00  0.00    -0.014 A 
BRANCH  27  28
ATOM     28  C   UNL A   1      38.139  32.008  29.638  1.00  0.00     0.031 A 
ATOM     29  C   UNL A   1      38.918  30.818  29.292  1.00  0.00     0.074 A 
ATOM     30  C   UNL A   1      38.541  33.124  30.288  1.00  0.00     0.049 A 
ATOM     31  N   UNL A   1      39.874  30.338  30.001  1.00  0.00    -0.248 NA
ATOM     32  C   UNL A   1      38.628  29.993  28.119  1.00  0.00     0.031 C 
ATOM     33  C   UNL A   1      39.828  33.608  30.736  1.00  0.00     0.029 A 
ATOM     34  N   UNL A   1      37.647  34.044  30.844  1.00  0.00    -0.354 N 
ATOM     35  C   UNL A   1      40.577  29.476  29.180  1.00  0.00     0.074 A 
ATOM     36  C   UNL A   1      39.651  29.129  28.134  1.00  0.00     0.031 C 
ATOM     37  C   UNL A   1      39.620  34.500  31.732  1.00  0.00     0.029 A 
ATOM     38  C   UNL A   1      38.188  34.519  32.025  1.00  0.00     0.049 A 
ATOM     39  H   UNL A   1      36.781  34.311  30.459  1.00  0.00     0.167 HD
ATOM     40  C   UNL A   1      41.928  29.385  29.355  1.00  0.00     0.034 A 
ATOM     41  C   UNL A   1      37.575  34.080  33.167  1.00  0.00     0.034 A 
ATOM     42  C   UNL A   1      42.314  30.227  30.492  1.00  0.00     0.049 A 
ATOM     43  C   UNL A   1      38.481  33.096  33.875  1.00  0.00     0.074 A 
ATOM     44  C   UNL A   1      42.820  31.516  30.559  1.00  0.00     0.029 A 
ATOM     45  N   UNL A   1      41.800  29.941  31.750  1.00  0.00    -0.354 N 
ATOM     46  N   UNL A   1      39.351  32.323  33.275  1.00  0.00    -0.248 NA
ATOM     47  C   UNL A   1      38.564  33.024  35.326  1.00  0.00     0.031 C 
ATOM     48  C   UNL A   1      42.489  32.041  31.841  1.00  0.00     0.029 A 
ATOM     49  C   UNL A   1      41.793  31.070  32.545  1.00  0.00     0.049 A 
ATOM     50  H   UNL A   1      41.483  29.053  32.036  1.00  0.00     0.167 HD
ATOM     51  C   UNL A   1      40.175  31.755  34.212  1.00  0.00     0.074 A 
ATOM     52  C   UNL A   1      39.625  32.216  35.481  1.00  0.00     0.031 C 
ATOM     53  C   UNL A   1      41.269  30.990  33.899  1.00  0.00     0.034 A 
BRANCH  40  54
ATOM     54  C   UNL A   1      42.944  28.864  28.356  1.00  0.00     0.023 A 
ATOM     55  C   UNL A   1      43.149  27.467  28.283  1.00  0.00     0.031 A 
ATOM     56  C   UNL A   1      43.754  29.628  27.494  1.00  0.00     0.131 A 
ATOM     57  C   UNL A   1      44.139  26.898  27.460  1.00  0.00     0.055 A 
ATOM     58  C   UNL A   1      44.755  29.064  26.684  1.00  0.00     0.041 A 
ATOM     59  F   UNL A   1      43.604  30.949  27.355  1.00  0.00    -0.206 F 
ATOM     60  C   UNL A   1      44.958  27.693  26.668  1.00  0.00     0.022 A 
BRANCH  57  61
ATOM     61  S   UNL A   1      44.341  25.095  27.448  1.00  0.00     0.124 S 
ATOM     62  O   UNL A   1      43.416  24.675  28.496  1.00  0.00    -0.237 OA
ATOM     63  O   UNL A   1      43.971  24.750  26.080  1.00  0.00    -0.237 OA
ATOM     64  O   UNL A   1      45.758  24.910  27.766  1.00  0.00    -0.744 OA
ENDBRANCH  57  61
ENDBRANCH  40  54
BRANCH  41  65
ATOM     65  C   UNL A   1      36.065  34.008  33.058  1.00  0.00     0.023 A 
ATOM     66  C   UNL A   1      35.351  35.235  33.121  1.00  0.00     0.031 A 
ATOM     67  C   UNL A   1      35.349  32.894  32.603  1.00  0.00     0.131 A 
ATOM     68  C   UNL A   1      34.064  35.365  32.572  1.00  0.00     0.055 A 
ATOM     69  C   UNL A   1      34.018  33.006  32.147  1.00  0.00     0.041 A 
ATOM     70  F   UNL A   1      35.939  31.695  32.499  1.00  0.00    -0.206 F 
ATOM     71  C   UNL A   1      33.384  34.251  32.090  1.00  0.00     0.022 A 
BRANCH  68  72
ATOM     72  S   UNL A   1      33.457  37.050  32.232  1.00  0.00     0.124 S 
ATOM     73  O   UNL A   1      33.426  37.080  30.774  1.00  0.00    -0.237 OA
ATOM     74  O   UNL A   1      32.153  37.051  32.897  1.00  0.00    -0.237 OA
ATOM     75  O   UNL A   1      34.449  37.915  32.859  1.00  0.00    -0.744 OA
ENDBRANCH  68  72
ENDBRANCH  41  65
BRANCH  53  76
ATOM     76  C   UNL A   1      42.013  30.111  34.876  1.00  0.00     0.023 A 
ATOM     77  C   UNL A   1      41.673  28.773  35.082  1.00  0.00     0.031 A 
ATOM     78  C   UNL A   1      43.169  30.564  35.561  1.00  0.00     0.131 A 
ATOM     79  C   UNL A   1      42.362  27.989  36.014  1.00  0.00     0.055 A 
ATOM     80  C   UNL A   1      43.940  29.738  36.378  1.00  0.00     0.041 A 
ATOM     81  F   UNL A   1      43.611  31.826  35.462  1.00  0.00    -0.206 F 
ATOM     82  C   UNL A   1      43.521  28.444  36.635  1.00  0.00     0.022 A 
BRANCH  79  83
ATOM     83  S   UNL A   1      41.613  26.415  36.483  1.00  0.00     0.124 S 
ATOM     84  O   UNL A   1      40.997  25.995  35.226  1.00  0.00    -0.237 OA
ATOM     85  O   UNL A   1      42.766  25.631  36.913  1.00  0.00    -0.237 OA
ATOM     86  O   UNL A   1      40.676  26.782  37.541  1.00  0.00    -0.744 OA
ENDBRANCH  79  83
ENDBRANCH  53  76
ENDBRANCH  27  28
ENDBRANCH  20  22
ENDBRANCH  19  20
ENDBRANCH   1  19
TORSDOF 15
ENDMDL
