MODEL 1
REMARK VINA RESULT:     -12.9      0.000      0.000
REMARK SMILES NC(=O)c1c(-c2ccc(Cl)cc2)csc1NC(=O)[C@H]1[C@@H](C(=O)OCCOC(=O)c2ccc(-c3c4nc(c(-c5cc(S(=O)(=O)[O-])ccc5F)c5ccc([nH]5)c(-c5cc(S(=O)(=O)[O-])ccc5F)c5nc(c(-c6cc(S(=O)(=O)[O-])ccc6F)c6ccc3[nH]6)C=C5)C=C4)cc2)[C@@H]2CC[C@H]1O2
REMARK SMILES IDX 24 1 23 2 21 3 22 4 20 5 19 6 95 7 92 8 94 9 96 10 93 11
REMARK SMILES IDX 17 12 16 13 18 15 15 16 4 17 5 18 13 19 14 20 2 21 1 22 3 25
REMARK SMILES IDX 6 26 7 27 12 28 8 29 11 30 9 31 10 32 25 33 26 34 27 35
REMARK SMILES IDX 28 36 29 37 30 38 91 39 31 40 90 41 32 42 33 43 34 44 84 45
REMARK SMILES IDX 35 46 89 47 83 48 85 49 36 50 88 51 82 52 81 53 37 55 69 56
REMARK SMILES IDX 49 57 68 58 50 59 53 60 67 61 86 62 51 63 52 64 66 66 87 67
REMARK SMILES IDX 54 68 38 69 39 70 47 71 40 72 46 73 48 74 45 75 41 76 42 77
REMARK SMILES IDX 43 78 44 79 70 80 71 81 79 82 72 83 78 84 80 85 77 86 73 87
REMARK SMILES IDX 74 88 75 89 76 90 55 91 56 92 64 93 57 94 63 95 65 96 62 97
REMARK SMILES IDX 58 98 59 99 60 100 61 101
REMARK H PARENT 16 14 1 23 1 24 85 54 53 65
REMARK Flexibility Score: inf
ROOT
ATOM      1  C   UNL A   1      35.178  21.647  25.964  1.00  0.00     0.274 C 
ENDROOT
BRANCH   1   2
ATOM      2  O   UNL A   1      33.954  20.902  26.113  1.00  0.00    -0.462 OA
BRANCH   2   3
ATOM      3  C   UNL A   1      32.932  21.285  25.321  1.00  0.00     0.312 C 
ATOM      4  O   UNL A   1      31.814  20.772  25.341  1.00  0.00    -0.252 OA
BRANCH   3   5
ATOM      5  C   UNL A   1      33.177  22.534  24.512  1.00  0.00     0.143 C 
ATOM      6  C   UNL A   1      32.738  23.949  24.842  1.00  0.00     0.124 C 
ATOM      7  C   UNL A   1      31.791  24.311  23.669  1.00  0.00     0.132 C 
ATOM      8  C   UNL A   1      32.547  22.378  23.146  1.00  0.00     0.133 C 
ATOM      9  C   UNL A   1      32.539  24.601  22.365  1.00  0.00     0.035 C 
ATOM     10  O   UNL A   1      31.268  23.012  23.326  1.00  0.00    -0.373 OA
ATOM     11  C   UNL A   1      33.231  23.271  22.110  1.00  0.00     0.036 C 
BRANCH   6  12
ATOM     12  C   UNL A   1      32.087  24.337  26.147  1.00  0.00     0.231 C 
ATOM     13  N   UNL A   1      31.658  25.628  26.345  1.00  0.00    -0.317 N 
ATOM     14  H   UNL A   1      31.213  25.768  27.211  1.00  0.00     0.170 HD
ATOM     15  O   UNL A   1      31.927  23.541  27.072  1.00  0.00    -0.274 OA
BRANCH  13  16
ATOM     16  C   UNL A   1      31.728  26.774  25.561  1.00  0.00     0.108 A 
ATOM     17  C   UNL A   1      30.700  27.338  24.817  1.00  0.00     0.082 A 
ATOM     18  C   UNL A   1      31.095  28.639  24.308  1.00  0.00     0.007 A 
ATOM     19  C   UNL A   1      32.404  28.939  24.609  1.00  0.00     0.076 A 
ATOM     20  S   UNL A   1      33.175  27.599  25.257  1.00  0.00    -0.125 S 
BRANCH  17  21
ATOM     21  C   UNL A   1      29.422  26.660  24.650  1.00  0.00     0.252 C 
ATOM     22  N   UNL A   1      28.760  26.951  23.492  1.00  0.00    -0.365 N 
ATOM     23  H   UNL A   1      27.890  26.531  23.304  1.00  0.00     0.159 HD
ATOM     24  H   UNL A   1      29.155  27.579  22.844  1.00  0.00     0.159 HD
ATOM     25  O   UNL A   1      28.993  25.819  25.426  1.00  0.00    -0.269 OA
ENDBRANCH  17  21
BRANCH  18  26
ATOM     26  C   UNL A   1      30.333  29.611  23.554  1.00  0.00    -0.017 A 
ATOM     27  C   UNL A   1      30.301  29.507  22.156  1.00  0.00     0.010 A 
ATOM     28  C   UNL A   1      29.648  30.643  24.199  1.00  0.00     0.010 A 
ATOM     29  C   UNL A   1      29.568  30.419  21.405  1.00  0.00     0.021 A 
ATOM     30  C   UNL A   1      28.910  31.554  23.444  1.00  0.00     0.021 A 
ATOM     31  C   UNL A   1      28.867  31.433  22.054  1.00  0.00     0.041 A 
ATOM     32  Cl  UNL A   1      27.932  32.541  21.129  1.00  0.00    -0.084 Cl
ENDBRANCH  18  26
ENDBRANCH  13  16
ENDBRANCH   6  12
ENDBRANCH   3   5
ENDBRANCH   2   3
ENDBRANCH   1   2
BRANCH   1  33
ATOM     33  C   UNL A   1      36.104  20.900  25.004  1.00  0.00     0.275 C 
BRANCH  33  34
ATOM     34  O   UNL A   1      37.288  21.688  24.759  1.00  0.00    -0.458 OA
BRANCH  34  35
ATOM     35  C   UNL A   1      38.409  21.303  25.426  1.00  0.00     0.338 C 
ATOM     36  O   UNL A   1      38.988  20.237  25.287  1.00  0.00    -0.246 OA
BRANCH  35  37
ATOM     37  C   UNL A   1      38.922  22.401  26.302  1.00  0.00     0.060 A 
ATOM     38  C   UNL A   1      38.497  23.717  26.147  1.00  0.00     0.016 A 
ATOM     39  C   UNL A   1      40.013  22.150  27.140  1.00  0.00     0.016 A 
ATOM     40  C   UNL A   1      39.317  24.756  26.610  1.00  0.00     0.010 A 
ATOM     41  C   UNL A   1      40.699  23.208  27.770  1.00  0.00     0.010 A 
ATOM     42  C   UNL A   1      40.410  24.548  27.471  1.00  0.00    -0.014 A 
BRANCH  42  43
ATOM     43  C   UNL A   1      41.234  25.688  28.039  1.00  0.00     0.031 A 
ATOM     44  C   UNL A   1      40.606  26.774  28.908  1.00  0.00     0.074 A 
ATOM     45  C   UNL A   1      42.559  25.806  27.778  1.00  0.00     0.049 A 
ATOM     46  N   UNL A   1      41.014  28.002  29.132  1.00  0.00    -0.248 NA
ATOM     47  C   UNL A   1      39.352  26.441  29.604  1.00  0.00     0.031 C 
ATOM     48  C   UNL A   1      43.388  24.840  27.055  1.00  0.00     0.029 A 
ATOM     49  N   UNL A   1      43.452  26.815  28.083  1.00  0.00    -0.354 N 
ATOM     50  C   UNL A   1      40.026  28.615  29.907  1.00  0.00     0.074 A 
ATOM     51  C   UNL A   1      39.007  27.610  30.134  1.00  0.00     0.031 C 
ATOM     52  C   UNL A   1      44.657  25.255  27.035  1.00  0.00     0.029 A 
ATOM     53  C   UNL A   1      44.700  26.617  27.530  1.00  0.00     0.049 A 
ATOM     54  H   UNL A   1      43.222  27.595  28.638  1.00  0.00     0.167 HD
ATOM     55  C   UNL A   1      39.972  29.895  30.362  1.00  0.00     0.034 A 
ATOM     56  C   UNL A   1      45.735  27.448  27.296  1.00  0.00     0.034 A 
ATOM     57  C   UNL A   1      41.040  30.860  30.191  1.00  0.00     0.049 A 
ATOM     58  C   UNL A   1      45.620  28.887  27.694  1.00  0.00     0.074 A 
ATOM     59  C   UNL A   1      41.096  32.175  30.630  1.00  0.00     0.029 A 
ATOM     60  N   UNL A   1      42.245  30.618  29.543  1.00  0.00    -0.354 N 
ATOM     61  N   UNL A   1      44.623  29.499  28.286  1.00  0.00    -0.248 NA
ATOM     62  C   UNL A   1      46.760  29.752  27.371  1.00  0.00     0.031 C 
ATOM     63  C   UNL A   1      42.290  32.746  30.178  1.00  0.00     0.029 A 
ATOM     64  C   UNL A   1      43.029  31.764  29.542  1.00  0.00     0.049 A 
ATOM     65  H   UNL A   1      42.505  29.756  29.142  1.00  0.00     0.167 HD
ATOM     66  C   UNL A   1      45.029  30.820  28.431  1.00  0.00     0.074 A 
ATOM     67  C   UNL A   1      46.365  30.911  27.878  1.00  0.00     0.031 C 
ATOM     68  C   UNL A   1      44.355  31.861  28.981  1.00  0.00     0.034 A 
BRANCH  55  69
ATOM     69  C   UNL A   1      38.693  30.380  31.024  1.00  0.00     0.023 A 
ATOM     70  C   UNL A   1      37.658  31.022  30.322  1.00  0.00     0.031 A 
ATOM     71  C   UNL A   1      38.496  30.149  32.402  1.00  0.00     0.131 A 
ATOM     72  C   UNL A   1      36.505  31.451  31.006  1.00  0.00     0.055 A 
ATOM     73  C   UNL A   1      37.316  30.506  33.058  1.00  0.00     0.041 A 
ATOM     74  F   UNL A   1      39.449  29.553  33.137  1.00  0.00    -0.206 F 
ATOM     75  C   UNL A   1      36.316  31.173  32.362  1.00  0.00     0.022 A 
BRANCH  72  76
ATOM     76  S   UNL A   1      35.302  32.489  30.127  1.00  0.00     0.124 S 
ATOM     77  O   UNL A   1      34.893  31.612  29.034  1.00  0.00    -0.237 OA
ATOM     78  O   UNL A   1      34.296  32.743  31.152  1.00  0.00    -0.237 OA
ATOM     79  O   UNL A   1      36.085  33.655  29.720  1.00  0.00    -0.744 OA
ENDBRANCH  72  76
ENDBRANCH  55  69
BRANCH  56  80
ATOM     80  C   UNL A   1      46.916  26.958  26.522  1.00  0.00     0.023 A 
ATOM     81  C   UNL A   1      48.007  26.363  27.168  1.00  0.00     0.031 A 
ATOM     82  C   UNL A   1      46.966  27.077  25.118  1.00  0.00     0.131 A 
ATOM     83  C   UNL A   1      49.107  25.926  26.415  1.00  0.00     0.055 A 
ATOM     84  C   UNL A   1      48.027  26.571  24.368  1.00  0.00     0.041 A 
ATOM     85  F   UNL A   1      45.953  27.651  24.446  1.00  0.00    -0.206 F 
ATOM     86  C   UNL A   1      49.113  25.999  25.020  1.00  0.00     0.022 A 
BRANCH  83  87
ATOM     87  S   UNL A   1      50.578  25.339  27.297  1.00  0.00     0.124 S 
ATOM     88  O   UNL A   1      50.041  24.211  28.049  1.00  0.00    -0.237 OA
ATOM     89  O   UNL A   1      51.478  25.008  26.197  1.00  0.00    -0.237 OA
ATOM     90  O   UNL A   1      50.976  26.494  28.100  1.00  0.00    -0.744 OA
ENDBRANCH  83  87
ENDBRANCH  56  80
BRANCH  68  91
ATOM     91  C   UNL A   1      45.092  33.175  29.072  1.00  0.00     0.023 A 
ATOM     92  C   UNL A   1      44.935  34.184  28.105  1.00  0.00     0.031 A 
ATOM     93  C   UNL A   1      46.002  33.399  30.120  1.00  0.00     0.131 A 
ATOM     94  C   UNL A   1      45.726  35.340  28.169  1.00  0.00     0.055 A 
ATOM     95  C   UNL A   1      46.736  34.581  30.216  1.00  0.00     0.041 A 
ATOM     96  F   UNL A   1      46.201  32.464  31.064  1.00  0.00    -0.206 F 
ATOM     97  C   UNL A   1      46.612  35.554  29.229  1.00  0.00     0.022 A 
BRANCH  94  98
ATOM     98  S   UNL A   1      45.672  36.510  26.784  1.00  0.00     0.124 S 
ATOM     99  O   UNL A   1      44.236  36.702  26.608  1.00  0.00    -0.237 OA
ATOM    100  O   UNL A   1      46.409  37.653  27.312  1.00  0.00    -0.237 OA
ATOM    101  O   UNL A   1      46.338  35.790  25.700  1.00  0.00    -0.744 OA
ENDBRANCH  94  98
ENDBRANCH  68  91
ENDBRANCH  42  43
ENDBRANCH  35  37
ENDBRANCH  34  35
ENDBRANCH  33  34
ENDBRANCH   1  33
TORSDOF 18
ENDMDL
MODEL 2
REMARK VINA RESULT:     -12.8      1.948      2.314
REMARK SMILES NC(=O)c1c(-c2ccc(Cl)cc2)csc1NC(=O)[C@H]1[C@@H](C(=O)OCCOC(=O)c2ccc(-c3c4nc(c(-c5cc(S(=O)(=O)[O-])ccc5F)c5ccc([nH]5)c(-c5cc(S(=O)(=O)[O-])ccc5F)c5nc(c(-c6cc(S(=O)(=O)[O-])ccc6F)c6ccc3[nH]6)C=C5)C=C4)cc2)[C@@H]2CC[C@H]1O2
REMARK SMILES IDX 24 1 23 2 21 3 22 4 20 5 19 6 95 7 92 8 94 9 96 10 93 11
REMARK SMILES IDX 17 12 16 13 18 15 15 16 4 17 5 18 13 19 14 20 2 21 1 22 3 25
REMARK SMILES IDX 6 26 7 27 12 28 8 29 11 30 9 31 10 32 25 33 26 34 27 35
REMARK SMILES IDX 28 36 29 37 30 38 91 39 31 40 90 41 32 42 33 43 34 44 84 45
REMARK SMILES IDX 35 46 89 47 83 48 85 49 36 50 88 51 82 52 81 53 37 55 69 56
REMARK SMILES IDX 49 57 68 58 50 59 53 60 67 61 86 62 51 63 52 64 66 66 87 67
REMARK SMILES IDX 54 68 38 69 39 70 47 71 40 72 46 73 48 74 45 75 41 76 42 77
REMARK SMILES IDX 43 78 44 79 70 80 71 81 79 82 72 83 78 84 80 85 77 86 73 87
REMARK SMILES IDX 74 88 75 89 76 90 55 91 56 92 64 93 57 94 63 95 65 96 62 97
REMARK SMILES IDX 58 98 59 99 60 100 61 101
REMARK H PARENT 16 14 1 23 1 24 85 54 53 65
REMARK Flexibility Score: inf
ROOT
ATOM      1  C   UNL A   1      36.100  22.101  25.382  1.00  0.00     0.274 C 
ENDROOT
BRANCH   1   2
ATOM      2  O   UNL A   1      35.348  21.454  26.427  1.00  0.00    -0.462 OA
BRANCH   2   3
ATOM      3  C   UNL A   1      34.045  21.234  26.164  1.00  0.00     0.312 C 
ATOM      4  O   UNL A   1      33.329  20.469  26.811  1.00  0.00    -0.252 OA
BRANCH   3   5
ATOM      5  C   UNL A   1      33.437  22.137  25.120  1.00  0.00     0.143 C 
ATOM      6  C   UNL A   1      32.534  23.336  25.348  1.00  0.00     0.124 C 
ATOM      7  C   UNL A   1      31.215  22.928  24.645  1.00  0.00     0.132 C 
ATOM      8  C   UNL A   1      32.555  21.319  24.203  1.00  0.00     0.133 C 
ATOM      9  C   UNL A   1      31.305  22.996  23.118  1.00  0.00     0.035 C 
ATOM     10  O   UNL A   1      31.254  21.494  24.793  1.00  0.00    -0.373 OA
ATOM     11  C   UNL A   1      32.404  21.984  22.833  1.00  0.00     0.036 C 
BRANCH   6  12
ATOM     12  C   UNL A   1      32.220  23.895  26.714  1.00  0.00     0.231 C 
ATOM     13  N   UNL A   1      32.011  25.244  26.874  1.00  0.00    -0.317 N 
ATOM     14  H   UNL A   1      31.774  25.501  27.794  1.00  0.00     0.170 HD
ATOM     15  O   UNL A   1      32.151  23.190  27.721  1.00  0.00    -0.274 OA
BRANCH  13  16
ATOM     16  C   UNL A   1      32.067  26.317  25.992  1.00  0.00     0.108 A 
ATOM     17  C   UNL A   1      31.026  26.815  25.219  1.00  0.00     0.082 A 
ATOM     18  C   UNL A   1      31.412  28.065  24.590  1.00  0.00     0.007 A 
ATOM     19  C   UNL A   1      32.726  28.389  24.841  1.00  0.00     0.076 A 
ATOM     20  S   UNL A   1      33.508  27.110  25.590  1.00  0.00    -0.125 S 
BRANCH  17  21
ATOM     21  C   UNL A   1      29.745  26.125  25.134  1.00  0.00     0.252 C 
ATOM     22  N   UNL A   1      29.265  25.952  23.868  1.00  0.00    -0.365 N 
ATOM     23  H   UNL A   1      28.406  25.494  23.727  1.00  0.00     0.159 HD
ATOM     24  H   UNL A   1      29.780  26.284  23.097  1.00  0.00     0.159 HD
ATOM     25  O   UNL A   1      29.168  25.647  26.098  1.00  0.00    -0.269 OA
ENDBRANCH  17  21
BRANCH  18  26
ATOM     26  C   UNL A   1      30.637  28.968  23.767  1.00  0.00    -0.017 A 
ATOM     27  C   UNL A   1      30.029  30.078  24.370  1.00  0.00     0.010 A 
ATOM     28  C   UNL A   1      30.485  28.738  22.398  1.00  0.00     0.010 A 
ATOM     29  C   UNL A   1      29.288  30.970  23.602  1.00  0.00     0.021 A 
ATOM     30  C   UNL A   1      29.744  29.637  21.630  1.00  0.00     0.021 A 
ATOM     31  C   UNL A   1      29.157  30.750  22.233  1.00  0.00     0.041 A 
ATOM     32  Cl  UNL A   1      28.270  31.871  21.277  1.00  0.00    -0.084 Cl
ENDBRANCH  18  26
ENDBRANCH  13  16
ENDBRANCH   6  12
ENDBRANCH   3   5
ENDBRANCH   2   3
ENDBRANCH   1   2
BRANCH   1  33
ATOM     33  C   UNL A   1      37.246  21.185  24.952  1.00  0.00     0.275 C 
BRANCH  33  34
ATOM     34  O   UNL A   1      38.496  21.902  25.030  1.00  0.00    -0.458 OA
BRANCH  34  35
ATOM     35  C   UNL A   1      39.298  21.588  26.083  1.00  0.00     0.338 C 
ATOM     36  O   UNL A   1      39.748  20.480  26.328  1.00  0.00    -0.246 OA
BRANCH  35  37
ATOM     37  C   UNL A   1      39.656  22.806  26.874  1.00  0.00     0.060 A 
ATOM     38  C   UNL A   1      39.143  24.060  26.556  1.00  0.00     0.016 A 
ATOM     39  C   UNL A   1      40.697  22.732  27.806  1.00  0.00     0.016 A 
ATOM     40  C   UNL A   1      39.842  25.205  26.964  1.00  0.00     0.010 A 
ATOM     41  C   UNL A   1      41.248  23.900  28.368  1.00  0.00     0.010 A 
ATOM     42  C   UNL A   1      40.879  25.176  27.914  1.00  0.00    -0.014 A 
BRANCH  42  43
ATOM     43  C   UNL A   1      41.565  26.432  28.415  1.00  0.00     0.031 A 
ATOM     44  C   UNL A   1      40.803  27.509  29.182  1.00  0.00     0.074 A 
ATOM     45  C   UNL A   1      42.880  26.664  28.183  1.00  0.00     0.049 A 
ATOM     46  N   UNL A   1      41.079  28.785  29.323  1.00  0.00    -0.248 NA
ATOM     47  C   UNL A   1      39.565  27.102  29.867  1.00  0.00     0.031 C 
ATOM     48  C   UNL A   1      43.825  25.737  27.559  1.00  0.00     0.029 A 
ATOM     49  N   UNL A   1      43.658  27.778  28.434  1.00  0.00    -0.354 N 
ATOM     50  C   UNL A   1      40.009  29.349  30.022  1.00  0.00     0.074 A 
ATOM     51  C   UNL A   1      39.088  28.265  30.296  1.00  0.00     0.031 C 
ATOM     52  C   UNL A   1      45.047  26.275  27.542  1.00  0.00     0.029 A 
ATOM     53  C   UNL A   1      44.938  27.667  27.932  1.00  0.00     0.049 A 
ATOM     54  H   UNL A   1      43.333  28.569  28.923  1.00  0.00     0.167 HD
ATOM     55  C   UNL A   1      39.813  30.648  30.377  1.00  0.00     0.034 A 
ATOM     56  C   UNL A   1      45.893  28.580  27.664  1.00  0.00     0.034 A 
ATOM     57  C   UNL A   1      40.785  31.701  30.162  1.00  0.00     0.049 A 
ATOM     58  C   UNL A   1      45.622  30.025  27.948  1.00  0.00     0.074 A 
ATOM     59  C   UNL A   1      40.696  33.042  30.502  1.00  0.00     0.029 A 
ATOM     60  N   UNL A   1      42.030  31.535  29.568  1.00  0.00    -0.354 N 
ATOM     61  N   UNL A   1      44.550  30.574  28.465  1.00  0.00    -0.248 NA
ATOM     62  C   UNL A   1      46.682  30.975  27.592  1.00  0.00     0.031 C 
ATOM     63  C   UNL A   1      41.842  33.697  30.040  1.00  0.00     0.029 A 
ATOM     64  C   UNL A   1      42.696  32.751  29.501  1.00  0.00     0.049 A 
ATOM     65  H   UNL A   1      42.388  30.677  29.241  1.00  0.00     0.167 HD
ATOM     66  C   UNL A   1      44.818  31.937  28.520  1.00  0.00     0.074 A 
ATOM     67  C   UNL A   1      46.157  32.122  27.998  1.00  0.00     0.031 C 
ATOM     68  C   UNL A   1      44.025  32.941  28.971  1.00  0.00     0.034 A 
BRANCH  55  69
ATOM     69  C   UNL A   1      38.470  31.047  30.965  1.00  0.00     0.023 A 
ATOM     70  C   UNL A   1      37.416  31.568  30.194  1.00  0.00     0.031 A 
ATOM     71  C   UNL A   1      38.233  30.857  32.342  1.00  0.00     0.131 A 
ATOM     72  C   UNL A   1      36.202  31.923  30.811  1.00  0.00     0.055 A 
ATOM     73  C   UNL A   1      37.000  31.138  32.935  1.00  0.00     0.041 A 
ATOM     74  F   UNL A   1      39.201  30.378  33.141  1.00  0.00    -0.206 F 
ATOM     75  C   UNL A   1      35.978  31.687  32.169  1.00  0.00     0.022 A 
BRANCH  72  76
ATOM     76  S   UNL A   1      34.955  32.816  29.839  1.00  0.00     0.124 S 
ATOM     77  O   UNL A   1      35.765  33.835  29.178  1.00  0.00    -0.237 OA
ATOM     78  O   UNL A   1      34.418  31.769  28.976  1.00  0.00    -0.237 OA
ATOM     79  O   UNL A   1      34.030  33.326  30.849  1.00  0.00    -0.744 OA
ENDBRANCH  72  76
ENDBRANCH  55  69
BRANCH  56  80
ATOM     80  C   UNL A   1      47.143  28.157  26.963  1.00  0.00     0.023 A 
ATOM     81  C   UNL A   1      47.205  28.106  25.564  1.00  0.00     0.031 A 
ATOM     82  C   UNL A   1      48.298  27.799  27.687  1.00  0.00     0.131 A 
ATOM     83  C   UNL A   1      48.389  27.690  24.935  1.00  0.00     0.055 A 
ATOM     84  C   UNL A   1      49.495  27.463  27.056  1.00  0.00     0.041 A 
ATOM     85  F   UNL A   1      48.293  27.818  29.031  1.00  0.00    -0.206 F 
ATOM     86  C   UNL A   1      49.541  27.398  25.669  1.00  0.00     0.022 A 
BRANCH  83  87
ATOM     87  S   UNL A   1      48.373  27.453  23.139  1.00  0.00     0.124 S 
ATOM     88  O   UNL A   1      49.622  28.093  22.745  1.00  0.00    -0.237 OA
ATOM     89  O   UNL A   1      48.333  25.998  23.026  1.00  0.00    -0.237 OA
ATOM     90  O   UNL A   1      47.156  28.142  22.716  1.00  0.00    -0.744 OA
ENDBRANCH  83  87
ENDBRANCH  56  80
BRANCH  68  91
ATOM     91  C   UNL A   1      44.624  34.326  28.982  1.00  0.00     0.023 A 
ATOM     92  C   UNL A   1      45.338  34.818  30.090  1.00  0.00     0.031 A 
ATOM     93  C   UNL A   1      44.435  35.183  27.884  1.00  0.00     0.131 A 
ATOM     94  C   UNL A   1      45.776  36.150  30.101  1.00  0.00     0.055 A 
ATOM     95  C   UNL A   1      44.935  36.486  27.872  1.00  0.00     0.041 A 
ATOM     96  F   UNL A   1      43.751  34.770  26.805  1.00  0.00    -0.206 F 
ATOM     97  C   UNL A   1      45.596  36.982  28.991  1.00  0.00     0.022 A 
BRANCH  94  98
ATOM     98  S   UNL A   1      46.481  36.822  31.631  1.00  0.00     0.124 S 
ATOM     99  O   UNL A   1      47.911  36.796  31.342  1.00  0.00    -0.237 OA
ATOM    100  O   UNL A   1      45.868  38.145  31.703  1.00  0.00    -0.237 OA
ATOM    101  O   UNL A   1      46.039  35.878  32.656  1.00  0.00    -0.744 OA
ENDBRANCH  94  98
ENDBRANCH  68  91
ENDBRANCH  42  43
ENDBRANCH  35  37
ENDBRANCH  34  35
ENDBRANCH  33  34
ENDBRANCH   1  33
TORSDOF 18
ENDMDL
MODEL 3
REMARK VINA RESULT:     -12.6      2.492      7.657
REMARK SMILES NC(=O)c1c(-c2ccc(Cl)cc2)csc1NC(=O)[C@H]1[C@@H](C(=O)OCCOC(=O)c2ccc(-c3c4nc(c(-c5cc(S(=O)(=O)[O-])ccc5F)c5ccc([nH]5)c(-c5cc(S(=O)(=O)[O-])ccc5F)c5nc(c(-c6cc(S(=O)(=O)[O-])ccc6F)c6ccc3[nH]6)C=C5)C=C4)cc2)[C@@H]2CC[C@H]1O2
REMARK SMILES IDX 24 1 23 2 21 3 22 4 20 5 19 6 95 7 92 8 94 9 96 10 93 11
REMARK SMILES IDX 17 12 16 13 18 15 15 16 4 17 5 18 13 19 14 20 2 21 1 22 3 25
REMARK SMILES IDX 6 26 7 27 12 28 8 29 11 30 9 31 10 32 25 33 26 34 27 35
REMARK SMILES IDX 28 36 29 37 30 38 91 39 31 40 90 41 32 42 33 43 34 44 84 45
REMARK SMILES IDX 35 46 89 47 83 48 85 49 36 50 88 51 82 52 81 53 37 55 69 56
REMARK SMILES IDX 49 57 68 58 50 59 53 60 67 61 86 62 51 63 52 64 66 66 87 67
REMARK SMILES IDX 54 68 38 69 39 70 47 71 40 72 46 73 48 74 45 75 41 76 42 77
REMARK SMILES IDX 43 78 44 79 70 80 71 81 79 82 72 83 78 84 80 85 77 86 73 87
REMARK SMILES IDX 74 88 75 89 76 90 55 91 56 92 64 93 57 94 63 95 65 96 62 97
REMARK SMILES IDX 58 98 59 99 60 100 61 101
REMARK H PARENT 16 14 1 23 1 24 85 54 53 65
REMARK Flexibility Score: inf
ROOT
ATOM      1  C   UNL A   1      36.371  19.299  24.796  1.00  0.00     0.274 C 
ENDROOT
BRANCH   1   2
ATOM      2  O   UNL A   1      35.863  20.597  25.163  1.00  0.00    -0.462 OA
BRANCH   2   3
ATOM      3  C   UNL A   1      34.528  20.681  25.327  1.00  0.00     0.312 C 
ATOM      4  O   UNL A   1      33.915  20.178  26.269  1.00  0.00    -0.252 OA
BRANCH   3   5
ATOM      5  C   UNL A   1      33.817  21.604  24.371  1.00  0.00     0.143 C 
ATOM      6  C   UNL A   1      33.444  23.058  24.595  1.00  0.00     0.124 C 
ATOM      7  C   UNL A   1      31.896  23.047  24.513  1.00  0.00     0.132 C 
ATOM      8  C   UNL A   1      32.455  21.035  24.043  1.00  0.00     0.133 C 
ATOM      9  C   UNL A   1      31.376  22.896  23.081  1.00  0.00     0.035 C 
ATOM     10  O   UNL A   1      31.605  21.715  24.983  1.00  0.00    -0.373 OA
ATOM     11  C   UNL A   1      31.947  21.542  22.691  1.00  0.00     0.036 C 
BRANCH   6  12
ATOM     12  C   UNL A   1      33.874  23.852  25.805  1.00  0.00     0.231 C 
ATOM     13  N   UNL A   1      33.641  25.205  25.859  1.00  0.00    -0.317 N 
ATOM     14  H   UNL A   1      33.923  25.621  26.705  1.00  0.00     0.170 HD
ATOM     15  O   UNL A   1      34.446  23.339  26.767  1.00  0.00    -0.274 OA
BRANCH  13  16
ATOM     16  C   UNL A   1      33.085  26.102  24.954  1.00  0.00     0.108 A 
ATOM     17  C   UNL A   1      31.906  26.819  25.109  1.00  0.00     0.082 A 
ATOM     18  C   UNL A   1      31.767  27.805  24.053  1.00  0.00     0.007 A 
ATOM     19  C   UNL A   1      32.780  27.718  23.124  1.00  0.00     0.076 A 
ATOM     20  S   UNL A   1      33.702  26.345  23.396  1.00  0.00    -0.125 S 
BRANCH  17  21
ATOM     21  C   UNL A   1      31.007  26.570  26.228  1.00  0.00     0.252 C 
ATOM     22  N   UNL A   1      31.029  27.517  27.210  1.00  0.00    -0.365 N 
ATOM     23  H   UNL A   1      30.448  27.421  27.999  1.00  0.00     0.159 HD
ATOM     24  H   UNL A   1      31.625  28.298  27.127  1.00  0.00     0.159 HD
ATOM     25  O   UNL A   1      30.215  25.641  26.267  1.00  0.00    -0.269 OA
ENDBRANCH  17  21
BRANCH  18  26
ATOM     26  C   UNL A   1      30.749  28.814  23.852  1.00  0.00    -0.017 A 
ATOM     27  C   UNL A   1      29.689  28.538  22.976  1.00  0.00     0.010 A 
ATOM     28  C   UNL A   1      30.819  30.044  24.508  1.00  0.00     0.010 A 
ATOM     29  C   UNL A   1      28.689  29.483  22.773  1.00  0.00     0.021 A 
ATOM     30  C   UNL A   1      29.813  30.988  24.305  1.00  0.00     0.021 A 
ATOM     31  C   UNL A   1      28.751  30.701  23.446  1.00  0.00     0.041 A 
ATOM     32  Cl  UNL A   1      27.497  31.856  23.222  1.00  0.00    -0.084 Cl
ENDBRANCH  18  26
ENDBRANCH  13  16
ENDBRANCH   6  12
ENDBRANCH   3   5
ENDBRANCH   2   3
ENDBRANCH   1   2
BRANCH   1  33
ATOM     33  C   UNL A   1      37.886  19.281  25.000  1.00  0.00     0.275 C 
BRANCH  33  34
ATOM     34  O   UNL A   1      38.337  20.590  25.407  1.00  0.00    -0.458 OA
BRANCH  34  35
ATOM     35  C   UNL A   1      39.510  20.630  26.093  1.00  0.00     0.338 C 
ATOM     36  O   UNL A   1      40.289  19.698  26.224  1.00  0.00    -0.246 OA
BRANCH  35  37
ATOM     37  C   UNL A   1      39.795  22.007  26.601  1.00  0.00     0.060 A 
ATOM     38  C   UNL A   1      38.978  23.087  26.280  1.00  0.00     0.016 A 
ATOM     39  C   UNL A   1      41.023  22.264  27.220  1.00  0.00     0.016 A 
ATOM     40  C   UNL A   1      39.509  24.384  26.341  1.00  0.00     0.010 A 
ATOM     41  C   UNL A   1      41.446  23.586  27.464  1.00  0.00     0.010 A 
ATOM     42  C   UNL A   1      40.729  24.688  26.972  1.00  0.00    -0.014 A 
BRANCH  42  43
ATOM     43  C   UNL A   1      41.248  26.106  27.111  1.00  0.00     0.031 A 
ATOM     44  C   UNL A   1      42.599  26.523  26.536  1.00  0.00     0.074 A 
ATOM     45  C   UNL A   1      40.546  27.057  27.773  1.00  0.00     0.049 A 
ATOM     46  N   UNL A   1      43.384  27.515  26.890  1.00  0.00    -0.248 NA
ATOM     47  C   UNL A   1      43.143  25.715  25.433  1.00  0.00     0.031 C 
ATOM     48  C   UNL A   1      39.195  26.915  28.318  1.00  0.00     0.029 A 
ATOM     49  N   UNL A   1      40.886  28.351  28.119  1.00  0.00    -0.354 N 
ATOM     50  C   UNL A   1      44.548  27.392  26.128  1.00  0.00     0.074 A 
ATOM     51  C   UNL A   1      44.353  26.238  25.273  1.00  0.00     0.031 C 
ATOM     52  C   UNL A   1      38.796  28.071  28.854  1.00  0.00     0.029 A 
ATOM     53  C   UNL A   1      39.935  28.966  28.907  1.00  0.00     0.049 A 
ATOM     54  H   UNL A   1      41.720  28.790  27.833  1.00  0.00     0.167 HD
ATOM     55  C   UNL A   1      45.672  28.158  26.158  1.00  0.00     0.034 A 
ATOM     56  C   UNL A   1      39.979  30.047  29.712  1.00  0.00     0.034 A 
ATOM     57  C   UNL A   1      45.813  29.354  26.964  1.00  0.00     0.049 A 
ATOM     58  C   UNL A   1      41.258  30.816  29.831  1.00  0.00     0.074 A 
ATOM     59  C   UNL A   1      46.899  30.213  27.053  1.00  0.00     0.029 A 
ATOM     60  N   UNL A   1      44.840  29.874  27.808  1.00  0.00    -0.354 N 
ATOM     61  N   UNL A   1      42.403  30.606  29.228  1.00  0.00    -0.248 NA
ATOM     62  C   UNL A   1      41.258  31.954  30.757  1.00  0.00     0.031 C 
ATOM     63  C   UNL A   1      46.614  31.196  28.006  1.00  0.00     0.029 A 
ATOM     64  C   UNL A   1      45.313  31.015  28.442  1.00  0.00     0.049 A 
ATOM     65  H   UNL A   1      43.943  29.488  27.937  1.00  0.00     0.167 HD
ATOM     66  C   UNL A   1      43.255  31.606  29.684  1.00  0.00     0.074 A 
ATOM     67  C   UNL A   1      42.486  32.424  30.600  1.00  0.00     0.031 C 
ATOM     68  C   UNL A   1      44.554  31.826  29.365  1.00  0.00     0.034 A 
BRANCH  55  69
ATOM     69  C   UNL A   1      46.886  27.702  25.365  1.00  0.00     0.023 A 
ATOM     70  C   UNL A   1      47.085  28.023  24.011  1.00  0.00     0.031 A 
ATOM     71  C   UNL A   1      47.893  26.955  26.010  1.00  0.00     0.131 A 
ATOM     72  C   UNL A   1      48.231  27.558  23.340  1.00  0.00     0.055 A 
ATOM     73  C   UNL A   1      49.066  26.563  25.359  1.00  0.00     0.041 A 
ATOM     74  F   UNL A   1      47.762  26.601  27.299  1.00  0.00    -0.206 F 
ATOM     75  C   UNL A   1      49.234  26.855  24.011  1.00  0.00     0.022 A 
BRANCH  72  76
ATOM     76  S   UNL A   1      48.341  27.778  21.540  1.00  0.00     0.124 S 
ATOM     77  O   UNL A   1      47.005  28.272  21.219  1.00  0.00    -0.237 OA
ATOM     78  O   UNL A   1      49.427  28.742  21.406  1.00  0.00    -0.237 OA
ATOM     79  O   UNL A   1      48.635  26.434  21.046  1.00  0.00    -0.744 OA
ENDBRANCH  72  76
ENDBRANCH  55  69
BRANCH  56  80
ATOM     80  C   UNL A   1      38.803  30.375  30.573  1.00  0.00     0.023 A 
ATOM     81  C   UNL A   1      37.880  31.358  30.192  1.00  0.00     0.031 A 
ATOM     82  C   UNL A   1      38.585  29.705  31.794  1.00  0.00     0.131 A 
ATOM     83  C   UNL A   1      36.794  31.653  31.030  1.00  0.00     0.055 A 
ATOM     84  C   UNL A   1      37.462  29.948  32.584  1.00  0.00     0.041 A 
ATOM     85  F   UNL A   1      39.445  28.762  32.216  1.00  0.00    -0.206 F 
ATOM     86  C   UNL A   1      36.562  30.936  32.206  1.00  0.00     0.022 A 
BRANCH  83  87
ATOM     87  S   UNL A   1      35.730  33.057  30.600  1.00  0.00     0.124 S 
ATOM     88  O   UNL A   1      36.032  33.234  29.184  1.00  0.00    -0.237 OA
ATOM     89  O   UNL A   1      34.402  32.537  30.914  1.00  0.00    -0.237 OA
ATOM     90  O   UNL A   1      36.204  34.123  31.479  1.00  0.00    -0.744 OA
ENDBRANCH  83  87
ENDBRANCH  56  80
BRANCH  68  91
ATOM     91  C   UNL A   1      45.202  33.050  29.962  1.00  0.00     0.023 A 
ATOM     92  C   UNL A   1      45.946  32.991  31.155  1.00  0.00     0.031 A 
ATOM     93  C   UNL A   1      45.030  34.305  29.353  1.00  0.00     0.131 A 
ATOM     94  C   UNL A   1      46.432  34.172  31.733  1.00  0.00     0.055 A 
ATOM     95  C   UNL A   1      45.575  35.469  29.897  1.00  0.00     0.041 A 
ATOM     96  F   UNL A   1      44.318  34.423  28.220  1.00  0.00    -0.206 F 
ATOM     97  C   UNL A   1      46.267  35.409  31.102  1.00  0.00     0.022 A 
BRANCH  94  98
ATOM     98  S   UNL A   1      47.179  34.090  33.384  1.00  0.00     0.124 S 
ATOM     99  O   UNL A   1      47.078  32.667  33.690  1.00  0.00    -0.237 OA
ATOM    100  O   UNL A   1      48.525  34.598  33.143  1.00  0.00    -0.237 OA
ATOM    101  O   UNL A   1      46.324  34.959  34.192  1.00  0.00    -0.744 OA
ENDBRANCH  94  98
ENDBRANCH  68  91
ENDBRANCH  42  43
ENDBRANCH  35  37
ENDBRANCH  34  35
ENDBRANCH  33  34
ENDBRANCH   1  33
TORSDOF 18
ENDMDL
