MODEL 1
REMARK VINA RESULT:     -12.4      0.000      0.000
REMARK SMILES Cc1nc(NC(=O)[C@H]2[C@@H]3CC[C@@H](C3)[C@@H]2C(=O)OCCOC(=O)c2ccc(-c3c4nc(c(-c5cc(S(=O)(=O)[O-])ccc5F)c5ccc([nH]5)c(-c5cc(S(=O)(=O)[O-])ccc5F)c5nc(c(-c6cc(S(=O)(=O)[O-])ccc6F)c6ccc3[nH]6)C=C5)C=C4)cc2)sc1-c1ccccc1
REMARK SMILES IDX 18 1 17 2 15 3 16 4 14 5 8 6 9 7 10 8 13 9 12 10 11 11 6 12
REMARK SMILES IDX 5 13 7 15 4 16 1 17 2 18 3 19 87 20 86 21 88 22 89 23 93 24
REMARK SMILES IDX 90 25 92 26 91 27 19 28 20 29 21 30 22 31 23 32 24 33 85 34
REMARK SMILES IDX 25 35 84 36 26 37 27 38 28 39 78 40 29 41 83 42 77 43 79 44
REMARK SMILES IDX 30 45 82 46 76 47 75 48 31 50 63 51 43 52 62 53 44 54 47 55
REMARK SMILES IDX 61 56 80 57 45 58 46 59 60 61 81 62 48 63 32 64 33 65 41 66
REMARK SMILES IDX 34 67 40 68 42 69 39 70 35 71 36 72 37 73 38 74 64 75 65 76
REMARK SMILES IDX 73 77 66 78 72 79 74 80 71 81 67 82 68 83 69 84 70 85 49 86
REMARK SMILES IDX 50 87 58 88 51 89 57 90 59 91 56 92 52 93 53 94 54 95 55 96
REMARK H PARENT 5 14 79 49 47 60
REMARK Flexibility Score: inf
ROOT
ATOM      1  C   UNL A   1      31.388  29.414  25.227  1.00  0.00     0.274 C 
ENDROOT
BRANCH   1   2
ATOM      2  O   UNL A   1      32.282  28.303  25.420  1.00  0.00    -0.462 OA
BRANCH   2   3
ATOM      3  C   UNL A   1      31.767  27.200  26.048  1.00  0.00     0.310 C 
ATOM      4  O   UNL A   1      31.287  27.183  27.169  1.00  0.00    -0.252 OA
BRANCH   3   5
ATOM      5  C   UNL A   1      31.825  26.030  25.086  1.00  0.00     0.115 C 
ATOM      6  C   UNL A   1      32.257  26.326  23.640  1.00  0.00     0.096 C 
ATOM      7  C   UNL A   1      31.019  25.866  22.826  1.00  0.00     0.003 C 
ATOM      8  C   UNL A   1      29.833  26.807  23.129  1.00  0.00     0.005 C 
ATOM      9  C   UNL A   1      30.620  24.599  23.577  1.00  0.00     0.009 C 
ATOM     10  C   UNL A   1      30.457  25.331  24.913  1.00  0.00     0.004 C 
ATOM     11  C   UNL A   1      29.383  26.361  24.528  1.00  0.00     0.005 C 
BRANCH   6  12
ATOM     12  C   UNL A   1      33.538  25.761  22.974  1.00  0.00     0.230 C 
ATOM     13  N   UNL A   1      34.289  24.694  23.335  1.00  0.00    -0.302 N 
ATOM     14  H   UNL A   1      35.205  24.697  22.972  1.00  0.00     0.172 HD
ATOM     15  O   UNL A   1      34.006  26.429  22.034  1.00  0.00    -0.274 OA
BRANCH  13  16
ATOM     16  C   UNL A   1      33.992  23.621  24.113  1.00  0.00     0.190 A 
ATOM     17  C   UNL A   1      34.366  21.913  27.197  1.00  0.00     0.068 C 
ATOM     18  C   UNL A   1      33.988  22.212  25.789  1.00  0.00     0.058 A 
ATOM     19  N   UNL A   1      33.967  23.539  25.412  1.00  0.00    -0.225 NA
ATOM     20  C   UNL A   1      33.769  21.306  24.759  1.00  0.00     0.059 A 
ATOM     21  S   UNL A   1      33.621  22.180  23.277  1.00  0.00    -0.096 S 
BRANCH  20  22
ATOM     22  C   UNL A   1      33.729  19.843  24.818  1.00  0.00    -0.006 A 
ATOM     23  C   UNL A   1      32.523  19.146  24.954  1.00  0.00     0.009 A 
ATOM     24  C   UNL A   1      34.909  19.108  24.622  1.00  0.00     0.009 A 
ATOM     25  C   UNL A   1      32.494  17.751  24.860  1.00  0.00     0.001 A 
ATOM     26  C   UNL A   1      34.881  17.717  24.518  1.00  0.00     0.001 A 
ATOM     27  C   UNL A   1      33.670  17.038  24.628  1.00  0.00     0.000 A 
ENDBRANCH  20  22
ENDBRANCH  13  16
ENDBRANCH   6  12
ENDBRANCH   3   5
ENDBRANCH   2   3
ENDBRANCH   1   2
BRANCH   1  28
ATOM     28  C   UNL A   1      31.665  30.477  26.289  1.00  0.00     0.275 C 
BRANCH  28  29
ATOM     29  O   UNL A   1      33.087  30.659  26.399  1.00  0.00    -0.458 OA
BRANCH  29  30
ATOM     30  C   UNL A   1      33.501  31.660  27.206  1.00  0.00     0.338 C 
ATOM     31  O   UNL A   1      32.930  32.720  27.421  1.00  0.00    -0.246 OA
BRANCH  30  32
ATOM     32  C   UNL A   1      34.791  31.290  27.813  1.00  0.00     0.060 A 
ATOM     33  C   UNL A   1      35.005  29.985  28.251  1.00  0.00     0.016 A 
ATOM     34  C   UNL A   1      35.769  32.260  28.022  1.00  0.00     0.016 A 
ATOM     35  C   UNL A   1      36.157  29.659  28.965  1.00  0.00     0.010 A 
ATOM     36  C   UNL A   1      36.970  31.907  28.651  1.00  0.00     0.010 A 
ATOM     37  C   UNL A   1      37.167  30.610  29.160  1.00  0.00    -0.014 A 
BRANCH  37  38
ATOM     38  C   UNL A   1      38.404  30.258  29.919  1.00  0.00     0.031 A 
ATOM     39  C   UNL A   1      39.416  29.314  29.321  1.00  0.00     0.074 A 
ATOM     40  C   UNL A   1      38.630  30.781  31.142  1.00  0.00     0.049 A 
ATOM     41  N   UNL A   1      40.452  28.741  29.879  1.00  0.00    -0.248 NA
ATOM     42  C   UNL A   1      39.217  28.949  27.911  1.00  0.00     0.031 C 
ATOM     43  C   UNL A   1      37.760  31.736  31.830  1.00  0.00     0.029 A 
ATOM     44  N   UNL A   1      39.665  30.584  32.026  1.00  0.00    -0.354 N 
ATOM     45  C   UNL A   1      40.994  27.902  28.910  1.00  0.00     0.074 A 
ATOM     46  C   UNL A   1      40.161  28.035  27.733  1.00  0.00     0.031 C 
ATOM     47  C   UNL A   1      38.311  32.067  33.007  1.00  0.00     0.029 A 
ATOM     48  C   UNL A   1      39.524  31.281  33.203  1.00  0.00     0.049 A 
ATOM     49  H   UNL A   1      40.434  29.999  31.834  1.00  0.00     0.167 HD
ATOM     50  C   UNL A   1      42.082  27.093  28.997  1.00  0.00     0.034 A 
ATOM     51  C   UNL A   1      40.254  31.261  34.336  1.00  0.00     0.034 A 
ATOM     52  C   UNL A   1      42.931  27.009  30.164  1.00  0.00     0.049 A 
ATOM     53  C   UNL A   1      41.448  30.349  34.418  1.00  0.00     0.074 A 
ATOM     54  C   UNL A   1      44.071  26.245  30.347  1.00  0.00     0.029 A 
ATOM     55  N   UNL A   1      42.739  27.717  31.345  1.00  0.00    -0.354 N 
ATOM     56  N   UNL A   1      41.914  29.515  33.517  1.00  0.00    -0.248 NA
ATOM     57  C   UNL A   1      42.208  30.368  35.674  1.00  0.00     0.031 C 
ATOM     58  C   UNL A   1      44.532  26.445  31.655  1.00  0.00     0.029 A 
ATOM     59  C   UNL A   1      43.722  27.388  32.267  1.00  0.00     0.049 A 
ATOM     60  H   UNL A   1      42.010  28.361  31.503  1.00  0.00     0.167 HD
ATOM     61  C   UNL A   1      43.024  28.911  34.099  1.00  0.00     0.074 A 
ATOM     62  C   UNL A   1      43.173  29.497  35.415  1.00  0.00     0.031 C 
ATOM     63  C   UNL A   1      43.843  27.955  33.590  1.00  0.00     0.034 A 
BRANCH  50  64
ATOM     64  C   UNL A   1      42.366  26.183  27.824  1.00  0.00     0.023 A 
ATOM     65  C   UNL A   1      41.807  24.898  27.716  1.00  0.00     0.031 A 
ATOM     66  C   UNL A   1      43.253  26.600  26.815  1.00  0.00     0.131 A 
ATOM     67  C   UNL A   1      42.205  24.048  26.671  1.00  0.00     0.055 A 
ATOM     68  C   UNL A   1      43.580  25.780  25.733  1.00  0.00     0.041 A 
ATOM     69  F   UNL A   1      43.836  27.808  26.873  1.00  0.00    -0.206 F 
ATOM     70  C   UNL A   1      43.069  24.489  25.666  1.00  0.00     0.022 A 
BRANCH  67  71
ATOM     71  S   UNL A   1      41.707  22.304  26.734  1.00  0.00     0.124 S 
ATOM     72  O   UNL A   1      40.285  22.413  27.053  1.00  0.00    -0.237 OA
ATOM     73  O   UNL A   1      42.027  21.836  25.390  1.00  0.00    -0.237 OA
ATOM     74  O   UNL A   1      42.535  21.748  27.802  1.00  0.00    -0.744 OA
ENDBRANCH  67  71
ENDBRANCH  50  64
BRANCH  51  75
ATOM     75  C   UNL A   1      39.826  32.072  35.512  1.00  0.00     0.023 A 
ATOM     76  C   UNL A   1      38.932  31.562  36.467  1.00  0.00     0.031 A 
ATOM     77  C   UNL A   1      40.308  33.382  35.690  1.00  0.00     0.131 A 
ATOM     78  C   UNL A   1      38.532  32.368  37.545  1.00  0.00     0.055 A 
ATOM     79  C   UNL A   1      39.947  34.159  36.790  1.00  0.00     0.041 A 
ATOM     80  F   UNL A   1      41.163  33.917  34.803  1.00  0.00    -0.206 F 
ATOM     81  C   UNL A   1      39.046  33.655  37.722  1.00  0.00     0.022 A 
BRANCH  78  82
ATOM     82  S   UNL A   1      37.279  31.731  38.694  1.00  0.00     0.124 S 
ATOM     83  O   UNL A   1      36.202  32.699  38.526  1.00  0.00    -0.237 OA
ATOM     84  O   UNL A   1      37.030  30.395  38.163  1.00  0.00    -0.237 OA
ATOM     85  O   UNL A   1      37.955  31.766  39.989  1.00  0.00    -0.744 OA
ENDBRANCH  78  82
ENDBRANCH  51  75
BRANCH  63  86
ATOM     86  C   UNL A   1      44.987  27.509  34.466  1.00  0.00     0.023 A 
ATOM     87  C   UNL A   1      44.861  26.419  35.346  1.00  0.00     0.031 A 
ATOM     88  C   UNL A   1      46.209  28.204  34.444  1.00  0.00     0.131 A 
ATOM     89  C   UNL A   1      45.918  26.092  36.210  1.00  0.00     0.055 A 
ATOM     90  C   UNL A   1      47.276  27.840  35.267  1.00  0.00     0.041 A 
ATOM     91  F   UNL A   1      46.383  29.253  33.625  1.00  0.00    -0.206 F 
ATOM     92  C   UNL A   1      47.128  26.787  36.166  1.00  0.00     0.022 A 
BRANCH  89  93
ATOM     93  S   UNL A   1      45.655  24.804  37.461  1.00  0.00     0.124 S 
ATOM     94  O   UNL A   1      46.471  25.286  38.570  1.00  0.00    -0.237 OA
ATOM     95  O   UNL A   1      44.210  24.854  37.662  1.00  0.00    -0.237 OA
ATOM     96  O   UNL A   1      46.147  23.590  36.811  1.00  0.00    -0.744 OA
ENDBRANCH  89  93
ENDBRANCH  63  86
ENDBRANCH  37  38
ENDBRANCH  30  32
ENDBRANCH  29  30
ENDBRANCH  28  29
ENDBRANCH   1  28
TORSDOF 17
ENDMDL
MODEL 2
REMARK VINA RESULT:     -12.3      1.094      1.632
REMARK SMILES Cc1nc(NC(=O)[C@H]2[C@@H]3CC[C@@H](C3)[C@@H]2C(=O)OCCOC(=O)c2ccc(-c3c4nc(c(-c5cc(S(=O)(=O)[O-])ccc5F)c5ccc([nH]5)c(-c5cc(S(=O)(=O)[O-])ccc5F)c5nc(c(-c6cc(S(=O)(=O)[O-])ccc6F)c6ccc3[nH]6)C=C5)C=C4)cc2)sc1-c1ccccc1
REMARK SMILES IDX 18 1 17 2 15 3 16 4 14 5 8 6 9 7 10 8 13 9 12 10 11 11 6 12
REMARK SMILES IDX 5 13 7 15 4 16 1 17 2 18 3 19 87 20 86 21 88 22 89 23 93 24
REMARK SMILES IDX 90 25 92 26 91 27 19 28 20 29 21 30 22 31 23 32 24 33 85 34
REMARK SMILES IDX 25 35 84 36 26 37 27 38 28 39 78 40 29 41 83 42 77 43 79 44
REMARK SMILES IDX 30 45 82 46 76 47 75 48 31 50 63 51 43 52 62 53 44 54 47 55
REMARK SMILES IDX 61 56 80 57 45 58 46 59 60 61 81 62 48 63 32 64 33 65 41 66
REMARK SMILES IDX 34 67 40 68 42 69 39 70 35 71 36 72 37 73 38 74 64 75 65 76
REMARK SMILES IDX 73 77 66 78 72 79 74 80 71 81 67 82 68 83 69 84 70 85 49 86
REMARK SMILES IDX 50 87 58 88 51 89 57 90 59 91 56 92 52 93 53 94 54 95 55 96
REMARK H PARENT 5 14 79 49 47 60
REMARK Flexibility Score: inf
ROOT
ATOM      1  C   UNL A   1      31.733  29.287  27.176  1.00  0.00     0.274 C 
ENDROOT
BRANCH   1   2
ATOM      2  O   UNL A   1      32.767  28.507  26.548  1.00  0.00    -0.462 OA
BRANCH   2   3
ATOM      3  C   UNL A   1      32.577  28.180  25.232  1.00  0.00     0.310 C 
ATOM      4  O   UNL A   1      33.411  28.287  24.347  1.00  0.00    -0.252 OA
BRANCH   3   5
ATOM      5  C   UNL A   1      31.190  27.589  25.079  1.00  0.00     0.115 C 
ATOM      6  C   UNL A   1      31.094  26.086  24.761  1.00  0.00     0.096 C 
ATOM      7  C   UNL A   1      30.344  26.084  23.404  1.00  0.00     0.003 C 
ATOM      8  C   UNL A   1      31.253  26.703  22.320  1.00  0.00     0.005 C 
ATOM      9  C   UNL A   1      29.316  27.190  23.627  1.00  0.00     0.009 C 
ATOM     10  C   UNL A   1      30.383  28.246  23.936  1.00  0.00     0.004 C 
ATOM     11  C   UNL A   1      31.191  28.206  22.629  1.00  0.00     0.005 C 
BRANCH   6  12
ATOM     12  C   UNL A   1      30.450  25.032  25.697  1.00  0.00     0.230 C 
ATOM     13  N   UNL A   1      30.440  23.682  25.585  1.00  0.00    -0.302 N 
ATOM     14  H   UNL A   1      29.731  23.234  26.102  1.00  0.00     0.172 HD
ATOM     15  O   UNL A   1      29.761  25.477  26.632  1.00  0.00    -0.274 OA
BRANCH  13  16
ATOM     16  C   UNL A   1      31.242  22.843  24.880  1.00  0.00     0.190 A 
ATOM     17  C   UNL A   1      31.969  21.190  21.830  1.00  0.00     0.068 C 
ATOM     18  C   UNL A   1      32.024  21.593  23.261  1.00  0.00     0.058 A 
ATOM     19  N   UNL A   1      31.450  22.803  23.596  1.00  0.00    -0.225 NA
ATOM     20  C   UNL A   1      32.478  20.842  24.338  1.00  0.00     0.059 A 
ATOM     21  S   UNL A   1      32.078  21.671  25.798  1.00  0.00    -0.096 S 
BRANCH  20  22
ATOM     22  C   UNL A   1      33.126  19.528  24.330  1.00  0.00    -0.006 A 
ATOM     23  C   UNL A   1      32.452  18.379  23.899  1.00  0.00     0.009 A 
ATOM     24  C   UNL A   1      34.489  19.424  24.653  1.00  0.00     0.009 A 
ATOM     25  C   UNL A   1      33.133  17.166  23.761  1.00  0.00     0.001 A 
ATOM     26  C   UNL A   1      35.172  18.217  24.505  1.00  0.00     0.001 A 
ATOM     27  C   UNL A   1      34.495  17.089  24.050  1.00  0.00     0.000 A 
ENDBRANCH  20  22
ENDBRANCH  13  16
ENDBRANCH   6  12
ENDBRANCH   3   5
ENDBRANCH   2   3
ENDBRANCH   1   2
BRANCH   1  28
ATOM     28  C   UNL A   1      31.789  30.720  26.650  1.00  0.00     0.275 C 
BRANCH  28  29
ATOM     29  O   UNL A   1      33.167  31.104  26.504  1.00  0.00    -0.458 OA
BRANCH  29  30
ATOM     30  C   UNL A   1      33.619  32.048  27.359  1.00  0.00     0.338 C 
ATOM     31  O   UNL A   1      33.075  33.105  27.647  1.00  0.00    -0.246 OA
BRANCH  30  32
ATOM     32  C   UNL A   1      34.913  31.616  27.917  1.00  0.00     0.060 A 
ATOM     33  C   UNL A   1      35.086  30.298  28.332  1.00  0.00     0.016 A 
ATOM     34  C   UNL A   1      35.937  32.542  28.103  1.00  0.00     0.016 A 
ATOM     35  C   UNL A   1      36.248  29.915  29.001  1.00  0.00     0.010 A 
ATOM     36  C   UNL A   1      37.142  32.132  28.686  1.00  0.00     0.010 A 
ATOM     37  C   UNL A   1      37.303  30.821  29.173  1.00  0.00    -0.014 A 
BRANCH  37  38
ATOM     38  C   UNL A   1      38.549  30.408  29.884  1.00  0.00     0.031 A 
ATOM     39  C   UNL A   1      39.508  29.445  29.233  1.00  0.00     0.074 A 
ATOM     40  C   UNL A   1      38.831  30.893  31.112  1.00  0.00     0.049 A 
ATOM     41  N   UNL A   1      40.540  28.823  29.745  1.00  0.00    -0.248 NA
ATOM     42  C   UNL A   1      39.254  29.121  27.822  1.00  0.00     0.031 C 
ATOM     43  C   UNL A   1      38.016  31.861  31.848  1.00  0.00     0.029 A 
ATOM     44  N   UNL A   1      39.884  30.639  31.958  1.00  0.00    -0.354 N 
ATOM     45  C   UNL A   1      41.023  27.989  28.740  1.00  0.00     0.074 A 
ATOM     46  C   UNL A   1      40.159  28.180  27.593  1.00  0.00     0.031 C 
ATOM     47  C   UNL A   1      38.614  32.144  33.015  1.00  0.00     0.029 A 
ATOM     48  C   UNL A   1      39.804  31.312  33.154  1.00  0.00     0.049 A 
ATOM     49  H   UNL A   1      40.626  30.033  31.728  1.00  0.00     0.167 HD
ATOM     50  C   UNL A   1      42.083  27.142  28.775  1.00  0.00     0.034 A 
ATOM     51  C   UNL A   1      40.567  31.239  34.263  1.00  0.00     0.034 A 
ATOM     52  C   UNL A   1      42.964  27.000  29.911  1.00  0.00     0.049 A 
ATOM     53  C   UNL A   1      41.730  30.285  34.286  1.00  0.00     0.074 A 
ATOM     54  C   UNL A   1      44.082  26.193  30.041  1.00  0.00     0.029 A 
ATOM     55  N   UNL A   1      42.833  27.686  31.114  1.00  0.00    -0.354 N 
ATOM     56  N   UNL A   1      42.139  29.458  33.353  1.00  0.00    -0.248 NA
ATOM     57  C   UNL A   1      42.528  30.247  35.518  1.00  0.00     0.031 C 
ATOM     58  C   UNL A   1      44.589  26.345  31.338  1.00  0.00     0.029 A 
ATOM     59  C   UNL A   1      43.832  27.300  31.997  1.00  0.00     0.049 A 
ATOM     60  H   UNL A   1      42.133  28.350  31.310  1.00  0.00     0.167 HD
ATOM     61  C   UNL A   1      43.244  28.801  33.885  1.00  0.00     0.074 A 
ATOM     62  C   UNL A   1      43.454  29.350  35.209  1.00  0.00     0.031 C 
ATOM     63  C   UNL A   1      44.013  27.831  33.328  1.00  0.00     0.034 A 
BRANCH  50  64
ATOM     64  C   UNL A   1      42.299  26.251  27.572  1.00  0.00     0.023 A 
ATOM     65  C   UNL A   1      41.759  24.956  27.488  1.00  0.00     0.031 A 
ATOM     66  C   UNL A   1      43.103  26.698  26.507  1.00  0.00     0.131 A 
ATOM     67  C   UNL A   1      42.096  24.126  26.406  1.00  0.00     0.055 A 
ATOM     68  C   UNL A   1      43.366  25.897  25.394  1.00  0.00     0.041 A 
ATOM     69  F   UNL A   1      43.666  27.916  26.539  1.00  0.00    -0.206 F 
ATOM     70  C   UNL A   1      42.876  24.597  25.347  1.00  0.00     0.022 A 
BRANCH  67  71
ATOM     71  S   UNL A   1      41.637  22.372  26.481  1.00  0.00     0.124 S 
ATOM     72  O   UNL A   1      40.194  22.434  26.262  1.00  0.00    -0.237 OA
ATOM     73  O   UNL A   1      42.425  21.793  25.400  1.00  0.00    -0.237 OA
ATOM     74  O   UNL A   1      42.036  21.971  27.829  1.00  0.00    -0.744 OA
ENDBRANCH  67  71
ENDBRANCH  50  64
BRANCH  51  75
ATOM     75  C   UNL A   1      40.204  32.035  35.470  1.00  0.00     0.023 A 
ATOM     76  C   UNL A   1      39.231  31.588  36.378  1.00  0.00     0.031 A 
ATOM     77  C   UNL A   1      40.830  33.269  35.727  1.00  0.00     0.131 A 
ATOM     78  C   UNL A   1      38.897  32.381  37.488  1.00  0.00     0.055 A 
ATOM     79  C   UNL A   1      40.532  34.028  36.858  1.00  0.00     0.041 A 
ATOM     80  F   UNL A   1      41.767  33.743  34.889  1.00  0.00    -0.206 F 
ATOM     81  C   UNL A   1      39.553  33.588  37.743  1.00  0.00     0.022 A 
BRANCH  78  82
ATOM     82  S   UNL A   1      37.547  31.840  38.573  1.00  0.00     0.124 S 
ATOM     83  O   UNL A   1      37.220  30.534  38.014  1.00  0.00    -0.237 OA
ATOM     84  O   UNL A   1      38.192  31.835  39.882  1.00  0.00    -0.237 OA
ATOM     85  O   UNL A   1      36.528  32.872  38.389  1.00  0.00    -0.744 OA
ENDBRANCH  78  82
ENDBRANCH  51  75
BRANCH  63  86
ATOM     86  C   UNL A   1      45.167  27.324  34.157  1.00  0.00     0.023 A 
ATOM     87  C   UNL A   1      45.028  26.220  35.018  1.00  0.00     0.031 A 
ATOM     88  C   UNL A   1      46.412  27.975  34.110  1.00  0.00     0.131 A 
ATOM     89  C   UNL A   1      46.099  25.836  35.840  1.00  0.00     0.055 A 
ATOM     90  C   UNL A   1      47.490  27.555  34.891  1.00  0.00     0.041 A 
ATOM     91  F   UNL A   1      46.599  29.035  33.309  1.00  0.00    -0.206 F 
ATOM     92  C   UNL A   1      47.332  26.488  35.773  1.00  0.00     0.022 A 
BRANCH  89  93
ATOM     93  S   UNL A   1      45.828  24.531  37.072  1.00  0.00     0.124 S 
ATOM     94  O   UNL A   1      47.014  24.656  37.913  1.00  0.00    -0.237 OA
ATOM     95  O   UNL A   1      44.566  24.935  37.683  1.00  0.00    -0.237 OA
ATOM     96  O   UNL A   1      45.764  23.311  36.269  1.00  0.00    -0.744 OA
ENDBRANCH  89  93
ENDBRANCH  63  86
ENDBRANCH  37  38
ENDBRANCH  30  32
ENDBRANCH  29  30
ENDBRANCH  28  29
ENDBRANCH   1  28
TORSDOF 17
ENDMDL
MODEL 3
REMARK VINA RESULT:     -12.2      1.892      4.496
REMARK SMILES Cc1nc(NC(=O)[C@H]2[C@@H]3CC[C@@H](C3)[C@@H]2C(=O)OCCOC(=O)c2ccc(-c3c4nc(c(-c5cc(S(=O)(=O)[O-])ccc5F)c5ccc([nH]5)c(-c5cc(S(=O)(=O)[O-])ccc5F)c5nc(c(-c6cc(S(=O)(=O)[O-])ccc6F)c6ccc3[nH]6)C=C5)C=C4)cc2)sc1-c1ccccc1
REMARK SMILES IDX 18 1 17 2 15 3 16 4 14 5 8 6 9 7 10 8 13 9 12 10 11 11 6 12
REMARK SMILES IDX 5 13 7 15 4 16 1 17 2 18 3 19 87 20 86 21 88 22 89 23 93 24
REMARK SMILES IDX 90 25 92 26 91 27 19 28 20 29 21 30 22 31 23 32 24 33 85 34
REMARK SMILES IDX 25 35 84 36 26 37 27 38 28 39 78 40 29 41 83 42 77 43 79 44
REMARK SMILES IDX 30 45 82 46 76 47 75 48 31 50 63 51 43 52 62 53 44 54 47 55
REMARK SMILES IDX 61 56 80 57 45 58 46 59 60 61 81 62 48 63 32 64 33 65 41 66
REMARK SMILES IDX 34 67 40 68 42 69 39 70 35 71 36 72 37 73 38 74 64 75 65 76
REMARK SMILES IDX 73 77 66 78 72 79 74 80 71 81 67 82 68 83 69 84 70 85 49 86
REMARK SMILES IDX 50 87 58 88 51 89 57 90 59 91 56 92 52 93 53 94 54 95 55 96
REMARK H PARENT 5 14 79 49 47 60
REMARK Flexibility Score: inf
ROOT
ATOM      1  C   UNL A   1      31.431  27.703  26.089  1.00  0.00     0.274 C 
ENDROOT
BRANCH   1   2
ATOM      2  O   UNL A   1      31.420  26.507  26.890  1.00  0.00    -0.462 OA
BRANCH   2   3
ATOM      3  C   UNL A   1      31.524  25.317  26.222  1.00  0.00     0.310 C 
ATOM      4  O   UNL A   1      30.727  24.395  26.287  1.00  0.00    -0.252 OA
BRANCH   3   5
ATOM      5  C   UNL A   1      32.749  25.372  25.331  1.00  0.00     0.115 C 
ATOM      6  C   UNL A   1      32.735  24.507  24.059  1.00  0.00     0.096 C 
ATOM      7  C   UNL A   1      33.957  23.578  24.279  1.00  0.00     0.003 C 
ATOM      8  C   UNL A   1      33.664  22.624  25.458  1.00  0.00     0.005 C 
ATOM      9  C   UNL A   1      34.964  24.546  24.894  1.00  0.00     0.009 C 
ATOM     10  C   UNL A   1      34.037  24.916  26.056  1.00  0.00     0.004 C 
ATOM     11  C   UNL A   1      33.824  23.531  26.687  1.00  0.00     0.005 C 
BRANCH   6  12
ATOM     12  C   UNL A   1      32.782  25.071  22.615  1.00  0.00     0.230 C 
ATOM     13  N   UNL A   1      31.932  25.930  22.005  1.00  0.00    -0.302 N 
ATOM     14  H   UNL A   1      31.970  25.913  21.021  1.00  0.00     0.172 HD
ATOM     15  O   UNL A   1      33.664  24.602  21.873  1.00  0.00    -0.274 OA
BRANCH  13  16
ATOM     16  C   UNL A   1      31.035  26.809  22.521  1.00  0.00     0.190 A 
ATOM     17  C   UNL A   1      27.749  27.465  23.678  1.00  0.00     0.068 C 
ATOM     18  C   UNL A   1      29.158  27.672  23.248  1.00  0.00     0.058 A 
ATOM     19  N   UNL A   1      29.986  26.568  23.253  1.00  0.00    -0.225 NA
ATOM     20  C   UNL A   1      29.724  28.826  22.720  1.00  0.00     0.059 A 
ATOM     21  S   UNL A   1      31.308  28.452  22.146  1.00  0.00    -0.096 S 
BRANCH  20  22
ATOM     22  C   UNL A   1      29.124  30.154  22.569  1.00  0.00    -0.006 A 
ATOM     23  C   UNL A   1      29.070  31.061  23.634  1.00  0.00     0.009 A 
ATOM     24  C   UNL A   1      28.691  30.580  21.303  1.00  0.00     0.009 A 
ATOM     25  C   UNL A   1      28.628  32.372  23.429  1.00  0.00     0.001 A 
ATOM     26  C   UNL A   1      28.260  31.891  21.094  1.00  0.00     0.001 A 
ATOM     27  C   UNL A   1      28.237  32.790  22.157  1.00  0.00     0.000 A 
ENDBRANCH  20  22
ENDBRANCH  13  16
ENDBRANCH   6  12
ENDBRANCH   3   5
ENDBRANCH   2   3
ENDBRANCH   1   2
BRANCH   1  28
ATOM     28  C   UNL A   1      31.751  28.904  26.976  1.00  0.00     0.275 C 
BRANCH  28  29
ATOM     29  O   UNL A   1      32.890  29.590  26.429  1.00  0.00    -0.458 OA
BRANCH  29  30
ATOM     30  C   UNL A   1      33.197  30.781  26.989  1.00  0.00     0.338 C 
ATOM     31  O   UNL A   1      32.497  31.782  27.027  1.00  0.00    -0.246 OA
BRANCH  30  32
ATOM     32  C   UNL A   1      34.550  30.708  27.569  1.00  0.00     0.060 A 
ATOM     33  C   UNL A   1      35.154  29.469  27.772  1.00  0.00     0.016 A 
ATOM     34  C   UNL A   1      35.195  31.870  27.986  1.00  0.00     0.016 A 
ATOM     35  C   UNL A   1      36.364  29.378  28.459  1.00  0.00     0.010 A 
ATOM     36  C   UNL A   1      36.457  31.783  28.587  1.00  0.00     0.010 A 
ATOM     37  C   UNL A   1      37.045  30.534  28.860  1.00  0.00    -0.014 A 
BRANCH  37  38
ATOM     38  C   UNL A   1      38.344  30.435  29.590  1.00  0.00     0.031 A 
ATOM     39  C   UNL A   1      39.497  29.678  28.983  1.00  0.00     0.074 A 
ATOM     40  C   UNL A   1      38.501  31.022  30.795  1.00  0.00     0.049 A 
ATOM     41  N   UNL A   1      40.634  29.319  29.522  1.00  0.00    -0.248 NA
ATOM     42  C   UNL A   1      39.334  29.246  27.587  1.00  0.00     0.031 C 
ATOM     43  C   UNL A   1      37.487  31.819  31.488  1.00  0.00     0.029 A 
ATOM     44  N   UNL A   1      39.575  31.041  31.652  1.00  0.00    -0.354 N 
ATOM     45  C   UNL A   1      41.298  28.569  28.555  1.00  0.00     0.074 A 
ATOM     46  C   UNL A   1      40.425  28.516  27.401  1.00  0.00     0.031 C 
ATOM     47  C   UNL A   1      37.996  32.276  32.641  1.00  0.00     0.029 A 
ATOM     48  C   UNL A   1      39.337  31.731  32.818  1.00  0.00     0.049 A 
ATOM     49  H   UNL A   1      40.433  30.603  31.450  1.00  0.00     0.167 HD
ATOM     50  C   UNL A   1      42.517  27.976  28.628  1.00  0.00     0.034 A 
ATOM     51  C   UNL A   1      40.087  31.875  33.929  1.00  0.00     0.034 A 
ATOM     52  C   UNL A   1      43.396  28.079  29.770  1.00  0.00     0.049 A 
ATOM     53  C   UNL A   1      41.430  31.200  33.995  1.00  0.00     0.074 A 
ATOM     54  C   UNL A   1      44.662  27.543  29.937  1.00  0.00     0.029 A 
ATOM     55  N   UNL A   1      43.106  28.771  30.942  1.00  0.00    -0.354 N 
ATOM     56  N   UNL A   1      42.019  30.442  33.099  1.00  0.00    -0.248 NA
ATOM     57  C   UNL A   1      42.205  31.390  35.228  1.00  0.00     0.031 C 
ATOM     58  C   UNL A   1      45.110  27.857  31.225  1.00  0.00     0.029 A 
ATOM     59  C   UNL A   1      44.156  28.651  31.841  1.00  0.00     0.049 A 
ATOM     60  H   UNL A   1      42.276  29.274  31.107  1.00  0.00     0.167 HD
ATOM     61  C   UNL A   1      43.236  30.067  33.660  1.00  0.00     0.074 A 
ATOM     62  C   UNL A   1      43.307  30.705  34.959  1.00  0.00     0.031 C 
ATOM     63  C   UNL A   1      44.204  29.265  33.148  1.00  0.00     0.034 A 
BRANCH  50  64
ATOM     64  C   UNL A   1      42.935  27.103  27.466  1.00  0.00     0.023 A 
ATOM     65  C   UNL A   1      42.667  25.724  27.426  1.00  0.00     0.031 A 
ATOM     66  C   UNL A   1      43.658  27.662  26.396  1.00  0.00     0.131 A 
ATOM     67  C   UNL A   1      43.188  24.939  26.384  1.00  0.00     0.055 A 
ATOM     68  C   UNL A   1      44.101  26.891  25.320  1.00  0.00     0.041 A 
ATOM     69  F   UNL A   1      43.964  28.969  26.387  1.00  0.00    -0.206 F 
ATOM     70  C   UNL A   1      43.883  25.518  25.319  1.00  0.00     0.022 A 
BRANCH  67  71
ATOM     71  S   UNL A   1      43.088  23.133  26.524  1.00  0.00     0.124 S 
ATOM     72  O   UNL A   1      44.251  22.710  25.748  1.00  0.00    -0.237 OA
ATOM     73  O   UNL A   1      43.169  22.923  27.965  1.00  0.00    -0.237 OA
ATOM     74  O   UNL A   1      41.796  22.813  25.919  1.00  0.00    -0.744 OA
ENDBRANCH  67  71
ENDBRANCH  50  64
BRANCH  51  75
ATOM     75  C   UNL A   1      39.546  32.623  35.100  1.00  0.00     0.023 A 
ATOM     76  C   UNL A   1      38.870  31.967  36.141  1.00  0.00     0.031 A 
ATOM     77  C   UNL A   1      39.697  34.020  35.186  1.00  0.00     0.131 A 
ATOM     78  C   UNL A   1      38.351  32.712  37.212  1.00  0.00     0.055 A 
ATOM     79  C   UNL A   1      39.225  34.748  36.277  1.00  0.00     0.041 A 
ATOM     80  F   UNL A   1      40.334  34.695  34.216  1.00  0.00    -0.206 F 
ATOM     81  C   UNL A   1      38.539  34.095  37.296  1.00  0.00     0.022 A 
BRANCH  78  82
ATOM     82  S   UNL A   1      37.372  31.856  38.478  1.00  0.00     0.124 S 
ATOM     83  O   UNL A   1      38.227  31.983  39.652  1.00  0.00    -0.237 OA
ATOM     84  O   UNL A   1      36.141  32.640  38.492  1.00  0.00    -0.237 OA
ATOM     85  O   UNL A   1      37.237  30.502  37.946  1.00  0.00    -0.744 OA
ENDBRANCH  78  82
ENDBRANCH  51  75
BRANCH  63  86
ATOM     86  C   UNL A   1      45.432  29.060  33.999  1.00  0.00     0.023 A 
ATOM     87  C   UNL A   1      45.523  27.999  34.918  1.00  0.00     0.031 A 
ATOM     88  C   UNL A   1      46.511  29.956  33.913  1.00  0.00     0.131 A 
ATOM     89  C   UNL A   1      46.644  27.894  35.756  1.00  0.00     0.055 A 
ATOM     90  C   UNL A   1      47.647  29.815  34.711  1.00  0.00     0.041 A 
ATOM     91  F   UNL A   1      46.476  30.988  33.056  1.00  0.00    -0.206 F 
ATOM     92  C   UNL A   1      47.712  28.788  35.650  1.00  0.00     0.022 A 
BRANCH  89  93
ATOM     93  S   UNL A   1      46.645  26.629  37.057  1.00  0.00     0.124 S 
ATOM     94  O   UNL A   1      47.831  25.848  36.721  1.00  0.00    -0.237 OA
ATOM     95  O   UNL A   1      46.732  27.431  38.273  1.00  0.00    -0.237 OA
ATOM     96  O   UNL A   1      45.372  25.937  36.863  1.00  0.00    -0.744 OA
ENDBRANCH  89  93
ENDBRANCH  63  86
ENDBRANCH  37  38
ENDBRANCH  30  32
ENDBRANCH  29  30
ENDBRANCH  28  29
ENDBRANCH   1  28
TORSDOF 17
ENDMDL
