MODEL 1
REMARK VINA RESULT:     -11.4      0.000      0.000
REMARK SMILES Cc1[nH]c(=O)n(C)c(=O)c1CC(=O)OCCOC(=O)c1ccc(-c2c3nc(c(-c4cc(S(=O)(=O)[O-])ccc4F)c4ccc([nH]4)c(-c4cc(S(=O)(=O)[O-])ccc4F)c4nc(c(-c5cc(S(=O)(=O)[O-])ccc5F)c5ccc2[nH]5)C=C4)C=C3)cc1
REMARK SMILES IDX 16 1 15 2 14 3 12 4 13 5 11 6 10 7 1 8 2 9 3 10 4 11 8 13
REMARK SMILES IDX 5 14 6 15 9 16 7 17 17 18 18 19 19 20 20 21 21 22 82 23
REMARK SMILES IDX 22 24 81 25 23 26 24 27 25 28 75 29 26 30 80 31 74 32 76 33
REMARK SMILES IDX 27 34 79 35 73 36 72 37 28 39 60 40 40 41 59 42 41 43 44 44
REMARK SMILES IDX 58 45 77 46 42 47 43 48 57 50 78 51 45 52 29 53 30 54 38 55
REMARK SMILES IDX 31 56 37 57 39 58 36 59 32 60 33 61 34 62 35 63 61 64 62 65
REMARK SMILES IDX 70 66 63 67 69 68 71 69 68 70 64 71 65 72 66 73 67 74 46 75
REMARK SMILES IDX 47 76 55 77 48 78 54 79 56 80 53 81 49 82 50 83 51 84 52 85
REMARK H PARENT 3 12 76 38 44 49
REMARK Flexibility Score: inf
ROOT
ATOM      1  C   UNL A   1      36.684  21.075  24.748  1.00  0.00     0.275 C 
ENDROOT
BRANCH   1   2
ATOM      2  C   UNL A   1      36.330  22.206  23.787  1.00  0.00     0.274 C 
BRANCH   2   3
ATOM      3  O   UNL A   1      35.417  23.132  24.412  1.00  0.00    -0.462 OA
BRANCH   3   4
ATOM      4  C   UNL A   1      34.289  23.416  23.703  1.00  0.00     0.310 C 
ATOM      5  O   UNL A   1      34.278  23.996  22.622  1.00  0.00    -0.252 OA
BRANCH   4   6
ATOM      6  C   UNL A   1      33.004  22.992  24.394  1.00  0.00     0.165 C 
BRANCH   6   7
ATOM      7  C   UNL A   1      32.953  21.552  24.824  1.00  0.00     0.048 A 
ATOM      8  C   UNL A   1      33.595  21.951  27.225  1.00  0.00     0.065 C 
ATOM      9  C   UNL A   1      33.192  21.092  26.062  1.00  0.00     0.026 A 
ATOM     10  N   UNL A   1      33.093  19.751  26.317  1.00  0.00    -0.311 N 
ATOM     11  C   UNL A   1      32.798  18.788  25.391  1.00  0.00     0.328 A 
ATOM     12  H   UNL A   1      33.246  19.454  27.243  1.00  0.00     0.171 HD
ATOM     13  C   UNL A   1      32.533  20.577  23.773  1.00  0.00     0.259 A 
ATOM     14  O   UNL A   1      32.772  17.608  25.736  1.00  0.00    -0.248 OA
ATOM     15  N   UNL A   1      32.552  19.239  24.111  1.00  0.00    -0.263 N 
ATOM     16  O   UNL A   1      32.186  21.004  22.675  1.00  0.00    -0.269 OA
ATOM     17  C   UNL A   1      32.221  18.254  23.100  1.00  0.00     0.158 C 
ENDBRANCH   6   7
ENDBRANCH   4   6
ENDBRANCH   3   4
ENDBRANCH   2   3
ENDBRANCH   1   2
BRANCH   1  18
ATOM     18  O   UNL A   1      37.300  21.628  25.921  1.00  0.00    -0.458 OA
BRANCH  18  19
ATOM     19  C   UNL A   1      38.634  21.425  26.035  1.00  0.00     0.338 C 
ATOM     20  O   UNL A   1      39.238  20.387  25.823  1.00  0.00    -0.246 OA
BRANCH  19  21
ATOM     21  C   UNL A   1      39.264  22.656  26.553  1.00  0.00     0.060 A 
ATOM     22  C   UNL A   1      38.800  23.916  26.166  1.00  0.00     0.016 A 
ATOM     23  C   UNL A   1      40.378  22.543  27.383  1.00  0.00     0.016 A 
ATOM     24  C   UNL A   1      39.489  25.063  26.551  1.00  0.00     0.010 A 
ATOM     25  C   UNL A   1      41.021  23.698  27.834  1.00  0.00     0.010 A 
ATOM     26  C   UNL A   1      40.599  24.968  27.401  1.00  0.00    -0.014 A 
BRANCH  26  27
ATOM     27  C   UNL A   1      41.348  26.185  27.807  1.00  0.00     0.031 A 
ATOM     28  C   UNL A   1      40.664  27.241  28.634  1.00  0.00     0.074 A 
ATOM     29  C   UNL A   1      42.635  26.342  27.441  1.00  0.00     0.049 A 
ATOM     30  N   UNL A   1      41.078  28.443  28.944  1.00  0.00    -0.248 NA
ATOM     31  C   UNL A   1      39.338  26.903  29.177  1.00  0.00     0.031 C 
ATOM     32  C   UNL A   1      43.429  25.364  26.694  1.00  0.00     0.029 A 
ATOM     33  N   UNL A   1      43.505  27.382  27.651  1.00  0.00    -0.354 N 
ATOM     34  C   UNL A   1      40.055  29.015  29.691  1.00  0.00     0.074 A 
ATOM     35  C   UNL A   1      38.994  28.035  29.776  1.00  0.00     0.031 C 
ATOM     36  C   UNL A   1      44.673  25.840  26.531  1.00  0.00     0.029 A 
ATOM     37  C   UNL A   1      44.746  27.186  27.090  1.00  0.00     0.049 A 
ATOM     38  H   UNL A   1      43.265  28.193  28.155  1.00  0.00     0.167 HD
ATOM     39  C   UNL A   1      40.010  30.246  30.255  1.00  0.00     0.034 A 
ATOM     40  C   UNL A   1      45.810  28.009  27.000  1.00  0.00     0.034 A 
ATOM     41  C   UNL A   1      41.086  31.203  30.189  1.00  0.00     0.049 A 
ATOM     42  C   UNL A   1      45.706  29.398  27.569  1.00  0.00     0.074 A 
ATOM     43  C   UNL A   1      41.139  32.478  30.726  1.00  0.00     0.029 A 
ATOM     44  N   UNL A   1      42.302  30.987  29.556  1.00  0.00    -0.354 N 
ATOM     45  N   UNL A   1      44.699  29.957  28.199  1.00  0.00    -0.248 NA
ATOM     46  C   UNL A   1      46.872  30.276  27.395  1.00  0.00     0.031 C 
ATOM     47  C   UNL A   1      42.366  33.050  30.377  1.00  0.00     0.029 A 
ATOM     48  C   UNL A   1      43.102  32.111  29.673  1.00  0.00     0.049 A 
ATOM     49  H   UNL A   1      42.559  30.156  29.093  1.00  0.00     0.167 HD
ATOM     50  C   UNL A   1      45.116  31.248  28.507  1.00  0.00     0.074 A 
ATOM     51  C   UNL A   1      46.468  31.383  28.003  1.00  0.00     0.031 C 
ATOM     52  C   UNL A   1      44.441  32.233  29.149  1.00  0.00     0.034 A 
BRANCH  39  53
ATOM     53  C   UNL A   1      38.742  30.650  30.959  1.00  0.00     0.023 A 
ATOM     54  C   UNL A   1      37.696  31.300  30.285  1.00  0.00     0.031 A 
ATOM     55  C   UNL A   1      38.569  30.346  32.322  1.00  0.00     0.131 A 
ATOM     56  C   UNL A   1      36.533  31.655  30.984  1.00  0.00     0.055 A 
ATOM     57  C   UNL A   1      37.388  30.653  32.998  1.00  0.00     0.041 A 
ATOM     58  F   UNL A   1      39.545  29.740  33.015  1.00  0.00    -0.206 F 
ATOM     59  C   UNL A   1      36.362  31.315  32.330  1.00  0.00     0.022 A 
BRANCH  56  60
ATOM     60  S   UNL A   1      35.256  32.618  30.128  1.00  0.00     0.124 S 
ATOM     61  O   UNL A   1      36.003  33.807  29.728  1.00  0.00    -0.237 OA
ATOM     62  O   UNL A   1      34.852  31.725  29.048  1.00  0.00    -0.237 OA
ATOM     63  O   UNL A   1      34.246  32.841  31.161  1.00  0.00    -0.744 OA
ENDBRANCH  56  60
ENDBRANCH  39  53
BRANCH  40  64
ATOM     64  C   UNL A   1      47.041  27.566  26.290  1.00  0.00     0.023 A 
ATOM     65  C   UNL A   1      47.215  27.816  24.920  1.00  0.00     0.031 A 
ATOM     66  C   UNL A   1      48.057  26.870  26.971  1.00  0.00     0.131 A 
ATOM     67  C   UNL A   1      48.369  27.353  24.269  1.00  0.00     0.055 A 
ATOM     68  C   UNL A   1      49.221  26.449  26.328  1.00  0.00     0.041 A 
ATOM     69  F   UNL A   1      47.936  26.607  28.283  1.00  0.00    -0.206 F 
ATOM     70  C   UNL A   1      49.378  26.683  24.966  1.00  0.00     0.022 A 
BRANCH  67  71
ATOM     71  S   UNL A   1      48.516  27.599  22.477  1.00  0.00     0.124 S 
ATOM     72  O   UNL A   1      49.739  28.391  22.387  1.00  0.00    -0.237 OA
ATOM     73  O   UNL A   1      48.601  26.229  21.986  1.00  0.00    -0.237 OA
ATOM     74  O   UNL A   1      47.286  28.308  22.130  1.00  0.00    -0.744 OA
ENDBRANCH  67  71
ENDBRANCH  40  64
BRANCH  52  75
ATOM     75  C   UNL A   1      45.165  33.534  29.367  1.00  0.00     0.023 A 
ATOM     76  C   UNL A   1      45.133  34.558  28.406  1.00  0.00     0.031 A 
ATOM     77  C   UNL A   1      45.864  33.761  30.565  1.00  0.00     0.131 A 
ATOM     78  C   UNL A   1      45.817  35.758  28.647  1.00  0.00     0.055 A 
ATOM     79  C   UNL A   1      46.506  34.973  30.817  1.00  0.00     0.041 A 
ATOM     80  F   UNL A   1      45.920  32.812  31.513  1.00  0.00    -0.206 F 
ATOM     81  C   UNL A   1      46.489  35.978  29.854  1.00  0.00     0.022 A 
BRANCH  78  82
ATOM     82  S   UNL A   1      45.842  37.025  27.351  1.00  0.00     0.124 S 
ATOM     83  O   UNL A   1      46.866  37.942  27.844  1.00  0.00    -0.237 OA
ATOM     84  O   UNL A   1      46.195  36.257  26.163  1.00  0.00    -0.237 OA
ATOM     85  O   UNL A   1      44.479  37.555  27.362  1.00  0.00    -0.744 OA
ENDBRANCH  78  82
ENDBRANCH  52  75
ENDBRANCH  26  27
ENDBRANCH  19  21
ENDBRANCH  18  19
ENDBRANCH   1  18
TORSDOF 15
ENDMDL
MODEL 2
REMARK VINA RESULT:     -11.3      5.980     10.685
REMARK SMILES Cc1[nH]c(=O)n(C)c(=O)c1CC(=O)OCCOC(=O)c1ccc(-c2c3nc(c(-c4cc(S(=O)(=O)[O-])ccc4F)c4ccc([nH]4)c(-c4cc(S(=O)(=O)[O-])ccc4F)c4nc(c(-c5cc(S(=O)(=O)[O-])ccc5F)c5ccc2[nH]5)C=C4)C=C3)cc1
REMARK SMILES IDX 16 1 15 2 14 3 12 4 13 5 11 6 10 7 1 8 2 9 3 10 4 11 8 13
REMARK SMILES IDX 5 14 6 15 9 16 7 17 17 18 18 19 19 20 20 21 21 22 82 23
REMARK SMILES IDX 22 24 81 25 23 26 24 27 25 28 75 29 26 30 80 31 74 32 76 33
REMARK SMILES IDX 27 34 79 35 73 36 72 37 28 39 60 40 40 41 59 42 41 43 44 44
REMARK SMILES IDX 58 45 77 46 42 47 43 48 57 50 78 51 45 52 29 53 30 54 38 55
REMARK SMILES IDX 31 56 37 57 39 58 36 59 32 60 33 61 34 62 35 63 61 64 62 65
REMARK SMILES IDX 70 66 63 67 69 68 71 69 68 70 64 71 65 72 66 73 67 74 46 75
REMARK SMILES IDX 47 76 55 77 48 78 54 79 56 80 53 81 49 82 50 83 51 84 52 85
REMARK H PARENT 3 12 76 38 44 49
REMARK Flexibility Score: inf
ROOT
ATOM      1  C   UNL A   1      31.802  30.123  26.529  1.00  0.00     0.275 C 
ENDROOT
BRANCH   1   2
ATOM      2  C   UNL A   1      31.691  28.694  27.053  1.00  0.00     0.274 C 
BRANCH   2   3
ATOM      3  O   UNL A   1      32.354  27.776  26.159  1.00  0.00    -0.462 OA
BRANCH   3   4
ATOM      4  C   UNL A   1      31.646  26.660  25.829  1.00  0.00     0.310 C 
ATOM      5  O   UNL A   1      31.175  25.873  26.644  1.00  0.00    -0.252 OA
BRANCH   4   6
ATOM      6  C   UNL A   1      31.523  26.429  24.332  1.00  0.00     0.165 C 
BRANCH   6   7
ATOM      7  C   UNL A   1      30.993  27.596  23.546  1.00  0.00     0.048 A 
ATOM      8  C   UNL A   1      33.234  28.519  22.866  1.00  0.00     0.065 C 
ATOM      9  C   UNL A   1      31.733  28.502  22.888  1.00  0.00     0.026 A 
ATOM     10  N   UNL A   1      31.115  29.508  22.196  1.00  0.00    -0.311 N 
ATOM     11  C   UNL A   1      29.763  29.711  22.134  1.00  0.00     0.328 A 
ATOM     12  H   UNL A   1      31.689  30.136  21.701  1.00  0.00     0.171 HD
ATOM     13  C   UNL A   1      29.506  27.692  23.453  1.00  0.00     0.259 A 
ATOM     14  O   UNL A   1      29.328  30.674  21.504  1.00  0.00    -0.248 OA
ATOM     15  N   UNL A   1      28.984  28.793  22.806  1.00  0.00    -0.263 N 
ATOM     16  O   UNL A   1      28.824  26.794  23.941  1.00  0.00    -0.269 OA
ATOM     17  C   UNL A   1      27.545  28.963  22.755  1.00  0.00     0.158 C 
ENDBRANCH   6   7
ENDBRANCH   4   6
ENDBRANCH   3   4
ENDBRANCH   2   3
ENDBRANCH   1   2
BRANCH   1  18
ATOM     18  O   UNL A   1      33.188  30.472  26.397  1.00  0.00    -0.458 OA
BRANCH  18  19
ATOM     19  C   UNL A   1      33.628  31.451  27.222  1.00  0.00     0.338 C 
ATOM     20  O   UNL A   1      33.113  32.542  27.405  1.00  0.00    -0.246 OA
BRANCH  19  21
ATOM     21  C   UNL A   1      34.909  31.031  27.824  1.00  0.00     0.060 A 
ATOM     22  C   UNL A   1      35.093  29.723  28.279  1.00  0.00     0.016 A 
ATOM     23  C   UNL A   1      35.915  31.981  27.997  1.00  0.00     0.016 A 
ATOM     24  C   UNL A   1      36.253  29.379  28.968  1.00  0.00     0.010 A 
ATOM     25  C   UNL A   1      37.111  31.614  28.617  1.00  0.00     0.010 A 
ATOM     26  C   UNL A   1      37.281  30.316  29.133  1.00  0.00    -0.014 A 
BRANCH  26  27
ATOM     27  C   UNL A   1      38.516  29.962  29.877  1.00  0.00     0.031 A 
ATOM     28  C   UNL A   1      39.501  28.996  29.273  1.00  0.00     0.074 A 
ATOM     29  C   UNL A   1      38.759  30.506  31.086  1.00  0.00     0.049 A 
ATOM     30  N   UNL A   1      40.542  28.427  29.824  1.00  0.00    -0.248 NA
ATOM     31  C   UNL A   1      39.281  28.616  27.869  1.00  0.00     0.031 C 
ATOM     32  C   UNL A   1      37.915  31.501  31.751  1.00  0.00     0.029 A 
ATOM     33  N   UNL A   1      39.788  30.301  31.970  1.00  0.00    -0.354 N 
ATOM     34  C   UNL A   1      41.084  27.601  28.846  1.00  0.00     0.074 A 
ATOM     35  C   UNL A   1      40.248  27.731  27.672  1.00  0.00     0.031 C 
ATOM     36  C   UNL A   1      38.473  31.837  32.924  1.00  0.00     0.029 A 
ATOM     37  C   UNL A   1      39.670  31.028  33.133  1.00  0.00     0.049 A 
ATOM     38  H   UNL A   1      40.540  29.692  31.791  1.00  0.00     0.167 HD
ATOM     39  C   UNL A   1      42.180  26.809  28.924  1.00  0.00     0.034 A 
ATOM     40  C   UNL A   1      40.415  31.016  34.256  1.00  0.00     0.034 A 
ATOM     41  C   UNL A   1      43.022  26.711  30.090  1.00  0.00     0.049 A 
ATOM     42  C   UNL A   1      41.583  30.071  34.345  1.00  0.00     0.074 A 
ATOM     43  C   UNL A   1      44.155  25.936  30.271  1.00  0.00     0.029 A 
ATOM     44  N   UNL A   1      42.830  27.417  31.269  1.00  0.00    -0.354 N 
ATOM     45  N   UNL A   1      42.034  29.231  33.443  1.00  0.00    -0.248 NA
ATOM     46  C   UNL A   1      42.330  30.056  35.610  1.00  0.00     0.031 C 
ATOM     47  C   UNL A   1      44.620  26.137  31.575  1.00  0.00     0.029 A 
ATOM     48  C   UNL A   1      43.812  27.081  32.187  1.00  0.00     0.049 A 
ATOM     49  H   UNL A   1      42.104  28.062  31.429  1.00  0.00     0.167 HD
ATOM     50  C   UNL A   1      43.124  28.596  34.028  1.00  0.00     0.074 A 
ATOM     51  C   UNL A   1      43.270  29.156  35.356  1.00  0.00     0.031 C 
ATOM     52  C   UNL A   1      43.931  27.637  33.513  1.00  0.00     0.034 A 
BRANCH  39  53
ATOM     53  C   UNL A   1      42.513  25.951  27.733  1.00  0.00     0.023 A 
ATOM     54  C   UNL A   1      42.032  24.638  27.609  1.00  0.00     0.031 A 
ATOM     55  C   UNL A   1      43.298  26.474  26.689  1.00  0.00     0.131 A 
ATOM     56  C   UNL A   1      42.368  23.878  26.478  1.00  0.00     0.055 A 
ATOM     57  C   UNL A   1      43.584  25.732  25.543  1.00  0.00     0.041 A 
ATOM     58  F   UNL A   1      43.796  27.718  26.767  1.00  0.00    -0.206 F 
ATOM     59  C   UNL A   1      43.121  24.424  25.434  1.00  0.00     0.022 A 
BRANCH  56  60
ATOM     60  S   UNL A   1      41.854  22.140  26.406  1.00  0.00     0.124 S 
ATOM     61  O   UNL A   1      42.649  21.644  25.286  1.00  0.00    -0.237 OA
ATOM     62  O   UNL A   1      42.228  21.640  27.725  1.00  0.00    -0.237 OA
ATOM     63  O   UNL A   1      40.416  22.219  26.157  1.00  0.00    -0.744 OA
ENDBRANCH  56  60
ENDBRANCH  39  53
BRANCH  40  64
ATOM     64  C   UNL A   1      40.043  31.880  35.410  1.00  0.00     0.023 A 
ATOM     65  C   UNL A   1      39.084  31.463  36.345  1.00  0.00     0.031 A 
ATOM     66  C   UNL A   1      40.635  33.144  35.585  1.00  0.00     0.131 A 
ATOM     67  C   UNL A   1      38.726  32.315  37.402  1.00  0.00     0.055 A 
ATOM     68  C   UNL A   1      40.306  33.969  36.661  1.00  0.00     0.041 A 
ATOM     69  F   UNL A   1      41.559  33.587  34.717  1.00  0.00    -0.206 F 
ATOM     70  C   UNL A   1      39.340  33.558  37.573  1.00  0.00     0.022 A 
BRANCH  67  71
ATOM     71  S   UNL A   1      37.407  31.792  38.533  1.00  0.00     0.124 S 
ATOM     72  O   UNL A   1      37.200  30.407  38.126  1.00  0.00    -0.237 OA
ATOM     73  O   UNL A   1      38.026  31.993  39.838  1.00  0.00    -0.237 OA
ATOM     74  O   UNL A   1      36.309  32.706  38.221  1.00  0.00    -0.744 OA
ENDBRANCH  67  71
ENDBRANCH  40  64
BRANCH  52  75
ATOM     75  C   UNL A   1      45.062  27.151  34.379  1.00  0.00     0.023 A 
ATOM     76  C   UNL A   1      44.892  26.075  35.266  1.00  0.00     0.031 A 
ATOM     77  C   UNL A   1      46.329  27.751  34.288  1.00  0.00     0.131 A 
ATOM     78  C   UNL A   1      45.971  25.648  36.053  1.00  0.00     0.055 A 
ATOM     79  C   UNL A   1      47.410  27.294  35.042  1.00  0.00     0.041 A 
ATOM     80  F   UNL A   1      46.538  28.780  33.451  1.00  0.00    -0.206 F 
ATOM     81  C   UNL A   1      47.233  26.241  35.935  1.00  0.00     0.022 A 
BRANCH  78  82
ATOM     82  S   UNL A   1      45.702  24.323  37.261  1.00  0.00     0.124 S 
ATOM     83  O   UNL A   1      44.534  24.810  37.988  1.00  0.00    -0.237 OA
ATOM     84  O   UNL A   1      45.481  23.159  36.410  1.00  0.00    -0.237 OA
ATOM     85  O   UNL A   1      46.945  24.300  38.029  1.00  0.00    -0.744 OA
ENDBRANCH  78  82
ENDBRANCH  52  75
ENDBRANCH  26  27
ENDBRANCH  19  21
ENDBRANCH  18  19
ENDBRANCH   1  18
TORSDOF 15
ENDMDL
MODEL 3
REMARK VINA RESULT:     -11.1      1.760      2.572
REMARK SMILES Cc1[nH]c(=O)n(C)c(=O)c1CC(=O)OCCOC(=O)c1ccc(-c2c3nc(c(-c4cc(S(=O)(=O)[O-])ccc4F)c4ccc([nH]4)c(-c4cc(S(=O)(=O)[O-])ccc4F)c4nc(c(-c5cc(S(=O)(=O)[O-])ccc5F)c5ccc2[nH]5)C=C4)C=C3)cc1
REMARK SMILES IDX 16 1 15 2 14 3 12 4 13 5 11 6 10 7 1 8 2 9 3 10 4 11 8 13
REMARK SMILES IDX 5 14 6 15 9 16 7 17 17 18 18 19 19 20 20 21 21 22 82 23
REMARK SMILES IDX 22 24 81 25 23 26 24 27 25 28 75 29 26 30 80 31 74 32 76 33
REMARK SMILES IDX 27 34 79 35 73 36 72 37 28 39 60 40 40 41 59 42 41 43 44 44
REMARK SMILES IDX 58 45 77 46 42 47 43 48 57 50 78 51 45 52 29 53 30 54 38 55
REMARK SMILES IDX 31 56 37 57 39 58 36 59 32 60 33 61 34 62 35 63 61 64 62 65
REMARK SMILES IDX 70 66 63 67 69 68 71 69 68 70 64 71 65 72 66 73 67 74 46 75
REMARK SMILES IDX 47 76 55 77 48 78 54 79 56 80 53 81 49 82 50 83 51 84 52 85
REMARK H PARENT 3 12 76 38 44 49
REMARK Flexibility Score: inf
ROOT
ATOM      1  C   UNL A   1      36.194  20.945  24.916  1.00  0.00     0.275 C 
ENDROOT
BRANCH   1   2
ATOM      2  C   UNL A   1      34.873  21.708  24.925  1.00  0.00     0.274 C 
BRANCH   2   3
ATOM      3  O   UNL A   1      34.838  22.644  26.023  1.00  0.00    -0.462 OA
BRANCH   3   4
ATOM      4  C   UNL A   1      33.882  23.610  25.943  1.00  0.00     0.310 C 
ATOM      5  O   UNL A   1      32.708  23.452  26.263  1.00  0.00    -0.252 OA
BRANCH   4   6
ATOM      6  C   UNL A   1      34.380  24.924  25.363  1.00  0.00     0.165 C 
BRANCH   6   7
ATOM      7  C   UNL A   1      33.402  25.643  24.476  1.00  0.00     0.048 A 
ATOM      8  C   UNL A   1      32.318  27.004  26.295  1.00  0.00     0.065 C 
ATOM      9  C   UNL A   1      32.512  26.565  24.872  1.00  0.00     0.026 A 
ATOM     10  N   UNL A   1      31.690  27.155  23.950  1.00  0.00    -0.311 N 
ATOM     11  C   UNL A   1      31.660  26.860  22.614  1.00  0.00     0.328 A 
ATOM     12  H   UNL A   1      31.071  27.849  24.273  1.00  0.00     0.171 HD
ATOM     13  C   UNL A   1      33.498  25.330  23.019  1.00  0.00     0.259 A 
ATOM     14  O   UNL A   1      30.850  27.436  21.889  1.00  0.00    -0.248 OA
ATOM     15  N   UNL A   1      32.565  25.912  22.185  1.00  0.00    -0.263 N 
ATOM     16  O   UNL A   1      34.397  24.587  22.632  1.00  0.00    -0.269 OA
ATOM     17  C   UNL A   1      32.577  25.579  20.774  1.00  0.00     0.158 C 
ENDBRANCH   6   7
ENDBRANCH   4   6
ENDBRANCH   3   4
ENDBRANCH   2   3
ENDBRANCH   1   2
BRANCH   1  18
ATOM     18  O   UNL A   1      37.013  21.407  25.999  1.00  0.00    -0.458 OA
BRANCH  18  19
ATOM     19  C   UNL A   1      38.350  21.279  25.822  1.00  0.00     0.338 C 
ATOM     20  O   UNL A   1      38.939  20.312  25.368  1.00  0.00    -0.246 OA
BRANCH  19  21
ATOM     21  C   UNL A   1      39.022  22.482  26.351  1.00  0.00     0.060 A 
ATOM     22  C   UNL A   1      38.493  23.756  26.127  1.00  0.00     0.016 A 
ATOM     23  C   UNL A   1      40.235  22.334  27.022  1.00  0.00     0.016 A 
ATOM     24  C   UNL A   1      39.208  24.887  26.512  1.00  0.00     0.010 A 
ATOM     25  C   UNL A   1      40.913  23.467  27.478  1.00  0.00     0.010 A 
ATOM     26  C   UNL A   1      40.419  24.755  27.204  1.00  0.00    -0.014 A 
BRANCH  26  27
ATOM     27  C   UNL A   1      41.195  25.956  27.607  1.00  0.00     0.031 A 
ATOM     28  C   UNL A   1      40.548  27.010  28.466  1.00  0.00     0.074 A 
ATOM     29  C   UNL A   1      42.474  26.101  27.211  1.00  0.00     0.049 A 
ATOM     30  N   UNL A   1      40.985  28.201  28.782  1.00  0.00    -0.248 NA
ATOM     31  C   UNL A   1      39.232  26.682  29.039  1.00  0.00     0.031 C 
ATOM     32  C   UNL A   1      43.235  25.123  26.430  1.00  0.00     0.029 A 
ATOM     33  N   UNL A   1      43.364  27.126  27.412  1.00  0.00    -0.354 N 
ATOM     34  C   UNL A   1      39.990  28.777  29.563  1.00  0.00     0.074 A 
ATOM     35  C   UNL A   1      38.918  27.810  29.662  1.00  0.00     0.031 C 
ATOM     36  C   UNL A   1      44.481  25.584  26.241  1.00  0.00     0.029 A 
ATOM     37  C   UNL A   1      44.587  26.921  26.817  1.00  0.00     0.049 A 
ATOM     38  H   UNL A   1      43.149  27.933  27.934  1.00  0.00     0.167 HD
ATOM     39  C   UNL A   1      39.977  30.000  30.145  1.00  0.00     0.034 A 
ATOM     40  C   UNL A   1      45.660  27.730  26.710  1.00  0.00     0.034 A 
ATOM     41  C   UNL A   1      41.065  30.943  30.064  1.00  0.00     0.049 A 
ATOM     42  C   UNL A   1      45.590  29.113  27.300  1.00  0.00     0.074 A 
ATOM     43  C   UNL A   1      41.148  32.209  30.617  1.00  0.00     0.029 A 
ATOM     44  N   UNL A   1      42.260  30.719  29.398  1.00  0.00    -0.354 N 
ATOM     45  N   UNL A   1      44.608  29.677  27.964  1.00  0.00    -0.248 NA
ATOM     46  C   UNL A   1      46.763  29.977  27.109  1.00  0.00     0.031 C 
ATOM     47  C   UNL A   1      42.374  32.770  30.244  1.00  0.00     0.029 A 
ATOM     48  C   UNL A   1      43.079  31.831  29.509  1.00  0.00     0.049 A 
ATOM     49  H   UNL A   1      42.493  29.892  28.917  1.00  0.00     0.167 HD
ATOM     50  C   UNL A   1      45.050  30.957  28.280  1.00  0.00     0.074 A 
ATOM     51  C   UNL A   1      46.390  31.081  27.743  1.00  0.00     0.031 C 
ATOM     52  C   UNL A   1      44.406  31.942  28.953  1.00  0.00     0.034 A 
BRANCH  39  53
ATOM     53  C   UNL A   1      38.733  30.411  30.887  1.00  0.00     0.023 A 
ATOM     54  C   UNL A   1      37.693  31.110  30.256  1.00  0.00     0.031 A 
ATOM     55  C   UNL A   1      38.578  30.064  32.242  1.00  0.00     0.131 A 
ATOM     56  C   UNL A   1      36.552  31.470  30.990  1.00  0.00     0.055 A 
ATOM     57  C   UNL A   1      37.418  30.377  32.951  1.00  0.00     0.041 A 
ATOM     58  F   UNL A   1      39.551  29.409  32.895  1.00  0.00    -0.206 F 
ATOM     59  C   UNL A   1      36.397  31.088  32.326  1.00  0.00     0.022 A 
BRANCH  56  60
ATOM     60  S   UNL A   1      35.285  32.495  30.193  1.00  0.00     0.124 S 
ATOM     61  O   UNL A   1      34.333  32.688  31.284  1.00  0.00    -0.237 OA
ATOM     62  O   UNL A   1      36.038  33.678  29.788  1.00  0.00    -0.237 OA
ATOM     63  O   UNL A   1      34.807  31.657  29.096  1.00  0.00    -0.744 OA
ENDBRANCH  56  60
ENDBRANCH  39  53
BRANCH  40  64
ATOM     64  C   UNL A   1      46.866  27.281  25.962  1.00  0.00     0.023 A 
ATOM     65  C   UNL A   1      47.087  27.685  24.637  1.00  0.00     0.031 A 
ATOM     66  C   UNL A   1      47.809  26.426  26.561  1.00  0.00     0.131 A 
ATOM     67  C   UNL A   1      48.213  27.214  23.944  1.00  0.00     0.055 A 
ATOM     68  C   UNL A   1      48.949  25.995  25.882  1.00  0.00     0.041 A 
ATOM     69  F   UNL A   1      47.642  26.012  27.828  1.00  0.00    -0.206 F 
ATOM     70  C   UNL A   1      49.152  26.384  24.562  1.00  0.00     0.022 A 
BRANCH  67  71
ATOM     71  S   UNL A   1      48.415  27.669  22.199  1.00  0.00     0.124 S 
ATOM     72  O   UNL A   1      49.624  28.485  22.244  1.00  0.00    -0.237 OA
ATOM     73  O   UNL A   1      48.544  26.367  21.557  1.00  0.00    -0.237 OA
ATOM     74  O   UNL A   1      47.183  28.393  21.892  1.00  0.00    -0.744 OA
ENDBRANCH  67  71
ENDBRANCH  40  64
BRANCH  52  75
ATOM     75  C   UNL A   1      45.152  33.230  29.169  1.00  0.00     0.023 A 
ATOM     76  C   UNL A   1      44.988  34.325  28.305  1.00  0.00     0.031 A 
ATOM     77  C   UNL A   1      46.012  33.371  30.273  1.00  0.00     0.131 A 
ATOM     78  C   UNL A   1      45.699  35.510  28.543  1.00  0.00     0.055 A 
ATOM     79  C   UNL A   1      46.682  34.567  30.528  1.00  0.00     0.041 A 
ATOM     80  F   UNL A   1      46.197  32.352  31.127  1.00  0.00    -0.206 F 
ATOM     81  C   UNL A   1      46.532  35.643  29.658  1.00  0.00     0.022 A 
BRANCH  78  82
ATOM     82  S   UNL A   1      45.544  36.874  27.358  1.00  0.00     0.124 S 
ATOM     83  O   UNL A   1      45.858  38.033  28.189  1.00  0.00    -0.237 OA
ATOM     84  O   UNL A   1      46.537  36.530  26.346  1.00  0.00    -0.237 OA
ATOM     85  O   UNL A   1      44.154  36.788  26.915  1.00  0.00    -0.744 OA
ENDBRANCH  78  82
ENDBRANCH  52  75
ENDBRANCH  26  27
ENDBRANCH  19  21
ENDBRANCH  18  19
ENDBRANCH   1  18
TORSDOF 15
ENDMDL
