MODEL 1
REMARK VINA RESULT:     -11.0      0.000      0.000
REMARK SMILES O=C(C[C@H]([NH2+]Cc1ccccc1C1CC1)c1cccs1)OCCOC(=O)c1ccc(-c2c3nc(c(-c4cc(S(=O)(=O)[O-])ccc4F)c4ccc([nH]4)c(-c4cc(S(=O)(=O)[O-])ccc4F)c4nc(c(-c5cc(S(=O)(=O)[O-])ccc5F)c5ccc2[nH]5)C=C4)C=C3)cc1
REMARK SMILES IDX 22 1 21 2 2 3 1 4 3 5 4 6 16 7 17 8 20 9 18 10 19 11 5 12
REMARK SMILES IDX 6 15 7 16 8 17 12 18 9 19 11 20 10 21 13 22 14 23 15 24
REMARK SMILES IDX 23 25 24 26 25 27 26 28 27 29 28 30 89 31 29 32 88 33 30 34
REMARK SMILES IDX 31 35 32 36 82 37 33 38 87 39 81 40 83 41 34 42 86 43 80 44
REMARK SMILES IDX 79 45 35 47 67 48 47 49 66 50 48 51 51 52 65 53 84 54 49 55
REMARK SMILES IDX 50 56 64 58 85 59 52 60 36 61 37 62 45 63 38 64 44 65 46 66
REMARK SMILES IDX 43 67 39 68 40 69 41 70 42 71 68 72 69 73 77 74 70 75 76 76
REMARK SMILES IDX 78 77 75 78 71 79 72 80 73 81 74 82 53 83 54 84 62 85 55 86
REMARK SMILES IDX 61 87 63 88 60 89 56 90 57 91 58 92 59 93
REMARK H PARENT 5 13 5 14 83 46 51 57
REMARK Flexibility Score: inf
ROOT
ATOM      1  C   UNL A   1      35.807  20.821  25.320  1.00  0.00     0.274 C 
ENDROOT
BRANCH   1   2
ATOM      2  O   UNL A   1      35.192  21.529  24.229  1.00  0.00    -0.462 OA
BRANCH   2   3
ATOM      3  C   UNL A   1      35.629  22.762  23.869  1.00  0.00     0.312 C 
ATOM      4  O   UNL A   1      36.281  22.926  22.841  1.00  0.00    -0.252 OA
BRANCH   3   5
ATOM      5  C   UNL A   1      35.389  23.895  24.831  1.00  0.00     0.193 C 
BRANCH   5   6
ATOM      6  C   UNL A   1      34.107  24.687  24.524  1.00  0.00     0.235 C 
BRANCH   6   7
ATOM      7  C   UNL A   1      32.903  23.986  25.145  1.00  0.00     0.062 A 
ATOM      8  C   UNL A   1      31.697  23.673  24.538  1.00  0.00     0.021 A 
ATOM      9  S   UNL A   1      32.918  23.451  26.778  1.00  0.00    -0.143 S 
ATOM     10  C   UNL A   1      30.778  23.040  25.417  1.00  0.00     0.012 A 
ATOM     11  C   UNL A   1      31.315  22.857  26.670  1.00  0.00     0.065 A 
ENDBRANCH   6   7
BRANCH   6  12
ATOM     12  N   UNL A   1      34.199  26.017  25.132  1.00  0.00    -0.335 N 
ATOM     13  H   UNL A   1      35.139  26.137  25.507  1.00  0.00     0.347 HD
ATOM     14  H   UNL A   1      33.485  26.067  25.860  1.00  0.00     0.347 HD
BRANCH  12  15
ATOM     15  C   UNL A   1      33.932  27.101  24.189  1.00  0.00     0.298 C 
BRANCH  15  16
ATOM     16  C   UNL A   1      33.303  28.259  24.926  1.00  0.00     0.010 A 
ATOM     17  C   UNL A   1      34.081  28.778  25.996  1.00  0.00     0.010 A 
ATOM     18  C   UNL A   1      31.993  28.754  24.698  1.00  0.00    -0.036 A 
ATOM     19  C   UNL A   1      33.598  29.762  26.848  1.00  0.00     0.001 A 
ATOM     20  C   UNL A   1      31.548  29.758  25.600  1.00  0.00     0.004 A 
ATOM     21  C   UNL A   1      32.323  30.253  26.651  1.00  0.00     0.000 A 
BRANCH  18  22
ATOM     22  C   UNL A   1      30.964  28.348  23.643  1.00  0.00     0.020 C 
ATOM     23  C   UNL A   1      30.876  27.118  22.788  1.00  0.00     0.009 C 
ATOM     24  C   UNL A   1      29.998  27.239  23.995  1.00  0.00     0.009 C 
ENDBRANCH  18  22
ENDBRANCH  15  16
ENDBRANCH  12  15
ENDBRANCH   6  12
ENDBRANCH   5   6
ENDBRANCH   3   5
ENDBRANCH   2   3
ENDBRANCH   1   2
BRANCH   1  25
ATOM     25  C   UNL A   1      37.151  20.192  24.952  1.00  0.00     0.275 C 
BRANCH  25  26
ATOM     26  O   UNL A   1      38.217  21.155  25.014  1.00  0.00    -0.458 OA
BRANCH  26  27
ATOM     27  C   UNL A   1      39.205  20.874  25.903  1.00  0.00     0.338 C 
ATOM     28  O   UNL A   1      39.764  19.798  26.039  1.00  0.00    -0.246 OA
BRANCH  27  29
ATOM     29  C   UNL A   1      39.661  22.128  26.555  1.00  0.00     0.060 A 
ATOM     30  C   UNL A   1      38.978  23.310  26.243  1.00  0.00     0.016 A 
ATOM     31  C   UNL A   1      40.700  22.151  27.493  1.00  0.00     0.016 A 
ATOM     32  C   UNL A   1      39.362  24.522  26.824  1.00  0.00     0.010 A 
ATOM     33  C   UNL A   1      41.075  23.363  28.086  1.00  0.00     0.010 A 
ATOM     34  C   UNL A   1      40.438  24.562  27.721  1.00  0.00    -0.014 A 
BRANCH  34  35
ATOM     35  C   UNL A   1      41.042  25.874  28.079  1.00  0.00     0.031 A 
ATOM     36  C   UNL A   1      42.440  26.162  27.595  1.00  0.00     0.074 A 
ATOM     37  C   UNL A   1      40.371  26.808  28.779  1.00  0.00     0.049 A 
ATOM     38  N   UNL A   1      43.173  27.236  27.743  1.00  0.00    -0.248 NA
ATOM     39  C   UNL A   1      43.103  25.076  26.857  1.00  0.00     0.031 C 
ATOM     40  C   UNL A   1      39.014  26.668  29.301  1.00  0.00     0.029 A 
ATOM     41  N   UNL A   1      40.753  28.070  29.169  1.00  0.00    -0.354 N 
ATOM     42  C   UNL A   1      44.383  26.954  27.114  1.00  0.00     0.074 A 
ATOM     43  C   UNL A   1      44.305  25.586  26.651  1.00  0.00     0.031 C 
ATOM     44  C   UNL A   1      38.671  27.805  29.934  1.00  0.00     0.029 A 
ATOM     45  C   UNL A   1      39.789  28.747  29.879  1.00  0.00     0.049 A 
ATOM     46  H   UNL A   1      41.635  28.454  28.957  1.00  0.00     0.167 HD
ATOM     47  C   UNL A   1      45.453  27.764  26.915  1.00  0.00     0.034 A 
ATOM     48  C   UNL A   1      39.811  29.983  30.420  1.00  0.00     0.034 A 
ATOM     49  C   UNL A   1      45.531  29.122  27.390  1.00  0.00     0.049 A 
ATOM     50  C   UNL A   1      41.040  30.851  30.248  1.00  0.00     0.074 A 
ATOM     51  C   UNL A   1      46.560  30.035  27.229  1.00  0.00     0.029 A 
ATOM     52  N   UNL A   1      44.547  29.762  28.133  1.00  0.00    -0.354 N 
ATOM     53  N   UNL A   1      42.161  30.588  29.616  1.00  0.00    -0.248 NA
ATOM     54  C   UNL A   1      40.994  32.189  30.854  1.00  0.00     0.031 C 
ATOM     55  C   UNL A   1      46.226  31.200  27.931  1.00  0.00     0.029 A 
ATOM     56  C   UNL A   1      44.957  31.044  28.463  1.00  0.00     0.049 A 
ATOM     57  H   UNL A   1      43.684  29.362  28.387  1.00  0.00     0.167 HD
ATOM     58  C   UNL A   1      42.932  31.747  29.710  1.00  0.00     0.074 A 
ATOM     59  C   UNL A   1      42.148  32.707  30.458  1.00  0.00     0.031 C 
ATOM     60  C   UNL A   1      44.168  31.999  29.209  1.00  0.00     0.034 A 
BRANCH  47  61
ATOM     61  C   UNL A   1      46.633  27.162  26.191  1.00  0.00     0.023 A 
ATOM     62  C   UNL A   1      47.655  26.489  26.884  1.00  0.00     0.031 A 
ATOM     63  C   UNL A   1      46.784  27.338  24.806  1.00  0.00     0.131 A 
ATOM     64  C   UNL A   1      48.828  26.116  26.213  1.00  0.00     0.055 A 
ATOM     65  C   UNL A   1      47.913  26.877  24.125  1.00  0.00     0.041 A 
ATOM     66  F   UNL A   1      45.854  27.994  24.094  1.00  0.00    -0.206 F 
ATOM     67  C   UNL A   1      48.954  26.282  24.832  1.00  0.00     0.022 A 
BRANCH  64  68
ATOM     68  S   UNL A   1      50.259  25.594  27.199  1.00  0.00     0.124 S 
ATOM     69  O   UNL A   1      49.801  24.308  27.722  1.00  0.00    -0.237 OA
ATOM     70  O   UNL A   1      51.324  25.538  26.205  1.00  0.00    -0.237 OA
ATOM     71  O   UNL A   1      50.390  26.651  28.199  1.00  0.00    -0.744 OA
ENDBRANCH  64  68
ENDBRANCH  47  61
BRANCH  48  72
ATOM     72  C   UNL A   1      38.639  30.498  31.186  1.00  0.00     0.023 A 
ATOM     73  C   UNL A   1      37.591  31.174  30.540  1.00  0.00     0.031 A 
ATOM     74  C   UNL A   1      38.589  30.387  32.586  1.00  0.00     0.131 A 
ATOM     75  C   UNL A   1      36.562  31.756  31.296  1.00  0.00     0.055 A 
ATOM     76  C   UNL A   1      37.539  30.927  33.331  1.00  0.00     0.041 A 
ATOM     77  F   UNL A   1      39.569  29.756  33.253  1.00  0.00    -0.206 F 
ATOM     78  C   UNL A   1      36.524  31.629  32.687  1.00  0.00     0.022 A 
BRANCH  75  79
ATOM     79  S   UNL A   1      35.310  32.754  30.443  1.00  0.00     0.124 S 
ATOM     80  O   UNL A   1      36.080  33.931  30.059  1.00  0.00    -0.237 OA
ATOM     81  O   UNL A   1      34.903  31.869  29.357  1.00  0.00    -0.237 OA
ATOM     82  O   UNL A   1      34.296  32.980  31.472  1.00  0.00    -0.744 OA
ENDBRANCH  75  79
ENDBRANCH  48  72
BRANCH  60  83
ATOM     83  C   UNL A   1      44.724  33.393  29.392  1.00  0.00     0.023 A 
ATOM     84  C   UNL A   1      44.412  34.446  28.516  1.00  0.00     0.031 A 
ATOM     85  C   UNL A   1      45.587  33.666  30.471  1.00  0.00     0.131 A 
ATOM     86  C   UNL A   1      44.999  35.709  28.702  1.00  0.00     0.055 A 
ATOM     87  C   UNL A   1      46.120  34.938  30.684  1.00  0.00     0.041 A 
ATOM     88  F   UNL A   1      45.920  32.699  31.341  1.00  0.00    -0.206 F 
ATOM     89  C   UNL A   1      45.838  35.964  29.790  1.00  0.00     0.022 A 
BRANCH  86  90
ATOM     90  S   UNL A   1      44.724  36.995  27.452  1.00  0.00     0.124 S 
ATOM     91  O   UNL A   1      44.484  38.176  28.275  1.00  0.00    -0.237 OA
ATOM     92  O   UNL A   1      45.979  36.980  26.708  1.00  0.00    -0.237 OA
ATOM     93  O   UNL A   1      43.561  36.510  26.710  1.00  0.00    -0.744 OA
ENDBRANCH  86  90
ENDBRANCH  60  83
ENDBRANCH  34  35
ENDBRANCH  27  29
ENDBRANCH  26  27
ENDBRANCH  25  26
ENDBRANCH   1  25
TORSDOF 20
ENDMDL
MODEL 2
REMARK VINA RESULT:     -10.9      1.833      2.964
REMARK SMILES O=C(C[C@H]([NH2+]Cc1ccccc1C1CC1)c1cccs1)OCCOC(=O)c1ccc(-c2c3nc(c(-c4cc(S(=O)(=O)[O-])ccc4F)c4ccc([nH]4)c(-c4cc(S(=O)(=O)[O-])ccc4F)c4nc(c(-c5cc(S(=O)(=O)[O-])ccc5F)c5ccc2[nH]5)C=C4)C=C3)cc1
REMARK SMILES IDX 22 1 21 2 2 3 1 4 3 5 4 6 16 7 17 8 20 9 18 10 19 11 5 12
REMARK SMILES IDX 6 15 7 16 8 17 12 18 9 19 11 20 10 21 13 22 14 23 15 24
REMARK SMILES IDX 23 25 24 26 25 27 26 28 27 29 28 30 89 31 29 32 88 33 30 34
REMARK SMILES IDX 31 35 32 36 82 37 33 38 87 39 81 40 83 41 34 42 86 43 80 44
REMARK SMILES IDX 79 45 35 47 67 48 47 49 66 50 48 51 51 52 65 53 84 54 49 55
REMARK SMILES IDX 50 56 64 58 85 59 52 60 36 61 37 62 45 63 38 64 44 65 46 66
REMARK SMILES IDX 43 67 39 68 40 69 41 70 42 71 68 72 69 73 77 74 70 75 76 76
REMARK SMILES IDX 78 77 75 78 71 79 72 80 73 81 74 82 53 83 54 84 62 85 55 86
REMARK SMILES IDX 61 87 63 88 60 89 56 90 57 91 58 92 59 93
REMARK H PARENT 5 13 5 14 83 46 51 57
REMARK Flexibility Score: inf
ROOT
ATOM      1  C   UNL A   1      36.091  21.149  25.283  1.00  0.00     0.274 C 
ENDROOT
BRANCH   1   2
ATOM      2  O   UNL A   1      35.469  21.635  24.080  1.00  0.00    -0.462 OA
BRANCH   2   3
ATOM      3  C   UNL A   1      35.760  22.871  23.601  1.00  0.00     0.312 C 
ATOM      4  O   UNL A   1      36.430  23.011  22.580  1.00  0.00    -0.252 OA
BRANCH   3   5
ATOM      5  C   UNL A   1      35.336  24.056  24.426  1.00  0.00     0.193 C 
BRANCH   5   6
ATOM      6  C   UNL A   1      33.871  24.460  24.194  1.00  0.00     0.235 C 
BRANCH   6   7
ATOM      7  C   UNL A   1      33.789  25.950  23.876  1.00  0.00     0.062 A 
ATOM      8  C   UNL A   1      33.797  27.010  24.768  1.00  0.00     0.021 A 
ATOM      9  S   UNL A   1      33.690  26.519  22.258  1.00  0.00    -0.143 S 
ATOM     10  C   UNL A   1      33.679  28.275  24.134  1.00  0.00     0.012 A 
ATOM     11  C   UNL A   1      33.613  28.153  22.765  1.00  0.00     0.065 A 
ENDBRANCH   6   7
BRANCH   6  12
ATOM     12  N   UNL A   1      33.343  23.737  23.034  1.00  0.00    -0.335 N 
ATOM     13  H   UNL A   1      34.049  23.073  22.718  1.00  0.00     0.347 HD
ATOM     14  H   UNL A   1      33.121  24.431  22.320  1.00  0.00     0.347 HD
BRANCH  12  15
ATOM     15  C   UNL A   1      32.112  23.004  23.324  1.00  0.00     0.298 C 
BRANCH  15  16
ATOM     16  C   UNL A   1      31.187  23.884  24.131  1.00  0.00     0.010 A 
ATOM     17  C   UNL A   1      30.584  24.943  23.399  1.00  0.00     0.010 A 
ATOM     18  C   UNL A   1      30.989  23.789  25.532  1.00  0.00    -0.036 A 
ATOM     19  C   UNL A   1      29.803  25.911  24.015  1.00  0.00     0.001 A 
ATOM     20  C   UNL A   1      30.183  24.806  26.111  1.00  0.00     0.004 A 
ATOM     21  C   UNL A   1      29.603  25.845  25.380  1.00  0.00     0.000 A 
BRANCH  18  22
ATOM     22  C   UNL A   1      31.541  22.772  26.531  1.00  0.00     0.020 C 
ATOM     23  C   UNL A   1      32.701  21.825  26.420  1.00  0.00     0.009 C 
ATOM     24  C   UNL A   1      32.857  23.092  27.203  1.00  0.00     0.009 C 
ENDBRANCH  18  22
ENDBRANCH  15  16
ENDBRANCH  12  15
ENDBRANCH   6  12
ENDBRANCH   5   6
ENDBRANCH   3   5
ENDBRANCH   2   3
ENDBRANCH   1   2
BRANCH   1  25
ATOM     25  C   UNL A   1      37.570  20.804  25.103  1.00  0.00     0.275 C 
BRANCH  25  26
ATOM     26  O   UNL A   1      38.407  21.954  25.309  1.00  0.00    -0.458 OA
BRANCH  26  27
ATOM     27  C   UNL A   1      39.477  21.756  26.122  1.00  0.00     0.338 C 
ATOM     28  O   UNL A   1      40.165  20.750  26.172  1.00  0.00    -0.246 OA
BRANCH  27  29
ATOM     29  C   UNL A   1      39.829  23.029  26.803  1.00  0.00     0.060 A 
ATOM     30  C   UNL A   1      39.018  24.145  26.558  1.00  0.00     0.016 A 
ATOM     31  C   UNL A   1      40.896  23.129  27.703  1.00  0.00     0.016 A 
ATOM     32  C   UNL A   1      39.299  25.369  27.169  1.00  0.00     0.010 A 
ATOM     33  C   UNL A   1      41.168  24.353  28.327  1.00  0.00     0.010 A 
ATOM     34  C   UNL A   1      40.399  25.491  28.028  1.00  0.00    -0.014 A 
BRANCH  34  35
ATOM     35  C   UNL A   1      40.880  26.846  28.412  1.00  0.00     0.031 A 
ATOM     36  C   UNL A   1      42.312  27.199  28.103  1.00  0.00     0.074 A 
ATOM     37  C   UNL A   1      40.074  27.760  28.984  1.00  0.00     0.049 A 
ATOM     38  N   UNL A   1      42.961  28.318  28.304  1.00  0.00    -0.248 NA
ATOM     39  C   UNL A   1      43.123  26.132  27.498  1.00  0.00     0.031 C 
ATOM     40  C   UNL A   1      38.669  27.558  29.331  1.00  0.00     0.029 A 
ATOM     41  N   UNL A   1      40.333  29.053  29.372  1.00  0.00    -0.354 N 
ATOM     42  C   UNL A   1      44.256  28.087  27.848  1.00  0.00     0.074 A 
ATOM     43  C   UNL A   1      44.313  26.704  27.430  1.00  0.00     0.031 C 
ATOM     44  C   UNL A   1      38.186  28.692  29.871  1.00  0.00     0.029 A 
ATOM     45  C   UNL A   1      39.250  29.695  29.926  1.00  0.00     0.049 A 
ATOM     46  H   UNL A   1      41.214  29.481  29.263  1.00  0.00     0.167 HD
ATOM     47  C   UNL A   1      45.298  28.952  27.759  1.00  0.00     0.034 A 
ATOM     48  C   UNL A   1      39.134  30.946  30.419  1.00  0.00     0.034 A 
ATOM     49  C   UNL A   1      45.241  30.326  28.189  1.00  0.00     0.049 A 
ATOM     50  C   UNL A   1      40.327  31.877  30.376  1.00  0.00     0.074 A 
ATOM     51  C   UNL A   1      46.232  31.291  28.129  1.00  0.00     0.029 A 
ATOM     52  N   UNL A   1      44.135  30.929  28.774  1.00  0.00    -0.354 N 
ATOM     53  N   UNL A   1      41.534  31.661  29.904  1.00  0.00    -0.248 NA
ATOM     54  C   UNL A   1      40.131  33.228  30.920  1.00  0.00     0.031 C 
ATOM     55  C   UNL A   1      45.747  32.456  28.738  1.00  0.00     0.029 A 
ATOM     56  C   UNL A   1      44.429  32.243  29.107  1.00  0.00     0.049 A 
ATOM     57  H   UNL A   1      43.269  30.488  28.930  1.00  0.00     0.167 HD
ATOM     58  C   UNL A   1      42.223  32.864  30.053  1.00  0.00     0.074 A 
ATOM     59  C   UNL A   1      41.298  33.800  30.657  1.00  0.00     0.031 C 
ATOM     60  C   UNL A   1      43.499  33.173  29.708  1.00  0.00     0.034 A 
BRANCH  47  61
ATOM     61  C   UNL A   1      46.594  28.397  27.217  1.00  0.00     0.023 A 
ATOM     62  C   UNL A   1      46.867  28.382  25.837  1.00  0.00     0.031 A 
ATOM     63  C   UNL A   1      47.527  27.797  28.079  1.00  0.00     0.131 A 
ATOM     64  C   UNL A   1      47.983  27.687  25.353  1.00  0.00     0.055 A 
ATOM     65  C   UNL A   1      48.688  27.189  27.597  1.00  0.00     0.041 A 
ATOM     66  F   UNL A   1      47.310  27.758  29.403  1.00  0.00    -0.206 F 
ATOM     67  C   UNL A   1      48.911  27.111  26.224  1.00  0.00     0.022 A 
BRANCH  64  68
ATOM     68  S   UNL A   1      48.099  27.375  23.569  1.00  0.00     0.124 S 
ATOM     69  O   UNL A   1      47.904  25.928  23.510  1.00  0.00    -0.237 OA
ATOM     70  O   UNL A   1      47.013  28.189  23.035  1.00  0.00    -0.237 OA
ATOM     71  O   UNL A   1      49.447  27.827  23.229  1.00  0.00    -0.744 OA
ENDBRANCH  64  68
ENDBRANCH  47  61
BRANCH  48  72
ATOM     72  C   UNL A   1      37.846  31.415  31.007  1.00  0.00     0.023 A 
ATOM     73  C   UNL A   1      36.885  32.068  30.219  1.00  0.00     0.031 A 
ATOM     74  C   UNL A   1      37.593  31.283  32.383  1.00  0.00     0.131 A 
ATOM     75  C   UNL A   1      35.738  32.609  30.819  1.00  0.00     0.055 A 
ATOM     76  C   UNL A   1      36.427  31.781  32.968  1.00  0.00     0.041 A 
ATOM     77  F   UNL A   1      38.482  30.672  33.182  1.00  0.00    -0.206 F 
ATOM     78  C   UNL A   1      35.498  32.461  32.188  1.00  0.00     0.022 A 
BRANCH  75  79
ATOM     79  S   UNL A   1      34.595  33.581  29.798  1.00  0.00     0.124 S 
ATOM     80  O   UNL A   1      33.932  32.541  29.023  1.00  0.00    -0.237 OA
ATOM     81  O   UNL A   1      33.780  34.250  30.807  1.00  0.00    -0.237 OA
ATOM     82  O   UNL A   1      35.482  34.459  29.036  1.00  0.00    -0.744 OA
ENDBRANCH  75  79
ENDBRANCH  48  72
BRANCH  60  83
ATOM     83  C   UNL A   1      43.952  34.601  29.909  1.00  0.00     0.023 A 
ATOM     84  C   UNL A   1      43.681  35.613  28.972  1.00  0.00     0.031 A 
ATOM     85  C   UNL A   1      44.670  34.951  31.068  1.00  0.00     0.131 A 
ATOM     86  C   UNL A   1      44.170  36.912  29.184  1.00  0.00     0.055 A 
ATOM     87  C   UNL A   1      45.103  36.257  31.301  1.00  0.00     0.041 A 
ATOM     88  F   UNL A   1      44.958  34.026  31.999  1.00  0.00    -0.206 F 
ATOM     89  C   UNL A   1      44.866  37.243  30.350  1.00  0.00     0.022 A 
BRANCH  86  90
ATOM     90  S   UNL A   1      43.966  38.149  27.872  1.00  0.00     0.124 S 
ATOM     91  O   UNL A   1      43.262  37.390  26.843  1.00  0.00    -0.237 OA
ATOM     92  O   UNL A   1      43.189  39.187  28.541  1.00  0.00    -0.237 OA
ATOM     93  O   UNL A   1      45.338  38.524  27.536  1.00  0.00    -0.744 OA
ENDBRANCH  86  90
ENDBRANCH  60  83
ENDBRANCH  34  35
ENDBRANCH  27  29
ENDBRANCH  26  27
ENDBRANCH  25  26
ENDBRANCH   1  25
TORSDOF 20
ENDMDL
MODEL 3
REMARK VINA RESULT:     -10.4      4.566     10.241
REMARK SMILES O=C(C[C@H]([NH2+]Cc1ccccc1C1CC1)c1cccs1)OCCOC(=O)c1ccc(-c2c3nc(c(-c4cc(S(=O)(=O)[O-])ccc4F)c4ccc([nH]4)c(-c4cc(S(=O)(=O)[O-])ccc4F)c4nc(c(-c5cc(S(=O)(=O)[O-])ccc5F)c5ccc2[nH]5)C=C4)C=C3)cc1
REMARK SMILES IDX 22 1 21 2 2 3 1 4 3 5 4 6 16 7 17 8 20 9 18 10 19 11 5 12
REMARK SMILES IDX 6 15 7 16 8 17 12 18 9 19 11 20 10 21 13 22 14 23 15 24
REMARK SMILES IDX 23 25 24 26 25 27 26 28 27 29 28 30 89 31 29 32 88 33 30 34
REMARK SMILES IDX 31 35 32 36 82 37 33 38 87 39 81 40 83 41 34 42 86 43 80 44
REMARK SMILES IDX 79 45 35 47 67 48 47 49 66 50 48 51 51 52 65 53 84 54 49 55
REMARK SMILES IDX 50 56 64 58 85 59 52 60 36 61 37 62 45 63 38 64 44 65 46 66
REMARK SMILES IDX 43 67 39 68 40 69 41 70 42 71 68 72 69 73 77 74 70 75 76 76
REMARK SMILES IDX 78 77 75 78 71 79 72 80 73 81 74 82 53 83 54 84 62 85 55 86
REMARK SMILES IDX 61 87 63 88 60 89 56 90 57 91 58 92 59 93
REMARK H PARENT 5 13 5 14 83 46 51 57
REMARK Flexibility Score: inf
ROOT
ATOM      1  C   UNL A   1      31.959  30.753  26.144  1.00  0.00     0.274 C 
ENDROOT
BRANCH   1   2
ATOM      2  O   UNL A   1      31.372  29.715  26.949  1.00  0.00    -0.462 OA
BRANCH   2   3
ATOM      3  C   UNL A   1      31.878  28.456  26.932  1.00  0.00     0.312 C 
ATOM      4  O   UNL A   1      31.800  27.731  27.921  1.00  0.00    -0.252 OA
BRANCH   3   5
ATOM      5  C   UNL A   1      32.641  28.027  25.708  1.00  0.00     0.193 C 
BRANCH   5   6
ATOM      6  C   UNL A   1      32.491  26.528  25.397  1.00  0.00     0.235 C 
BRANCH   6   7
ATOM      7  C   UNL A   1      32.388  26.320  23.889  1.00  0.00     0.062 A 
ATOM      8  C   UNL A   1      31.238  26.193  23.127  1.00  0.00     0.021 A 
ATOM      9  S   UNL A   1      33.787  26.230  22.896  1.00  0.00    -0.143 S 
ATOM     10  C   UNL A   1      31.502  25.982  21.748  1.00  0.00     0.012 A 
ATOM     11  C   UNL A   1      32.852  25.981  21.484  1.00  0.00     0.065 A 
ENDBRANCH   6   7
BRANCH   6  12
ATOM     12  N   UNL A   1      33.686  25.814  25.855  1.00  0.00    -0.335 N 
ATOM     13  H   UNL A   1      34.004  26.240  26.725  1.00  0.00     0.347 HD
ATOM     14  H   UNL A   1      34.384  25.886  25.115  1.00  0.00     0.347 HD
BRANCH  12  15
ATOM     15  C   UNL A   1      33.451  24.392  26.093  1.00  0.00     0.298 C 
BRANCH  15  16
ATOM     16  C   UNL A   1      34.556  23.589  25.447  1.00  0.00     0.010 A 
ATOM     17  C   UNL A   1      35.864  24.105  25.652  1.00  0.00     0.010 A 
ATOM     18  C   UNL A   1      34.360  22.475  24.592  1.00  0.00    -0.036 A 
ATOM     19  C   UNL A   1      36.977  23.557  25.029  1.00  0.00     0.001 A 
ATOM     20  C   UNL A   1      35.531  21.954  23.980  1.00  0.00     0.004 A 
ATOM     21  C   UNL A   1      36.810  22.477  24.186  1.00  0.00     0.000 A 
BRANCH  18  22
ATOM     22  C   UNL A   1      33.067  21.761  24.197  1.00  0.00     0.020 C 
ATOM     23  C   UNL A   1      32.780  20.302  23.994  1.00  0.00     0.009 C 
ATOM     24  C   UNL A   1      32.349  20.967  25.264  1.00  0.00     0.009 C 
ENDBRANCH  18  22
ENDBRANCH  15  16
ENDBRANCH  12  15
ENDBRANCH   6  12
ENDBRANCH   5   6
ENDBRANCH   3   5
ENDBRANCH   2   3
ENDBRANCH   1   2
BRANCH   1  25
ATOM     25  C   UNL A   1      31.689  32.160  26.680  1.00  0.00     0.275 C 
BRANCH  25  26
ATOM     26  O   UNL A   1      32.419  32.410  27.893  1.00  0.00    -0.458 OA
BRANCH  26  27
ATOM     27  C   UNL A   1      33.417  33.326  27.794  1.00  0.00     0.338 C 
ATOM     28  O   UNL A   1      33.278  34.519  27.581  1.00  0.00    -0.246 OA
BRANCH  27  29
ATOM     29  C   UNL A   1      34.706  32.705  28.191  1.00  0.00     0.060 A 
ATOM     30  C   UNL A   1      34.683  31.370  28.614  1.00  0.00     0.016 A 
ATOM     31  C   UNL A   1      35.925  33.387  28.108  1.00  0.00     0.016 A 
ATOM     32  C   UNL A   1      35.864  30.732  29.002  1.00  0.00     0.010 A 
ATOM     33  C   UNL A   1      37.111  32.743  28.482  1.00  0.00     0.010 A 
ATOM     34  C   UNL A   1      37.081  31.426  28.974  1.00  0.00    -0.014 A 
BRANCH  34  35
ATOM     35  C   UNL A   1      38.262  30.861  29.683  1.00  0.00     0.031 A 
ATOM     36  C   UNL A   1      38.486  31.271  31.116  1.00  0.00     0.074 A 
ATOM     37  C   UNL A   1      39.097  29.982  29.100  1.00  0.00     0.049 A 
ATOM     38  N   UNL A   1      39.415  30.897  31.958  1.00  0.00    -0.248 NA
ATOM     39  C   UNL A   1      37.537  32.252  31.662  1.00  0.00     0.031 C 
ATOM     40  C   UNL A   1      38.995  29.492  27.727  1.00  0.00     0.029 A 
ATOM     41  N   UNL A   1      40.204  29.340  29.604  1.00  0.00    -0.354 N 
ATOM     42  C   UNL A   1      39.159  31.596  33.134  1.00  0.00     0.074 A 
ATOM     43  C   UNL A   1      38.035  32.466  32.868  1.00  0.00     0.031 C 
ATOM     44  C   UNL A   1      39.992  28.617  27.501  1.00  0.00     0.029 A 
ATOM     45  C   UNL A   1      40.815  28.498  28.705  1.00  0.00     0.049 A 
ATOM     46  H   UNL A   1      40.528  29.471  30.525  1.00  0.00     0.167 HD
ATOM     47  C   UNL A   1      39.783  31.507  34.336  1.00  0.00     0.034 A 
ATOM     48  C   UNL A   1      41.911  27.722  28.842  1.00  0.00     0.034 A 
ATOM     49  C   UNL A   1      40.911  30.649  34.593  1.00  0.00     0.049 A 
ATOM     50  C   UNL A   1      42.638  27.686  30.169  1.00  0.00     0.074 A 
ATOM     51  C   UNL A   1      41.607  30.470  35.777  1.00  0.00     0.029 A 
ATOM     52  N   UNL A   1      41.522  29.835  33.648  1.00  0.00    -0.354 N 
ATOM     53  N   UNL A   1      42.362  28.321  31.286  1.00  0.00    -0.248 NA
ATOM     54  C   UNL A   1      43.819  26.814  30.253  1.00  0.00     0.031 C 
ATOM     55  C   UNL A   1      42.677  29.600  35.529  1.00  0.00     0.029 A 
ATOM     56  C   UNL A   1      42.602  29.175  34.212  1.00  0.00     0.049 A 
ATOM     57  H   UNL A   1      41.228  29.740  32.713  1.00  0.00     0.167 HD
ATOM     58  C   UNL A   1      43.306  27.885  32.215  1.00  0.00     0.074 A 
ATOM     59  C   UNL A   1      44.158  26.937  31.528  1.00  0.00     0.031 C 
ATOM     60  C   UNL A   1      43.447  28.227  33.522  1.00  0.00     0.034 A 
BRANCH  47  61
ATOM     61  C   UNL A   1      39.271  32.408  35.434  1.00  0.00     0.023 A 
ATOM     62  C   UNL A   1      39.683  33.749  35.537  1.00  0.00     0.031 A 
ATOM     63  C   UNL A   1      38.431  31.900  36.438  1.00  0.00     0.131 A 
ATOM     64  C   UNL A   1      39.347  34.499  36.672  1.00  0.00     0.055 A 
ATOM     65  C   UNL A   1      38.019  32.683  37.519  1.00  0.00     0.041 A 
ATOM     66  F   UNL A   1      38.023  30.621  36.407  1.00  0.00    -0.206 F 
ATOM     67  C   UNL A   1      38.496  33.984  37.653  1.00  0.00     0.022 A 
BRANCH  64  68
ATOM     68  S   UNL A   1      40.196  36.080  36.945  1.00  0.00     0.124 S 
ATOM     69  O   UNL A   1      39.977  36.755  35.667  1.00  0.00    -0.237 OA
ATOM     70  O   UNL A   1      39.478  36.630  38.089  1.00  0.00    -0.237 OA
ATOM     71  O   UNL A   1      41.579  35.687  37.203  1.00  0.00    -0.744 OA
ENDBRANCH  64  68
ENDBRANCH  47  61
BRANCH  48  72
ATOM     72  C   UNL A   1      42.412  26.906  27.698  1.00  0.00     0.023 A 
ATOM     73  C   UNL A   1      42.238  25.513  27.670  1.00  0.00     0.031 A 
ATOM     74  C   UNL A   1      43.139  27.501  26.652  1.00  0.00     0.131 A 
ATOM     75  C   UNL A   1      42.825  24.754  26.646  1.00  0.00     0.055 A 
ATOM     76  C   UNL A   1      43.681  26.747  25.610  1.00  0.00     0.041 A 
ATOM     77  F   UNL A   1      43.339  28.829  26.634  1.00  0.00    -0.206 F 
ATOM     78  C   UNL A   1      43.538  25.364  25.610  1.00  0.00     0.022 A 
BRANCH  75  79
ATOM     79  S   UNL A   1      42.713  22.945  26.727  1.00  0.00     0.124 S 
ATOM     80  O   UNL A   1      41.944  22.641  25.527  1.00  0.00    -0.237 OA
ATOM     81  O   UNL A   1      44.118  22.552  26.708  1.00  0.00    -0.237 OA
ATOM     82  O   UNL A   1      42.019  22.703  27.991  1.00  0.00    -0.744 OA
ENDBRANCH  75  79
ENDBRANCH  48  72
BRANCH  60  83
ATOM     83  C   UNL A   1      44.520  27.519  34.317  1.00  0.00     0.023 A 
ATOM     84  C   UNL A   1      44.252  26.369  35.080  1.00  0.00     0.031 A 
ATOM     85  C   UNL A   1      45.839  28.011  34.306  1.00  0.00     0.131 A 
ATOM     86  C   UNL A   1      45.275  25.782  35.842  1.00  0.00     0.055 A 
ATOM     87  C   UNL A   1      46.864  27.388  35.019  1.00  0.00     0.041 A 
ATOM     88  F   UNL A   1      46.154  29.106  33.595  1.00  0.00    -0.206 F 
ATOM     89  C   UNL A   1      46.583  26.275  35.804  1.00  0.00     0.022 A 
BRANCH  86  90
ATOM     90  S   UNL A   1      44.858  24.414  36.960  1.00  0.00     0.124 S 
ATOM     91  O   UNL A   1      43.681  24.931  37.650  1.00  0.00    -0.237 OA
ATOM     92  O   UNL A   1      44.621  23.314  36.031  1.00  0.00    -0.237 OA
ATOM     93  O   UNL A   1      46.053  24.273  37.791  1.00  0.00    -0.744 OA
ENDBRANCH  86  90
ENDBRANCH  60  83
ENDBRANCH  34  35
ENDBRANCH  27  29
ENDBRANCH  26  27
ENDBRANCH  25  26
ENDBRANCH   1  25
TORSDOF 20
ENDMDL
