MODEL 1
REMARK VINA RESULT:     -11.9      0.000      0.000
REMARK SMILES O=C(CC1(NC(=O)c2cc([N+](=O)[O-])ccc2F)CCC1)OCCOC(=O)c1ccc(-c2c3nc(c(-c4cc(S(=O)(=O)[O-])ccc4F)c4ccc([nH]4)c(-c4cc(S(=O)(=O)[O-])ccc4F)c4nc(c(-c5cc(S(=O)(=O)[O-])ccc5F)c5ccc2[nH]5)C=C4)C=C3)cc1
REMARK SMILES IDX 22 1 21 2 2 3 1 4 3 5 4 6 18 7 20 8 19 9 5 10 6 11 7 13 8 14
REMARK SMILES IDX 9 15 16 16 10 17 15 18 17 19 14 20 11 21 12 22 13 23 23 24
REMARK SMILES IDX 24 25 25 26 26 27 27 28 28 29 89 30 29 31 88 32 30 33 31 34
REMARK SMILES IDX 32 35 82 36 33 37 87 38 81 39 83 40 34 41 86 42 80 43 79 44
REMARK SMILES IDX 35 46 67 47 47 48 66 49 48 50 51 51 65 52 84 53 49 54 50 55
REMARK SMILES IDX 64 57 85 58 52 59 36 60 37 61 45 62 38 63 44 64 46 65 43 66
REMARK SMILES IDX 39 67 40 68 41 69 42 70 68 71 69 72 77 73 70 74 76 75 78 76
REMARK SMILES IDX 75 77 71 78 72 79 73 80 74 81 53 82 54 83 62 84 55 85 61 86
REMARK SMILES IDX 63 87 60 88 56 89 57 90 58 91 59 92
REMARK H PARENT 5 12 83 45 51 56
REMARK Flexibility Score: inf
ROOT
ATOM      1  C   UNL A   1      32.713  29.665  25.118  1.00  0.00     0.274 C 
ENDROOT
BRANCH   1   2
ATOM      2  O   UNL A   1      32.266  28.291  25.125  1.00  0.00    -0.462 OA
BRANCH   2   3
ATOM      3  C   UNL A   1      32.888  27.370  25.909  1.00  0.00     0.308 C 
ATOM      4  O   UNL A   1      32.499  27.143  27.047  1.00  0.00    -0.252 OA
BRANCH   3   5
ATOM      5  C   UNL A   1      34.118  26.749  25.295  1.00  0.00     0.151 C 
BRANCH   5   6
ATOM      6  C   UNL A   1      33.964  25.335  24.743  1.00  0.00     0.051 C 
ATOM      7  C   UNL A   1      35.116  24.394  25.244  1.00  0.00     0.029 C 
ATOM      8  C   UNL A   1      32.985  24.440  25.563  1.00  0.00     0.029 C 
ATOM      9  C   UNL A   1      34.180  23.832  26.317  1.00  0.00     0.005 C 
BRANCH   6  10
ATOM     10  N   UNL A   1      33.800  25.208  23.272  1.00  0.00    -0.346 N 
ATOM     11  C   UNL A   1      32.772  25.311  22.367  1.00  0.00     0.254 C 
ATOM     12  H   UNL A   1      34.653  24.995  22.830  1.00  0.00     0.164 HD
ATOM     13  O   UNL A   1      32.954  24.875  21.229  1.00  0.00    -0.269 OA
BRANCH  11  14
ATOM     14  C   UNL A   1      31.457  25.902  22.638  1.00  0.00     0.082 A 
ATOM     15  C   UNL A   1      31.260  27.262  22.349  1.00  0.00     0.102 A 
ATOM     16  C   UNL A   1      30.518  25.231  23.423  1.00  0.00     0.136 A 
ATOM     17  C   UNL A   1      30.090  27.902  22.792  1.00  0.00     0.270 A 
ATOM     18  C   UNL A   1      29.330  25.853  23.816  1.00  0.00     0.047 A 
ATOM     19  F   UNL A   1      30.742  23.983  23.847  1.00  0.00    -0.206 F 
ATOM     20  C   UNL A   1      29.107  27.193  23.497  1.00  0.00     0.088 A 
BRANCH  17  21
ATOM     21  N   UNL A   1      29.918  29.345  22.573  1.00  0.00     0.062 N 
ATOM     22  O   UNL A   1      29.578  30.031  23.545  1.00  0.00    -0.258 OA
ATOM     23  O   UNL A   1      30.098  29.773  21.427  1.00  0.00    -0.258 OA
ENDBRANCH  17  21
ENDBRANCH  11  14
ENDBRANCH   6  10
ENDBRANCH   5   6
ENDBRANCH   3   5
ENDBRANCH   2   3
ENDBRANCH   1   2
BRANCH   1  24
ATOM     24  C   UNL A   1      31.957  30.521  26.133  1.00  0.00     0.275 C 
BRANCH  24  25
ATOM     25  O   UNL A   1      32.670  30.585  27.388  1.00  0.00    -0.458 OA
BRANCH  25  26
ATOM     26  C   UNL A   1      33.459  31.675  27.534  1.00  0.00     0.338 C 
ATOM     27  O   UNL A   1      33.095  32.846  27.539  1.00  0.00    -0.246 OA
BRANCH  26  28
ATOM     28  C   UNL A   1      34.854  31.288  27.808  1.00  0.00     0.060 A 
ATOM     29  C   UNL A   1      35.111  29.954  28.129  1.00  0.00     0.016 A 
ATOM     30  C   UNL A   1      35.859  32.242  27.947  1.00  0.00     0.016 A 
ATOM     31  C   UNL A   1      36.347  29.567  28.647  1.00  0.00     0.010 A 
ATOM     32  C   UNL A   1      37.107  31.854  28.460  1.00  0.00     0.010 A 
ATOM     33  C   UNL A   1      37.346  30.522  28.856  1.00  0.00    -0.014 A 
BRANCH  33  34
ATOM     34  C   UNL A   1      38.552  30.172  29.657  1.00  0.00     0.031 A 
ATOM     35  C   UNL A   1      39.565  29.226  29.063  1.00  0.00     0.074 A 
ATOM     36  C   UNL A   1      38.801  30.731  30.857  1.00  0.00     0.049 A 
ATOM     37  N   UNL A   1      40.582  28.635  29.632  1.00  0.00    -0.248 NA
ATOM     38  C   UNL A   1      39.408  28.908  27.633  1.00  0.00     0.031 C 
ATOM     39  C   UNL A   1      37.986  31.760  31.502  1.00  0.00     0.029 A 
ATOM     40  N   UNL A   1      39.825  30.510  31.747  1.00  0.00    -0.354 N 
ATOM     41  C   UNL A   1      41.165  27.848  28.645  1.00  0.00     0.074 A 
ATOM     42  C   UNL A   1      40.389  28.038  27.439  1.00  0.00     0.031 C 
ATOM     43  C   UNL A   1      38.545  32.085  32.681  1.00  0.00     0.029 A 
ATOM     44  C   UNL A   1      39.715  31.237  32.911  1.00  0.00     0.049 A 
ATOM     45  H   UNL A   1      40.569  29.890  31.570  1.00  0.00     0.167 HD
ATOM     46  C   UNL A   1      42.247  27.038  28.736  1.00  0.00     0.034 A 
ATOM     47  C   UNL A   1      40.439  31.189  34.049  1.00  0.00     0.034 A 
ATOM     48  C   UNL A   1      43.044  26.882  29.923  1.00  0.00     0.049 A 
ATOM     49  C   UNL A   1      41.566  30.191  34.171  1.00  0.00     0.074 A 
ATOM     50  C   UNL A   1      44.148  26.069  30.117  1.00  0.00     0.029 A 
ATOM     51  N   UNL A   1      42.834  27.559  31.113  1.00  0.00    -0.354 N 
ATOM     52  N   UNL A   1      42.027  29.354  33.271  1.00  0.00    -0.248 NA
ATOM     53  C   UNL A   1      42.248  30.107  35.472  1.00  0.00     0.031 C 
ATOM     54  C   UNL A   1      44.575  26.219  31.439  1.00  0.00     0.029 A 
ATOM     55  C   UNL A   1      43.769  27.163  32.053  1.00  0.00     0.049 A 
ATOM     56  H   UNL A   1      42.124  28.224  31.266  1.00  0.00     0.167 HD
ATOM     57  C   UNL A   1      43.054  28.652  33.897  1.00  0.00     0.074 A 
ATOM     58  C   UNL A   1      43.155  29.165  35.246  1.00  0.00     0.031 C 
ATOM     59  C   UNL A   1      43.844  27.669  33.400  1.00  0.00     0.034 A 
BRANCH  46  60
ATOM     60  C   UNL A   1      42.594  26.202  27.536  1.00  0.00     0.023 A 
ATOM     61  C   UNL A   1      42.189  24.864  27.419  1.00  0.00     0.031 A 
ATOM     62  C   UNL A   1      43.326  26.776  26.481  1.00  0.00     0.131 A 
ATOM     63  C   UNL A   1      42.546  24.131  26.277  1.00  0.00     0.055 A 
ATOM     64  C   UNL A   1      43.631  26.058  25.325  1.00  0.00     0.041 A 
ATOM     65  F   UNL A   1      43.752  28.046  26.559  1.00  0.00    -0.206 F 
ATOM     66  C   UNL A   1      43.244  24.727  25.220  1.00  0.00     0.022 A 
BRANCH  63  67
ATOM     67  S   UNL A   1      42.138  22.366  26.203  1.00  0.00     0.124 S 
ATOM     68  O   UNL A   1      42.716  21.880  27.453  1.00  0.00    -0.237 OA
ATOM     69  O   UNL A   1      40.681  22.377  26.134  1.00  0.00    -0.237 OA
ATOM     70  O   UNL A   1      42.813  21.909  24.990  1.00  0.00    -0.744 OA
ENDBRANCH  63  67
ENDBRANCH  46  60
BRANCH  47  71
ATOM     71  C   UNL A   1      40.063  32.032  35.221  1.00  0.00     0.023 A 
ATOM     72  C   UNL A   1      39.141  31.579  36.178  1.00  0.00     0.031 A 
ATOM     73  C   UNL A   1      40.573  33.335  35.357  1.00  0.00     0.131 A 
ATOM     74  C   UNL A   1      38.734  32.438  37.212  1.00  0.00     0.055 A 
ATOM     75  C   UNL A   1      40.200  34.168  36.412  1.00  0.00     0.041 A 
ATOM     76  F   UNL A   1      41.450  33.818  34.461  1.00  0.00    -0.206 F 
ATOM     77  C   UNL A   1      39.267  33.723  37.343  1.00  0.00     0.022 A 
BRANCH  74  78
ATOM     78  S   UNL A   1      37.446  31.876  38.360  1.00  0.00     0.124 S 
ATOM     79  O   UNL A   1      36.387  32.848  38.113  1.00  0.00    -0.237 OA
ATOM     80  O   UNL A   1      37.194  30.516  37.894  1.00  0.00    -0.237 OA
ATOM     81  O   UNL A   1      38.091  31.972  39.668  1.00  0.00    -0.744 OA
ENDBRANCH  74  78
ENDBRANCH  47  71
BRANCH  59  82
ATOM     82  C   UNL A   1      44.896  27.090  34.305  1.00  0.00     0.023 A 
ATOM     83  C   UNL A   1      44.663  25.908  35.028  1.00  0.00     0.031 A 
ATOM     84  C   UNL A   1      46.164  27.690  34.391  1.00  0.00     0.131 A 
ATOM     85  C   UNL A   1      45.685  25.369  35.824  1.00  0.00     0.055 A 
ATOM     86  C   UNL A   1      47.187  27.130  35.157  1.00  0.00     0.041 A 
ATOM     87  F   UNL A   1      46.433  28.815  33.710  1.00  0.00    -0.206 F 
ATOM     88  C   UNL A   1      46.950  25.964  35.880  1.00  0.00     0.022 A 
BRANCH  85  89
ATOM     89  S   UNL A   1      45.347  23.870  36.789  1.00  0.00     0.124 S 
ATOM     90  O   UNL A   1      44.359  23.192  35.955  1.00  0.00    -0.237 OA
ATOM     91  O   UNL A   1      46.658  23.237  36.866  1.00  0.00    -0.237 OA
ATOM     92  O   UNL A   1      44.837  24.387  38.058  1.00  0.00    -0.744 OA
ENDBRANCH  85  89
ENDBRANCH  59  82
ENDBRANCH  33  34
ENDBRANCH  26  28
ENDBRANCH  25  26
ENDBRANCH  24  25
ENDBRANCH   1  24
TORSDOF 18
ENDMDL
MODEL 2
REMARK VINA RESULT:     -11.9      2.063      3.357
REMARK SMILES O=C(CC1(NC(=O)c2cc([N+](=O)[O-])ccc2F)CCC1)OCCOC(=O)c1ccc(-c2c3nc(c(-c4cc(S(=O)(=O)[O-])ccc4F)c4ccc([nH]4)c(-c4cc(S(=O)(=O)[O-])ccc4F)c4nc(c(-c5cc(S(=O)(=O)[O-])ccc5F)c5ccc2[nH]5)C=C4)C=C3)cc1
REMARK SMILES IDX 22 1 21 2 2 3 1 4 3 5 4 6 18 7 20 8 19 9 5 10 6 11 7 13 8 14
REMARK SMILES IDX 9 15 16 16 10 17 15 18 17 19 14 20 11 21 12 22 13 23 23 24
REMARK SMILES IDX 24 25 25 26 26 27 27 28 28 29 89 30 29 31 88 32 30 33 31 34
REMARK SMILES IDX 32 35 82 36 33 37 87 38 81 39 83 40 34 41 86 42 80 43 79 44
REMARK SMILES IDX 35 46 67 47 47 48 66 49 48 50 51 51 65 52 84 53 49 54 50 55
REMARK SMILES IDX 64 57 85 58 52 59 36 60 37 61 45 62 38 63 44 64 46 65 43 66
REMARK SMILES IDX 39 67 40 68 41 69 42 70 68 71 69 72 77 73 70 74 76 75 78 76
REMARK SMILES IDX 75 77 71 78 72 79 73 80 74 81 53 82 54 83 62 84 55 85 61 86
REMARK SMILES IDX 63 87 60 88 56 89 57 90 58 91 59 92
REMARK H PARENT 5 12 83 45 51 56
REMARK Flexibility Score: inf
ROOT
ATOM      1  C   UNL A   1      31.876  28.996  24.885  1.00  0.00     0.274 C 
ENDROOT
BRANCH   1   2
ATOM      2  O   UNL A   1      30.615  28.516  24.368  1.00  0.00    -0.462 OA
BRANCH   2   3
ATOM      3  C   UNL A   1      30.515  27.258  23.859  1.00  0.00     0.308 C 
ATOM      4  O   UNL A   1      30.448  27.070  22.651  1.00  0.00    -0.252 OA
BRANCH   3   5
ATOM      5  C   UNL A   1      30.402  26.168  24.894  1.00  0.00     0.151 C 
BRANCH   5   6
ATOM      6  C   UNL A   1      31.495  25.104  24.885  1.00  0.00     0.051 C 
ATOM      7  C   UNL A   1      32.423  25.221  26.146  1.00  0.00     0.029 C 
ATOM      8  C   UNL A   1      31.039  23.724  25.447  1.00  0.00     0.029 C 
ATOM      9  C   UNL A   1      31.642  24.087  26.815  1.00  0.00     0.005 C 
BRANCH   6  10
ATOM     10  N   UNL A   1      32.317  25.004  23.651  1.00  0.00    -0.346 N 
ATOM     11  C   UNL A   1      33.456  24.347  23.257  1.00  0.00     0.254 C 
ATOM     12  H   UNL A   1      31.945  25.553  22.923  1.00  0.00     0.164 HD
ATOM     13  O   UNL A   1      34.008  24.712  22.218  1.00  0.00    -0.269 OA
BRANCH  11  14
ATOM     14  C   UNL A   1      34.086  23.233  23.975  1.00  0.00     0.082 A 
ATOM     15  C   UNL A   1      33.507  21.957  23.873  1.00  0.00     0.102 A 
ATOM     16  C   UNL A   1      35.048  23.466  24.957  1.00  0.00     0.136 A 
ATOM     17  C   UNL A   1      33.958  20.923  24.712  1.00  0.00     0.270 A 
ATOM     18  C   UNL A   1      35.534  22.426  25.753  1.00  0.00     0.047 A 
ATOM     19  F   UNL A   1      35.512  24.699  25.187  1.00  0.00    -0.206 F 
ATOM     20  C   UNL A   1      34.994  21.145  25.630  1.00  0.00     0.088 A 
BRANCH  17  21
ATOM     21  N   UNL A   1      33.296  19.612  24.676  1.00  0.00     0.062 N 
ATOM     22  O   UNL A   1      33.965  18.648  24.282  1.00  0.00    -0.258 OA
ATOM     23  O   UNL A   1      32.108  19.564  25.017  1.00  0.00    -0.258 OA
ENDBRANCH  17  21
ENDBRANCH  11  14
ENDBRANCH   6  10
ENDBRANCH   5   6
ENDBRANCH   3   5
ENDBRANCH   2   3
ENDBRANCH   1   2
BRANCH   1  24
ATOM     24  C   UNL A   1      31.704  30.243  25.752  1.00  0.00     0.275 C 
BRANCH  24  25
ATOM     25  O   UNL A   1      32.522  30.164  26.940  1.00  0.00    -0.458 OA
BRANCH  25  26
ATOM     26  C   UNL A   1      33.171  31.308  27.257  1.00  0.00     0.338 C 
ATOM     27  O   UNL A   1      32.674  32.423  27.369  1.00  0.00    -0.246 OA
BRANCH  26  28
ATOM     28  C   UNL A   1      34.586  31.046  27.574  1.00  0.00     0.060 A 
ATOM     29  C   UNL A   1      34.972  29.723  27.796  1.00  0.00     0.016 A 
ATOM     30  C   UNL A   1      35.473  32.084  27.847  1.00  0.00     0.016 A 
ATOM     31  C   UNL A   1      36.216  29.423  28.348  1.00  0.00     0.010 A 
ATOM     32  C   UNL A   1      36.731  31.784  28.394  1.00  0.00     0.010 A 
ATOM     33  C   UNL A   1      37.095  30.455  28.691  1.00  0.00    -0.014 A 
BRANCH  33  34
ATOM     34  C   UNL A   1      38.294  30.162  29.524  1.00  0.00     0.031 A 
ATOM     35  C   UNL A   1      39.358  29.250  28.968  1.00  0.00     0.074 A 
ATOM     36  C   UNL A   1      38.491  30.746  30.722  1.00  0.00     0.049 A 
ATOM     37  N   UNL A   1      40.383  28.708  29.569  1.00  0.00    -0.248 NA
ATOM     38  C   UNL A   1      39.248  28.909  27.539  1.00  0.00     0.031 C 
ATOM     39  C   UNL A   1      37.621  31.750  31.334  1.00  0.00     0.029 A 
ATOM     40  N   UNL A   1      39.502  30.577  31.640  1.00  0.00    -0.354 N 
ATOM     41  C   UNL A   1      41.021  27.933  28.607  1.00  0.00     0.074 A 
ATOM     42  C   UNL A   1      40.268  28.076  27.380  1.00  0.00     0.031 C 
ATOM     43  C   UNL A   1      38.138  32.112  32.521  1.00  0.00     0.029 A 
ATOM     44  C   UNL A   1      39.334  31.314  32.791  1.00  0.00     0.049 A 
ATOM     45  H   UNL A   1      40.273  29.985  31.489  1.00  0.00     0.167 HD
ATOM     46  C   UNL A   1      42.131  27.167  28.734  1.00  0.00     0.034 A 
ATOM     47  C   UNL A   1      40.032  31.309  33.947  1.00  0.00     0.034 A 
ATOM     48  C   UNL A   1      42.904  27.057  29.942  1.00  0.00     0.049 A 
ATOM     49  C   UNL A   1      41.194  30.358  34.109  1.00  0.00     0.074 A 
ATOM     50  C   UNL A   1      44.035  26.292  30.173  1.00  0.00     0.029 A 
ATOM     51  N   UNL A   1      42.639  27.741  31.117  1.00  0.00    -0.354 N 
ATOM     52  N   UNL A   1      41.709  29.529  33.232  1.00  0.00    -0.248 NA
ATOM     53  C   UNL A   1      41.847  30.317  35.427  1.00  0.00     0.031 C 
ATOM     54  C   UNL A   1      44.423  26.474  31.503  1.00  0.00     0.029 A 
ATOM     55  C   UNL A   1      43.565  27.394  32.085  1.00  0.00     0.049 A 
ATOM     56  H   UNL A   1      41.900  28.378  31.245  1.00  0.00     0.167 HD
ATOM     57  C   UNL A   1      42.747  28.876  33.892  1.00  0.00     0.074 A 
ATOM     58  C   UNL A   1      42.796  29.409  35.236  1.00  0.00     0.031 C 
ATOM     59  C   UNL A   1      43.587  27.919  33.426  1.00  0.00     0.034 A 
BRANCH  46  60
ATOM     60  C   UNL A   1      42.540  26.331  27.555  1.00  0.00     0.023 A 
ATOM     61  C   UNL A   1      42.144  24.991  27.419  1.00  0.00     0.031 A 
ATOM     62  C   UNL A   1      43.323  26.905  26.537  1.00  0.00     0.131 A 
ATOM     63  C   UNL A   1      42.561  24.258  26.297  1.00  0.00     0.055 A 
ATOM     64  C   UNL A   1      43.687  26.187  25.399  1.00  0.00     0.041 A 
ATOM     65  F   UNL A   1      43.741  28.177  26.635  1.00  0.00    -0.206 F 
ATOM     66  C   UNL A   1      43.309  24.854  25.276  1.00  0.00     0.022 A 
BRANCH  63  67
ATOM     67  S   UNL A   1      42.161  22.492  26.205  1.00  0.00     0.124 S 
ATOM     68  O   UNL A   1      40.708  22.529  26.062  1.00  0.00    -0.237 OA
ATOM     69  O   UNL A   1      42.908  22.055  25.032  1.00  0.00    -0.237 OA
ATOM     70  O   UNL A   1      42.643  21.966  27.480  1.00  0.00    -0.744 OA
ENDBRANCH  63  67
ENDBRANCH  46  60
BRANCH  47  71
ATOM     71  C   UNL A   1      39.594  32.151  35.097  1.00  0.00     0.023 A 
ATOM     72  C   UNL A   1      40.096  33.449  35.283  1.00  0.00     0.031 A 
ATOM     73  C   UNL A   1      38.715  31.635  36.067  1.00  0.00     0.131 A 
ATOM     74  C   UNL A   1      39.739  34.175  36.431  1.00  0.00     0.055 A 
ATOM     75  C   UNL A   1      38.328  32.378  37.182  1.00  0.00     0.041 A 
ATOM     76  F   UNL A   1      38.216  30.395  35.939  1.00  0.00    -0.206 F 
ATOM     77  C   UNL A   1      38.849  33.653  37.374  1.00  0.00     0.022 A 
BRANCH  74  78
ATOM     78  S   UNL A   1      40.502  35.796  36.713  1.00  0.00     0.124 S 
ATOM     79  O   UNL A   1      40.301  35.971  38.147  1.00  0.00    -0.237 OA
ATOM     80  O   UNL A   1      41.876  35.567  36.278  1.00  0.00    -0.237 OA
ATOM     81  O   UNL A   1      39.724  36.691  35.858  1.00  0.00    -0.744 OA
ENDBRANCH  74  78
ENDBRANCH  47  71
BRANCH  59  82
ATOM     82  C   UNL A   1      44.639  27.393  34.364  1.00  0.00     0.023 A 
ATOM     83  C   UNL A   1      44.432  26.217  35.104  1.00  0.00     0.031 A 
ATOM     84  C   UNL A   1      45.884  28.039  34.466  1.00  0.00     0.131 A 
ATOM     85  C   UNL A   1      45.454  25.729  35.932  1.00  0.00     0.055 A 
ATOM     86  C   UNL A   1      46.909  27.530  35.263  1.00  0.00     0.041 A 
ATOM     87  F   UNL A   1      46.128  29.160  33.770  1.00  0.00    -0.206 F 
ATOM     88  C   UNL A   1      46.696  26.368  36.003  1.00  0.00     0.022 A 
BRANCH  85  89
ATOM     89  S   UNL A   1      45.148  24.237  36.916  1.00  0.00     0.124 S 
ATOM     90  O   UNL A   1      46.503  23.816  37.257  1.00  0.00    -0.237 OA
ATOM     91  O   UNL A   1      44.341  24.743  38.021  1.00  0.00    -0.237 OA
ATOM     92  O   UNL A   1      44.439  23.354  35.990  1.00  0.00    -0.744 OA
ENDBRANCH  85  89
ENDBRANCH  59  82
ENDBRANCH  33  34
ENDBRANCH  26  28
ENDBRANCH  25  26
ENDBRANCH  24  25
ENDBRANCH   1  24
TORSDOF 18
ENDMDL
MODEL 3
REMARK VINA RESULT:     -11.8      1.481      3.057
REMARK SMILES O=C(CC1(NC(=O)c2cc([N+](=O)[O-])ccc2F)CCC1)OCCOC(=O)c1ccc(-c2c3nc(c(-c4cc(S(=O)(=O)[O-])ccc4F)c4ccc([nH]4)c(-c4cc(S(=O)(=O)[O-])ccc4F)c4nc(c(-c5cc(S(=O)(=O)[O-])ccc5F)c5ccc2[nH]5)C=C4)C=C3)cc1
REMARK SMILES IDX 22 1 21 2 2 3 1 4 3 5 4 6 18 7 20 8 19 9 5 10 6 11 7 13 8 14
REMARK SMILES IDX 9 15 16 16 10 17 15 18 17 19 14 20 11 21 12 22 13 23 23 24
REMARK SMILES IDX 24 25 25 26 26 27 27 28 28 29 89 30 29 31 88 32 30 33 31 34
REMARK SMILES IDX 32 35 82 36 33 37 87 38 81 39 83 40 34 41 86 42 80 43 79 44
REMARK SMILES IDX 35 46 67 47 47 48 66 49 48 50 51 51 65 52 84 53 49 54 50 55
REMARK SMILES IDX 64 57 85 58 52 59 36 60 37 61 45 62 38 63 44 64 46 65 43 66
REMARK SMILES IDX 39 67 40 68 41 69 42 70 68 71 69 72 77 73 70 74 76 75 78 76
REMARK SMILES IDX 75 77 71 78 72 79 73 80 74 81 53 82 54 83 62 84 55 85 61 86
REMARK SMILES IDX 63 87 60 88 56 89 57 90 58 91 59 92
REMARK H PARENT 5 12 83 45 51 56
REMARK Flexibility Score: inf
ROOT
ATOM      1  C   UNL A   1      32.187  29.494  25.039  1.00  0.00     0.274 C 
ENDROOT
BRANCH   1   2
ATOM      2  O   UNL A   1      32.521  28.223  25.639  1.00  0.00    -0.462 OA
BRANCH   2   3
ATOM      3  C   UNL A   1      31.541  27.337  25.962  1.00  0.00     0.308 C 
ATOM      4  O   UNL A   1      31.095  27.276  27.101  1.00  0.00    -0.252 OA
BRANCH   3   5
ATOM      5  C   UNL A   1      31.142  26.406  24.846  1.00  0.00     0.151 C 
BRANCH   5   6
ATOM      6  C   UNL A   1      31.674  24.978  24.927  1.00  0.00     0.051 C 
ATOM      7  C   UNL A   1      30.940  24.031  23.913  1.00  0.00     0.029 C 
ATOM      8  C   UNL A   1      32.968  24.737  24.092  1.00  0.00     0.029 C 
ATOM      9  C   UNL A   1      32.116  24.171  22.943  1.00  0.00     0.005 C 
BRANCH   6  10
ATOM     10  N   UNL A   1      31.710  24.356  26.276  1.00  0.00    -0.346 N 
ATOM     11  C   UNL A   1      32.238  23.223  26.843  1.00  0.00     0.254 C 
ATOM     12  H   UNL A   1      31.226  24.902  26.938  1.00  0.00     0.164 HD
ATOM     13  O   UNL A   1      31.838  22.891  27.960  1.00  0.00    -0.269 OA
BRANCH  11  14
ATOM     14  C   UNL A   1      33.252  22.359  26.228  1.00  0.00     0.082 A 
ATOM     15  C   UNL A   1      34.594  22.771  26.260  1.00  0.00     0.102 A 
ATOM     16  C   UNL A   1      32.883  21.311  25.384  1.00  0.00     0.136 A 
ATOM     17  C   UNL A   1      35.551  22.077  25.501  1.00  0.00     0.270 A 
ATOM     18  C   UNL A   1      33.842  20.587  24.671  1.00  0.00     0.047 A 
ATOM     19  F   UNL A   1      31.598  20.988  25.210  1.00  0.00    -0.206 F 
ATOM     20  C   UNL A   1      35.184  20.964  24.731  1.00  0.00     0.088 A 
BRANCH  17  21
ATOM     21  N   UNL A   1      36.939  22.556  25.457  1.00  0.00     0.062 N 
ATOM     22  O   UNL A   1      37.306  23.320  26.358  1.00  0.00    -0.258 OA
ATOM     23  O   UNL A   1      37.640  22.187  24.507  1.00  0.00    -0.258 OA
ENDBRANCH  17  21
ENDBRANCH  11  14
ENDBRANCH   6  10
ENDBRANCH   5   6
ENDBRANCH   3   5
ENDBRANCH   2   3
ENDBRANCH   1   2
BRANCH   1  24
ATOM     24  C   UNL A   1      31.833  30.549  26.087  1.00  0.00     0.275 C 
BRANCH  24  25
ATOM     25  O   UNL A   1      32.704  30.449  27.236  1.00  0.00    -0.458 OA
BRANCH  25  26
ATOM     26  C   UNL A   1      33.442  31.556  27.483  1.00  0.00     0.338 C 
ATOM     27  O   UNL A   1      33.028  32.707  27.566  1.00  0.00    -0.246 OA
BRANCH  26  28
ATOM     28  C   UNL A   1      34.846  31.207  27.762  1.00  0.00     0.060 A 
ATOM     29  C   UNL A   1      35.145  29.871  28.037  1.00  0.00     0.016 A 
ATOM     30  C   UNL A   1      35.815  32.189  27.952  1.00  0.00     0.016 A 
ATOM     31  C   UNL A   1      36.386  29.508  28.559  1.00  0.00     0.010 A 
ATOM     32  C   UNL A   1      37.069  31.825  28.469  1.00  0.00     0.010 A 
ATOM     33  C   UNL A   1      37.348  30.488  28.818  1.00  0.00    -0.014 A 
BRANCH  33  34
ATOM     34  C   UNL A   1      38.555  30.149  29.623  1.00  0.00     0.031 A 
ATOM     35  C   UNL A   1      39.573  29.204  29.037  1.00  0.00     0.074 A 
ATOM     36  C   UNL A   1      38.799  30.717  30.820  1.00  0.00     0.049 A 
ATOM     37  N   UNL A   1      40.593  28.622  29.611  1.00  0.00    -0.248 NA
ATOM     38  C   UNL A   1      39.420  28.877  27.609  1.00  0.00     0.031 C 
ATOM     39  C   UNL A   1      37.978  31.746  31.457  1.00  0.00     0.029 A 
ATOM     40  N   UNL A   1      39.823  30.507  31.713  1.00  0.00    -0.354 N 
ATOM     41  C   UNL A   1      41.182  27.832  28.630  1.00  0.00     0.074 A 
ATOM     42  C   UNL A   1      40.406  28.010  27.421  1.00  0.00     0.031 C 
ATOM     43  C   UNL A   1      38.534  32.081  32.634  1.00  0.00     0.029 A 
ATOM     44  C   UNL A   1      39.708  31.241  32.872  1.00  0.00     0.049 A 
ATOM     45  H   UNL A   1      40.570  29.889  31.540  1.00  0.00     0.167 HD
ATOM     46  C   UNL A   1      42.267  27.028  28.728  1.00  0.00     0.034 A 
ATOM     47  C   UNL A   1      40.431  31.204  34.012  1.00  0.00     0.034 A 
ATOM     48  C   UNL A   1      43.063  26.883  29.917  1.00  0.00     0.049 A 
ATOM     49  C   UNL A   1      41.563  30.213  34.141  1.00  0.00     0.074 A 
ATOM     50  C   UNL A   1      44.171  26.078  30.118  1.00  0.00     0.029 A 
ATOM     51  N   UNL A   1      42.848  27.567  31.102  1.00  0.00    -0.354 N 
ATOM     52  N   UNL A   1      42.029  29.372  33.247  1.00  0.00    -0.248 NA
ATOM     53  C   UNL A   1      42.243  30.141  35.444  1.00  0.00     0.031 C 
ATOM     54  C   UNL A   1      44.595  26.238  31.440  1.00  0.00     0.029 A 
ATOM     55  C   UNL A   1      43.783  27.182  32.046  1.00  0.00     0.049 A 
ATOM     56  H   UNL A   1      42.134  28.229  31.250  1.00  0.00     0.167 HD
ATOM     57  C   UNL A   1      43.058  28.679  33.880  1.00  0.00     0.074 A 
ATOM     58  C   UNL A   1      43.155  29.202  35.225  1.00  0.00     0.031 C 
ATOM     59  C   UNL A   1      43.854  27.697  33.390  1.00  0.00     0.034 A 
BRANCH  46  60
ATOM     60  C   UNL A   1      42.620  26.186  27.534  1.00  0.00     0.023 A 
ATOM     61  C   UNL A   1      42.203  24.851  27.415  1.00  0.00     0.031 A 
ATOM     62  C   UNL A   1      43.370  26.750  26.486  1.00  0.00     0.131 A 
ATOM     63  C   UNL A   1      42.567  24.113  26.278  1.00  0.00     0.055 A 
ATOM     64  C   UNL A   1      43.682  26.027  25.336  1.00  0.00     0.041 A 
ATOM     65  F   UNL A   1      43.808  28.016  26.567  1.00  0.00    -0.206 F 
ATOM     66  C   UNL A   1      43.283  24.699  25.229  1.00  0.00     0.022 A 
BRANCH  63  67
ATOM     67  S   UNL A   1      42.142  22.352  26.203  1.00  0.00     0.124 S 
ATOM     68  O   UNL A   1      40.684  22.406  26.138  1.00  0.00    -0.237 OA
ATOM     69  O   UNL A   1      42.821  21.910  24.991  1.00  0.00    -0.237 OA
ATOM     70  O   UNL A   1      42.685  21.816  27.450  1.00  0.00    -0.744 OA
ENDBRANCH  63  67
ENDBRANCH  46  60
BRANCH  47  71
ATOM     71  C   UNL A   1      40.048  32.053  35.177  1.00  0.00     0.023 A 
ATOM     72  C   UNL A   1      39.147  31.591  36.149  1.00  0.00     0.031 A 
ATOM     73  C   UNL A   1      40.532  33.368  35.292  1.00  0.00     0.131 A 
ATOM     74  C   UNL A   1      38.732  32.453  37.178  1.00  0.00     0.055 A 
ATOM     75  C   UNL A   1      40.152  34.205  36.341  1.00  0.00     0.041 A 
ATOM     76  F   UNL A   1      41.388  33.859  34.382  1.00  0.00    -0.206 F 
ATOM     77  C   UNL A   1      39.238  33.751  37.287  1.00  0.00     0.022 A 
BRANCH  74  78
ATOM     78  S   UNL A   1      37.468  31.878  38.345  1.00  0.00     0.124 S 
ATOM     79  O   UNL A   1      38.155  32.033  39.623  1.00  0.00    -0.237 OA
ATOM     80  O   UNL A   1      36.370  32.802  38.087  1.00  0.00    -0.237 OA
ATOM     81  O   UNL A   1      37.226  30.497  37.929  1.00  0.00    -0.744 OA
ENDBRANCH  74  78
ENDBRANCH  47  71
BRANCH  59  82
ATOM     82  C   UNL A   1      44.908  27.129  34.300  1.00  0.00     0.023 A 
ATOM     83  C   UNL A   1      44.721  25.898  34.950  1.00  0.00     0.031 A 
ATOM     84  C   UNL A   1      46.135  27.794  34.464  1.00  0.00     0.131 A 
ATOM     85  C   UNL A   1      45.745  25.375  35.753  1.00  0.00     0.055 A 
ATOM     86  C   UNL A   1      47.163  27.252  35.235  1.00  0.00     0.041 A 
ATOM     87  F   UNL A   1      46.360  28.969  33.854  1.00  0.00    -0.206 F 
ATOM     88  C   UNL A   1      46.970  26.035  35.887  1.00  0.00     0.022 A 
BRANCH  85  89
ATOM     89  S   UNL A   1      45.464  23.808  36.624  1.00  0.00     0.124 S 
ATOM     90  O   UNL A   1      44.286  23.287  35.935  1.00  0.00    -0.237 OA
ATOM     91  O   UNL A   1      46.709  23.085  36.392  1.00  0.00    -0.237 OA
ATOM     92  O   UNL A   1      45.240  24.221  38.009  1.00  0.00    -0.744 OA
ENDBRANCH  85  89
ENDBRANCH  59  82
ENDBRANCH  33  34
ENDBRANCH  26  28
ENDBRANCH  25  26
ENDBRANCH  24  25
ENDBRANCH   1  24
TORSDOF 18
ENDMDL
