MODEL 1
REMARK VINA RESULT:     -12.7      0.000      0.000
REMARK SMILES CC1=C(C)C[C@@H](C(=O)OCCOC(=O)c2ccc(-c3c4nc(c(-c5cc(S(=O)(=O)[O-])ccc5F)c5ccc([nH]5)c(-c5cc(S(=O)(=O)[O-])ccc5F)c5nc(c(-c6cc(S(=O)(=O)[O-])ccc6F)c6ccc3[nH]6)C=C5)C=C4)cc2)[C@@H](C(=O)N2CCN(c3cccc(C(F)(F)F)c3)CC2)C1
REMARK SMILES IDX 10 1 9 2 7 3 8 4 6 5 1 6 2 7 3 8 97 9 4 10 5 11 78 12 79 13
REMARK SMILES IDX 80 14 81 15 82 16 96 17 83 18 95 19 84 20 85 21 86 22 94 23
REMARK SMILES IDX 87 24 89 25 88 26 90 27 91 28 92 29 93 30 11 31 12 32 13 33
REMARK SMILES IDX 14 34 15 35 16 36 77 37 17 38 76 39 18 40 19 41 20 42 70 43
REMARK SMILES IDX 21 44 75 45 69 46 71 47 22 48 74 49 68 50 67 51 23 53 55 54
REMARK SMILES IDX 35 55 54 56 36 57 39 58 53 59 72 60 37 61 38 62 52 64 73 65
REMARK SMILES IDX 40 66 24 67 25 68 33 69 26 70 32 71 34 72 31 73 27 74 28 75
REMARK SMILES IDX 29 76 30 77 56 78 57 79 65 80 58 81 64 82 66 83 63 84 59 85
REMARK SMILES IDX 60 86 61 87 62 88 41 89 42 90 50 91 43 92 49 93 51 94 48 95
REMARK SMILES IDX 44 96 45 97 46 98 47 99
REMARK H PARENT 71 52 39 63
REMARK Flexibility Score: inf
ROOT
ATOM      1  C   UNL A   1      37.060  21.996  24.341  1.00  0.00     0.274 C 
ENDROOT
BRANCH   1   2
ATOM      2  O   UNL A   1      35.650  21.710  24.203  1.00  0.00    -0.462 OA
BRANCH   2   3
ATOM      3  C   UNL A   1      34.902  21.896  25.307  1.00  0.00     0.310 C 
ATOM      4  O   UNL A   1      35.272  22.596  26.251  1.00  0.00    -0.252 OA
BRANCH   3   5
ATOM      5  C   UNL A   1      33.528  21.230  25.338  1.00  0.00     0.116 C 
ATOM      6  C   UNL A   1      32.371  18.334  22.226  1.00  0.00     0.039 C 
ATOM      7  C   UNL A   1      32.672  19.134  23.461  1.00  0.00    -0.074 C 
ATOM      8  C   UNL A   1      33.612  18.846  24.381  1.00  0.00    -0.073 C 
ATOM      9  C   UNL A   1      31.748  20.310  23.681  1.00  0.00     0.045 C 
ATOM     10  C   UNL A   1      34.519  17.646  24.379  1.00  0.00     0.039 C 
ATOM     11  C   UNL A   1      33.742  19.724  25.598  1.00  0.00     0.046 C 
ATOM     12  C   UNL A   1      32.365  21.549  24.375  1.00  0.00     0.097 C 
BRANCH  12  13
ATOM     13  C   UNL A   1      32.567  22.599  23.281  1.00  0.00     0.227 C 
ATOM     14  O   UNL A   1      32.833  22.234  22.130  1.00  0.00    -0.275 OA
ATOM     15  N   UNL A   1      32.235  23.923  23.558  1.00  0.00    -0.339 N 
ATOM     16  C   UNL A   1      32.159  24.861  22.429  1.00  0.00     0.141 C 
ATOM     17  C   UNL A   1      32.239  24.595  24.882  1.00  0.00     0.141 C 
ATOM     18  C   UNL A   1      30.987  25.849  22.576  1.00  0.00     0.138 C 
ATOM     19  C   UNL A   1      31.113  25.636  25.053  1.00  0.00     0.138 C 
ATOM     20  N   UNL A   1      31.074  26.511  23.876  1.00  0.00    -0.368 N 
BRANCH  20  21
ATOM     21  C   UNL A   1      30.828  27.858  24.001  1.00  0.00     0.037 A 
ATOM     22  C   UNL A   1      31.611  28.677  24.818  1.00  0.00     0.026 A 
ATOM     23  C   UNL A   1      29.731  28.430  23.345  1.00  0.00     0.039 A 
ATOM     24  C   UNL A   1      31.308  30.030  24.984  1.00  0.00     0.003 A 
ATOM     25  C   UNL A   1      29.389  29.781  23.525  1.00  0.00     0.058 A 
ATOM     26  C   UNL A   1      30.196  30.578  24.348  1.00  0.00     0.013 A 
BRANCH  25  27
ATOM     27  C   UNL A   1      28.143  30.355  22.904  1.00  0.00     0.416 C 
ATOM     28  F   UNL A   1      28.409  30.979  21.718  1.00  0.00    -0.166 F 
ATOM     29  F   UNL A   1      27.203  29.414  22.616  1.00  0.00    -0.166 F 
ATOM     30  F   UNL A   1      27.519  31.291  23.674  1.00  0.00    -0.166 F 
ENDBRANCH  25  27
ENDBRANCH  20  21
ENDBRANCH  12  13
ENDBRANCH   3   5
ENDBRANCH   2   3
ENDBRANCH   1   2
BRANCH   1  31
ATOM     31  C   UNL A   1      37.857  20.811  24.901  1.00  0.00     0.275 C 
BRANCH  31  32
ATOM     32  O   UNL A   1      38.258  20.999  26.274  1.00  0.00    -0.458 OA
BRANCH  32  33
ATOM     33  C   UNL A   1      39.591  21.085  26.432  1.00  0.00     0.338 C 
ATOM     34  O   UNL A   1      40.414  20.224  26.105  1.00  0.00    -0.246 OA
BRANCH  33  35
ATOM     35  C   UNL A   1      40.043  22.357  26.985  1.00  0.00     0.060 A 
ATOM     36  C   UNL A   1      39.637  23.531  26.350  1.00  0.00     0.016 A 
ATOM     37  C   UNL A   1      41.035  22.384  27.963  1.00  0.00     0.016 A 
ATOM     38  C   UNL A   1      40.244  24.741  26.667  1.00  0.00     0.010 A 
ATOM     39  C   UNL A   1      41.611  23.609  28.319  1.00  0.00     0.010 A 
ATOM     40  C   UNL A   1      41.226  24.793  27.663  1.00  0.00    -0.014 A 
BRANCH  40  41
ATOM     41  C   UNL A   1      41.809  26.099  28.046  1.00  0.00     0.031 A 
ATOM     42  C   UNL A   1      40.992  27.122  28.778  1.00  0.00     0.074 A 
ATOM     43  C   UNL A   1      43.091  26.349  27.725  1.00  0.00     0.049 A 
ATOM     44  N   UNL A   1      41.296  28.356  29.084  1.00  0.00    -0.248 NA
ATOM     45  C   UNL A   1      39.655  26.701  29.223  1.00  0.00     0.031 C 
ATOM     46  C   UNL A   1      43.988  25.408  27.048  1.00  0.00     0.029 A 
ATOM     47  N   UNL A   1      43.862  27.465  27.917  1.00  0.00    -0.354 N 
ATOM     48  C   UNL A   1      40.184  28.873  29.736  1.00  0.00     0.074 A 
ATOM     49  C   UNL A   1      39.193  27.816  29.775  1.00  0.00     0.031 C 
ATOM     50  C   UNL A   1      45.184  25.990  26.875  1.00  0.00     0.029 A 
ATOM     51  C   UNL A   1      45.118  27.359  27.370  1.00  0.00     0.049 A 
ATOM     52  H   UNL A   1      43.546  28.265  28.396  1.00  0.00     0.167 HD
ATOM     53  C   UNL A   1      40.008  30.119  30.246  1.00  0.00     0.034 A 
ATOM     54  C   UNL A   1      46.093  28.278  27.235  1.00  0.00     0.034 A 
ATOM     55  C   UNL A   1      41.009  31.158  30.192  1.00  0.00     0.049 A 
ATOM     56  C   UNL A   1      45.856  29.665  27.757  1.00  0.00     0.074 A 
ATOM     57  C   UNL A   1      40.944  32.451  30.683  1.00  0.00     0.029 A 
ATOM     58  N   UNL A   1      42.261  31.024  29.603  1.00  0.00    -0.354 N 
ATOM     59  N   UNL A   1      44.785  30.153  28.339  1.00  0.00    -0.248 NA
ATOM     60  C   UNL A   1      46.953  30.624  27.597  1.00  0.00     0.031 C 
ATOM     61  C   UNL A   1      42.132  33.112  30.345  1.00  0.00     0.029 A 
ATOM     62  C   UNL A   1      42.964  32.217  29.692  1.00  0.00     0.049 A 
ATOM     63  H   UNL A   1      42.600  30.201  29.181  1.00  0.00     0.167 HD
ATOM     64  C   UNL A   1      45.080  31.483  28.613  1.00  0.00     0.074 A 
ATOM     65  C   UNL A   1      46.437  31.711  28.153  1.00  0.00     0.031 C 
ATOM     66  C   UNL A   1      44.301  32.431  29.193  1.00  0.00     0.034 A 
BRANCH  53  67
ATOM     67  C   UNL A   1      38.659  30.436  30.841  1.00  0.00     0.023 A 
ATOM     68  C   UNL A   1      37.646  31.064  30.095  1.00  0.00     0.031 A 
ATOM     69  C   UNL A   1      38.396  30.135  32.189  1.00  0.00     0.131 A 
ATOM     70  C   UNL A   1      36.441  31.425  30.718  1.00  0.00     0.055 A 
ATOM     71  C   UNL A   1      37.172  30.440  32.787  1.00  0.00     0.041 A 
ATOM     72  F   UNL A   1      39.335  29.554  32.953  1.00  0.00    -0.206 F 
ATOM     73  C   UNL A   1      36.191  31.100  32.054  1.00  0.00     0.022 A 
BRANCH  70  74
ATOM     74  S   UNL A   1      35.254  32.438  29.793  1.00  0.00     0.124 S 
ATOM     75  O   UNL A   1      34.294  32.798  30.834  1.00  0.00    -0.237 OA
ATOM     76  O   UNL A   1      36.089  33.523  29.292  1.00  0.00    -0.237 OA
ATOM     77  O   UNL A   1      34.741  31.523  28.774  1.00  0.00    -0.744 OA
ENDBRANCH  70  74
ENDBRANCH  53  67
BRANCH  54  78
ATOM     78  C   UNL A   1      47.337  27.926  26.504  1.00  0.00     0.023 A 
ATOM     79  C   UNL A   1      47.391  27.949  25.104  1.00  0.00     0.031 A 
ATOM     80  C   UNL A   1      48.502  27.579  27.211  1.00  0.00     0.131 A 
ATOM     81  C   UNL A   1      48.586  27.612  24.450  1.00  0.00     0.055 A 
ATOM     82  C   UNL A   1      49.697  27.280  26.558  1.00  0.00     0.041 A 
ATOM     83  F   UNL A   1      48.500  27.555  28.553  1.00  0.00    -0.206 F 
ATOM     84  C   UNL A   1      49.741  27.289  25.168  1.00  0.00     0.022 A 
BRANCH  81  85
ATOM     85  S   UNL A   1      48.603  27.569  22.637  1.00  0.00     0.124 S 
ATOM     86  O   UNL A   1      49.835  28.286  22.331  1.00  0.00    -0.237 OA
ATOM     87  O   UNL A   1      48.612  26.135  22.368  1.00  0.00    -0.237 OA
ATOM     88  O   UNL A   1      47.369  28.262  22.269  1.00  0.00    -0.744 OA
ENDBRANCH  81  85
ENDBRANCH  54  78
BRANCH  66  89
ATOM     89  C   UNL A   1      44.923  33.789  29.360  1.00  0.00     0.023 A 
ATOM     90  C   UNL A   1      44.720  34.806  28.410  1.00  0.00     0.031 A 
ATOM     91  C   UNL A   1      45.761  34.056  30.455  1.00  0.00     0.131 A 
ATOM     92  C   UNL A   1      45.391  36.030  28.548  1.00  0.00     0.055 A 
ATOM     93  C   UNL A   1      46.392  35.291  30.610  1.00  0.00     0.041 A 
ATOM     94  F   UNL A   1      45.988  33.115  31.384  1.00  0.00    -0.206 F 
ATOM     95  C   UNL A   1      46.218  36.282  29.646  1.00  0.00     0.022 A 
BRANCH  92  96
ATOM     96  S   UNL A   1      45.232  37.263  27.228  1.00  0.00     0.124 S 
ATOM     97  O   UNL A   1      43.824  37.139  26.863  1.00  0.00    -0.237 OA
ATOM     98  O   UNL A   1      45.610  38.499  27.906  1.00  0.00    -0.237 OA
ATOM     99  O   UNL A   1      46.178  36.802  26.212  1.00  0.00    -0.744 OA
ENDBRANCH  92  96
ENDBRANCH  66  89
ENDBRANCH  40  41
ENDBRANCH  33  35
ENDBRANCH  32  33
ENDBRANCH  31  32
ENDBRANCH   1  31
TORSDOF 17
ENDMDL
MODEL 2
REMARK VINA RESULT:     -12.7      5.470     10.728
REMARK SMILES CC1=C(C)C[C@@H](C(=O)OCCOC(=O)c2ccc(-c3c4nc(c(-c5cc(S(=O)(=O)[O-])ccc5F)c5ccc([nH]5)c(-c5cc(S(=O)(=O)[O-])ccc5F)c5nc(c(-c6cc(S(=O)(=O)[O-])ccc6F)c6ccc3[nH]6)C=C5)C=C4)cc2)[C@@H](C(=O)N2CCN(c3cccc(C(F)(F)F)c3)CC2)C1
REMARK SMILES IDX 10 1 9 2 7 3 8 4 6 5 1 6 2 7 3 8 97 9 4 10 5 11 78 12 79 13
REMARK SMILES IDX 80 14 81 15 82 16 96 17 83 18 95 19 84 20 85 21 86 22 94 23
REMARK SMILES IDX 87 24 89 25 88 26 90 27 91 28 92 29 93 30 11 31 12 32 13 33
REMARK SMILES IDX 14 34 15 35 16 36 77 37 17 38 76 39 18 40 19 41 20 42 70 43
REMARK SMILES IDX 21 44 75 45 69 46 71 47 22 48 74 49 68 50 67 51 23 53 55 54
REMARK SMILES IDX 35 55 54 56 36 57 39 58 53 59 72 60 37 61 38 62 52 64 73 65
REMARK SMILES IDX 40 66 24 67 25 68 33 69 26 70 32 71 34 72 31 73 27 74 28 75
REMARK SMILES IDX 29 76 30 77 56 78 57 79 65 80 58 81 64 82 66 83 63 84 59 85
REMARK SMILES IDX 60 86 61 87 62 88 41 89 42 90 50 91 43 92 49 93 51 94 48 95
REMARK SMILES IDX 44 96 45 97 46 98 47 99
REMARK H PARENT 71 52 39 63
REMARK Flexibility Score: inf
ROOT
ATOM      1  C   UNL A   1      31.997  29.715  25.916  1.00  0.00     0.274 C 
ENDROOT
BRANCH   1   2
ATOM      2  O   UNL A   1      31.377  29.639  24.614  1.00  0.00    -0.462 OA
BRANCH   2   3
ATOM      3  C   UNL A   1      32.024  28.895  23.697  1.00  0.00     0.310 C 
ATOM      4  O   UNL A   1      33.242  28.961  23.526  1.00  0.00    -0.252 OA
BRANCH   3   5
ATOM      5  C   UNL A   1      31.187  27.913  22.879  1.00  0.00     0.116 C 
ATOM      6  C   UNL A   1      27.180  26.701  24.253  1.00  0.00     0.039 C 
ATOM      7  C   UNL A   1      28.425  27.154  23.544  1.00  0.00    -0.074 C 
ATOM      8  C   UNL A   1      28.673  28.401  23.101  1.00  0.00    -0.073 C 
ATOM      9  C   UNL A   1      29.415  26.049  23.257  1.00  0.00     0.045 C 
ATOM     10  C   UNL A   1      27.741  29.577  23.189  1.00  0.00     0.039 C 
ATOM     11  C   UNL A   1      29.952  28.673  22.353  1.00  0.00     0.046 C 
ATOM     12  C   UNL A   1      30.912  26.445  23.268  1.00  0.00     0.097 C 
BRANCH  12  13
ATOM     13  C   UNL A   1      31.493  25.895  24.572  1.00  0.00     0.227 C 
ATOM     14  O   UNL A   1      31.115  26.366  25.651  1.00  0.00    -0.275 OA
ATOM     15  N   UNL A   1      32.267  24.739  24.522  1.00  0.00    -0.339 N 
ATOM     16  C   UNL A   1      32.575  24.065  25.791  1.00  0.00     0.141 C 
ATOM     17  C   UNL A   1      33.084  24.250  23.383  1.00  0.00     0.141 C 
ATOM     18  C   UNL A   1      32.520  22.532  25.660  1.00  0.00     0.138 C 
ATOM     19  C   UNL A   1      33.103  22.713  23.248  1.00  0.00     0.138 C 
ATOM     20  N   UNL A   1      33.379  22.110  24.556  1.00  0.00    -0.368 N 
BRANCH  20  21
ATOM     21  C   UNL A   1      34.186  21.004  24.671  1.00  0.00     0.037 A 
ATOM     22  C   UNL A   1      35.551  21.113  24.950  1.00  0.00     0.026 A 
ATOM     23  C   UNL A   1      33.656  19.727  24.449  1.00  0.00     0.039 A 
ATOM     24  C   UNL A   1      36.369  19.983  25.000  1.00  0.00     0.003 A 
ATOM     25  C   UNL A   1      34.468  18.580  24.461  1.00  0.00     0.058 A 
ATOM     26  C   UNL A   1      35.833  18.722  24.747  1.00  0.00     0.013 A 
BRANCH  25  27
ATOM     27  C   UNL A   1      33.907  17.228  24.108  1.00  0.00     0.416 C 
ATOM     28  F   UNL A   1      33.766  17.076  22.757  1.00  0.00    -0.166 F 
ATOM     29  F   UNL A   1      34.698  16.196  24.508  1.00  0.00    -0.166 F 
ATOM     30  F   UNL A   1      32.672  16.984  24.630  1.00  0.00    -0.166 F 
ENDBRANCH  25  27
ENDBRANCH  20  21
ENDBRANCH  12  13
ENDBRANCH   3   5
ENDBRANCH   2   3
ENDBRANCH   1   2
BRANCH   1  31
ATOM     31  C   UNL A   1      32.062  31.146  26.464  1.00  0.00     0.275 C 
BRANCH  31  32
ATOM     32  O   UNL A   1      32.825  31.250  27.684  1.00  0.00    -0.458 OA
BRANCH  32  33
ATOM     33  C   UNL A   1      33.811  32.162  27.619  1.00  0.00     0.338 C 
ATOM     34  O   UNL A   1      33.685  33.337  27.259  1.00  0.00    -0.246 OA
BRANCH  33  35
ATOM     35  C   UNL A   1      35.103  31.676  28.089  1.00  0.00     0.060 A 
ATOM     36  C   UNL A   1      35.161  30.400  28.650  1.00  0.00     0.016 A 
ATOM     37  C   UNL A   1      36.187  32.547  28.191  1.00  0.00     0.016 A 
ATOM     38  C   UNL A   1      36.293  29.995  29.347  1.00  0.00     0.010 A 
ATOM     39  C   UNL A   1      37.346  32.120  28.849  1.00  0.00     0.010 A 
ATOM     40  C   UNL A   1      37.400  30.846  29.441  1.00  0.00    -0.014 A 
BRANCH  40  41
ATOM     41  C   UNL A   1      38.629  30.373  30.119  1.00  0.00     0.031 A 
ATOM     42  C   UNL A   1      39.523  29.358  29.470  1.00  0.00     0.074 A 
ATOM     43  C   UNL A   1      38.929  30.876  31.329  1.00  0.00     0.049 A 
ATOM     44  N   UNL A   1      40.566  28.743  29.964  1.00  0.00    -0.248 NA
ATOM     45  C   UNL A   1      39.201  28.985  28.086  1.00  0.00     0.031 C 
ATOM     46  C   UNL A   1      38.147  31.897  32.033  1.00  0.00     0.029 A 
ATOM     47  N   UNL A   1      39.961  30.596  32.186  1.00  0.00    -0.354 N 
ATOM     48  C   UNL A   1      41.015  27.890  28.963  1.00  0.00     0.074 A 
ATOM     49  C   UNL A   1      40.123  28.065  27.834  1.00  0.00     0.031 C 
ATOM     50  C   UNL A   1      38.726  32.152  33.216  1.00  0.00     0.029 A 
ATOM     51  C   UNL A   1      39.875  31.271  33.379  1.00  0.00     0.049 A 
ATOM     52  H   UNL A   1      40.690  29.971  31.969  1.00  0.00     0.167 HD
ATOM     53  C   UNL A   1      42.070  27.037  28.992  1.00  0.00     0.034 A 
ATOM     54  C   UNL A   1      40.609  31.158  34.502  1.00  0.00     0.034 A 
ATOM     55  C   UNL A   1      42.944  26.877  30.130  1.00  0.00     0.049 A 
ATOM     56  C   UNL A   1      41.738  30.168  34.531  1.00  0.00     0.074 A 
ATOM     57  C   UNL A   1      44.046  26.051  30.268  1.00  0.00     0.029 A 
ATOM     58  N   UNL A   1      42.809  27.557  31.336  1.00  0.00    -0.354 N 
ATOM     59  N   UNL A   1      42.129  29.340  33.591  1.00  0.00    -0.248 NA
ATOM     60  C   UNL A   1      42.514  30.092  35.772  1.00  0.00     0.031 C 
ATOM     61  C   UNL A   1      44.544  26.193  31.571  1.00  0.00     0.029 A 
ATOM     62  C   UNL A   1      43.788  27.148  32.230  1.00  0.00     0.049 A 
ATOM     63  H   UNL A   1      42.117  28.230  31.528  1.00  0.00     0.167 HD
ATOM     64  C   UNL A   1      43.201  28.640  34.131  1.00  0.00     0.074 A 
ATOM     65  C   UNL A   1      43.406  29.161  35.469  1.00  0.00     0.031 C 
ATOM     66  C   UNL A   1      43.949  27.655  33.572  1.00  0.00     0.034 A 
BRANCH  53  67
ATOM     67  C   UNL A   1      42.287  26.167  27.779  1.00  0.00     0.023 A 
ATOM     68  C   UNL A   1      41.795  24.852  27.710  1.00  0.00     0.031 A 
ATOM     69  C   UNL A   1      43.030  26.652  26.689  1.00  0.00     0.131 A 
ATOM     70  C   UNL A   1      42.101  24.047  26.602  1.00  0.00     0.055 A 
ATOM     71  C   UNL A   1      43.279  25.868  25.560  1.00  0.00     0.041 A 
ATOM     72  F   UNL A   1      43.541  27.893  26.711  1.00  0.00    -0.206 F 
ATOM     73  C   UNL A   1      42.825  24.554  25.518  1.00  0.00     0.022 A 
BRANCH  70  74
ATOM     74  S   UNL A   1      41.651  22.290  26.650  1.00  0.00     0.124 S 
ATOM     75  O   UNL A   1      42.184  21.811  25.377  1.00  0.00    -0.237 OA
ATOM     76  O   UNL A   1      42.338  21.823  27.848  1.00  0.00    -0.237 OA
ATOM     77  O   UNL A   1      40.191  22.312  26.735  1.00  0.00    -0.744 OA
ENDBRANCH  70  74
ENDBRANCH  53  67
BRANCH  54  78
ATOM     78  C   UNL A   1      40.238  31.946  35.705  1.00  0.00     0.023 A 
ATOM     79  C   UNL A   1      39.162  31.570  36.520  1.00  0.00     0.031 A 
ATOM     80  C   UNL A   1      40.980  33.087  36.063  1.00  0.00     0.131 A 
ATOM     81  C   UNL A   1      38.845  32.341  37.649  1.00  0.00     0.055 A 
ATOM     82  C   UNL A   1      40.683  33.829  37.206  1.00  0.00     0.041 A 
ATOM     83  F   UNL A   1      42.026  33.477  35.318  1.00  0.00    -0.206 F 
ATOM     84  C   UNL A   1      39.604  33.459  38.003  1.00  0.00     0.022 A 
BRANCH  81  85
ATOM     85  S   UNL A   1      37.396  31.879  38.637  1.00  0.00     0.124 S 
ATOM     86  O   UNL A   1      37.919  31.968  39.996  1.00  0.00    -0.237 OA
ATOM     87  O   UNL A   1      36.428  32.902  38.254  1.00  0.00    -0.237 OA
ATOM     88  O   UNL A   1      37.086  30.527  38.174  1.00  0.00    -0.744 OA
ENDBRANCH  81  85
ENDBRANCH  54  78
BRANCH  66  89
ATOM     89  C   UNL A   1      45.058  27.100  34.422  1.00  0.00     0.023 A 
ATOM     90  C   UNL A   1      44.879  25.933  35.184  1.00  0.00     0.031 A 
ATOM     91  C   UNL A   1      46.291  27.770  34.505  1.00  0.00     0.131 A 
ATOM     92  C   UNL A   1      45.902  25.497  36.039  1.00  0.00     0.055 A 
ATOM     93  C   UNL A   1      47.320  27.306  35.324  1.00  0.00     0.041 A 
ATOM     94  F   UNL A   1      46.506  28.890  33.799  1.00  0.00    -0.206 F 
ATOM     95  C   UNL A   1      47.124  26.170  36.107  1.00  0.00     0.022 A 
BRANCH  92  96
ATOM     96  S   UNL A   1      45.583  24.079  37.125  1.00  0.00     0.124 S 
ATOM     97  O   UNL A   1      46.933  23.698  37.531  1.00  0.00    -0.237 OA
ATOM     98  O   UNL A   1      44.745  24.665  38.167  1.00  0.00    -0.237 OA
ATOM     99  O   UNL A   1      44.906  23.123  36.251  1.00  0.00    -0.744 OA
ENDBRANCH  92  96
ENDBRANCH  66  89
ENDBRANCH  40  41
ENDBRANCH  33  35
ENDBRANCH  32  33
ENDBRANCH  31  32
ENDBRANCH   1  31
TORSDOF 17
ENDMDL
MODEL 3
REMARK VINA RESULT:     -12.4      2.941      3.407
REMARK SMILES CC1=C(C)C[C@@H](C(=O)OCCOC(=O)c2ccc(-c3c4nc(c(-c5cc(S(=O)(=O)[O-])ccc5F)c5ccc([nH]5)c(-c5cc(S(=O)(=O)[O-])ccc5F)c5nc(c(-c6cc(S(=O)(=O)[O-])ccc6F)c6ccc3[nH]6)C=C5)C=C4)cc2)[C@@H](C(=O)N2CCN(c3cccc(C(F)(F)F)c3)CC2)C1
REMARK SMILES IDX 10 1 9 2 7 3 8 4 6 5 1 6 2 7 3 8 97 9 4 10 5 11 78 12 79 13
REMARK SMILES IDX 80 14 81 15 82 16 96 17 83 18 95 19 84 20 85 21 86 22 94 23
REMARK SMILES IDX 87 24 89 25 88 26 90 27 91 28 92 29 93 30 11 31 12 32 13 33
REMARK SMILES IDX 14 34 15 35 16 36 77 37 17 38 76 39 18 40 19 41 20 42 70 43
REMARK SMILES IDX 21 44 75 45 69 46 71 47 22 48 74 49 68 50 67 51 23 53 55 54
REMARK SMILES IDX 35 55 54 56 36 57 39 58 53 59 72 60 37 61 38 62 52 64 73 65
REMARK SMILES IDX 40 66 24 67 25 68 33 69 26 70 32 71 34 72 31 73 27 74 28 75
REMARK SMILES IDX 29 76 30 77 56 78 57 79 65 80 58 81 64 82 66 83 63 84 59 85
REMARK SMILES IDX 60 86 61 87 62 88 41 89 42 90 50 91 43 92 49 93 51 94 48 95
REMARK SMILES IDX 44 96 45 97 46 98 47 99
REMARK H PARENT 71 52 39 63
REMARK Flexibility Score: inf
ROOT
ATOM      1  C   UNL A   1      36.158  21.397  24.460  1.00  0.00     0.274 C 
ENDROOT
BRANCH   1   2
ATOM      2  O   UNL A   1      35.238  20.578  25.215  1.00  0.00    -0.462 OA
BRANCH   2   3
ATOM      3  C   UNL A   1      34.343  21.241  25.971  1.00  0.00     0.310 C 
ATOM      4  O   UNL A   1      34.652  21.823  27.012  1.00  0.00    -0.252 OA
BRANCH   3   5
ATOM      5  C   UNL A   1      32.902  21.287  25.466  1.00  0.00     0.116 C 
ATOM      6  C   UNL A   1      31.959  20.263  21.286  1.00  0.00     0.039 C 
ATOM      7  C   UNL A   1      32.074  20.446  22.773  1.00  0.00    -0.074 C 
ATOM      8  C   UNL A   1      32.478  19.513  23.655  1.00  0.00    -0.073 C 
ATOM      9  C   UNL A   1      31.600  21.791  23.273  1.00  0.00     0.045 C 
ATOM     10  C   UNL A   1      32.855  18.092  23.336  1.00  0.00     0.039 C 
ATOM     11  C   UNL A   1      32.478  19.843  25.125  1.00  0.00     0.046 C 
ATOM     12  C   UNL A   1      32.329  22.359  24.515  1.00  0.00     0.097 C 
BRANCH  12  13
ATOM     13  C   UNL A   1      33.245  23.473  24.005  1.00  0.00     0.227 C 
ATOM     14  O   UNL A   1      33.784  23.356  22.898  1.00  0.00    -0.275 OA
ATOM     15  N   UNL A   1      33.279  24.680  24.699  1.00  0.00    -0.339 N 
ATOM     16  C   UNL A   1      33.929  25.826  24.049  1.00  0.00     0.141 C 
ATOM     17  C   UNL A   1      33.010  24.896  26.143  1.00  0.00     0.141 C 
ATOM     18  C   UNL A   1      33.169  27.141  24.301  1.00  0.00     0.138 C 
ATOM     19  C   UNL A   1      32.299  26.232  26.448  1.00  0.00     0.138 C 
ATOM     20  N   UNL A   1      32.978  27.321  25.738  1.00  0.00    -0.368 N 
BRANCH  20  21
ATOM     21  C   UNL A   1      33.149  28.552  26.326  1.00  0.00     0.037 A 
ATOM     22  C   UNL A   1      32.137  29.515  26.327  1.00  0.00     0.026 A 
ATOM     23  C   UNL A   1      34.385  28.889  26.892  1.00  0.00     0.039 A 
ATOM     24  C   UNL A   1      32.349  30.782  26.872  1.00  0.00     0.003 A 
ATOM     25  C   UNL A   1      34.630  30.170  27.415  1.00  0.00     0.058 A 
ATOM     26  C   UNL A   1      33.593  31.113  27.405  1.00  0.00     0.013 A 
BRANCH  25  27
ATOM     27  C   UNL A   1      35.997  30.555  27.915  1.00  0.00     0.416 C 
ATOM     28  F   UNL A   1      36.177  31.909  27.903  1.00  0.00    -0.166 F 
ATOM     29  F   UNL A   1      36.228  30.170  29.200  1.00  0.00    -0.166 F 
ATOM     30  F   UNL A   1      37.024  30.047  27.177  1.00  0.00    -0.166 F 
ENDBRANCH  25  27
ENDBRANCH  20  21
ENDBRANCH  12  13
ENDBRANCH   3   5
ENDBRANCH   2   3
ENDBRANCH   1   2
BRANCH   1  31
ATOM     31  C   UNL A   1      37.608  21.266  24.944  1.00  0.00     0.275 C 
BRANCH  31  32
ATOM     32  O   UNL A   1      38.019  22.356  25.796  1.00  0.00    -0.458 OA
BRANCH  32  33
ATOM     33  C   UNL A   1      39.118  22.080  26.520  1.00  0.00     0.338 C 
ATOM     34  O   UNL A   1      39.597  20.956  26.706  1.00  0.00    -0.246 OA
BRANCH  33  35
ATOM     35  C   UNL A   1      39.792  23.260  27.050  1.00  0.00     0.060 A 
ATOM     36  C   UNL A   1      39.591  24.479  26.403  1.00  0.00     0.016 A 
ATOM     37  C   UNL A   1      40.785  23.125  28.019  1.00  0.00     0.016 A 
ATOM     38  C   UNL A   1      40.404  25.567  26.697  1.00  0.00     0.010 A 
ATOM     39  C   UNL A   1      41.570  24.235  28.352  1.00  0.00     0.010 A 
ATOM     40  C   UNL A   1      41.391  25.459  27.683  1.00  0.00    -0.014 A 
BRANCH  40  41
ATOM     41  C   UNL A   1      42.198  26.647  28.041  1.00  0.00     0.031 A 
ATOM     42  C   UNL A   1      41.598  27.778  28.824  1.00  0.00     0.074 A 
ATOM     43  C   UNL A   1      43.485  26.691  27.653  1.00  0.00     0.049 A 
ATOM     44  N   UNL A   1      42.115  28.941  29.121  1.00  0.00    -0.248 NA
ATOM     45  C   UNL A   1      40.237  27.572  29.339  1.00  0.00     0.031 C 
ATOM     46  C   UNL A   1      44.179  25.628  26.921  1.00  0.00     0.029 A 
ATOM     47  N   UNL A   1      44.436  27.666  27.809  1.00  0.00    -0.354 N 
ATOM     48  C   UNL A   1      41.137  29.622  29.837  1.00  0.00     0.074 A 
ATOM     49  C   UNL A   1      39.992  28.738  29.923  1.00  0.00     0.031 C 
ATOM     50  C   UNL A   1      45.443  26.012  26.687  1.00  0.00     0.029 A 
ATOM     51  C   UNL A   1      45.627  27.366  27.194  1.00  0.00     0.049 A 
ATOM     52  H   UNL A   1      44.280  28.498  28.310  1.00  0.00     0.167 HD
ATOM     53  C   UNL A   1      41.194  30.871  30.364  1.00  0.00     0.034 A 
ATOM     54  C   UNL A   1      46.730  28.116  27.011  1.00  0.00     0.034 A 
ATOM     55  C   UNL A   1      42.346  31.735  30.262  1.00  0.00     0.049 A 
ATOM     56  C   UNL A   1      46.749  29.516  27.555  1.00  0.00     0.074 A 
ATOM     57  C   UNL A   1      42.517  33.014  30.764  1.00  0.00     0.029 A 
ATOM     58  N   UNL A   1      43.526  31.410  29.604  1.00  0.00    -0.354 N 
ATOM     59  N   UNL A   1      45.804  30.161  28.198  1.00  0.00    -0.248 NA
ATOM     60  C   UNL A   1      47.977  30.287  27.340  1.00  0.00     0.031 C 
ATOM     61  C   UNL A   1      43.778  33.479  30.366  1.00  0.00     0.029 A 
ATOM     62  C   UNL A   1      44.417  32.472  29.662  1.00  0.00     0.049 A 
ATOM     63  H   UNL A   1      43.704  30.550  29.159  1.00  0.00     0.167 HD
ATOM     64  C   UNL A   1      46.326  31.422  28.464  1.00  0.00     0.074 A 
ATOM     65  C   UNL A   1      47.675  31.434  27.931  1.00  0.00     0.031 C 
ATOM     66  C   UNL A   1      45.743  32.474  29.091  1.00  0.00     0.034 A 
BRANCH  53  67
ATOM     67  C   UNL A   1      39.948  31.393  31.035  1.00  0.00     0.023 A 
ATOM     68  C   UNL A   1      39.794  31.379  32.432  1.00  0.00     0.031 A 
ATOM     69  C   UNL A   1      38.881  31.879  30.258  1.00  0.00     0.131 A 
ATOM     70  C   UNL A   1      38.580  31.787  33.006  1.00  0.00     0.055 A 
ATOM     71  C   UNL A   1      37.699  32.343  30.838  1.00  0.00     0.041 A 
ATOM     72  F   UNL A   1      38.966  31.895  28.918  1.00  0.00    -0.206 F 
ATOM     73  C   UNL A   1      37.538  32.286  32.219  1.00  0.00     0.022 A 
BRANCH  70  74
ATOM     74  S   UNL A   1      38.332  31.538  34.786  1.00  0.00     0.124 S 
ATOM     75  O   UNL A   1      37.058  32.218  35.008  1.00  0.00    -0.237 OA
ATOM     76  O   UNL A   1      38.309  30.085  34.900  1.00  0.00    -0.237 OA
ATOM     77  O   UNL A   1      39.491  32.194  35.389  1.00  0.00    -0.744 OA
ENDBRANCH  70  74
ENDBRANCH  53  67
BRANCH  54  78
ATOM     78  C   UNL A   1      47.859  27.580  26.210  1.00  0.00     0.023 A 
ATOM     79  C   UNL A   1      48.911  26.876  26.812  1.00  0.00     0.031 A 
ATOM     80  C   UNL A   1      47.886  27.754  24.814  1.00  0.00     0.131 A 
ATOM     81  C   UNL A   1      49.959  26.383  26.020  1.00  0.00     0.055 A 
ATOM     82  C   UNL A   1      48.912  27.232  24.027  1.00  0.00     0.041 A 
ATOM     83  F   UNL A   1      46.894  28.412  24.194  1.00  0.00    -0.206 F 
ATOM     84  C   UNL A   1      49.961  26.547  24.632  1.00  0.00     0.022 A 
BRANCH  81  85
ATOM     85  S   UNL A   1      51.347  25.549  26.837  1.00  0.00     0.124 S 
ATOM     86  O   UNL A   1      52.112  26.678  27.356  1.00  0.00    -0.237 OA
ATOM     87  O   UNL A   1      50.664  24.727  27.831  1.00  0.00    -0.237 OA
ATOM     88  O   UNL A   1      51.986  24.808  25.751  1.00  0.00    -0.744 OA
ENDBRANCH  81  85
ENDBRANCH  54  78
BRANCH  66  89
ATOM     89  C   UNL A   1      46.585  33.711  29.233  1.00  0.00     0.023 A 
ATOM     90  C   UNL A   1      46.594  34.705  28.239  1.00  0.00     0.031 A 
ATOM     91  C   UNL A   1      47.419  33.878  30.351  1.00  0.00     0.131 A 
ATOM     92  C   UNL A   1      47.463  35.800  28.358  1.00  0.00     0.055 A 
ATOM     93  C   UNL A   1      48.249  34.991  30.485  1.00  0.00     0.041 A 
ATOM     94  F   UNL A   1      47.447  32.953  31.324  1.00  0.00    -0.206 F 
ATOM     95  C   UNL A   1      48.282  35.954  29.479  1.00  0.00     0.022 A 
BRANCH  92  96
ATOM     96  S   UNL A   1      47.566  36.983  26.987  1.00  0.00     0.124 S 
ATOM     97  O   UNL A   1      47.251  38.245  27.650  1.00  0.00    -0.237 OA
ATOM     98  O   UNL A   1      48.946  36.823  26.538  1.00  0.00    -0.237 OA
ATOM     99  O   UNL A   1      46.551  36.508  26.047  1.00  0.00    -0.744 OA
ENDBRANCH  92  96
ENDBRANCH  66  89
ENDBRANCH  40  41
ENDBRANCH  33  35
ENDBRANCH  32  33
ENDBRANCH  31  32
ENDBRANCH   1  31
TORSDOF 17
ENDMDL
