MODEL 1
REMARK VINA RESULT:     -13.0      0.000      0.000
REMARK SMILES CS(=O)(=O)c1ccc(C2=NN(c3ccc(C(=O)OCCOC(=O)c4ccc(-c5c6nc(c(-c7cc(S(=O)(=O)[O-])ccc7F)c7ccc([nH]7)c(-c7cc(S(=O)(=O)[O-])ccc7F)c7nc(c(-c8cc(S(=O)(=O)[O-])ccc8F)c8ccc5[nH]8)C=C7)C=C6)cc4)cc3)[C@H](c3ccc(Cl)cc3)C2)cc1
REMARK SMILES IDX 19 1 18 2 16 3 17 4 15 5 12 6 13 7 88 8 14 9 87 10 11 11
REMARK SMILES IDX 9 12 10 13 97 14 89 15 8 16 5 17 6 18 99 19 7 20 98 21 2 22
REMARK SMILES IDX 1 23 3 24 4 25 90 26 91 27 96 28 92 29 95 30 93 31 94 32
REMARK SMILES IDX 20 33 21 34 22 35 23 36 24 37 25 38 86 39 26 40 85 41 27 42
REMARK SMILES IDX 28 43 29 44 79 45 30 46 84 47 78 48 80 49 31 50 83 51 77 52
REMARK SMILES IDX 76 53 32 55 64 56 44 57 63 58 45 59 48 60 62 61 81 62 46 63
REMARK SMILES IDX 47 64 61 66 82 67 49 68 33 69 34 70 42 71 35 72 41 73 43 74
REMARK SMILES IDX 40 75 36 76 37 77 38 78 39 79 65 80 66 81 74 82 67 83 73 84
REMARK SMILES IDX 75 85 72 86 68 87 69 88 70 89 71 90 50 91 51 92 59 93 52 94
REMARK SMILES IDX 58 95 60 96 57 97 53 98 54 99 55 100 56 101
REMARK H PARENT 80 54 48 65
REMARK Flexibility Score: inf
ROOT
ATOM      1  C   UNL A   1      40.110  21.184  26.582  1.00  0.00     0.275 C 
ENDROOT
BRANCH   1   2
ATOM      2  O   UNL A   1      39.151  21.830  25.723  1.00  0.00    -0.458 OA
BRANCH   2   3
ATOM      3  C   UNL A   1      38.633  22.993  26.189  1.00  0.00     0.338 C 
ATOM      4  O   UNL A   1      39.164  23.749  26.988  1.00  0.00    -0.246 OA
BRANCH   3   5
ATOM      5  C   UNL A   1      37.321  23.284  25.559  1.00  0.00     0.060 A 
ATOM      6  C   UNL A   1      34.757  23.782  24.523  1.00  0.00     0.060 A 
ATOM      7  C   UNL A   1      35.130  24.307  25.763  1.00  0.00     0.029 A 
ATOM      8  C   UNL A   1      35.702  23.058  23.781  1.00  0.00     0.029 A 
ATOM      9  C   UNL A   1      36.389  24.030  26.293  1.00  0.00     0.018 A 
ATOM     10  C   UNL A   1      36.981  22.813  24.289  1.00  0.00     0.018 A 
BRANCH   6  11
ATOM     11  N   UNL A   1      33.429  23.851  24.083  1.00  0.00    -0.257 N 
ATOM     12  C   UNL A   1      31.699  25.099  23.952  1.00  0.00     0.071 C 
ATOM     13  N   UNL A   1      32.958  25.050  23.649  1.00  0.00    -0.176 NA
ATOM     14  C   UNL A   1      31.158  23.913  24.702  1.00  0.00     0.091 C 
ATOM     15  C   UNL A   1      32.434  23.077  24.845  1.00  0.00     0.144 C 
BRANCH  12  16
ATOM     16  C   UNL A   1      30.827  26.217  23.546  1.00  0.00    -0.002 A 
ATOM     17  C   UNL A   1      29.124  28.336  22.928  1.00  0.00     0.067 A 
ATOM     18  C   UNL A   1      28.622  27.224  23.608  1.00  0.00     0.021 A 
ATOM     19  C   UNL A   1      30.466  28.380  22.528  1.00  0.00     0.021 A 
ATOM     20  C   UNL A   1      29.475  26.160  23.904  1.00  0.00     0.011 A 
ATOM     21  C   UNL A   1      31.324  27.322  22.848  1.00  0.00     0.011 A 
BRANCH  17  22
ATOM     22  S   UNL A   1      28.086  29.737  22.573  1.00  0.00     0.175 S 
ATOM     23  C   UNL A   1      28.856  31.149  23.319  1.00  0.00     0.163 C 
ATOM     24  O   UNL A   1      26.824  29.512  23.253  1.00  0.00    -0.224 OA
ATOM     25  O   UNL A   1      28.130  29.908  21.132  1.00  0.00    -0.224 OA
ENDBRANCH  17  22
ENDBRANCH  12  16
BRANCH  15  26
ATOM     26  C   UNL A   1      32.432  21.637  24.347  1.00  0.00    -0.023 A 
ATOM     27  C   UNL A   1      32.045  21.267  23.052  1.00  0.00     0.007 A 
ATOM     28  C   UNL A   1      32.974  20.643  25.188  1.00  0.00     0.007 A 
ATOM     29  C   UNL A   1      32.195  19.946  22.613  1.00  0.00     0.021 A 
ATOM     30  C   UNL A   1      33.151  19.332  24.742  1.00  0.00     0.021 A 
ATOM     31  C   UNL A   1      32.760  18.989  23.454  1.00  0.00     0.041 A 
ATOM     32  Cl  UNL A   1      33.001  17.383  22.886  1.00  0.00    -0.084 Cl
ENDBRANCH  15  26
ENDBRANCH   6  11
ENDBRANCH   3   5
ENDBRANCH   2   3
ENDBRANCH   1   2
BRANCH   1  33
ATOM     33  C   UNL A   1      41.521  21.310  26.012  1.00  0.00     0.275 C 
BRANCH  33  34
ATOM     34  O   UNL A   1      41.657  22.527  25.258  1.00  0.00    -0.458 OA
BRANCH  34  35
ATOM     35  C   UNL A   1      42.853  23.150  25.371  1.00  0.00     0.338 C 
ATOM     36  O   UNL A   1      43.867  22.931  24.733  1.00  0.00    -0.246 OA
BRANCH  35  37
ATOM     37  C   UNL A   1      42.757  24.196  26.400  1.00  0.00     0.060 A 
ATOM     38  C   UNL A   1      42.395  23.837  27.696  1.00  0.00     0.016 A 
ATOM     39  C   UNL A   1      42.916  25.536  26.060  1.00  0.00     0.016 A 
ATOM     40  C   UNL A   1      42.129  24.816  28.651  1.00  0.00     0.010 A 
ATOM     41  C   UNL A   1      42.722  26.517  27.039  1.00  0.00     0.010 A 
ATOM     42  C   UNL A   1      42.302  26.171  28.338  1.00  0.00    -0.014 A 
BRANCH  42  43
ATOM     43  C   UNL A   1      42.012  27.236  29.339  1.00  0.00     0.031 A 
ATOM     44  C   UNL A   1      42.818  27.297  30.610  1.00  0.00     0.074 A 
ATOM     45  C   UNL A   1      41.021  28.126  29.133  1.00  0.00     0.049 A 
ATOM     46  N   UNL A   1      42.577  27.948  31.718  1.00  0.00    -0.248 NA
ATOM     47  C   UNL A   1      44.055  26.500  30.637  1.00  0.00     0.031 C 
ATOM     48  C   UNL A   1      40.216  28.234  27.914  1.00  0.00     0.029 A 
ATOM     49  N   UNL A   1      40.510  29.105  29.951  1.00  0.00    -0.354 N 
ATOM     50  C   UNL A   1      43.593  27.591  32.598  1.00  0.00     0.074 A 
ATOM     51  C   UNL A   1      44.456  26.668  31.889  1.00  0.00     0.031 C 
ATOM     52  C   UNL A   1      39.326  29.228  28.060  1.00  0.00     0.029 A 
ATOM     53  C   UNL A   1      39.424  29.759  29.415  1.00  0.00     0.049 A 
ATOM     54  H   UNL A   1      40.885  29.318  30.836  1.00  0.00     0.167 HD
ATOM     55  C   UNL A   1      43.777  27.990  33.881  1.00  0.00     0.034 A 
ATOM     56  C   UNL A   1      38.563  30.637  29.969  1.00  0.00     0.034 A 
ATOM     57  C   UNL A   1      42.927  28.947  34.549  1.00  0.00     0.049 A 
ATOM     58  C   UNL A   1      38.741  31.012  31.418  1.00  0.00     0.074 A 
ATOM     59  C   UNL A   1      43.033  29.444  35.837  1.00  0.00     0.029 A 
ATOM     60  N   UNL A   1      41.814  29.555  33.981  1.00  0.00    -0.354 N 
ATOM     61  N   UNL A   1      39.665  30.618  32.264  1.00  0.00    -0.248 NA
ATOM     62  C   UNL A   1      37.752  31.933  31.995  1.00  0.00     0.031 C 
ATOM     63  C   UNL A   1      41.953  30.302  36.067  1.00  0.00     0.029 A 
ATOM     64  C   UNL A   1      41.212  30.399  34.901  1.00  0.00     0.049 A 
ATOM     65  H   UNL A   1      41.501  29.409  33.060  1.00  0.00     0.167 HD
ATOM     66  C   UNL A   1      39.384  31.269  33.462  1.00  0.00     0.074 A 
ATOM     67  C   UNL A   1      38.209  32.083  33.229  1.00  0.00     0.031 C 
ATOM     68  C   UNL A   1      40.042  31.206  34.647  1.00  0.00     0.034 A 
BRANCH  55  69
ATOM     69  C   UNL A   1      44.890  27.340  34.668  1.00  0.00     0.023 A 
ATOM     70  C   UNL A   1      44.761  26.068  35.250  1.00  0.00     0.031 A 
ATOM     71  C   UNL A   1      46.106  28.026  34.846  1.00  0.00     0.131 A 
ATOM     72  C   UNL A   1      45.805  25.548  36.031  1.00  0.00     0.055 A 
ATOM     73  C   UNL A   1      47.168  27.472  35.563  1.00  0.00     0.041 A 
ATOM     74  F   UNL A   1      46.280  29.254  34.332  1.00  0.00    -0.206 F 
ATOM     75  C   UNL A   1      47.016  26.230  36.171  1.00  0.00     0.022 A 
BRANCH  72  76
ATOM     76  S   UNL A   1      45.517  24.019  36.965  1.00  0.00     0.124 S 
ATOM     77  O   UNL A   1      44.204  23.612  36.473  1.00  0.00    -0.237 OA
ATOM     78  O   UNL A   1      46.638  23.180  36.558  1.00  0.00    -0.237 OA
ATOM     79  O   UNL A   1      45.543  24.457  38.359  1.00  0.00    -0.744 OA
ENDBRANCH  72  76
ENDBRANCH  55  69
BRANCH  56  80
ATOM     80  C   UNL A   1      37.408  31.165  29.185  1.00  0.00     0.023 A 
ATOM     81  C   UNL A   1      36.380  30.314  28.749  1.00  0.00     0.031 A 
ATOM     82  C   UNL A   1      37.335  32.523  28.822  1.00  0.00     0.131 A 
ATOM     83  C   UNL A   1      35.348  30.819  27.943  1.00  0.00     0.055 A 
ATOM     84  C   UNL A   1      36.276  33.032  28.070  1.00  0.00     0.041 A 
ATOM     85  F   UNL A   1      38.294  33.382  29.204  1.00  0.00    -0.206 F 
ATOM     86  C   UNL A   1      35.279  32.176  27.614  1.00  0.00     0.022 A 
BRANCH  83  87
ATOM     87  S   UNL A   1      34.138  29.658  27.251  1.00  0.00     0.124 S 
ATOM     88  O   UNL A   1      34.035  28.667  28.318  1.00  0.00    -0.237 OA
ATOM     89  O   UNL A   1      32.973  30.515  27.056  1.00  0.00    -0.237 OA
ATOM     90  O   UNL A   1      34.779  29.190  26.024  1.00  0.00    -0.744 OA
ENDBRANCH  83  87
ENDBRANCH  56  80
BRANCH  68  91
ATOM     91  C   UNL A   1      39.546  32.097  35.756  1.00  0.00     0.023 A 
ATOM     92  C   UNL A   1      40.123  33.351  36.018  1.00  0.00     0.031 A 
ATOM     93  C   UNL A   1      38.466  31.680  36.555  1.00  0.00     0.131 A 
ATOM     94  C   UNL A   1      39.639  34.130  37.080  1.00  0.00     0.055 A 
ATOM     95  C   UNL A   1      37.958  32.481  37.578  1.00  0.00     0.041 A 
ATOM     96  F   UNL A   1      37.881  30.490  36.345  1.00  0.00    -0.206 F 
ATOM     97  C   UNL A   1      38.550  33.710  37.850  1.00  0.00     0.022 A 
BRANCH  94  98
ATOM     98  S   UNL A   1      40.485  35.683  37.480  1.00  0.00     0.124 S 
ATOM     99  O   UNL A   1      40.326  35.751  38.930  1.00  0.00    -0.237 OA
ATOM    100  O   UNL A   1      41.841  35.437  36.999  1.00  0.00    -0.237 OA
ATOM    101  O   UNL A   1      39.736  36.688  36.728  1.00  0.00    -0.744 OA
ENDBRANCH  94  98
ENDBRANCH  68  91
ENDBRANCH  42  43
ENDBRANCH  35  37
ENDBRANCH  34  35
ENDBRANCH  33  34
ENDBRANCH   1  33
TORSDOF 18
ENDMDL
MODEL 2
REMARK VINA RESULT:     -12.9      6.067     10.199
REMARK SMILES CS(=O)(=O)c1ccc(C2=NN(c3ccc(C(=O)OCCOC(=O)c4ccc(-c5c6nc(c(-c7cc(S(=O)(=O)[O-])ccc7F)c7ccc([nH]7)c(-c7cc(S(=O)(=O)[O-])ccc7F)c7nc(c(-c8cc(S(=O)(=O)[O-])ccc8F)c8ccc5[nH]8)C=C7)C=C6)cc4)cc3)[C@H](c3ccc(Cl)cc3)C2)cc1
REMARK SMILES IDX 19 1 18 2 16 3 17 4 15 5 12 6 13 7 88 8 14 9 87 10 11 11
REMARK SMILES IDX 9 12 10 13 97 14 89 15 8 16 5 17 6 18 99 19 7 20 98 21 2 22
REMARK SMILES IDX 1 23 3 24 4 25 90 26 91 27 96 28 92 29 95 30 93 31 94 32
REMARK SMILES IDX 20 33 21 34 22 35 23 36 24 37 25 38 86 39 26 40 85 41 27 42
REMARK SMILES IDX 28 43 29 44 79 45 30 46 84 47 78 48 80 49 31 50 83 51 77 52
REMARK SMILES IDX 76 53 32 55 64 56 44 57 63 58 45 59 48 60 62 61 81 62 46 63
REMARK SMILES IDX 47 64 61 66 82 67 49 68 33 69 34 70 42 71 35 72 41 73 43 74
REMARK SMILES IDX 40 75 36 76 37 77 38 78 39 79 65 80 66 81 74 82 67 83 73 84
REMARK SMILES IDX 75 85 72 86 68 87 69 88 70 89 71 90 50 91 51 92 59 93 52 94
REMARK SMILES IDX 58 95 60 96 57 97 53 98 54 99 55 100 56 101
REMARK H PARENT 80 54 48 65
REMARK Flexibility Score: inf
ROOT
ATOM      1  C   UNL A   1      42.155  19.289  26.848  1.00  0.00     0.275 C 
ENDROOT
BRANCH   1   2
ATOM      2  O   UNL A   1      42.353  19.477  25.434  1.00  0.00    -0.458 OA
BRANCH   2   3
ATOM      3  C   UNL A   1      43.632  19.360  24.998  1.00  0.00     0.338 C 
ATOM      4  O   UNL A   1      44.174  18.333  24.619  1.00  0.00    -0.246 OA
BRANCH   3   5
ATOM      5  C   UNL A   1      44.313  20.678  24.982  1.00  0.00     0.060 A 
ATOM      6  C   UNL A   1      45.714  23.113  25.085  1.00  0.00     0.060 A 
ATOM      7  C   UNL A   1      46.407  21.905  24.973  1.00  0.00     0.029 A 
ATOM      8  C   UNL A   1      44.312  23.092  25.084  1.00  0.00     0.029 A 
ATOM      9  C   UNL A   1      45.715  20.696  24.957  1.00  0.00     0.018 A 
ATOM     10  C   UNL A   1      43.610  21.884  25.026  1.00  0.00     0.018 A 
BRANCH   6  11
ATOM     11  N   UNL A   1      46.393  24.312  25.337  1.00  0.00    -0.257 N 
ATOM     12  C   UNL A   1      47.964  25.598  24.669  1.00  0.00     0.071 C 
ATOM     13  N   UNL A   1      46.878  25.009  24.276  1.00  0.00    -0.176 NA
ATOM     14  C   UNL A   1      48.387  25.317  26.084  1.00  0.00     0.091 C 
ATOM     15  C   UNL A   1      47.288  24.337  26.507  1.00  0.00     0.144 C 
BRANCH  12  16
ATOM     16  C   UNL A   1      48.717  26.531  23.809  1.00  0.00    -0.002 A 
ATOM     17  C   UNL A   1      50.268  28.195  22.198  1.00  0.00     0.067 A 
ATOM     18  C   UNL A   1      50.777  27.749  23.420  1.00  0.00     0.021 A 
ATOM     19  C   UNL A   1      48.975  27.838  21.792  1.00  0.00     0.021 A 
ATOM     20  C   UNL A   1      49.992  26.927  24.229  1.00  0.00     0.011 A 
ATOM     21  C   UNL A   1      48.200  26.993  22.595  1.00  0.00     0.011 A 
BRANCH  17  22
ATOM     22  S   UNL A   1      51.250  29.205  21.111  1.00  0.00     0.175 S 
ATOM     23  C   UNL A   1      52.729  29.622  21.995  1.00  0.00     0.163 C 
ATOM     24  O   UNL A   1      50.509  30.431  20.888  1.00  0.00    -0.224 OA
ATOM     25  O   UNL A   1      51.616  28.348  19.997  1.00  0.00    -0.224 OA
ENDBRANCH  17  22
ENDBRANCH  12  16
BRANCH  15  26
ATOM     26  C   UNL A   1      46.469  24.641  27.755  1.00  0.00    -0.023 A 
ATOM     27  C   UNL A   1      45.263  23.998  28.067  1.00  0.00     0.007 A 
ATOM     28  C   UNL A   1      47.019  25.520  28.713  1.00  0.00     0.007 A 
ATOM     29  C   UNL A   1      44.631  24.224  29.294  1.00  0.00     0.021 A 
ATOM     30  C   UNL A   1      46.404  25.725  29.949  1.00  0.00     0.021 A 
ATOM     31  C   UNL A   1      45.209  25.074  30.234  1.00  0.00     0.041 A 
ATOM     32  Cl  UNL A   1      44.459  25.298  31.766  1.00  0.00    -0.084 Cl
ENDBRANCH  15  26
ENDBRANCH   6  11
ENDBRANCH   3   5
ENDBRANCH   2   3
ENDBRANCH   1   2
BRANCH   1  33
ATOM     33  C   UNL A   1      40.871  19.975  27.312  1.00  0.00     0.275 C 
BRANCH  33  34
ATOM     34  O   UNL A   1      41.060  21.398  27.401  1.00  0.00    -0.458 OA
BRANCH  34  35
ATOM     35  C   UNL A   1      40.152  22.148  26.735  1.00  0.00     0.338 C 
ATOM     36  O   UNL A   1      39.312  21.763  25.942  1.00  0.00    -0.246 OA
BRANCH  35  37
ATOM     37  C   UNL A   1      40.303  23.554  27.132  1.00  0.00     0.060 A 
ATOM     38  C   UNL A   1      39.990  24.553  26.213  1.00  0.00     0.016 A 
ATOM     39  C   UNL A   1      40.855  23.883  28.367  1.00  0.00     0.016 A 
ATOM     40  C   UNL A   1      40.281  25.887  26.494  1.00  0.00     0.010 A 
ATOM     41  C   UNL A   1      41.078  25.229  28.679  1.00  0.00     0.010 A 
ATOM     42  C   UNL A   1      40.817  26.244  27.737  1.00  0.00    -0.014 A 
BRANCH  42  43
ATOM     43  C   UNL A   1      41.148  27.662  28.055  1.00  0.00     0.031 A 
ATOM     44  C   UNL A   1      42.578  28.126  27.963  1.00  0.00     0.074 A 
ATOM     45  C   UNL A   1      40.189  28.524  28.448  1.00  0.00     0.049 A 
ATOM     46  N   UNL A   1      43.132  29.212  28.437  1.00  0.00    -0.248 NA
ATOM     47  C   UNL A   1      43.510  27.235  27.254  1.00  0.00     0.031 C 
ATOM     48  C   UNL A   1      38.755  28.232  28.501  1.00  0.00     0.029 A 
ATOM     49  N   UNL A   1      40.277  29.822  28.890  1.00  0.00    -0.354 N 
ATOM     50  C   UNL A   1      44.488  29.106  28.143  1.00  0.00     0.074 A 
ATOM     51  C   UNL A   1      44.669  27.850  27.444  1.00  0.00     0.031 C 
ATOM     52  C   UNL A   1      38.100  29.319  28.938  1.00  0.00     0.029 A 
ATOM     53  C   UNL A   1      39.070  30.348  29.293  1.00  0.00     0.049 A 
ATOM     54  H   UNL A   1      41.122  30.327  28.916  1.00  0.00     0.167 HD
ATOM     55  C   UNL A   1      45.486  29.974  28.442  1.00  0.00     0.034 A 
ATOM     56  C   UNL A   1      38.782  31.500  29.934  1.00  0.00     0.034 A 
ATOM     57  C   UNL A   1      45.272  31.241  29.100  1.00  0.00     0.049 A 
ATOM     58  C   UNL A   1      39.913  32.417  30.323  1.00  0.00     0.074 A 
ATOM     59  C   UNL A   1      46.203  32.211  29.429  1.00  0.00     0.029 A 
ATOM     60  N   UNL A   1      44.038  31.718  29.525  1.00  0.00    -0.354 N 
ATOM     61  N   UNL A   1      41.201  32.278  30.103  1.00  0.00    -0.248 NA
ATOM     62  C   UNL A   1      39.559  33.635  31.063  1.00  0.00     0.031 C 
ATOM     63  C   UNL A   1      45.544  33.242  30.107  1.00  0.00     0.029 A 
ATOM     64  C   UNL A   1      44.190  32.953  30.137  1.00  0.00     0.049 A 
ATOM     65  H   UNL A   1      43.181  31.248  29.408  1.00  0.00     0.167 HD
ATOM     66  C   UNL A   1      41.803  33.406  30.650  1.00  0.00     0.074 A 
ATOM     67  C   UNL A   1      40.740  34.218  31.208  1.00  0.00     0.031 C 
ATOM     68  C   UNL A   1      43.116  33.747  30.683  1.00  0.00     0.034 A 
BRANCH  55  69
ATOM     69  C   UNL A   1      46.902  29.552  28.132  1.00  0.00     0.023 A 
ATOM     70  C   UNL A   1      47.728  28.925  29.079  1.00  0.00     0.031 A 
ATOM     71  C   UNL A   1      47.436  29.801  26.854  1.00  0.00     0.131 A 
ATOM     72  C   UNL A   1      49.061  28.622  28.753  1.00  0.00     0.055 A 
ATOM     73  C   UNL A   1      48.738  29.431  26.512  1.00  0.00     0.041 A 
ATOM     74  F   UNL A   1      46.702  30.418  25.914  1.00  0.00    -0.206 F 
ATOM     75  C   UNL A   1      49.563  28.848  27.469  1.00  0.00     0.022 A 
BRANCH  72  76
ATOM     76  S   UNL A   1      50.168  28.038  30.066  1.00  0.00     0.124 S 
ATOM     77  O   UNL A   1      49.507  28.549  31.264  1.00  0.00    -0.237 OA
ATOM     78  O   UNL A   1      50.136  26.590  29.890  1.00  0.00    -0.237 OA
ATOM     79  O   UNL A   1      51.445  28.674  29.748  1.00  0.00    -0.744 OA
ENDBRANCH  72  76
ENDBRANCH  55  69
BRANCH  56  80
ATOM     80  C   UNL A   1      37.377  31.820  30.324  1.00  0.00     0.023 A 
ATOM     81  C   UNL A   1      36.483  32.388  29.403  1.00  0.00     0.031 A 
ATOM     82  C   UNL A   1      36.920  31.604  31.638  1.00  0.00     0.131 A 
ATOM     83  C   UNL A   1      35.193  32.757  29.817  1.00  0.00     0.055 A 
ATOM     84  C   UNL A   1      35.618  31.918  32.029  1.00  0.00     0.041 A 
ATOM     85  F   UNL A   1      37.734  31.071  32.562  1.00  0.00    -0.206 F 
ATOM     86  C   UNL A   1      34.749  32.511  31.119  1.00  0.00     0.022 A 
BRANCH  83  87
ATOM     87  S   UNL A   1      34.129  33.650  28.651  1.00  0.00     0.124 S 
ATOM     88  O   UNL A   1      35.051  34.641  28.107  1.00  0.00    -0.237 OA
ATOM     89  O   UNL A   1      33.719  32.586  27.740  1.00  0.00    -0.237 OA
ATOM     90  O   UNL A   1      33.067  34.184  29.500  1.00  0.00    -0.744 OA
ENDBRANCH  83  87
ENDBRANCH  56  80
BRANCH  68  91
ATOM     91  C   UNL A   1      43.463  35.087  31.280  1.00  0.00     0.023 A 
ATOM     92  C   UNL A   1      43.542  36.251  30.498  1.00  0.00     0.031 A 
ATOM     93  C   UNL A   1      43.706  35.193  32.661  1.00  0.00     0.131 A 
ATOM     94  C   UNL A   1      43.895  37.469  31.099  1.00  0.00     0.055 A 
ATOM     95  C   UNL A   1      44.008  36.416  33.261  1.00  0.00     0.041 A 
ATOM     96  F   UNL A   1      43.644  34.109  33.450  1.00  0.00    -0.206 F 
ATOM     97  C   UNL A   1      44.112  37.562  32.478  1.00  0.00     0.022 A 
BRANCH  94  98
ATOM     98  S   UNL A   1      44.119  38.930  30.048  1.00  0.00     0.124 S 
ATOM     99  O   UNL A   1      43.264  38.618  28.907  1.00  0.00    -0.237 OA
ATOM    100  O   UNL A   1      43.659  40.012  30.912  1.00  0.00    -0.237 OA
ATOM    101  O   UNL A   1      45.553  38.934  29.765  1.00  0.00    -0.744 OA
ENDBRANCH  94  98
ENDBRANCH  68  91
ENDBRANCH  42  43
ENDBRANCH  35  37
ENDBRANCH  34  35
ENDBRANCH  33  34
ENDBRANCH   1  33
TORSDOF 18
ENDMDL
MODEL 3
REMARK VINA RESULT:     -12.6      5.391      8.442
REMARK SMILES CS(=O)(=O)c1ccc(C2=NN(c3ccc(C(=O)OCCOC(=O)c4ccc(-c5c6nc(c(-c7cc(S(=O)(=O)[O-])ccc7F)c7ccc([nH]7)c(-c7cc(S(=O)(=O)[O-])ccc7F)c7nc(c(-c8cc(S(=O)(=O)[O-])ccc8F)c8ccc5[nH]8)C=C7)C=C6)cc4)cc3)[C@H](c3ccc(Cl)cc3)C2)cc1
REMARK SMILES IDX 19 1 18 2 16 3 17 4 15 5 12 6 13 7 88 8 14 9 87 10 11 11
REMARK SMILES IDX 9 12 10 13 97 14 89 15 8 16 5 17 6 18 99 19 7 20 98 21 2 22
REMARK SMILES IDX 1 23 3 24 4 25 90 26 91 27 96 28 92 29 95 30 93 31 94 32
REMARK SMILES IDX 20 33 21 34 22 35 23 36 24 37 25 38 86 39 26 40 85 41 27 42
REMARK SMILES IDX 28 43 29 44 79 45 30 46 84 47 78 48 80 49 31 50 83 51 77 52
REMARK SMILES IDX 76 53 32 55 64 56 44 57 63 58 45 59 48 60 62 61 81 62 46 63
REMARK SMILES IDX 47 64 61 66 82 67 49 68 33 69 34 70 42 71 35 72 41 73 43 74
REMARK SMILES IDX 40 75 36 76 37 77 38 78 39 79 65 80 66 81 74 82 67 83 73 84
REMARK SMILES IDX 75 85 72 86 68 87 69 88 70 89 71 90 50 91 51 92 59 93 52 94
REMARK SMILES IDX 58 95 60 96 57 97 53 98 54 99 55 100 56 101
REMARK H PARENT 80 54 48 65
REMARK Flexibility Score: inf
ROOT
ATOM      1  C   UNL A   1      40.614  20.328  27.193  1.00  0.00     0.275 C 
ENDROOT
BRANCH   1   2
ATOM      2  O   UNL A   1      39.679  20.866  26.238  1.00  0.00    -0.458 OA
BRANCH   2   3
ATOM      3  C   UNL A   1      39.418  22.191  26.353  1.00  0.00     0.338 C 
ATOM      4  O   UNL A   1      40.154  23.030  26.850  1.00  0.00    -0.246 OA
BRANCH   3   5
ATOM      5  C   UNL A   1      38.113  22.534  25.737  1.00  0.00     0.060 A 
ATOM      6  C   UNL A   1      35.576  23.220  24.739  1.00  0.00     0.060 A 
ATOM      7  C   UNL A   1      36.248  24.082  25.610  1.00  0.00     0.029 A 
ATOM      8  C   UNL A   1      36.214  22.042  24.326  1.00  0.00     0.029 A 
ATOM      9  C   UNL A   1      37.490  23.726  26.133  1.00  0.00     0.018 A 
ATOM     10  C   UNL A   1      37.479  21.699  24.814  1.00  0.00     0.018 A 
BRANCH   6  11
ATOM     11  N   UNL A   1      34.239  23.448  24.391  1.00  0.00    -0.257 N 
ATOM     12  C   UNL A   1      32.676  24.905  24.339  1.00  0.00     0.071 C 
ATOM     13  N   UNL A   1      33.893  24.686  23.951  1.00  0.00    -0.176 NA
ATOM     14  C   UNL A   1      32.046  23.818  25.166  1.00  0.00     0.091 C 
ATOM     15  C   UNL A   1      33.213  22.829  25.248  1.00  0.00     0.144 C 
BRANCH  12  16
ATOM     16  C   UNL A   1      31.925  26.116  23.956  1.00  0.00    -0.002 A 
ATOM     17  C   UNL A   1      30.393  28.307  23.171  1.00  0.00     0.067 A 
ATOM     18  C   UNL A   1      30.654  27.286  22.255  1.00  0.00     0.021 A 
ATOM     19  C   UNL A   1      30.920  28.254  24.468  1.00  0.00     0.021 A 
ATOM     20  C   UNL A   1      31.432  26.197  22.648  1.00  0.00     0.011 A 
ATOM     21  C   UNL A   1      31.680  27.148  24.866  1.00  0.00     0.011 A 
BRANCH  17  22
ATOM     22  S   UNL A   1      29.365  29.691  22.729  1.00  0.00     0.175 S 
ATOM     23  C   UNL A   1      27.688  29.117  22.762  1.00  0.00     0.163 C 
ATOM     24  O   UNL A   1      29.686  30.036  21.357  1.00  0.00    -0.224 OA
ATOM     25  O   UNL A   1      29.529  30.663  23.795  1.00  0.00    -0.224 OA
ENDBRANCH  17  22
ENDBRANCH  12  16
BRANCH  15  26
ATOM     26  C   UNL A   1      32.992  21.389  24.802  1.00  0.00    -0.023 A 
ATOM     27  C   UNL A   1      32.561  21.034  23.516  1.00  0.00     0.007 A 
ATOM     28  C   UNL A   1      33.368  20.354  25.684  1.00  0.00     0.007 A 
ATOM     29  C   UNL A   1      32.508  19.691  23.127  1.00  0.00     0.021 A 
ATOM     30  C   UNL A   1      33.343  19.016  25.288  1.00  0.00     0.021 A 
ATOM     31  C   UNL A   1      32.912  18.690  24.008  1.00  0.00     0.041 A 
ATOM     32  Cl  UNL A   1      32.906  17.046  23.501  1.00  0.00    -0.084 Cl
ENDBRANCH  15  26
ENDBRANCH   6  11
ENDBRANCH   3   5
ENDBRANCH   2   3
ENDBRANCH   1   2
BRANCH   1  33
ATOM     33  C   UNL A   1      41.680  19.485  26.494  1.00  0.00     0.275 C 
BRANCH  33  34
ATOM     34  O   UNL A   1      42.080  20.099  25.256  1.00  0.00    -0.458 OA
BRANCH  34  35
ATOM     35  C   UNL A   1      43.389  20.431  25.168  1.00  0.00     0.338 C 
ATOM     36  O   UNL A   1      44.287  19.780  24.667  1.00  0.00    -0.246 OA
BRANCH  35  37
ATOM     37  C   UNL A   1      43.590  21.759  25.764  1.00  0.00     0.060 A 
ATOM     38  C   UNL A   1      43.343  22.891  24.991  1.00  0.00     0.016 A 
ATOM     39  C   UNL A   1      44.125  21.885  27.044  1.00  0.00     0.016 A 
ATOM     40  C   UNL A   1      43.684  24.157  25.464  1.00  0.00     0.010 A 
ATOM     41  C   UNL A   1      44.398  23.161  27.548  1.00  0.00     0.010 A 
ATOM     42  C   UNL A   1      44.205  24.310  26.755  1.00  0.00    -0.014 A 
BRANCH  42  43
ATOM     43  C   UNL A   1      44.588  25.652  27.277  1.00  0.00     0.031 A 
ATOM     44  C   UNL A   1      43.542  26.523  27.921  1.00  0.00     0.074 A 
ATOM     45  C   UNL A   1      45.852  26.105  27.156  1.00  0.00     0.049 A 
ATOM     46  N   UNL A   1      43.577  27.800  28.198  1.00  0.00    -0.248 NA
ATOM     47  C   UNL A   1      42.277  25.863  28.285  1.00  0.00     0.031 C 
ATOM     48  C   UNL A   1      46.982  25.337  26.628  1.00  0.00     0.029 A 
ATOM     49  N   UNL A   1      46.399  27.330  27.456  1.00  0.00    -0.354 N 
ATOM     50  C   UNL A   1      42.321  28.114  28.708  1.00  0.00     0.074 A 
ATOM     51  C   UNL A   1      41.549  26.888  28.705  1.00  0.00     0.031 C 
ATOM     52  C   UNL A   1      48.085  26.102  26.654  1.00  0.00     0.029 A 
ATOM     53  C   UNL A   1      47.724  27.442  27.100  1.00  0.00     0.049 A 
ATOM     54  H   UNL A   1      45.891  28.056  27.884  1.00  0.00     0.167 HD
ATOM     55  C   UNL A   1      41.858  29.318  29.126  1.00  0.00     0.034 A 
ATOM     56  C   UNL A   1      48.540  28.517  27.074  1.00  0.00     0.034 A 
ATOM     57  C   UNL A   1      42.664  30.515  29.162  1.00  0.00     0.049 A 
ATOM     58  C   UNL A   1      47.985  29.860  27.473  1.00  0.00     0.074 A 
ATOM     59  C   UNL A   1      42.308  31.783  29.590  1.00  0.00     0.029 A 
ATOM     60  N   UNL A   1      43.991  30.594  28.756  1.00  0.00    -0.354 N 
ATOM     61  N   UNL A   1      46.776  30.162  27.889  1.00  0.00    -0.248 NA
ATOM     62  C   UNL A   1      48.893  31.011  27.382  1.00  0.00     0.031 C 
ATOM     63  C   UNL A   1      43.395  32.638  29.386  1.00  0.00     0.029 A 
ATOM     64  C   UNL A   1      44.456  31.892  28.898  1.00  0.00     0.049 A 
ATOM     65  H   UNL A   1      44.522  29.837  28.418  1.00  0.00     0.167 HD
ATOM     66  C   UNL A   1      46.792  31.531  28.138  1.00  0.00     0.074 A 
ATOM     67  C   UNL A   1      48.130  31.995  27.829  1.00  0.00     0.031 C 
ATOM     68  C   UNL A   1      45.795  32.333  28.589  1.00  0.00     0.034 A 
BRANCH  55  69
ATOM     69  C   UNL A   1      40.400  29.417  29.506  1.00  0.00     0.023 A 
ATOM     70  C   UNL A   1      39.972  29.508  30.841  1.00  0.00     0.031 A 
ATOM     71  C   UNL A   1      39.418  29.407  28.498  1.00  0.00     0.131 A 
ATOM     72  C   UNL A   1      38.598  29.525  31.134  1.00  0.00     0.055 A 
ATOM     73  C   UNL A   1      38.057  29.498  28.792  1.00  0.00     0.041 A 
ATOM     74  F   UNL A   1      39.766  29.301  27.205  1.00  0.00    -0.206 F 
ATOM     75  C   UNL A   1      37.639  29.545  30.118  1.00  0.00     0.022 A 
BRANCH  72  76
ATOM     76  S   UNL A   1      38.075  29.396  32.867  1.00  0.00     0.124 S 
ATOM     77  O   UNL A   1      37.212  30.567  33.006  1.00  0.00    -0.237 OA
ATOM     78  O   UNL A   1      37.403  28.102  32.902  1.00  0.00    -0.237 OA
ATOM     79  O   UNL A   1      39.331  29.465  33.611  1.00  0.00    -0.744 OA
ENDBRANCH  72  76
ENDBRANCH  55  69
BRANCH  56  80
ATOM     80  C   UNL A   1      49.943  28.392  26.580  1.00  0.00     0.023 A 
ATOM     81  C   UNL A   1      50.241  28.508  25.213  1.00  0.00     0.031 A 
ATOM     82  C   UNL A   1      51.002  28.110  27.463  1.00  0.00     0.131 A 
ATOM     83  C   UNL A   1      51.556  28.304  24.764  1.00  0.00     0.055 A 
ATOM     84  C   UNL A   1      52.317  27.967  27.018  1.00  0.00     0.041 A 
ATOM     85  F   UNL A   1      50.774  27.981  28.779  1.00  0.00    -0.206 F 
ATOM     86  C   UNL A   1      52.599  28.051  25.659  1.00  0.00     0.022 A 
BRANCH  83  87
ATOM     87  S   UNL A   1      51.870  28.284  22.978  1.00  0.00     0.124 S 
ATOM     88  O   UNL A   1      53.327  28.207  22.934  1.00  0.00    -0.237 OA
ATOM     89  O   UNL A   1      51.150  27.087  22.557  1.00  0.00    -0.237 OA
ATOM     90  O   UNL A   1      51.298  29.548  22.518  1.00  0.00    -0.744 OA
ENDBRANCH  83  87
ENDBRANCH  56  80
BRANCH  68  91
ATOM     91  C   UNL A   1      46.137  33.778  28.842  1.00  0.00     0.023 A 
ATOM     92  C   UNL A   1      45.876  34.781  27.893  1.00  0.00     0.031 A 
ATOM     93  C   UNL A   1      46.726  34.152  30.064  1.00  0.00     0.131 A 
ATOM     94  C   UNL A   1      46.238  36.109  28.169  1.00  0.00     0.055 A 
ATOM     95  C   UNL A   1      47.039  35.481  30.351  1.00  0.00     0.041 A 
ATOM     96  F   UNL A   1      46.997  33.230  31.001  1.00  0.00    -0.206 F 
ATOM     97  C   UNL A   1      46.803  36.467  29.398  1.00  0.00     0.022 A 
BRANCH  94  98
ATOM     98  S   UNL A   1      46.012  37.363  26.878  1.00  0.00     0.124 S 
ATOM     99  O   UNL A   1      46.603  38.545  27.497  1.00  0.00    -0.237 OA
ATOM    100  O   UNL A   1      46.750  36.795  25.755  1.00  0.00    -0.237 OA
ATOM    101  O   UNL A   1      44.562  37.416  26.700  1.00  0.00    -0.744 OA
ENDBRANCH  94  98
ENDBRANCH  68  91
ENDBRANCH  42  43
ENDBRANCH  35  37
ENDBRANCH  34  35
ENDBRANCH  33  34
ENDBRANCH   1  33
TORSDOF 18
ENDMDL
