MODEL 1
REMARK VINA RESULT:     -12.0      0.000      0.000
REMARK SMILES CCn1nc(C(=O)OCCOC(=O)c2ccc(-c3c4nc(c(-c5cc(S(=O)(=O)[O-])ccc5F)c5ccc([nH]5)c(-c5cc(S(=O)(=O)[O-])ccc5F)c5nc(c(-c6cc(S(=O)(=O)[O-])ccc6F)c6ccc3[nH]6)C=C5)C=C4)cc2)c2c1CC[C@H]([NH2+]Cc1nn(CC)c3ccccc13)C2
REMARK SMILES IDX 9 1 8 2 6 3 7 4 5 5 3 6 4 7 78 8 77 9 79 10 95 11 80 12
REMARK SMILES IDX 81 13 2 14 1 15 82 16 83 19 84 20 85 21 94 22 86 23 89 24
REMARK SMILES IDX 93 25 90 26 92 27 91 28 87 29 88 30 10 31 11 32 12 33 13 34
REMARK SMILES IDX 14 35 15 36 76 37 16 38 75 39 17 40 18 41 19 42 69 43 20 44
REMARK SMILES IDX 74 45 68 46 70 47 21 48 73 49 67 50 66 51 22 53 54 54 34 55
REMARK SMILES IDX 53 56 35 57 38 58 52 59 71 60 36 61 37 62 51 64 72 65 39 66
REMARK SMILES IDX 23 67 24 68 32 69 25 70 31 71 33 72 30 73 26 74 27 75 28 76
REMARK SMILES IDX 29 77 55 78 56 79 64 80 57 81 63 82 65 83 62 84 58 85 59 86
REMARK SMILES IDX 60 87 61 88 40 89 41 90 49 91 42 92 48 93 50 94 47 95 43 96
REMARK SMILES IDX 44 97 45 98 46 99
REMARK H PARENT 82 17 82 18 70 52 38 63
REMARK Flexibility Score: inf
ROOT
ATOM      1  C   UNL A   1      33.517  30.398  26.679  1.00  0.00     0.275 C 
ENDROOT
BRANCH   1   2
ATOM      2  O   UNL A   1      33.129  29.115  27.193  1.00  0.00    -0.457 OA
BRANCH   2   3
ATOM      3  C   UNL A   1      31.885  28.562  27.039  1.00  0.00     0.359 C 
ATOM      4  O   UNL A   1      31.211  28.092  27.944  1.00  0.00    -0.244 OA
BRANCH   3   5
ATOM      5  C   UNL A   1      31.550  28.501  25.608  1.00  0.00     0.174 A 
ATOM      6  N   UNL A   1      30.800  28.891  23.640  1.00  0.00    -0.269 N 
ATOM      7  N   UNL A   1      31.025  29.480  24.847  1.00  0.00    -0.165 NA
ATOM      8  C   UNL A   1      31.027  27.539  23.668  1.00  0.00     0.043 A 
ATOM      9  C   UNL A   1      31.594  27.293  24.882  1.00  0.00     0.014 A 
ATOM     10  C   UNL A   1      30.686  26.450  22.725  1.00  0.00     0.062 C 
ATOM     11  C   UNL A   1      31.942  25.966  25.404  1.00  0.00     0.105 C 
ATOM     12  C   UNL A   1      30.298  25.184  23.563  1.00  0.00     0.072 C 
ATOM     13  C   UNL A   1      31.291  24.776  24.709  1.00  0.00     0.187 C 
BRANCH   6  14
ATOM     14  C   UNL A   1      30.279  29.675  22.532  1.00  0.00     0.141 C 
ATOM     15  C   UNL A   1      28.785  29.520  22.261  1.00  0.00     0.029 C 
ENDBRANCH   6  14
BRANCH  13  16
ATOM     16  N   UNL A   1      30.619  23.875  25.707  1.00  0.00    -0.338 N 
ATOM     17  H   UNL A   1      30.067  23.189  25.192  1.00  0.00     0.346 HD
ATOM     18  H   UNL A   1      30.057  24.482  26.304  1.00  0.00     0.346 HD
BRANCH  16  19
ATOM     19  C   UNL A   1      31.545  23.134  26.621  1.00  0.00     0.320 C 
BRANCH  19  20
ATOM     20  C   UNL A   1      32.616  22.313  25.886  1.00  0.00     0.124 A 
ATOM     21  N   UNL A   1      32.361  21.089  25.377  1.00  0.00    -0.171 NA
ATOM     22  C   UNL A   1      34.004  22.650  25.722  1.00  0.00     0.029 A 
ATOM     23  N   UNL A   1      33.577  20.629  24.980  1.00  0.00    -0.265 N 
ATOM     24  C   UNL A   1      34.556  21.595  24.999  1.00  0.00     0.069 A 
ATOM     25  C   UNL A   1      34.866  23.681  26.155  1.00  0.00     0.012 A 
ATOM     26  C   UNL A   1      35.886  21.595  24.548  1.00  0.00     0.028 A 
ATOM     27  C   UNL A   1      36.225  23.634  25.806  1.00  0.00     0.001 A 
ATOM     28  C   UNL A   1      36.718  22.624  24.984  1.00  0.00     0.002 A 
BRANCH  23  29
ATOM     29  C   UNL A   1      33.758  19.223  24.638  1.00  0.00     0.141 C 
ATOM     30  C   UNL A   1      32.562  18.512  23.992  1.00  0.00     0.029 C 
ENDBRANCH  23  29
ENDBRANCH  19  20
ENDBRANCH  16  19
ENDBRANCH  13  16
ENDBRANCH   3   5
ENDBRANCH   2   3
ENDBRANCH   1   2
BRANCH   1  31
ATOM     31  C   UNL A   1      34.251  31.248  27.698  1.00  0.00     0.275 C 
BRANCH  31  32
ATOM     32  O   UNL A   1      35.542  30.693  27.823  1.00  0.00    -0.458 OA
BRANCH  32  33
ATOM     33  C   UNL A   1      36.389  31.532  28.470  1.00  0.00     0.338 C 
ATOM     34  O   UNL A   1      36.887  32.552  28.018  1.00  0.00    -0.246 OA
BRANCH  33  35
ATOM     35  C   UNL A   1      36.553  31.056  29.867  1.00  0.00     0.060 A 
ATOM     36  C   UNL A   1      37.639  31.702  30.443  1.00  0.00     0.016 A 
ATOM     37  C   UNL A   1      36.330  29.683  30.022  1.00  0.00     0.016 A 
ATOM     38  C   UNL A   1      38.766  30.939  30.532  1.00  0.00     0.010 A 
ATOM     39  C   UNL A   1      37.455  28.912  30.072  1.00  0.00     0.010 A 
ATOM     40  C   UNL A   1      38.668  29.577  30.212  1.00  0.00    -0.014 A 
BRANCH  40  41
ATOM     41  C   UNL A   1      39.903  28.849  30.160  1.00  0.00     0.031 A 
ATOM     42  C   UNL A   1      40.435  28.606  31.501  1.00  0.00     0.074 A 
ATOM     43  C   UNL A   1      40.480  28.413  29.034  1.00  0.00     0.049 A 
ATOM     44  N   UNL A   1      41.453  29.169  32.052  1.00  0.00    -0.248 NA
ATOM     45  C   UNL A   1      39.601  27.803  32.406  1.00  0.00     0.031 C 
ATOM     46  C   UNL A   1      39.919  28.322  27.689  1.00  0.00     0.029 A 
ATOM     47  N   UNL A   1      41.705  27.842  28.917  1.00  0.00    -0.354 N 
ATOM     48  C   UNL A   1      41.516  28.618  33.318  1.00  0.00     0.074 A 
ATOM     49  C   UNL A   1      40.252  27.973  33.553  1.00  0.00     0.031 C 
ATOM     50  C   UNL A   1      40.718  27.522  26.944  1.00  0.00     0.029 A 
ATOM     51  C   UNL A   1      41.893  27.166  27.727  1.00  0.00     0.049 A 
ATOM     52  H   UNL A   1      42.397  27.904  29.615  1.00  0.00     0.167 HD
ATOM     53  C   UNL A   1      42.699  28.507  33.969  1.00  0.00     0.034 A 
ATOM     54  C   UNL A   1      42.891  26.286  27.472  1.00  0.00     0.034 A 
ATOM     55  C   UNL A   1      43.689  29.411  33.430  1.00  0.00     0.049 A 
ATOM     56  C   UNL A   1      44.001  26.578  28.419  1.00  0.00     0.074 A 
ATOM     57  C   UNL A   1      43.743  30.783  33.261  1.00  0.00     0.029 A 
ATOM     58  N   UNL A   1      44.669  28.898  32.609  1.00  0.00    -0.354 N 
ATOM     59  N   UNL A   1      44.687  27.689  28.406  1.00  0.00    -0.248 NA
ATOM     60  C   UNL A   1      44.077  25.833  29.669  1.00  0.00     0.031 C 
ATOM     61  C   UNL A   1      44.421  30.984  32.022  1.00  0.00     0.029 A 
ATOM     62  C   UNL A   1      44.772  29.730  31.518  1.00  0.00     0.049 A 
ATOM     63  H   UNL A   1      45.198  28.084  32.773  1.00  0.00     0.167 HD
ATOM     64  C   UNL A   1      44.923  27.991  29.739  1.00  0.00     0.074 A 
ATOM     65  C   UNL A   1      44.639  26.755  30.458  1.00  0.00     0.031 C 
ATOM     66  C   UNL A   1      45.054  29.284  30.163  1.00  0.00     0.034 A 
BRANCH  53  67
ATOM     67  C   UNL A   1      43.025  27.337  34.857  1.00  0.00     0.023 A 
ATOM     68  C   UNL A   1      43.788  26.303  34.299  1.00  0.00     0.031 A 
ATOM     69  C   UNL A   1      42.425  27.061  36.111  1.00  0.00     0.131 A 
ATOM     70  C   UNL A   1      43.881  25.058  34.941  1.00  0.00     0.055 A 
ATOM     71  C   UNL A   1      42.593  25.853  36.786  1.00  0.00     0.041 A 
ATOM     72  F   UNL A   1      41.564  27.894  36.709  1.00  0.00    -0.206 F 
ATOM     73  C   UNL A   1      43.301  24.829  36.187  1.00  0.00     0.022 A 
BRANCH  70  74
ATOM     74  S   UNL A   1      44.608  23.681  34.024  1.00  0.00     0.124 S 
ATOM     75  O   UNL A   1      45.385  24.378  33.003  1.00  0.00    -0.237 OA
ATOM     76  O   UNL A   1      45.372  23.002  35.064  1.00  0.00    -0.237 OA
ATOM     77  O   UNL A   1      43.441  22.955  33.528  1.00  0.00    -0.744 OA
ENDBRANCH  70  74
ENDBRANCH  53  67
BRANCH  54  78
ATOM     78  C   UNL A   1      42.740  25.026  26.707  1.00  0.00     0.023 A 
ATOM     79  C   UNL A   1      43.719  24.566  25.811  1.00  0.00     0.031 A 
ATOM     80  C   UNL A   1      41.678  24.139  27.008  1.00  0.00     0.131 A 
ATOM     81  C   UNL A   1      43.602  23.280  25.241  1.00  0.00     0.055 A 
ATOM     82  C   UNL A   1      41.554  22.880  26.422  1.00  0.00     0.041 A 
ATOM     83  F   UNL A   1      40.763  24.437  27.944  1.00  0.00    -0.206 F 
ATOM     84  C   UNL A   1      42.522  22.442  25.535  1.00  0.00     0.022 A 
BRANCH  81  85
ATOM     85  S   UNL A   1      44.922  22.643  24.164  1.00  0.00     0.124 S 
ATOM     86  O   UNL A   1      45.787  23.808  24.009  1.00  0.00    -0.237 OA
ATOM     87  O   UNL A   1      45.457  21.539  24.954  1.00  0.00    -0.237 OA
ATOM     88  O   UNL A   1      44.210  22.240  22.952  1.00  0.00    -0.744 OA
ENDBRANCH  81  85
ENDBRANCH  54  78
BRANCH  66  89
ATOM     89  C   UNL A   1      45.251  30.361  29.114  1.00  0.00     0.023 A 
ATOM     90  C   UNL A   1      46.513  30.777  28.633  1.00  0.00     0.031 A 
ATOM     91  C   UNL A   1      44.108  30.894  28.493  1.00  0.00     0.131 A 
ATOM     92  C   UNL A   1      46.595  31.709  27.580  1.00  0.00     0.055 A 
ATOM     93  C   UNL A   1      44.194  31.802  27.436  1.00  0.00     0.041 A 
ATOM     94  F   UNL A   1      42.880  30.510  28.880  1.00  0.00    -0.206 F 
ATOM     95  C   UNL A   1      45.440  32.218  26.980  1.00  0.00     0.022 A 
BRANCH  92  96
ATOM     96  S   UNL A   1      48.218  32.270  26.971  1.00  0.00     0.124 S 
ATOM     97  O   UNL A   1      47.874  33.233  25.931  1.00  0.00    -0.237 OA
ATOM     98  O   UNL A   1      48.834  32.818  28.176  1.00  0.00    -0.237 OA
ATOM     99  O   UNL A   1      48.840  31.040  26.478  1.00  0.00    -0.744 OA
ENDBRANCH  92  96
ENDBRANCH  66  89
ENDBRANCH  40  41
ENDBRANCH  33  35
ENDBRANCH  32  33
ENDBRANCH  31  32
ENDBRANCH   1  31
TORSDOF 19
ENDMDL
MODEL 2
REMARK VINA RESULT:     -11.4      3.361      9.278
REMARK SMILES CCn1nc(C(=O)OCCOC(=O)c2ccc(-c3c4nc(c(-c5cc(S(=O)(=O)[O-])ccc5F)c5ccc([nH]5)c(-c5cc(S(=O)(=O)[O-])ccc5F)c5nc(c(-c6cc(S(=O)(=O)[O-])ccc6F)c6ccc3[nH]6)C=C5)C=C4)cc2)c2c1CC[C@H]([NH2+]Cc1nn(CC)c3ccccc13)C2
REMARK SMILES IDX 9 1 8 2 6 3 7 4 5 5 3 6 4 7 78 8 77 9 79 10 95 11 80 12
REMARK SMILES IDX 81 13 2 14 1 15 82 16 83 19 84 20 85 21 94 22 86 23 89 24
REMARK SMILES IDX 93 25 90 26 92 27 91 28 87 29 88 30 10 31 11 32 12 33 13 34
REMARK SMILES IDX 14 35 15 36 76 37 16 38 75 39 17 40 18 41 19 42 69 43 20 44
REMARK SMILES IDX 74 45 68 46 70 47 21 48 73 49 67 50 66 51 22 53 54 54 34 55
REMARK SMILES IDX 53 56 35 57 38 58 52 59 71 60 36 61 37 62 51 64 72 65 39 66
REMARK SMILES IDX 23 67 24 68 32 69 25 70 31 71 33 72 30 73 26 74 27 75 28 76
REMARK SMILES IDX 29 77 55 78 56 79 64 80 57 81 63 82 65 83 62 84 58 85 59 86
REMARK SMILES IDX 60 87 61 88 40 89 41 90 49 91 42 92 48 93 50 94 47 95 43 96
REMARK SMILES IDX 44 97 45 98 46 99
REMARK H PARENT 82 17 82 18 70 52 38 63
REMARK Flexibility Score: inf
ROOT
ATOM      1  C   UNL A   1      38.910  21.757  25.794  1.00  0.00     0.275 C 
ENDROOT
BRANCH   1   2
ATOM      2  O   UNL A   1      37.487  21.947  25.789  1.00  0.00    -0.457 OA
BRANCH   2   3
ATOM      3  C   UNL A   1      36.714  21.984  24.659  1.00  0.00     0.359 C 
ATOM      4  O   UNL A   1      37.025  22.540  23.616  1.00  0.00    -0.244 OA
BRANCH   3   5
ATOM      5  C   UNL A   1      35.406  21.373  24.941  1.00  0.00     0.174 A 
ATOM      6  N   UNL A   1      33.739  20.038  25.109  1.00  0.00    -0.269 N 
ATOM      7  N   UNL A   1      35.079  20.069  24.868  1.00  0.00    -0.165 NA
ATOM      8  C   UNL A   1      33.193  21.294  25.182  1.00  0.00     0.043 A 
ATOM      9  C   UNL A   1      34.252  22.150  25.171  1.00  0.00     0.014 A 
ATOM     10  C   UNL A   1      31.793  21.776  25.163  1.00  0.00     0.062 C 
ATOM     11  C   UNL A   1      34.161  23.614  25.152  1.00  0.00     0.105 C 
ATOM     12  C   UNL A   1      31.750  23.116  24.352  1.00  0.00     0.072 C 
ATOM     13  C   UNL A   1      32.816  24.201  24.741  1.00  0.00     0.187 C 
BRANCH   6  14
ATOM     14  C   UNL A   1      33.037  18.767  25.166  1.00  0.00     0.141 C 
ATOM     15  C   UNL A   1      33.847  17.547  24.733  1.00  0.00     0.029 C 
ENDBRANCH   6  14
BRANCH  13  16
ATOM     16  N   UNL A   1      32.984  25.208  23.638  1.00  0.00    -0.338 N 
ATOM     17  H   UNL A   1      33.502  24.764  22.880  1.00  0.00     0.346 HD
ATOM     18  H   UNL A   1      33.472  26.004  24.052  1.00  0.00     0.346 HD
BRANCH  16  19
ATOM     19  C   UNL A   1      31.709  25.752  23.072  1.00  0.00     0.320 C 
BRANCH  19  20
ATOM     20  C   UNL A   1      31.325  27.134  23.625  1.00  0.00     0.124 A 
ATOM     21  N   UNL A   1      30.216  27.788  23.221  1.00  0.00    -0.171 NA
ATOM     22  C   UNL A   1      32.092  27.948  24.528  1.00  0.00     0.029 A 
ATOM     23  N   UNL A   1      30.325  29.019  23.787  1.00  0.00    -0.265 N 
ATOM     24  C   UNL A   1      31.332  29.100  24.720  1.00  0.00     0.069 A 
ATOM     25  C   UNL A   1      33.359  27.878  25.147  1.00  0.00     0.012 A 
ATOM     26  C   UNL A   1      31.697  30.111  25.624  1.00  0.00     0.028 A 
ATOM     27  C   UNL A   1      33.787  28.937  25.964  1.00  0.00     0.001 A 
ATOM     28  C   UNL A   1      32.951  30.020  26.226  1.00  0.00     0.002 A 
BRANCH  23  29
ATOM     29  C   UNL A   1      29.459  30.109  23.354  1.00  0.00     0.141 C 
ATOM     30  C   UNL A   1      28.415  29.775  22.280  1.00  0.00     0.029 C 
ENDBRANCH  23  29
ENDBRANCH  19  20
ENDBRANCH  16  19
ENDBRANCH  13  16
ENDBRANCH   3   5
ENDBRANCH   2   3
ENDBRANCH   1   2
BRANCH   1  31
ATOM     31  C   UNL A   1      39.639  22.754  26.674  1.00  0.00     0.275 C 
BRANCH  31  32
ATOM     32  O   UNL A   1      39.283  24.036  26.204  1.00  0.00    -0.458 OA
BRANCH  32  33
ATOM     33  C   UNL A   1      40.161  24.984  26.616  1.00  0.00     0.338 C 
ATOM     34  O   UNL A   1      40.663  25.858  25.925  1.00  0.00    -0.246 OA
BRANCH  33  35
ATOM     35  C   UNL A   1      40.357  24.844  28.081  1.00  0.00     0.060 A 
ATOM     36  C   UNL A   1      39.217  25.289  28.736  1.00  0.00     0.016 A 
ATOM     37  C   UNL A   1      41.646  25.182  28.509  1.00  0.00     0.016 A 
ATOM     38  C   UNL A   1      39.335  26.527  29.297  1.00  0.00     0.010 A 
ATOM     39  C   UNL A   1      41.776  26.435  29.035  1.00  0.00     0.010 A 
ATOM     40  C   UNL A   1      40.602  27.127  29.311  1.00  0.00    -0.014 A 
BRANCH  40  41
ATOM     41  C   UNL A   1      40.652  28.488  29.759  1.00  0.00     0.031 A 
ATOM     42  C   UNL A   1      41.665  29.253  29.030  1.00  0.00     0.074 A 
ATOM     43  C   UNL A   1      39.851  29.009  30.696  1.00  0.00     0.049 A 
ATOM     44  N   UNL A   1      42.800  29.667  29.474  1.00  0.00    -0.248 NA
ATOM     45  C   UNL A   1      41.480  29.376  27.578  1.00  0.00     0.031 C 
ATOM     46  C   UNL A   1      38.627  28.456  31.271  1.00  0.00     0.029 A 
ATOM     47  N   UNL A   1      39.942  30.244  31.250  1.00  0.00    -0.354 N 
ATOM     48  C   UNL A   1      43.386  30.304  28.396  1.00  0.00     0.074 A 
ATOM     49  C   UNL A   1      42.649  29.904  27.227  1.00  0.00     0.031 C 
ATOM     50  C   UNL A   1      37.971  29.446  31.918  1.00  0.00     0.029 A 
ATOM     51  C   UNL A   1      38.795  30.647  31.905  1.00  0.00     0.049 A 
ATOM     52  H   UNL A   1      40.752  30.802  31.191  1.00  0.00     0.167 HD
ATOM     53  C   UNL A   1      44.265  31.318  28.582  1.00  0.00     0.034 A 
ATOM     54  C   UNL A   1      38.515  31.914  32.293  1.00  0.00     0.034 A 
ATOM     55  C   UNL A   1      44.828  31.295  29.913  1.00  0.00     0.049 A 
ATOM     56  C   UNL A   1      39.806  32.647  32.400  1.00  0.00     0.074 A 
ATOM     57  C   UNL A   1      45.536  30.354  30.638  1.00  0.00     0.029 A 
ATOM     58  N   UNL A   1      44.361  32.201  30.839  1.00  0.00    -0.354 N 
ATOM     59  N   UNL A   1      40.732  32.355  33.274  1.00  0.00    -0.248 NA
ATOM     60  C   UNL A   1      40.273  33.424  31.259  1.00  0.00     0.031 C 
ATOM     61  C   UNL A   1      45.071  30.484  31.980  1.00  0.00     0.029 A 
ATOM     62  C   UNL A   1      44.130  31.515  32.009  1.00  0.00     0.049 A 
ATOM     63  H   UNL A   1      44.219  33.164  30.691  1.00  0.00     0.167 HD
ATOM     64  C   UNL A   1      41.936  32.532  32.608  1.00  0.00     0.074 A 
ATOM     65  C   UNL A   1      41.596  33.310  31.422  1.00  0.00     0.031 C 
ATOM     66  C   UNL A   1      43.042  31.797  32.931  1.00  0.00     0.034 A 
BRANCH  53  67
ATOM     67  C   UNL A   1      44.334  32.506  27.662  1.00  0.00     0.023 A 
ATOM     68  C   UNL A   1      43.748  33.698  28.108  1.00  0.00     0.031 A 
ATOM     69  C   UNL A   1      44.703  32.469  26.293  1.00  0.00     0.131 A 
ATOM     70  C   UNL A   1      43.499  34.750  27.214  1.00  0.00     0.055 A 
ATOM     71  C   UNL A   1      44.533  33.549  25.429  1.00  0.00     0.041 A 
ATOM     72  F   UNL A   1      45.151  31.362  25.687  1.00  0.00    -0.206 F 
ATOM     73  C   UNL A   1      43.900  34.690  25.880  1.00  0.00     0.022 A 
BRANCH  70  74
ATOM     74  S   UNL A   1      42.463  36.119  27.778  1.00  0.00     0.124 S 
ATOM     75  O   UNL A   1      41.236  35.427  28.162  1.00  0.00    -0.237 OA
ATOM     76  O   UNL A   1      43.263  36.666  28.868  1.00  0.00    -0.237 OA
ATOM     77  O   UNL A   1      42.353  36.968  26.594  1.00  0.00    -0.744 OA
ENDBRANCH  70  74
ENDBRANCH  53  67
BRANCH  54  78
ATOM     78  C   UNL A   1      37.182  32.555  32.210  1.00  0.00     0.023 A 
ATOM     79  C   UNL A   1      36.603  32.935  30.987  1.00  0.00     0.031 A 
ATOM     80  C   UNL A   1      36.358  32.627  33.359  1.00  0.00     0.131 A 
ATOM     81  C   UNL A   1      35.265  33.384  30.952  1.00  0.00     0.055 A 
ATOM     82  C   UNL A   1      35.046  33.095  33.322  1.00  0.00     0.041 A 
ATOM     83  F   UNL A   1      36.779  32.170  34.549  1.00  0.00    -0.206 F 
ATOM     84  C   UNL A   1      34.490  33.473  32.112  1.00  0.00     0.022 A 
BRANCH  81  85
ATOM     85  S   UNL A   1      34.484  33.775  29.357  1.00  0.00     0.124 S 
ATOM     86  O   UNL A   1      33.457  34.738  29.740  1.00  0.00    -0.237 OA
ATOM     87  O   UNL A   1      35.606  34.296  28.584  1.00  0.00    -0.237 OA
ATOM     88  O   UNL A   1      33.974  32.482  28.900  1.00  0.00    -0.744 OA
ENDBRANCH  81  85
ENDBRANCH  54  78
BRANCH  66  89
ATOM     89  C   UNL A   1      43.023  31.014  34.229  1.00  0.00     0.023 A 
ATOM     90  C   UNL A   1      42.486  29.714  34.363  1.00  0.00     0.031 A 
ATOM     91  C   UNL A   1      43.688  31.563  35.340  1.00  0.00     0.131 A 
ATOM     92  C   UNL A   1      42.608  29.022  35.583  1.00  0.00     0.055 A 
ATOM     93  C   UNL A   1      43.825  30.865  36.541  1.00  0.00     0.041 A 
ATOM     94  F   UNL A   1      44.253  32.779  35.265  1.00  0.00    -0.206 F 
ATOM     95  C   UNL A   1      43.278  29.592  36.669  1.00  0.00     0.022 A 
BRANCH  92  96
ATOM     96  S   UNL A   1      41.895  27.356  35.772  1.00  0.00     0.124 S 
ATOM     97  O   UNL A   1      43.062  26.514  36.009  1.00  0.00    -0.237 OA
ATOM     98  O   UNL A   1      40.986  27.528  36.902  1.00  0.00    -0.237 OA
ATOM     99  O   UNL A   1      41.228  27.123  34.490  1.00  0.00    -0.744 OA
ENDBRANCH  92  96
ENDBRANCH  66  89
ENDBRANCH  40  41
ENDBRANCH  33  35
ENDBRANCH  32  33
ENDBRANCH  31  32
ENDBRANCH   1  31
TORSDOF 19
ENDMDL
MODEL 3
REMARK VINA RESULT:     -11.4      2.820      9.085
REMARK SMILES CCn1nc(C(=O)OCCOC(=O)c2ccc(-c3c4nc(c(-c5cc(S(=O)(=O)[O-])ccc5F)c5ccc([nH]5)c(-c5cc(S(=O)(=O)[O-])ccc5F)c5nc(c(-c6cc(S(=O)(=O)[O-])ccc6F)c6ccc3[nH]6)C=C5)C=C4)cc2)c2c1CC[C@H]([NH2+]Cc1nn(CC)c3ccccc13)C2
REMARK SMILES IDX 9 1 8 2 6 3 7 4 5 5 3 6 4 7 78 8 77 9 79 10 95 11 80 12
REMARK SMILES IDX 81 13 2 14 1 15 82 16 83 19 84 20 85 21 94 22 86 23 89 24
REMARK SMILES IDX 93 25 90 26 92 27 91 28 87 29 88 30 10 31 11 32 12 33 13 34
REMARK SMILES IDX 14 35 15 36 76 37 16 38 75 39 17 40 18 41 19 42 69 43 20 44
REMARK SMILES IDX 74 45 68 46 70 47 21 48 73 49 67 50 66 51 22 53 54 54 34 55
REMARK SMILES IDX 53 56 35 57 38 58 52 59 71 60 36 61 37 62 51 64 72 65 39 66
REMARK SMILES IDX 23 67 24 68 32 69 25 70 31 71 33 72 30 73 26 74 27 75 28 76
REMARK SMILES IDX 29 77 55 78 56 79 64 80 57 81 63 82 65 83 62 84 58 85 59 86
REMARK SMILES IDX 60 87 61 88 40 89 41 90 49 91 42 92 48 93 50 94 47 95 43 96
REMARK SMILES IDX 44 97 45 98 46 99
REMARK H PARENT 82 17 82 18 70 52 38 63
REMARK Flexibility Score: inf
ROOT
ATOM      1  C   UNL A   1      39.532  21.717  25.784  1.00  0.00     0.275 C 
ENDROOT
BRANCH   1   2
ATOM      2  O   UNL A   1      38.340  21.020  25.394  1.00  0.00    -0.457 OA
BRANCH   2   3
ATOM      3  C   UNL A   1      37.141  21.626  25.126  1.00  0.00     0.359 C 
ATOM      4  O   UNL A   1      36.959  22.834  25.091  1.00  0.00    -0.244 OA
BRANCH   3   5
ATOM      5  C   UNL A   1      36.088  20.603  25.023  1.00  0.00     0.174 A 
ATOM      6  N   UNL A   1      34.984  18.794  24.712  1.00  0.00    -0.269 N 
ATOM      7  N   UNL A   1      36.248  19.276  24.866  1.00  0.00    -0.165 NA
ATOM      8  C   UNL A   1      34.052  19.796  24.618  1.00  0.00     0.043 A 
ATOM      9  C   UNL A   1      34.725  20.944  24.908  1.00  0.00     0.014 A 
ATOM     10  C   UNL A   1      32.633  19.803  24.195  1.00  0.00     0.062 C 
ATOM     11  C   UNL A   1      34.159  22.297  24.855  1.00  0.00     0.105 C 
ATOM     12  C   UNL A   1      32.368  21.126  23.398  1.00  0.00     0.072 C 
ATOM     13  C   UNL A   1      32.861  22.456  24.072  1.00  0.00     0.187 C 
BRANCH   6  14
ATOM     14  C   UNL A   1      34.760  17.365  24.570  1.00  0.00     0.141 C 
ATOM     15  C   UNL A   1      34.262  16.909  23.201  1.00  0.00     0.029 C 
ENDBRANCH   6  14
BRANCH  13  16
ATOM     16  N   UNL A   1      32.977  23.560  23.059  1.00  0.00    -0.338 N 
ATOM     17  H   UNL A   1      32.088  24.059  23.033  1.00  0.00     0.346 HD
ATOM     18  H   UNL A   1      33.217  23.110  22.175  1.00  0.00     0.346 HD
BRANCH  16  19
ATOM     19  C   UNL A   1      34.062  24.557  23.326  1.00  0.00     0.320 C 
BRANCH  19  20
ATOM     20  C   UNL A   1      33.566  25.847  23.999  1.00  0.00     0.124 A 
ATOM     21  N   UNL A   1      34.044  26.268  25.189  1.00  0.00    -0.171 NA
ATOM     22  C   UNL A   1      32.505  26.706  23.547  1.00  0.00     0.029 A 
ATOM     23  N   UNL A   1      33.245  27.316  25.522  1.00  0.00    -0.265 N 
ATOM     24  C   UNL A   1      32.432  27.728  24.491  1.00  0.00     0.069 A 
ATOM     25  C   UNL A   1      31.561  26.704  22.497  1.00  0.00     0.012 A 
ATOM     26  C   UNL A   1      31.574  28.831  24.354  1.00  0.00     0.028 A 
ATOM     27  C   UNL A   1      30.622  27.743  22.413  1.00  0.00     0.001 A 
ATOM     28  C   UNL A   1      30.653  28.809  23.308  1.00  0.00     0.002 A 
BRANCH  23  29
ATOM     29  C   UNL A   1      33.265  27.858  26.875  1.00  0.00     0.141 C 
ATOM     30  C   UNL A   1      34.113  29.116  27.101  1.00  0.00     0.029 C 
ENDBRANCH  23  29
ENDBRANCH  19  20
ENDBRANCH  16  19
ENDBRANCH  13  16
ENDBRANCH   3   5
ENDBRANCH   2   3
ENDBRANCH   1   2
BRANCH   1  31
ATOM     31  C   UNL A   1      40.646  20.787  26.226  1.00  0.00     0.275 C 
BRANCH  31  32
ATOM     32  O   UNL A   1      41.849  21.508  26.079  1.00  0.00    -0.458 OA
BRANCH  32  33
ATOM     33  C   UNL A   1      42.846  20.727  25.591  1.00  0.00     0.338 C 
ATOM     34  O   UNL A   1      42.848  19.507  25.526  1.00  0.00    -0.246 OA
BRANCH  33  35
ATOM     35  C   UNL A   1      43.919  21.606  25.061  1.00  0.00     0.060 A 
ATOM     36  C   UNL A   1      44.914  21.737  26.019  1.00  0.00     0.016 A 
ATOM     37  C   UNL A   1      43.439  22.696  24.325  1.00  0.00     0.016 A 
ATOM     38  C   UNL A   1      44.900  22.925  26.689  1.00  0.00     0.010 A 
ATOM     39  C   UNL A   1      43.387  23.879  25.005  1.00  0.00     0.010 A 
ATOM     40  C   UNL A   1      44.028  23.927  26.237  1.00  0.00    -0.014 A 
BRANCH  40  41
ATOM     41  C   UNL A   1      43.925  25.094  27.063  1.00  0.00     0.031 A 
ATOM     42  C   UNL A   1      45.103  25.951  26.926  1.00  0.00     0.074 A 
ATOM     43  C   UNL A   1      42.871  25.388  27.835  1.00  0.00     0.049 A 
ATOM     44  N   UNL A   1      46.045  26.128  27.784  1.00  0.00    -0.248 NA
ATOM     45  C   UNL A   1      45.368  26.499  25.588  1.00  0.00     0.031 C 
ATOM     46  C   UNL A   1      41.537  24.794  27.833  1.00  0.00     0.029 A 
ATOM     47  N   UNL A   1      42.777  26.401  28.731  1.00  0.00    -0.354 N 
ATOM     48  C   UNL A   1      46.924  26.998  27.166  1.00  0.00     0.074 A 
ATOM     49  C   UNL A   1      46.582  27.010  25.770  1.00  0.00     0.031 C 
ATOM     50  C   UNL A   1      40.704  25.607  28.524  1.00  0.00     0.029 A 
ATOM     51  C   UNL A   1      41.480  26.691  29.110  1.00  0.00     0.049 A 
ATOM     52  H   UNL A   1      43.560  26.885  29.081  1.00  0.00     0.167 HD
ATOM     53  C   UNL A   1      47.694  27.842  27.895  1.00  0.00     0.034 A 
ATOM     54  C   UNL A   1      41.082  27.812  29.758  1.00  0.00     0.034 A 
ATOM     55  C   UNL A   1      47.827  27.393  29.262  1.00  0.00     0.049 A 
ATOM     56  C   UNL A   1      42.272  28.377  30.451  1.00  0.00     0.074 A 
ATOM     57  C   UNL A   1      48.290  26.230  29.849  1.00  0.00     0.029 A 
ATOM     58  N   UNL A   1      47.090  28.031  30.237  1.00  0.00    -0.354 N 
ATOM     59  N   UNL A   1      42.891  27.773  31.430  1.00  0.00    -0.248 NA
ATOM     60  C   UNL A   1      43.055  29.408  29.782  1.00  0.00     0.031 C 
ATOM     61  C   UNL A   1      47.438  26.008  30.971  1.00  0.00     0.029 A 
ATOM     62  C   UNL A   1      46.522  27.060  31.028  1.00  0.00     0.049 A 
ATOM     63  H   UNL A   1      46.989  29.004  30.346  1.00  0.00     0.167 HD
ATOM     64  C   UNL A   1      44.238  28.036  31.231  1.00  0.00     0.074 A 
ATOM     65  C   UNL A   1      44.267  29.146  30.285  1.00  0.00     0.031 C 
ATOM     66  C   UNL A   1      45.202  27.153  31.630  1.00  0.00     0.034 A 
BRANCH  53  67
ATOM     67  C   UNL A   1      48.027  29.233  27.432  1.00  0.00     0.023 A 
ATOM     68  C   UNL A   1      49.378  29.606  27.441  1.00  0.00     0.031 A 
ATOM     69  C   UNL A   1      47.094  30.283  27.233  1.00  0.00     0.131 A 
ATOM     70  C   UNL A   1      49.748  30.954  27.319  1.00  0.00     0.055 A 
ATOM     71  C   UNL A   1      47.471  31.608  27.026  1.00  0.00     0.041 A 
ATOM     72  F   UNL A   1      45.770  30.111  27.329  1.00  0.00    -0.206 F 
ATOM     73  C   UNL A   1      48.806  31.957  27.098  1.00  0.00     0.022 A 
BRANCH  70  74
ATOM     74  S   UNL A   1      51.467  31.397  27.655  1.00  0.00     0.124 S 
ATOM     75  O   UNL A   1      51.317  32.416  28.690  1.00  0.00    -0.237 OA
ATOM     76  O   UNL A   1      52.024  30.120  28.084  1.00  0.00    -0.237 OA
ATOM     77  O   UNL A   1      51.946  31.889  26.365  1.00  0.00    -0.744 OA
ENDBRANCH  70  74
ENDBRANCH  53  67
BRANCH  54  78
ATOM     78  C   UNL A   1      39.831  28.556  29.481  1.00  0.00     0.023 A 
ATOM     79  C   UNL A   1      39.007  29.052  30.506  1.00  0.00     0.031 A 
ATOM     80  C   UNL A   1      39.526  28.963  28.160  1.00  0.00     0.131 A 
ATOM     81  C   UNL A   1      37.921  29.896  30.188  1.00  0.00     0.055 A 
ATOM     82  C   UNL A   1      38.439  29.776  27.850  1.00  0.00     0.041 A 
ATOM     83  F   UNL A   1      40.327  28.644  27.130  1.00  0.00    -0.206 F 
ATOM     84  C   UNL A   1      37.630  30.252  28.868  1.00  0.00     0.022 A 
BRANCH  81  85
ATOM     85  S   UNL A   1      36.919  30.622  31.521  1.00  0.00     0.124 S 
ATOM     86  O   UNL A   1      36.618  29.462  32.352  1.00  0.00    -0.237 OA
ATOM     87  O   UNL A   1      37.833  31.608  32.089  1.00  0.00    -0.237 OA
ATOM     88  O   UNL A   1      35.770  31.189  30.815  1.00  0.00    -0.744 OA
ENDBRANCH  81  85
ENDBRANCH  54  78
BRANCH  66  89
ATOM     89  C   UNL A   1      44.797  26.035  32.571  1.00  0.00     0.023 A 
ATOM     90  C   UNL A   1      44.639  26.192  33.967  1.00  0.00     0.031 A 
ATOM     91  C   UNL A   1      44.439  24.797  32.009  1.00  0.00     0.131 A 
ATOM     92  C   UNL A   1      44.157  25.124  34.747  1.00  0.00     0.055 A 
ATOM     93  C   UNL A   1      43.942  23.747  32.784  1.00  0.00     0.041 A 
ATOM     94  F   UNL A   1      44.531  24.597  30.684  1.00  0.00    -0.206 F 
ATOM     95  C   UNL A   1      43.805  23.906  34.159  1.00  0.00     0.022 A 
BRANCH  92  96
ATOM     96  S   UNL A   1      43.974  25.310  36.551  1.00  0.00     0.124 S 
ATOM     97  O   UNL A   1      44.831  24.259  37.087  1.00  0.00    -0.237 OA
ATOM     98  O   UNL A   1      44.422  26.682  36.772  1.00  0.00    -0.237 OA
ATOM     99  O   UNL A   1      42.542  25.098  36.771  1.00  0.00    -0.744 OA
ENDBRANCH  92  96
ENDBRANCH  66  89
ENDBRANCH  40  41
ENDBRANCH  33  35
ENDBRANCH  32  33
ENDBRANCH  31  32
ENDBRANCH   1  31
TORSDOF 19
ENDMDL
