MODEL 1
REMARK VINA RESULT:      -9.9      0.000      0.000
REMARK SMILES Cc1cc(C(F)(F)F)nn1CCC(=O)OCCOC(=O)c1ccc(-c2c3nc(c(-c4cc(S(=O)(=O)[O-])ccc4F)c4ccc([nH]4)c(-c4cc(S(=O)(=O)[O-])ccc4F)c4nc(c(-c5cc(S(=O)(=O)[O-])ccc5F)c5ccc2[nH]5)C=C4)C=C3)cc1
REMARK SMILES IDX 16 1 15 2 13 3 14 4 12 5 11 6 10 7 1 8 2 9 3 10 4 11 9 12
REMARK SMILES IDX 5 13 6 14 7 15 8 16 17 17 18 18 19 19 20 20 21 21 22 22
REMARK SMILES IDX 83 23 23 24 82 25 24 26 25 27 26 28 76 29 27 30 81 31 75 32
REMARK SMILES IDX 77 33 28 34 80 35 74 36 73 37 29 39 61 40 41 41 60 42 42 43
REMARK SMILES IDX 45 44 59 45 78 46 43 47 44 48 58 50 79 51 46 52 30 53 31 54
REMARK SMILES IDX 39 55 32 56 38 57 40 58 37 59 33 60 34 61 35 62 36 63 62 64
REMARK SMILES IDX 63 65 71 66 64 67 70 68 72 69 69 70 65 71 66 72 67 73 68 74
REMARK SMILES IDX 47 75 48 76 56 77 49 78 55 79 57 80 54 81 50 82 51 83 52 84
REMARK SMILES IDX 53 85
REMARK H PARENT 77 38 45 49
REMARK Flexibility Score: inf
ROOT
ATOM      1  C   UNL A   1      34.030  34.325  29.331  1.00  0.00     0.274 C 
ENDROOT
BRANCH   1   2
ATOM      2  O   UNL A   1      34.960  33.967  30.368  1.00  0.00    -0.462 OA
BRANCH   2   3
ATOM      3  C   UNL A   1      34.487  33.835  31.630  1.00  0.00     0.307 C 
ATOM      4  O   UNL A   1      33.743  34.640  32.181  1.00  0.00    -0.252 OA
BRANCH   3   5
ATOM      5  C   UNL A   1      35.084  32.641  32.346  1.00  0.00     0.146 C 
BRANCH   5   6
ATOM      6  C   UNL A   1      36.040  32.908  33.507  1.00  0.00     0.156 C 
BRANCH   6   7
ATOM      7  N   UNL A   1      37.449  32.743  33.190  1.00  0.00    -0.269 N 
ATOM      8  C   UNL A   1      38.111  31.238  35.098  1.00  0.00     0.066 C 
ATOM      9  C   UNL A   1      38.405  32.063  33.903  1.00  0.00     0.036 A 
ATOM     10  C   UNL A   1      39.603  32.337  33.271  1.00  0.00     0.058 A 
ATOM     11  C   UNL A   1      39.273  33.132  32.146  1.00  0.00     0.166 A 
ATOM     12  N   UNL A   1      37.946  33.306  32.079  1.00  0.00    -0.168 NA
BRANCH  11  13
ATOM     13  C   UNL A   1      40.203  33.752  31.145  1.00  0.00     0.435 C 
ATOM     14  F   UNL A   1      40.898  34.815  31.632  1.00  0.00    -0.164 F 
ATOM     15  F   UNL A   1      41.129  32.862  30.682  1.00  0.00    -0.164 F 
ATOM     16  F   UNL A   1      39.538  34.202  30.042  1.00  0.00    -0.164 F 
ENDBRANCH  11  13
ENDBRANCH   6   7
ENDBRANCH   5   6
ENDBRANCH   3   5
ENDBRANCH   2   3
ENDBRANCH   1   2
BRANCH   1  17
ATOM     17  C   UNL A   1      34.115  33.408  28.112  1.00  0.00     0.275 C 
BRANCH  17  18
ATOM     18  O   UNL A   1      35.417  32.832  27.960  1.00  0.00    -0.458 OA
BRANCH  18  19
ATOM     19  C   UNL A   1      35.409  31.498  27.792  1.00  0.00     0.338 C 
ATOM     20  O   UNL A   1      34.529  30.833  27.254  1.00  0.00    -0.246 OA
BRANCH  19  21
ATOM     21  C   UNL A   1      36.502  30.842  28.492  1.00  0.00     0.060 A 
ATOM     22  C   UNL A   1      37.596  31.641  28.856  1.00  0.00     0.016 A 
ATOM     23  C   UNL A   1      36.552  29.447  28.541  1.00  0.00     0.016 A 
ATOM     24  C   UNL A   1      38.794  31.034  29.156  1.00  0.00     0.010 A 
ATOM     25  C   UNL A   1      37.754  28.842  28.829  1.00  0.00     0.010 A 
ATOM     26  C   UNL A   1      38.872  29.643  29.083  1.00  0.00    -0.014 A 
BRANCH  26  27
ATOM     27  C   UNL A   1      40.139  29.017  29.403  1.00  0.00     0.031 A 
ATOM     28  C   UNL A   1      40.463  29.023  30.847  1.00  0.00     0.074 A 
ATOM     29  C   UNL A   1      40.850  28.339  28.484  1.00  0.00     0.049 A 
ATOM     30  N   UNL A   1      41.500  29.517  31.435  1.00  0.00    -0.248 NA
ATOM     31  C   UNL A   1      39.428  28.531  31.772  1.00  0.00     0.031 C 
ATOM     32  C   UNL A   1      40.450  28.034  27.109  1.00  0.00     0.029 A 
ATOM     33  N   UNL A   1      42.017  27.656  28.634  1.00  0.00    -0.354 N 
ATOM     34  C   UNL A   1      41.352  29.198  32.781  1.00  0.00     0.074 A 
ATOM     35  C   UNL A   1      39.989  28.783  32.952  1.00  0.00     0.031 C 
ATOM     36  C   UNL A   1      41.236  27.046  26.631  1.00  0.00     0.029 A 
ATOM     37  C   UNL A   1      42.259  26.737  27.619  1.00  0.00     0.049 A 
ATOM     38  H   UNL A   1      42.633  27.797  29.388  1.00  0.00     0.167 HD
ATOM     39  C   UNL A   1      42.431  29.059  33.596  1.00  0.00     0.034 A 
ATOM     40  C   UNL A   1      43.173  25.735  27.626  1.00  0.00     0.034 A 
ATOM     41  C   UNL A   1      43.586  29.729  33.047  1.00  0.00     0.049 A 
ATOM     42  C   UNL A   1      44.191  26.066  28.650  1.00  0.00     0.074 A 
ATOM     43  C   UNL A   1      43.872  31.034  32.694  1.00  0.00     0.029 A 
ATOM     44  N   UNL A   1      44.558  28.959  32.449  1.00  0.00    -0.354 N 
ATOM     45  N   UNL A   1      45.009  27.077  28.558  1.00  0.00    -0.248 NA
ATOM     46  C   UNL A   1      44.040  25.523  29.993  1.00  0.00     0.031 C 
ATOM     47  C   UNL A   1      44.714  30.939  31.548  1.00  0.00     0.029 A 
ATOM     48  C   UNL A   1      44.942  29.586  31.289  1.00  0.00     0.049 A 
ATOM     49  H   UNL A   1      44.914  28.108  32.792  1.00  0.00     0.167 HD
ATOM     50  C   UNL A   1      45.128  27.564  29.849  1.00  0.00     0.074 A 
ATOM     51  C   UNL A   1      44.629  26.490  30.701  1.00  0.00     0.031 C 
ATOM     52  C   UNL A   1      45.350  28.891  30.081  1.00  0.00     0.034 A 
BRANCH  39  53
ATOM     53  C   UNL A   1      42.535  28.015  34.689  1.00  0.00     0.023 A 
ATOM     54  C   UNL A   1      43.294  26.865  34.405  1.00  0.00     0.031 A 
ATOM     55  C   UNL A   1      41.723  27.938  35.847  1.00  0.00     0.131 A 
ATOM     56  C   UNL A   1      43.148  25.694  35.167  1.00  0.00     0.055 A 
ATOM     57  C   UNL A   1      41.638  26.794  36.645  1.00  0.00     0.041 A 
ATOM     58  F   UNL A   1      40.895  28.917  36.228  1.00  0.00    -0.206 F 
ATOM     59  C   UNL A   1      42.326  25.649  36.288  1.00  0.00     0.022 A 
BRANCH  56  60
ATOM     60  S   UNL A   1      43.902  24.171  34.544  1.00  0.00     0.124 S 
ATOM     61  O   UNL A   1      44.628  24.658  33.376  1.00  0.00    -0.237 OA
ATOM     62  O   UNL A   1      44.715  23.755  35.683  1.00  0.00    -0.237 OA
ATOM     63  O   UNL A   1      42.752  23.319  34.254  1.00  0.00    -0.744 OA
ENDBRANCH  56  60
ENDBRANCH  39  53
BRANCH  40  64
ATOM     64  C   UNL A   1      43.043  24.398  26.995  1.00  0.00     0.023 A 
ATOM     65  C   UNL A   1      43.968  23.924  26.044  1.00  0.00     0.031 A 
ATOM     66  C   UNL A   1      42.109  23.464  27.497  1.00  0.00     0.131 A 
ATOM     67  C   UNL A   1      43.930  22.573  25.632  1.00  0.00     0.055 A 
ATOM     68  C   UNL A   1      42.065  22.136  27.074  1.00  0.00     0.041 A 
ATOM     69  F   UNL A   1      41.259  23.791  28.483  1.00  0.00    -0.206 F 
ATOM     70  C   UNL A   1      42.984  21.681  26.143  1.00  0.00     0.022 A 
BRANCH  67  71
ATOM     71  S   UNL A   1      45.199  21.929  24.497  1.00  0.00     0.124 S 
ATOM     72  O   UNL A   1      45.183  22.914  23.423  1.00  0.00    -0.237 OA
ATOM     73  O   UNL A   1      46.390  21.905  25.340  1.00  0.00    -0.237 OA
ATOM     74  O   UNL A   1      44.687  20.609  24.128  1.00  0.00    -0.744 OA
ENDBRANCH  67  71
ENDBRANCH  40  64
BRANCH  52  75
ATOM     75  C   UNL A   1      45.838  29.741  28.926  1.00  0.00     0.023 A 
ATOM     76  C   UNL A   1      45.075  30.745  28.285  1.00  0.00     0.031 A 
ATOM     77  C   UNL A   1      47.176  29.585  28.526  1.00  0.00     0.131 A 
ATOM     78  C   UNL A   1      45.656  31.532  27.272  1.00  0.00     0.055 A 
ATOM     79  C   UNL A   1      47.754  30.380  27.537  1.00  0.00     0.041 A 
ATOM     80  F   UNL A   1      47.962  28.669  29.119  1.00  0.00    -0.206 F 
ATOM     81  C   UNL A   1      46.993  31.352  26.900  1.00  0.00     0.022 A 
BRANCH  78  82
ATOM     82  S   UNL A   1      44.676  32.798  26.403  1.00  0.00     0.124 S 
ATOM     83  O   UNL A   1      43.991  33.502  27.480  1.00  0.00    -0.237 OA
ATOM     84  O   UNL A   1      45.702  33.555  25.692  1.00  0.00    -0.237 OA
ATOM     85  O   UNL A   1      43.796  32.010  25.536  1.00  0.00    -0.744 OA
ENDBRANCH  78  82
ENDBRANCH  52  75
ENDBRANCH  26  27
ENDBRANCH  19  21
ENDBRANCH  18  19
ENDBRANCH  17  18
ENDBRANCH   1  17
TORSDOF 17
ENDMDL
MODEL 2
REMARK VINA RESULT:      -9.7      3.675      5.499
REMARK SMILES Cc1cc(C(F)(F)F)nn1CCC(=O)OCCOC(=O)c1ccc(-c2c3nc(c(-c4cc(S(=O)(=O)[O-])ccc4F)c4ccc([nH]4)c(-c4cc(S(=O)(=O)[O-])ccc4F)c4nc(c(-c5cc(S(=O)(=O)[O-])ccc5F)c5ccc2[nH]5)C=C4)C=C3)cc1
REMARK SMILES IDX 16 1 15 2 13 3 14 4 12 5 11 6 10 7 1 8 2 9 3 10 4 11 9 12
REMARK SMILES IDX 5 13 6 14 7 15 8 16 17 17 18 18 19 19 20 20 21 21 22 22
REMARK SMILES IDX 83 23 23 24 82 25 24 26 25 27 26 28 76 29 27 30 81 31 75 32
REMARK SMILES IDX 77 33 28 34 80 35 74 36 73 37 29 39 61 40 41 41 60 42 42 43
REMARK SMILES IDX 45 44 59 45 78 46 43 47 44 48 58 50 79 51 46 52 30 53 31 54
REMARK SMILES IDX 39 55 32 56 38 57 40 58 37 59 33 60 34 61 35 62 36 63 62 64
REMARK SMILES IDX 63 65 71 66 64 67 70 68 72 69 69 70 65 71 66 72 67 73 68 74
REMARK SMILES IDX 47 75 48 76 56 77 49 78 55 79 57 80 54 81 50 82 51 83 52 84
REMARK SMILES IDX 53 85
REMARK H PARENT 77 38 45 49
REMARK Flexibility Score: inf
ROOT
ATOM      1  C   UNL A   1      32.847  30.641  26.983  1.00  0.00     0.274 C 
ENDROOT
BRANCH   1   2
ATOM      2  O   UNL A   1      33.774  29.544  26.892  1.00  0.00    -0.462 OA
BRANCH   2   3
ATOM      3  C   UNL A   1      33.282  28.318  26.592  1.00  0.00     0.307 C 
ATOM      4  O   UNL A   1      33.964  27.367  26.223  1.00  0.00    -0.252 OA
BRANCH   3   5
ATOM      5  C   UNL A   1      31.769  28.279  26.635  1.00  0.00     0.146 C 
BRANCH   5   6
ATOM      6  C   UNL A   1      31.035  27.656  25.448  1.00  0.00     0.156 C 
BRANCH   6   7
ATOM      7  N   UNL A   1      31.162  26.212  25.338  1.00  0.00    -0.269 N 
ATOM      8  C   UNL A   1      32.243  26.080  23.067  1.00  0.00     0.066 C 
ATOM      9  C   UNL A   1      31.635  25.480  24.278  1.00  0.00     0.036 A 
ATOM     10  C   UNL A   1      31.404  24.159  24.608  1.00  0.00     0.058 A 
ATOM     11  C   UNL A   1      30.854  24.177  25.913  1.00  0.00     0.166 A 
ATOM     12  N   UNL A   1      30.783  25.437  26.364  1.00  0.00    -0.168 NA
BRANCH  11  13
ATOM     13  C   UNL A   1      30.369  23.015  26.731  1.00  0.00     0.435 C 
ATOM     14  F   UNL A   1      29.256  23.291  27.462  1.00  0.00    -0.164 F 
ATOM     15  F   UNL A   1      30.066  21.932  25.957  1.00  0.00    -0.164 F 
ATOM     16  F   UNL A   1      31.313  22.586  27.616  1.00  0.00    -0.164 F 
ENDBRANCH  11  13
ENDBRANCH   6   7
ENDBRANCH   5   6
ENDBRANCH   3   5
ENDBRANCH   2   3
ENDBRANCH   1   2
BRANCH   1  17
ATOM     17  C   UNL A   1      33.459  31.886  27.623  1.00  0.00     0.275 C 
BRANCH  17  18
ATOM     18  O   UNL A   1      34.438  31.557  28.615  1.00  0.00    -0.458 OA
BRANCH  18  19
ATOM     19  C   UNL A   1      35.648  32.098  28.391  1.00  0.00     0.338 C 
ATOM     20  O   UNL A   1      35.899  33.057  27.668  1.00  0.00    -0.246 OA
BRANCH  19  21
ATOM     21  C   UNL A   1      36.726  31.308  28.963  1.00  0.00     0.060 A 
ATOM     22  C   UNL A   1      37.857  32.005  29.416  1.00  0.00     0.016 A 
ATOM     23  C   UNL A   1      36.723  29.920  28.807  1.00  0.00     0.016 A 
ATOM     24  C   UNL A   1      39.035  31.317  29.598  1.00  0.00     0.010 A 
ATOM     25  C   UNL A   1      37.905  29.237  28.977  1.00  0.00     0.010 A 
ATOM     26  C   UNL A   1      39.057  29.950  29.321  1.00  0.00    -0.014 A 
BRANCH  26  27
ATOM     27  C   UNL A   1      40.304  29.239  29.517  1.00  0.00     0.031 A 
ATOM     28  C   UNL A   1      40.684  29.077  30.939  1.00  0.00     0.074 A 
ATOM     29  C   UNL A   1      40.945  28.631  28.503  1.00  0.00     0.049 A 
ATOM     30  N   UNL A   1      41.765  29.461  31.529  1.00  0.00    -0.248 NA
ATOM     31  C   UNL A   1      39.663  28.536  31.852  1.00  0.00     0.031 C 
ATOM     32  C   UNL A   1      40.477  28.492  27.122  1.00  0.00     0.029 A 
ATOM     33  N   UNL A   1      42.083  27.886  28.529  1.00  0.00    -0.354 N 
ATOM     34  C   UNL A   1      41.655  29.007  32.840  1.00  0.00     0.074 A 
ATOM     35  C   UNL A   1      40.281  28.636  33.026  1.00  0.00     0.031 C 
ATOM     36  C   UNL A   1      41.196  27.527  26.510  1.00  0.00     0.029 A 
ATOM     37  C   UNL A   1      42.240  27.070  27.415  1.00  0.00     0.049 A 
ATOM     38  H   UNL A   1      42.734  27.919  29.267  1.00  0.00     0.167 HD
ATOM     39  C   UNL A   1      42.756  28.735  33.588  1.00  0.00     0.034 A 
ATOM     40  C   UNL A   1      43.105  26.034  27.277  1.00  0.00     0.034 A 
ATOM     41  C   UNL A   1      43.921  29.408  33.062  1.00  0.00     0.049 A 
ATOM     42  C   UNL A   1      44.177  26.210  28.285  1.00  0.00     0.074 A 
ATOM     43  C   UNL A   1      44.255  30.729  32.834  1.00  0.00     0.029 A 
ATOM     44  N   UNL A   1      44.830  28.664  32.345  1.00  0.00    -0.354 N 
ATOM     45  N   UNL A   1      45.038  27.188  28.263  1.00  0.00    -0.248 NA
ATOM     46  C   UNL A   1      44.051  25.534  29.569  1.00  0.00     0.031 C 
ATOM     47  C   UNL A   1      45.047  30.720  31.649  1.00  0.00     0.029 A 
ATOM     48  C   UNL A   1      45.198  29.394  31.241  1.00  0.00     0.049 A 
ATOM     49  H   UNL A   1      45.157  27.767  32.581  1.00  0.00     0.167 HD
ATOM     50  C   UNL A   1      45.231  27.529  29.591  1.00  0.00     0.074 A 
ATOM     51  C   UNL A   1      44.714  26.394  30.348  1.00  0.00     0.031 C 
ATOM     52  C   UNL A   1      45.525  28.814  29.950  1.00  0.00     0.034 A 
BRANCH  39  53
ATOM     53  C   UNL A   1      42.852  27.577  34.561  1.00  0.00     0.023 A 
ATOM     54  C   UNL A   1      43.621  26.468  34.161  1.00  0.00     0.031 A 
ATOM     55  C   UNL A   1      42.027  27.370  35.692  1.00  0.00     0.131 A 
ATOM     56  C   UNL A   1      43.472  25.220  34.788  1.00  0.00     0.055 A 
ATOM     57  C   UNL A   1      41.938  26.145  36.359  1.00  0.00     0.041 A 
ATOM     58  F   UNL A   1      41.190  28.298  36.168  1.00  0.00    -0.206 F 
ATOM     59  C   UNL A   1      42.636  25.049  35.886  1.00  0.00     0.022 A 
BRANCH  56  60
ATOM     60  S   UNL A   1      44.242  23.778  34.011  1.00  0.00     0.124 S 
ATOM     61  O   UNL A   1      45.660  24.060  34.206  1.00  0.00    -0.237 OA
ATOM     62  O   UNL A   1      43.685  22.683  34.800  1.00  0.00    -0.237 OA
ATOM     63  O   UNL A   1      43.776  23.851  32.629  1.00  0.00    -0.744 OA
ENDBRANCH  56  60
ENDBRANCH  39  53
BRANCH  40  64
ATOM     64  C   UNL A   1      42.886  24.779  26.516  1.00  0.00     0.023 A 
ATOM     65  C   UNL A   1      43.812  24.305  25.566  1.00  0.00     0.031 A 
ATOM     66  C   UNL A   1      41.845  23.897  26.886  1.00  0.00     0.131 A 
ATOM     67  C   UNL A   1      43.672  23.008  25.027  1.00  0.00     0.055 A 
ATOM     68  C   UNL A   1      41.701  22.623  26.337  1.00  0.00     0.041 A 
ATOM     69  F   UNL A   1      40.978  24.214  27.860  1.00  0.00    -0.206 F 
ATOM     70  C   UNL A   1      42.622  22.168  25.408  1.00  0.00     0.022 A 
BRANCH  67  71
ATOM     71  S   UNL A   1      44.935  22.350  23.893  1.00  0.00     0.124 S 
ATOM     72  O   UNL A   1      45.320  21.105  24.546  1.00  0.00    -0.237 OA
ATOM     73  O   UNL A   1      44.198  22.226  22.640  1.00  0.00    -0.237 OA
ATOM     74  O   UNL A   1      45.967  23.389  23.893  1.00  0.00    -0.744 OA
ENDBRANCH  67  71
ENDBRANCH  40  64
BRANCH  52  75
ATOM     75  C   UNL A   1      46.008  29.759  28.870  1.00  0.00     0.023 A 
ATOM     76  C   UNL A   1      45.200  30.719  28.217  1.00  0.00     0.031 A 
ATOM     77  C   UNL A   1      47.380  29.745  28.562  1.00  0.00     0.131 A 
ATOM     78  C   UNL A   1      45.771  31.603  27.283  1.00  0.00     0.055 A 
ATOM     79  C   UNL A   1      47.946  30.636  27.651  1.00  0.00     0.041 A 
ATOM     80  F   UNL A   1      48.206  28.877  29.171  1.00  0.00    -0.206 F 
ATOM     81  C   UNL A   1      47.141  31.564  27.001  1.00  0.00     0.022 A 
BRANCH  78  82
ATOM     82  S   UNL A   1      44.737  32.814  26.398  1.00  0.00     0.124 S 
ATOM     83  O   UNL A   1      44.102  33.572  27.470  1.00  0.00    -0.237 OA
ATOM     84  O   UNL A   1      45.719  33.537  25.595  1.00  0.00    -0.237 OA
ATOM     85  O   UNL A   1      43.821  31.976  25.622  1.00  0.00    -0.744 OA
ENDBRANCH  78  82
ENDBRANCH  52  75
ENDBRANCH  26  27
ENDBRANCH  19  21
ENDBRANCH  18  19
ENDBRANCH  17  18
ENDBRANCH   1  17
TORSDOF 17
ENDMDL
MODEL 3
REMARK VINA RESULT:      -9.6      4.973     11.297
REMARK SMILES Cc1cc(C(F)(F)F)nn1CCC(=O)OCCOC(=O)c1ccc(-c2c3nc(c(-c4cc(S(=O)(=O)[O-])ccc4F)c4ccc([nH]4)c(-c4cc(S(=O)(=O)[O-])ccc4F)c4nc(c(-c5cc(S(=O)(=O)[O-])ccc5F)c5ccc2[nH]5)C=C4)C=C3)cc1
REMARK SMILES IDX 16 1 15 2 13 3 14 4 12 5 11 6 10 7 1 8 2 9 3 10 4 11 9 12
REMARK SMILES IDX 5 13 6 14 7 15 8 16 17 17 18 18 19 19 20 20 21 21 22 22
REMARK SMILES IDX 83 23 23 24 82 25 24 26 25 27 26 28 76 29 27 30 81 31 75 32
REMARK SMILES IDX 77 33 28 34 80 35 74 36 73 37 29 39 61 40 41 41 60 42 42 43
REMARK SMILES IDX 45 44 59 45 78 46 43 47 44 48 58 50 79 51 46 52 30 53 31 54
REMARK SMILES IDX 39 55 32 56 38 57 40 58 37 59 33 60 34 61 35 62 36 63 62 64
REMARK SMILES IDX 63 65 71 66 64 67 70 68 72 69 69 70 65 71 66 72 67 73 68 74
REMARK SMILES IDX 47 75 48 76 56 77 49 78 55 79 57 80 54 81 50 82 51 83 52 84
REMARK SMILES IDX 53 85
REMARK H PARENT 77 38 45 49
REMARK Flexibility Score: inf
ROOT
ATOM      1  C   UNL A   1      37.460  21.700  25.025  1.00  0.00     0.274 C 
ENDROOT
BRANCH   1   2
ATOM      2  O   UNL A   1      36.343  21.777  25.929  1.00  0.00    -0.462 OA
BRANCH   2   3
ATOM      3  C   UNL A   1      35.512  22.842  25.826  1.00  0.00     0.307 C 
ATOM      4  O   UNL A   1      35.740  23.837  25.144  1.00  0.00    -0.252 OA
BRANCH   3   5
ATOM      5  C   UNL A   1      34.320  22.734  26.753  1.00  0.00     0.146 C 
BRANCH   5   6
ATOM      6  C   UNL A   1      33.636  21.374  26.883  1.00  0.00     0.156 C 
BRANCH   6   7
ATOM      7  N   UNL A   1      33.286  20.741  25.622  1.00  0.00    -0.269 N 
ATOM      8  C   UNL A   1      31.844  22.564  24.652  1.00  0.00     0.066 C 
ATOM      9  C   UNL A   1      32.449  21.211  24.641  1.00  0.00     0.036 A 
ATOM     10  C   UNL A   1      32.328  20.178  23.732  1.00  0.00     0.058 A 
ATOM     11  C   UNL A   1      33.177  19.148  24.203  1.00  0.00     0.166 A 
ATOM     12  N   UNL A   1      33.805  19.543  25.319  1.00  0.00    -0.168 NA
BRANCH  11  13
ATOM     13  C   UNL A   1      33.384  17.779  23.623  1.00  0.00     0.435 C 
ATOM     14  F   UNL A   1      32.815  16.785  24.355  1.00  0.00    -0.164 F 
ATOM     15  F   UNL A   1      32.874  17.672  22.361  1.00  0.00    -0.164 F 
ATOM     16  F   UNL A   1      34.707  17.466  23.514  1.00  0.00    -0.164 F 
ENDBRANCH  11  13
ENDBRANCH   6   7
ENDBRANCH   5   6
ENDBRANCH   3   5
ENDBRANCH   2   3
ENDBRANCH   1   2
BRANCH   1  17
ATOM     17  C   UNL A   1      38.803  21.602  25.745  1.00  0.00     0.275 C 
BRANCH  17  18
ATOM     18  O   UNL A   1      39.043  22.730  26.594  1.00  0.00    -0.458 OA
BRANCH  18  19
ATOM     19  C   UNL A   1      40.305  22.811  27.053  1.00  0.00     0.338 C 
ATOM     20  O   UNL A   1      41.022  21.875  27.392  1.00  0.00    -0.246 OA
BRANCH  19  21
ATOM     21  C   UNL A   1      40.721  24.182  27.300  1.00  0.00     0.060 A 
ATOM     22  C   UNL A   1      41.759  24.377  28.224  1.00  0.00     0.016 A 
ATOM     23  C   UNL A   1      39.933  25.237  26.835  1.00  0.00     0.016 A 
ATOM     24  C   UNL A   1      41.928  25.624  28.782  1.00  0.00     0.010 A 
ATOM     25  C   UNL A   1      40.096  26.479  27.403  1.00  0.00     0.010 A 
ATOM     26  C   UNL A   1      41.056  26.646  28.405  1.00  0.00    -0.014 A 
BRANCH  26  27
ATOM     27  C   UNL A   1      41.247  27.953  28.999  1.00  0.00     0.031 A 
ATOM     28  C   UNL A   1      42.402  28.700  28.449  1.00  0.00     0.074 A 
ATOM     29  C   UNL A   1      40.344  28.494  29.836  1.00  0.00     0.049 A 
ATOM     30  N   UNL A   1      43.422  29.176  29.078  1.00  0.00    -0.248 NA
ATOM     31  C   UNL A   1      42.495  28.810  26.984  1.00  0.00     0.031 C 
ATOM     32  C   UNL A   1      39.034  27.945  30.194  1.00  0.00     0.029 A 
ATOM     33  N   UNL A   1      40.347  29.718  30.430  1.00  0.00    -0.354 N 
ATOM     34  C   UNL A   1      44.174  29.842  28.116  1.00  0.00     0.074 A 
ATOM     35  C   UNL A   1      43.672  29.414  26.841  1.00  0.00     0.031 C 
ATOM     36  C   UNL A   1      38.283  28.922  30.745  1.00  0.00     0.029 A 
ATOM     37  C   UNL A   1      39.096  30.121  30.883  1.00  0.00     0.049 A 
ATOM     38  H   UNL A   1      41.157  30.268  30.530  1.00  0.00     0.167 HD
ATOM     39  C   UNL A   1      44.981  30.885  28.447  1.00  0.00     0.034 A 
ATOM     40  C   UNL A   1      38.728  31.371  31.260  1.00  0.00     0.034 A 
ATOM     41  C   UNL A   1      45.306  30.863  29.854  1.00  0.00     0.049 A 
ATOM     42  C   UNL A   1      39.963  32.123  31.579  1.00  0.00     0.074 A 
ATOM     43  C   UNL A   1      45.934  29.957  30.688  1.00  0.00     0.029 A 
ATOM     44  N   UNL A   1      44.652  31.745  30.684  1.00  0.00    -0.354 N 
ATOM     45  N   UNL A   1      40.745  31.839  32.583  1.00  0.00    -0.248 NA
ATOM     46  C   UNL A   1      40.572  32.947  30.544  1.00  0.00     0.031 C 
ATOM     47  C   UNL A   1      45.260  30.069  31.940  1.00  0.00     0.029 A 
ATOM     48  C   UNL A   1      44.293  31.067  31.824  1.00  0.00     0.049 A 
ATOM     49  H   UNL A   1      44.473  32.693  30.494  1.00  0.00     0.167 HD
ATOM     50  C   UNL A   1      42.029  32.062  32.115  1.00  0.00     0.074 A 
ATOM     51  C   UNL A   1      41.854  32.872  30.915  1.00  0.00     0.031 C 
ATOM     52  C   UNL A   1      43.083  31.331  32.584  1.00  0.00     0.034 A 
BRANCH  39  53
ATOM     53  C   UNL A   1      45.165  32.118  27.586  1.00  0.00     0.023 A 
ATOM     54  C   UNL A   1      46.452  32.347  27.064  1.00  0.00     0.031 A 
ATOM     55  C   UNL A   1      44.265  33.206  27.487  1.00  0.00     0.131 A 
ATOM     56  C   UNL A   1      46.826  33.615  26.591  1.00  0.00     0.055 A 
ATOM     57  C   UNL A   1      44.621  34.445  26.946  1.00  0.00     0.041 A 
ATOM     58  F   UNL A   1      43.024  33.179  27.985  1.00  0.00    -0.206 F 
ATOM     59  C   UNL A   1      45.919  34.668  26.526  1.00  0.00     0.022 A 
BRANCH  56  60
ATOM     60  S   UNL A   1      48.578  33.916  26.249  1.00  0.00     0.124 S 
ATOM     61  O   UNL A   1      49.116  32.560  26.260  1.00  0.00    -0.237 OA
ATOM     62  O   UNL A   1      48.517  34.577  24.949  1.00  0.00    -0.237 OA
ATOM     63  O   UNL A   1      48.998  34.763  27.362  1.00  0.00    -0.744 OA
ENDBRANCH  56  60
ENDBRANCH  39  53
BRANCH  40  64
ATOM     64  C   UNL A   1      37.399  32.006  31.080  1.00  0.00     0.023 A 
ATOM     65  C   UNL A   1      36.590  32.377  32.172  1.00  0.00     0.031 A 
ATOM     66  C   UNL A   1      36.999  32.467  29.805  1.00  0.00     0.131 A 
ATOM     67  C   UNL A   1      35.439  33.169  31.964  1.00  0.00     0.055 A 
ATOM     68  C   UNL A   1      35.851  33.234  29.603  1.00  0.00     0.041 A 
ATOM     69  F   UNL A   1      37.759  32.258  28.719  1.00  0.00    -0.206 F 
ATOM     70  C   UNL A   1      35.068  33.596  30.687  1.00  0.00     0.022 A 
BRANCH  67  71
ATOM     71  S   UNL A   1      34.462  33.750  33.386  1.00  0.00     0.124 S 
ATOM     72  O   UNL A   1      34.470  35.196  33.197  1.00  0.00    -0.237 OA
ATOM     73  O   UNL A   1      33.185  33.075  33.187  1.00  0.00    -0.237 OA
ATOM     74  O   UNL A   1      35.228  33.278  34.541  1.00  0.00    -0.744 OA
ENDBRANCH  67  71
ENDBRANCH  40  64
BRANCH  52  75
ATOM     75  C   UNL A   1      42.893  30.557  33.871  1.00  0.00     0.023 A 
ATOM     76  C   UNL A   1      42.396  29.236  33.952  1.00  0.00     0.031 A 
ATOM     77  C   UNL A   1      43.333  31.162  35.062  1.00  0.00     0.131 A 
ATOM     78  C   UNL A   1      42.335  28.581  35.197  1.00  0.00     0.055 A 
ATOM     79  C   UNL A   1      43.291  30.503  36.290  1.00  0.00     0.041 A 
ATOM     80  F   UNL A   1      43.845  32.405  35.046  1.00  0.00    -0.206 F 
ATOM     81  C   UNL A   1      42.783  29.211  36.363  1.00  0.00     0.022 A 
BRANCH  78  82
ATOM     82  S   UNL A   1      41.654  26.896  35.327  1.00  0.00     0.124 S 
ATOM     83  O   UNL A   1      41.140  26.838  36.690  1.00  0.00    -0.237 OA
ATOM     84  O   UNL A   1      40.654  26.880  34.263  1.00  0.00    -0.237 OA
ATOM     85  O   UNL A   1      42.815  26.040  35.079  1.00  0.00    -0.744 OA
ENDBRANCH  78  82
ENDBRANCH  52  75
ENDBRANCH  26  27
ENDBRANCH  19  21
ENDBRANCH  18  19
ENDBRANCH  17  18
ENDBRANCH   1  17
TORSDOF 17
ENDMDL
