MODEL 1
REMARK VINA RESULT:     -12.9      0.000      0.000
REMARK SMILES COc1cccc([C@@H]2[NH2+][C@@](C)(C(=O)OCCOC(=O)c3ccc(-c4c5nc(c(-c6cc(S(=O)(=O)[O-])ccc6F)c6ccc([nH]6)c(-c6cc(S(=O)(=O)[O-])ccc6F)c6nc(c(-c7cc(S(=O)(=O)[O-])ccc7F)c7ccc4[nH]7)C=C6)C=C5)cc3)[C@@H]3C(=O)N(C)C(=O)[C@@H]32)c1O
REMARK SMILES IDX 16 1 15 2 14 3 12 4 13 5 10 6 8 7 9 8 90 9 83 12 88 13 11 14
REMARK SMILES IDX 84 15 86 16 89 17 85 18 87 19 7 20 3 21 4 22 91 23 5 24 6 25
REMARK SMILES IDX 2 26 1 27 92 28 17 30 18 31 19 32 20 33 21 34 82 35 22 36
REMARK SMILES IDX 81 37 23 38 24 39 25 40 75 41 26 42 80 43 74 44 76 45 27 46
REMARK SMILES IDX 79 47 73 48 72 49 28 51 60 52 40 53 59 54 41 55 44 56 58 57
REMARK SMILES IDX 77 58 42 59 43 60 57 62 78 63 45 64 29 65 30 66 38 67 31 68
REMARK SMILES IDX 37 69 39 70 36 71 32 72 33 73 34 74 35 75 61 76 62 77 70 78
REMARK SMILES IDX 63 79 69 80 71 81 68 82 64 83 65 84 66 85 67 86 46 87 47 88
REMARK SMILES IDX 55 89 48 90 54 91 56 92 53 93 49 94 50 95 51 96 52 97
REMARK H PARENT 9 10 9 11 92 29 76 50 44 61
REMARK Flexibility Score: inf
ROOT
ATOM      1  C   UNL A   1      31.985  29.309  25.013  1.00  0.00     0.275 C 
ENDROOT
BRANCH   1   2
ATOM      2  C   UNL A   1      31.496  28.121  25.838  1.00  0.00     0.274 C 
BRANCH   2   3
ATOM      3  O   UNL A   1      32.313  26.959  25.594  1.00  0.00    -0.457 OA
BRANCH   3   4
ATOM      4  C   UNL A   1      31.726  25.762  25.863  1.00  0.00     0.368 C 
ATOM      5  O   UNL A   1      31.014  25.560  26.845  1.00  0.00    -0.245 OA
BRANCH   4   6
ATOM      6  C   UNL A   1      32.061  24.638  24.841  1.00  0.00     0.204 C 
ATOM      7  C   UNL A   1      32.356  22.385  25.690  1.00  0.00     0.232 C 
ATOM      8  N   UNL A   1      31.362  23.354  25.160  1.00  0.00    -0.325 N 
ATOM      9  C   UNL A   1      33.637  23.180  25.927  1.00  0.00     0.161 C 
ATOM     10  H   UNL A   1      30.639  23.523  25.860  1.00  0.00     0.347 HD
ATOM     11  H   UNL A   1      30.927  22.979  24.317  1.00  0.00     0.347 HD
ATOM     12  C   UNL A   1      33.550  24.365  24.985  1.00  0.00     0.170 C 
ATOM     13  C   UNL A   1      34.937  22.543  25.534  1.00  0.00     0.239 C 
ATOM     14  C   UNL A   1      31.595  25.212  23.499  1.00  0.00     0.093 C 
ATOM     15  C   UNL A   1      34.397  23.939  23.814  1.00  0.00     0.240 C 
ATOM     16  N   UNL A   1      35.270  22.990  24.284  1.00  0.00    -0.285 N 
ATOM     17  O   UNL A   1      35.561  21.760  26.232  1.00  0.00    -0.274 OA
ATOM     18  O   UNL A   1      34.383  24.438  22.701  1.00  0.00    -0.274 OA
ATOM     19  C   UNL A   1      36.430  22.512  23.570  1.00  0.00     0.156 C 
BRANCH   7  20
ATOM     20  C   UNL A   1      32.526  21.113  24.870  1.00  0.00     0.056 A 
ATOM     21  C   UNL A   1      32.771  18.694  24.635  1.00  0.00     0.161 A 
ATOM     22  C   UNL A   1      32.509  18.767  23.274  1.00  0.00     0.050 A 
ATOM     23  C   UNL A   1      32.826  19.859  25.410  1.00  0.00     0.166 A 
ATOM     24  C   UNL A   1      32.252  20.010  22.699  1.00  0.00     0.005 A 
ATOM     25  C   UNL A   1      32.249  21.166  23.489  1.00  0.00     0.014 A 
BRANCH  21  26
ATOM     26  O   UNL A   1      33.017  17.472  25.207  1.00  0.00    -0.493 OA
ATOM     27  C   UNL A   1      33.894  16.687  24.388  1.00  0.00     0.278 C 
ENDBRANCH  21  26
BRANCH  23  28
ATOM     28  O   UNL A   1      33.183  19.753  26.723  1.00  0.00    -0.504 OA
ATOM     29  H   UNL A   1      32.950  20.430  27.327  1.00  0.00     0.293 HD
ENDBRANCH  23  28
ENDBRANCH   7  20
ENDBRANCH   4   6
ENDBRANCH   3   4
ENDBRANCH   2   3
ENDBRANCH   1   2
BRANCH   1  30
ATOM     30  O   UNL A   1      33.217  29.804  25.564  1.00  0.00    -0.458 OA
BRANCH  30  31
ATOM     31  C   UNL A   1      33.093  30.726  26.546  1.00  0.00     0.338 C 
ATOM     32  O   UNL A   1      32.139  31.477  26.713  1.00  0.00    -0.246 OA
BRANCH  31  33
ATOM     33  C   UNL A   1      34.269  30.694  27.450  1.00  0.00     0.060 A 
ATOM     34  C   UNL A   1      35.014  31.842  27.725  1.00  0.00     0.016 A 
ATOM     35  C   UNL A   1      34.709  29.466  27.945  1.00  0.00     0.016 A 
ATOM     36  C   UNL A   1      36.253  31.744  28.367  1.00  0.00     0.010 A 
ATOM     37  C   UNL A   1      35.885  29.393  28.702  1.00  0.00     0.010 A 
ATOM     38  C   UNL A   1      36.703  30.522  28.891  1.00  0.00    -0.014 A 
BRANCH  38  39
ATOM     39  C   UNL A   1      38.011  30.390  29.614  1.00  0.00     0.031 A 
ATOM     40  C   UNL A   1      39.124  29.561  29.011  1.00  0.00     0.074 A 
ATOM     41  C   UNL A   1      38.211  30.951  30.826  1.00  0.00     0.049 A 
ATOM     42  N   UNL A   1      40.154  29.004  29.596  1.00  0.00    -0.248 NA
ATOM     43  C   UNL A   1      39.043  29.297  27.567  1.00  0.00     0.031 C 
ATOM     44  C   UNL A   1      37.274  31.830  31.531  1.00  0.00     0.029 A 
ATOM     45  N   UNL A   1      39.276  30.853  31.695  1.00  0.00    -0.354 N 
ATOM     46  C   UNL A   1      40.782  28.238  28.616  1.00  0.00     0.074 A 
ATOM     47  C   UNL A   1      40.028  28.425  27.394  1.00  0.00     0.031 C 
ATOM     48  C   UNL A   1      37.818  32.219  32.693  1.00  0.00     0.029 A 
ATOM     49  C   UNL A   1      39.079  31.516  32.886  1.00  0.00     0.049 A 
ATOM     50  H   UNL A   1      40.098  30.355  31.483  1.00  0.00     0.167 HD
ATOM     51  C   UNL A   1      41.874  27.442  28.736  1.00  0.00     0.034 A 
ATOM     52  C   UNL A   1      39.781  31.506  34.037  1.00  0.00     0.034 A 
ATOM     53  C   UNL A   1      42.682  27.354  29.930  1.00  0.00     0.049 A 
ATOM     54  C   UNL A   1      40.994  30.620  34.148  1.00  0.00     0.074 A 
ATOM     55  C   UNL A   1      43.839  26.621  30.137  1.00  0.00     0.029 A 
ATOM     56  N   UNL A   1      42.435  28.043  31.109  1.00  0.00    -0.354 N 
ATOM     57  N   UNL A   1      41.513  29.814  33.251  1.00  0.00    -0.248 NA
ATOM     58  C   UNL A   1      41.700  30.623  35.437  1.00  0.00     0.031 C 
ATOM     59  C   UNL A   1      44.266  26.833  31.453  1.00  0.00     0.029 A 
ATOM     60  C   UNL A   1      43.411  27.743  32.049  1.00  0.00     0.049 A 
ATOM     61  H   UNL A   1      41.679  28.656  31.257  1.00  0.00     0.167 HD
ATOM     62  C   UNL A   1      42.613  29.226  33.867  1.00  0.00     0.074 A 
ATOM     63  C   UNL A   1      42.696  29.782  35.201  1.00  0.00     0.031 C 
ATOM     64  C   UNL A   1      43.478  28.303  33.375  1.00  0.00     0.034 A 
BRANCH  51  65
ATOM     65  C   UNL A   1      42.230  26.544  27.575  1.00  0.00     0.023 A 
ATOM     66  C   UNL A   1      41.816  25.205  27.492  1.00  0.00     0.031 A 
ATOM     67  C   UNL A   1      42.988  27.067  26.509  1.00  0.00     0.131 A 
ATOM     68  C   UNL A   1      42.200  24.423  26.390  1.00  0.00     0.055 A 
ATOM     69  C   UNL A   1      43.310  26.303  25.387  1.00  0.00     0.041 A 
ATOM     70  F   UNL A   1      43.423  28.336  26.541  1.00  0.00    -0.206 F 
ATOM     71  C   UNL A   1      42.923  24.970  25.326  1.00  0.00     0.022 A 
BRANCH  68  72
ATOM     72  S   UNL A   1      41.810  22.650  26.395  1.00  0.00     0.124 S 
ATOM     73  O   UNL A   1      40.351  22.668  26.337  1.00  0.00    -0.237 OA
ATOM     74  O   UNL A   1      42.491  22.172  25.197  1.00  0.00    -0.237 OA
ATOM     75  O   UNL A   1      42.372  22.179  27.660  1.00  0.00    -0.744 OA
ENDBRANCH  68  72
ENDBRANCH  51  65
BRANCH  52  76
ATOM     76  C   UNL A   1      39.308  32.284  35.220  1.00  0.00     0.023 A 
ATOM     77  C   UNL A   1      39.749  33.596  35.445  1.00  0.00     0.031 A 
ATOM     78  C   UNL A   1      38.445  31.706  36.170  1.00  0.00     0.131 A 
ATOM     79  C   UNL A   1      39.359  34.274  36.610  1.00  0.00     0.055 A 
ATOM     80  C   UNL A   1      38.010  32.407  37.295  1.00  0.00     0.041 A 
ATOM     81  F   UNL A   1      37.996  30.450  36.008  1.00  0.00    -0.206 F 
ATOM     82  C   UNL A   1      38.479  33.696  37.528  1.00  0.00     0.022 A 
BRANCH  79  83
ATOM     83  S   UNL A   1      40.097  35.894  36.959  1.00  0.00     0.124 S 
ATOM     84  O   UNL A   1      39.701  36.661  35.784  1.00  0.00    -0.237 OA
ATOM     85  O   UNL A   1      39.445  36.259  38.212  1.00  0.00    -0.237 OA
ATOM     86  O   UNL A   1      41.525  35.602  37.062  1.00  0.00    -0.744 OA
ENDBRANCH  79  83
ENDBRANCH  52  76
BRANCH  64  87
ATOM     87  C   UNL A   1      44.613  27.890  34.273  1.00  0.00     0.023 A 
ATOM     88  C   UNL A   1      44.509  26.784  35.134  1.00  0.00     0.031 A 
ATOM     89  C   UNL A   1      45.805  28.637  34.288  1.00  0.00     0.131 A 
ATOM     90  C   UNL A   1      45.561  26.484  36.012  1.00  0.00     0.055 A 
ATOM     91  C   UNL A   1      46.867  28.305  35.129  1.00  0.00     0.041 A 
ATOM     92  F   UNL A   1      45.951  29.704  33.486  1.00  0.00    -0.206 F 
ATOM     93  C   UNL A   1      46.744  27.230  36.006  1.00  0.00     0.022 A 
BRANCH  90  94
ATOM     94  S   UNL A   1      45.337  25.150  37.221  1.00  0.00     0.124 S 
ATOM     95  O   UNL A   1      46.703  24.926  37.683  1.00  0.00    -0.237 OA
ATOM     96  O   UNL A   1      44.428  25.755  38.189  1.00  0.00    -0.237 OA
ATOM     97  O   UNL A   1      44.763  24.063  36.430  1.00  0.00    -0.744 OA
ENDBRANCH  90  94
ENDBRANCH  64  87
ENDBRANCH  38  39
ENDBRANCH  31  33
ENDBRANCH  30  31
ENDBRANCH   1  30
TORSDOF 17
ENDMDL
MODEL 2
REMARK VINA RESULT:     -12.9      4.658      9.936
REMARK SMILES COc1cccc([C@@H]2[NH2+][C@@](C)(C(=O)OCCOC(=O)c3ccc(-c4c5nc(c(-c6cc(S(=O)(=O)[O-])ccc6F)c6ccc([nH]6)c(-c6cc(S(=O)(=O)[O-])ccc6F)c6nc(c(-c7cc(S(=O)(=O)[O-])ccc7F)c7ccc4[nH]7)C=C6)C=C5)cc3)[C@@H]3C(=O)N(C)C(=O)[C@@H]32)c1O
REMARK SMILES IDX 16 1 15 2 14 3 12 4 13 5 10 6 8 7 9 8 90 9 83 12 88 13 11 14
REMARK SMILES IDX 84 15 86 16 89 17 85 18 87 19 7 20 3 21 4 22 91 23 5 24 6 25
REMARK SMILES IDX 2 26 1 27 92 28 17 30 18 31 19 32 20 33 21 34 82 35 22 36
REMARK SMILES IDX 81 37 23 38 24 39 25 40 75 41 26 42 80 43 74 44 76 45 27 46
REMARK SMILES IDX 79 47 73 48 72 49 28 51 60 52 40 53 59 54 41 55 44 56 58 57
REMARK SMILES IDX 77 58 42 59 43 60 57 62 78 63 45 64 29 65 30 66 38 67 31 68
REMARK SMILES IDX 37 69 39 70 36 71 32 72 33 73 34 74 35 75 61 76 62 77 70 78
REMARK SMILES IDX 63 79 69 80 71 81 68 82 64 83 65 84 66 85 67 86 46 87 47 88
REMARK SMILES IDX 55 89 48 90 54 91 56 92 53 93 49 94 50 95 51 96 52 97
REMARK H PARENT 9 10 9 11 92 29 76 50 44 61
REMARK Flexibility Score: inf
ROOT
ATOM      1  C   UNL A   1      35.775  21.237  25.014  1.00  0.00     0.275 C 
ENDROOT
BRANCH   1   2
ATOM      2  C   UNL A   1      34.825  22.406  25.257  1.00  0.00     0.274 C 
BRANCH   2   3
ATOM      3  O   UNL A   1      33.782  22.432  24.263  1.00  0.00    -0.457 OA
BRANCH   3   4
ATOM      4  C   UNL A   1      33.640  23.608  23.592  1.00  0.00     0.368 C 
ATOM      5  O   UNL A   1      34.465  24.035  22.788  1.00  0.00    -0.245 OA
BRANCH   4   6
ATOM      6  C   UNL A   1      32.353  24.403  23.957  1.00  0.00     0.204 C 
ATOM      7  C   UNL A   1      32.033  26.574  22.924  1.00  0.00     0.232 C 
ATOM      8  N   UNL A   1      31.775  25.118  22.777  1.00  0.00    -0.325 N 
ATOM      9  C   UNL A   1      33.000  26.717  24.094  1.00  0.00     0.161 C 
ATOM     10  H   UNL A   1      32.213  24.776  21.921  1.00  0.00     0.347 HD
ATOM     11  H   UNL A   1      30.771  24.947  22.727  1.00  0.00     0.347 HD
ATOM     12  C   UNL A   1      32.784  25.478  24.942  1.00  0.00     0.170 C 
ATOM     13  C   UNL A   1      32.757  27.829  25.070  1.00  0.00     0.239 C 
ATOM     14  C   UNL A   1      31.397  23.330  24.486  1.00  0.00     0.093 C 
ATOM     15  C   UNL A   1      31.872  25.964  26.038  1.00  0.00     0.240 C 
ATOM     16  N   UNL A   1      32.053  27.321  26.129  1.00  0.00    -0.285 N 
ATOM     17  O   UNL A   1      33.132  28.979  24.914  1.00  0.00    -0.274 OA
ATOM     18  O   UNL A   1      31.201  25.260  26.776  1.00  0.00    -0.274 OA
ATOM     19  C   UNL A   1      31.583  28.144  27.218  1.00  0.00     0.156 C 
BRANCH   7  20
ATOM     20  C   UNL A   1      30.789  27.450  23.003  1.00  0.00     0.056 A 
ATOM     21  C   UNL A   1      29.489  29.437  22.428  1.00  0.00     0.161 A 
ATOM     22  C   UNL A   1      28.329  28.862  22.929  1.00  0.00     0.050 A 
ATOM     23  C   UNL A   1      30.710  28.756  22.510  1.00  0.00     0.166 A 
ATOM     24  C   UNL A   1      28.387  27.579  23.468  1.00  0.00     0.005 A 
ATOM     25  C   UNL A   1      29.598  26.877  23.494  1.00  0.00     0.014 A 
BRANCH  21  26
ATOM     26  O   UNL A   1      29.436  30.696  21.889  1.00  0.00    -0.493 OA
ATOM     27  C   UNL A   1      28.177  30.928  21.242  1.00  0.00     0.278 C 
ENDBRANCH  21  26
BRANCH  23  28
ATOM     28  O   UNL A   1      31.843  29.395  22.096  1.00  0.00    -0.504 OA
ATOM     29  H   UNL A   1      32.255  29.143  21.293  1.00  0.00     0.293 HD
ENDBRANCH  23  28
ENDBRANCH   7  20
ENDBRANCH   4   6
ENDBRANCH   3   4
ENDBRANCH   2   3
ENDBRANCH   1   2
BRANCH   1  30
ATOM     30  O   UNL A   1      37.075  21.739  24.661  1.00  0.00    -0.458 OA
BRANCH  30  31
ATOM     31  C   UNL A   1      38.105  21.277  25.406  1.00  0.00     0.338 C 
ATOM     32  O   UNL A   1      38.474  20.111  25.482  1.00  0.00    -0.246 OA
BRANCH  31  33
ATOM     33  C   UNL A   1      38.784  22.390  26.115  1.00  0.00     0.060 A 
ATOM     34  C   UNL A   1      38.307  23.700  26.049  1.00  0.00     0.016 A 
ATOM     35  C   UNL A   1      39.992  22.140  26.767  1.00  0.00     0.016 A 
ATOM     36  C   UNL A   1      39.094  24.762  26.507  1.00  0.00     0.010 A 
ATOM     37  C   UNL A   1      40.713  23.195  27.340  1.00  0.00     0.010 A 
ATOM     38  C   UNL A   1      40.301  24.531  27.184  1.00  0.00    -0.014 A 
BRANCH  38  39
ATOM     39  C   UNL A   1      41.151  25.647  27.717  1.00  0.00     0.031 A 
ATOM     40  C   UNL A   1      40.530  26.714  28.592  1.00  0.00     0.074 A 
ATOM     41  C   UNL A   1      42.457  25.760  27.394  1.00  0.00     0.049 A 
ATOM     42  N   UNL A   1      40.948  27.929  28.841  1.00  0.00    -0.248 NA
ATOM     43  C   UNL A   1      39.253  26.377  29.239  1.00  0.00     0.031 C 
ATOM     44  C   UNL A   1      43.235  24.795  26.613  1.00  0.00     0.029 A 
ATOM     45  N   UNL A   1      43.368  26.754  27.676  1.00  0.00    -0.354 N 
ATOM     46  C   UNL A   1      39.936  28.537  29.584  1.00  0.00     0.074 A 
ATOM     47  C   UNL A   1      38.898  27.544  29.762  1.00  0.00     0.031 C 
ATOM     48  C   UNL A   1      44.503  25.221  26.515  1.00  0.00     0.029 A 
ATOM     49  C   UNL A   1      44.604  26.550  27.103  1.00  0.00     0.049 A 
ATOM     50  H   UNL A   1      43.154  27.537  28.233  1.00  0.00     0.167 HD
ATOM     51  C   UNL A   1      39.879  29.808  30.053  1.00  0.00     0.034 A 
ATOM     52  C   UNL A   1      45.676  27.359  26.988  1.00  0.00     0.034 A 
ATOM     53  C   UNL A   1      40.970  30.751  29.965  1.00  0.00     0.049 A 
ATOM     54  C   UNL A   1      45.595  28.765  27.521  1.00  0.00     0.074 A 
ATOM     55  C   UNL A   1      41.035  32.044  30.457  1.00  0.00     0.029 A 
ATOM     56  N   UNL A   1      42.197  30.494  29.371  1.00  0.00    -0.354 N 
ATOM     57  N   UNL A   1      44.593  29.364  28.121  1.00  0.00    -0.248 NA
ATOM     58  C   UNL A   1      46.781  29.613  27.336  1.00  0.00     0.031 C 
ATOM     59  C   UNL A   1      42.282  32.582  30.123  1.00  0.00     0.029 A 
ATOM     60  C   UNL A   1      43.019  31.607  29.474  1.00  0.00     0.049 A 
ATOM     61  H   UNL A   1      42.449  29.645  28.940  1.00  0.00     0.167 HD
ATOM     62  C   UNL A   1      45.036  30.654  28.395  1.00  0.00     0.074 A 
ATOM     63  C   UNL A   1      46.399  30.741  27.915  1.00  0.00     0.031 C 
ATOM     64  C   UNL A   1      44.373  31.679  28.988  1.00  0.00     0.034 A 
BRANCH  51  65
ATOM     65  C   UNL A   1      38.575  30.290  30.644  1.00  0.00     0.023 A 
ATOM     66  C   UNL A   1      37.587  30.936  29.885  1.00  0.00     0.031 A 
ATOM     67  C   UNL A   1      38.315  30.062  32.010  1.00  0.00     0.131 A 
ATOM     68  C   UNL A   1      36.405  31.374  30.507  1.00  0.00     0.055 A 
ATOM     69  C   UNL A   1      37.112  30.441  32.606  1.00  0.00     0.041 A 
ATOM     70  F   UNL A   1      39.230  29.461  32.787  1.00  0.00    -0.206 F 
ATOM     71  C   UNL A   1      36.152  31.108  31.855  1.00  0.00     0.022 A 
BRANCH  68  72
ATOM     72  S   UNL A   1      35.228  32.369  29.549  1.00  0.00     0.124 S 
ATOM     73  O   UNL A   1      34.301  32.813  30.587  1.00  0.00    -0.237 OA
ATOM     74  O   UNL A   1      36.081  33.401  28.970  1.00  0.00    -0.237 OA
ATOM     75  O   UNL A   1      34.670  31.414  28.593  1.00  0.00    -0.744 OA
ENDBRANCH  68  72
ENDBRANCH  51  65
BRANCH  52  76
ATOM     76  C   UNL A   1      46.893  26.902  26.253  1.00  0.00     0.023 A 
ATOM     77  C   UNL A   1      47.956  26.286  26.929  1.00  0.00     0.031 A 
ATOM     78  C   UNL A   1      47.030  27.124  24.871  1.00  0.00     0.131 A 
ATOM     79  C   UNL A   1      49.125  25.946  26.231  1.00  0.00     0.055 A 
ATOM     80  C   UNL A   1      48.170  26.727  24.169  1.00  0.00     0.041 A 
ATOM     81  F   UNL A   1      46.046  27.716  24.174  1.00  0.00    -0.206 F 
ATOM     82  C   UNL A   1      49.232  26.146  24.853  1.00  0.00     0.022 A 
BRANCH  79  83
ATOM     83  S   UNL A   1      50.546  25.324  27.170  1.00  0.00     0.124 S 
ATOM     84  O   UNL A   1      51.471  24.958  26.103  1.00  0.00    -0.237 OA
ATOM     85  O   UNL A   1      50.916  26.488  27.967  1.00  0.00    -0.237 OA
ATOM     86  O   UNL A   1      49.991  24.203  27.926  1.00  0.00    -0.744 OA
ENDBRANCH  79  83
ENDBRANCH  52  76
BRANCH  64  87
ATOM     87  C   UNL A   1      45.144  32.955  29.194  1.00  0.00     0.023 A 
ATOM     88  C   UNL A   1      45.218  33.944  28.197  1.00  0.00     0.031 A 
ATOM     89  C   UNL A   1      45.841  33.170  30.397  1.00  0.00     0.131 A 
ATOM     90  C   UNL A   1      46.013  35.081  28.401  1.00  0.00     0.055 A 
ATOM     91  C   UNL A   1      46.592  34.325  30.613  1.00  0.00     0.041 A 
ATOM     92  F   UNL A   1      45.805  32.254  31.379  1.00  0.00    -0.206 F 
ATOM     93  C   UNL A   1      46.691  35.283  29.607  1.00  0.00     0.022 A 
BRANCH  90  94
ATOM     94  S   UNL A   1      46.216  36.261  27.038  1.00  0.00     0.124 S 
ATOM     95  O   UNL A   1      47.598  36.695  27.215  1.00  0.00    -0.237 OA
ATOM     96  O   UNL A   1      45.953  35.433  25.866  1.00  0.00    -0.237 OA
ATOM     97  O   UNL A   1      45.205  37.280  27.314  1.00  0.00    -0.744 OA
ENDBRANCH  90  94
ENDBRANCH  64  87
ENDBRANCH  38  39
ENDBRANCH  31  33
ENDBRANCH  30  31
ENDBRANCH   1  30
TORSDOF 17
ENDMDL
MODEL 3
REMARK VINA RESULT:     -12.9      5.044     10.028
REMARK SMILES COc1cccc([C@@H]2[NH2+][C@@](C)(C(=O)OCCOC(=O)c3ccc(-c4c5nc(c(-c6cc(S(=O)(=O)[O-])ccc6F)c6ccc([nH]6)c(-c6cc(S(=O)(=O)[O-])ccc6F)c6nc(c(-c7cc(S(=O)(=O)[O-])ccc7F)c7ccc4[nH]7)C=C6)C=C5)cc3)[C@@H]3C(=O)N(C)C(=O)[C@@H]32)c1O
REMARK SMILES IDX 16 1 15 2 14 3 12 4 13 5 10 6 8 7 9 8 90 9 83 12 88 13 11 14
REMARK SMILES IDX 84 15 86 16 89 17 85 18 87 19 7 20 3 21 4 22 91 23 5 24 6 25
REMARK SMILES IDX 2 26 1 27 92 28 17 30 18 31 19 32 20 33 21 34 82 35 22 36
REMARK SMILES IDX 81 37 23 38 24 39 25 40 75 41 26 42 80 43 74 44 76 45 27 46
REMARK SMILES IDX 79 47 73 48 72 49 28 51 60 52 40 53 59 54 41 55 44 56 58 57
REMARK SMILES IDX 77 58 42 59 43 60 57 62 78 63 45 64 29 65 30 66 38 67 31 68
REMARK SMILES IDX 37 69 39 70 36 71 32 72 33 73 34 74 35 75 61 76 62 77 70 78
REMARK SMILES IDX 63 79 69 80 71 81 68 82 64 83 65 84 66 85 67 86 46 87 47 88
REMARK SMILES IDX 55 89 48 90 54 91 56 92 53 93 49 94 50 95 51 96 52 97
REMARK H PARENT 9 10 9 11 92 29 76 50 44 61
REMARK Flexibility Score: inf
ROOT
ATOM      1  C   UNL A   1      35.822  21.450  25.277  1.00  0.00     0.275 C 
ENDROOT
BRANCH   1   2
ATOM      2  C   UNL A   1      34.721  21.862  24.303  1.00  0.00     0.274 C 
BRANCH   2   3
ATOM      3  O   UNL A   1      34.259  23.197  24.592  1.00  0.00    -0.457 OA
BRANCH   3   4
ATOM      4  C   UNL A   1      33.671  23.851  23.553  1.00  0.00     0.368 C 
ATOM      5  O   UNL A   1      34.122  23.853  22.409  1.00  0.00    -0.245 OA
BRANCH   4   6
ATOM      6  C   UNL A   1      32.388  24.642  23.936  1.00  0.00     0.204 C 
ATOM      7  C   UNL A   1      31.987  26.760  22.823  1.00  0.00     0.232 C 
ATOM      8  N   UNL A   1      31.749  25.294  22.751  1.00  0.00    -0.325 N 
ATOM      9  C   UNL A   1      33.001  26.969  23.944  1.00  0.00     0.161 C 
ATOM     10  H   UNL A   1      32.156  24.922  21.894  1.00  0.00     0.347 HD
ATOM     11  H   UNL A   1      30.747  25.106  22.752  1.00  0.00     0.347 HD
ATOM     12  C   UNL A   1      32.841  25.766  24.854  1.00  0.00     0.170 C 
ATOM     13  C   UNL A   1      32.780  28.120  24.879  1.00  0.00     0.239 C 
ATOM     14  C   UNL A   1      31.473  23.580  24.553  1.00  0.00     0.093 C 
ATOM     15  C   UNL A   1      31.967  26.287  25.965  1.00  0.00     0.240 C 
ATOM     16  N   UNL A   1      32.130  27.649  25.989  1.00  0.00    -0.285 N 
ATOM     17  O   UNL A   1      33.128  29.268  24.656  1.00  0.00    -0.274 OA
ATOM     18  O   UNL A   1      31.341  25.607  26.761  1.00  0.00    -0.274 OA
ATOM     19  C   UNL A   1      31.691  28.513  27.059  1.00  0.00     0.156 C 
BRANCH   7  20
ATOM     20  C   UNL A   1      30.733  27.619  22.916  1.00  0.00     0.056 A 
ATOM     21  C   UNL A   1      29.392  29.577  22.338  1.00  0.00     0.161 A 
ATOM     22  C   UNL A   1      28.252  28.995  22.876  1.00  0.00     0.050 A 
ATOM     23  C   UNL A   1      30.624  28.915  22.402  1.00  0.00     0.166 A 
ATOM     24  C   UNL A   1      28.341  27.723  23.436  1.00  0.00     0.005 A 
ATOM     25  C   UNL A   1      29.563  27.039  23.445  1.00  0.00     0.014 A 
BRANCH  21  26
ATOM     26  O   UNL A   1      29.308  30.826  21.778  1.00  0.00    -0.493 OA
ATOM     27  C   UNL A   1      28.043  31.016  21.129  1.00  0.00     0.278 C 
ENDBRANCH  21  26
BRANCH  23  28
ATOM     28  O   UNL A   1      31.737  29.562  21.950  1.00  0.00    -0.504 OA
ATOM     29  H   UNL A   1      31.781  30.497  21.980  1.00  0.00     0.293 HD
ENDBRANCH  23  28
ENDBRANCH   7  20
ENDBRANCH   4   6
ENDBRANCH   3   4
ENDBRANCH   2   3
ENDBRANCH   1   2
BRANCH   1  30
ATOM     30  O   UNL A   1      37.105  21.789  24.725  1.00  0.00    -0.458 OA
BRANCH  30  31
ATOM     31  C   UNL A   1      38.179  21.347  25.418  1.00  0.00     0.338 C 
ATOM     32  O   UNL A   1      38.590  20.193  25.451  1.00  0.00    -0.246 OA
BRANCH  31  33
ATOM     33  C   UNL A   1      38.847  22.467  26.127  1.00  0.00     0.060 A 
ATOM     34  C   UNL A   1      38.384  23.780  26.023  1.00  0.00     0.016 A 
ATOM     35  C   UNL A   1      40.033  22.218  26.819  1.00  0.00     0.016 A 
ATOM     36  C   UNL A   1      39.167  24.843  26.484  1.00  0.00     0.010 A 
ATOM     37  C   UNL A   1      40.746  23.277  27.394  1.00  0.00     0.010 A 
ATOM     38  C   UNL A   1      40.351  24.614  27.201  1.00  0.00    -0.014 A 
BRANCH  38  39
ATOM     39  C   UNL A   1      41.196  25.731  27.739  1.00  0.00     0.031 A 
ATOM     40  C   UNL A   1      40.574  26.780  28.636  1.00  0.00     0.074 A 
ATOM     41  C   UNL A   1      42.497  25.862  27.403  1.00  0.00     0.049 A 
ATOM     42  N   UNL A   1      40.982  27.996  28.897  1.00  0.00    -0.248 NA
ATOM     43  C   UNL A   1      39.308  26.420  29.293  1.00  0.00     0.031 C 
ATOM     44  C   UNL A   1      43.276  24.917  26.599  1.00  0.00     0.029 A 
ATOM     45  N   UNL A   1      43.400  26.863  27.687  1.00  0.00    -0.354 N 
ATOM     46  C   UNL A   1      39.973  28.582  29.660  1.00  0.00     0.074 A 
ATOM     47  C   UNL A   1      38.947  27.575  29.837  1.00  0.00     0.031 C 
ATOM     48  C   UNL A   1      44.537  25.358  26.491  1.00  0.00     0.029 A 
ATOM     49  C   UNL A   1      44.631  26.680  27.097  1.00  0.00     0.049 A 
ATOM     50  H   UNL A   1      43.184  27.636  28.258  1.00  0.00     0.167 HD
ATOM     51  C   UNL A   1      39.908  29.846  30.147  1.00  0.00     0.034 A 
ATOM     52  C   UNL A   1      45.694  27.502  26.980  1.00  0.00     0.034 A 
ATOM     53  C   UNL A   1      40.987  30.802  30.059  1.00  0.00     0.049 A 
ATOM     54  C   UNL A   1      45.603  28.900  27.533  1.00  0.00     0.074 A 
ATOM     55  C   UNL A   1      41.044  32.089  30.567  1.00  0.00     0.029 A 
ATOM     56  N   UNL A   1      42.210  30.566  29.446  1.00  0.00    -0.354 N 
ATOM     57  N   UNL A   1      44.602  29.480  28.153  1.00  0.00    -0.248 NA
ATOM     58  C   UNL A   1      46.778  29.763  27.345  1.00  0.00     0.031 C 
ATOM     59  C   UNL A   1      42.281  32.645  30.226  1.00  0.00     0.029 A 
ATOM     60  C   UNL A   1      43.021  31.687  29.555  1.00  0.00     0.049 A 
ATOM     61  H   UNL A   1      42.465  29.727  29.001  1.00  0.00     0.167 HD
ATOM     62  C   UNL A   1      45.035  30.771  28.439  1.00  0.00     0.074 A 
ATOM     63  C   UNL A   1      46.391  30.880  27.944  1.00  0.00     0.031 C 
ATOM     64  C   UNL A   1      44.369  31.781  29.054  1.00  0.00     0.034 A 
BRANCH  51  65
ATOM     65  C   UNL A   1      38.606  30.306  30.759  1.00  0.00     0.023 A 
ATOM     66  C   UNL A   1      37.609  30.966  30.026  1.00  0.00     0.031 A 
ATOM     67  C   UNL A   1      38.358  30.042  32.122  1.00  0.00     0.131 A 
ATOM     68  C   UNL A   1      36.429  31.381  30.667  1.00  0.00     0.055 A 
ATOM     69  C   UNL A   1      37.157  30.399  32.736  1.00  0.00     0.041 A 
ATOM     70  F   UNL A   1      39.282  29.426  32.876  1.00  0.00    -0.206 F 
ATOM     71  C   UNL A   1      36.188  31.080  32.010  1.00  0.00     0.022 A 
BRANCH  68  72
ATOM     72  S   UNL A   1      35.240  32.394  29.744  1.00  0.00     0.124 S 
ATOM     73  O   UNL A   1      34.242  32.688  30.770  1.00  0.00    -0.237 OA
ATOM     74  O   UNL A   1      36.055  33.521  29.304  1.00  0.00    -0.237 OA
ATOM     75  O   UNL A   1      34.784  31.503  28.679  1.00  0.00    -0.744 OA
ENDBRANCH  68  72
ENDBRANCH  51  65
BRANCH  52  76
ATOM     76  C   UNL A   1      46.906  27.069  26.225  1.00  0.00     0.023 A 
ATOM     77  C   UNL A   1      47.152  27.536  24.925  1.00  0.00     0.031 A 
ATOM     78  C   UNL A   1      47.809  26.140  26.774  1.00  0.00     0.131 A 
ATOM     79  C   UNL A   1      48.251  27.046  24.203  1.00  0.00     0.055 A 
ATOM     80  C   UNL A   1      48.935  25.703  26.075  1.00  0.00     0.041 A 
ATOM     81  F   UNL A   1      47.618  25.654  28.012  1.00  0.00    -0.206 F 
ATOM     82  C   UNL A   1      49.154  26.146  24.775  1.00  0.00     0.022 A 
BRANCH  79  83
ATOM     83  S   UNL A   1      48.432  27.529  22.464  1.00  0.00     0.124 S 
ATOM     84  O   UNL A   1      49.661  28.314  22.499  1.00  0.00    -0.237 OA
ATOM     85  O   UNL A   1      48.518  26.234  21.798  1.00  0.00    -0.237 OA
ATOM     86  O   UNL A   1      47.214  28.289  22.194  1.00  0.00    -0.744 OA
ENDBRANCH  79  83
ENDBRANCH  52  76
BRANCH  64  87
ATOM     87  C   UNL A   1      45.128  33.062  29.268  1.00  0.00     0.023 A 
ATOM     88  C   UNL A   1      45.090  34.109  28.331  1.00  0.00     0.031 A 
ATOM     89  C   UNL A   1      45.926  33.223  30.415  1.00  0.00     0.131 A 
ATOM     90  C   UNL A   1      45.877  35.253  28.532  1.00  0.00     0.055 A 
ATOM     91  C   UNL A   1      46.669  34.383  30.633  1.00  0.00     0.041 A 
ATOM     92  F   UNL A   1      45.998  32.251  31.338  1.00  0.00    -0.206 F 
ATOM     93  C   UNL A   1      46.657  35.401  29.683  1.00  0.00     0.022 A 
BRANCH  90  94
ATOM     94  S   UNL A   1      45.930  36.516  27.232  1.00  0.00     0.124 S 
ATOM     95  O   UNL A   1      46.134  35.710  26.033  1.00  0.00    -0.237 OA
ATOM     96  O   UNL A   1      44.622  37.151  27.358  1.00  0.00    -0.237 OA
ATOM     97  O   UNL A   1      47.064  37.356  27.614  1.00  0.00    -0.744 OA
ENDBRANCH  90  94
ENDBRANCH  64  87
ENDBRANCH  38  39
ENDBRANCH  31  33
ENDBRANCH  30  31
ENDBRANCH   1  30
TORSDOF 17
ENDMDL
