MODEL 1
REMARK VINA RESULT:     -12.1      0.000      0.000
REMARK SMILES CC[C@@H]1CC[C@](C[C@@H]2CCCc3ccccc32)(C(=O)OCCOC(=O)c2ccc(-c3c4nc(c(-c5cc(S(=O)(=O)[O-])ccc5F)c5ccc([nH]5)c(-c5cc(S(=O)(=O)[O-])ccc5F)c5nc(c(-c6cc(S(=O)(=O)[O-])ccc6F)c6ccc3[nH]6)C=C5)C=C4)cc2)C1
REMARK SMILES IDX 22 1 21 2 20 3 18 4 19 5 6 6 3 7 4 8 89 9 5 10 2 11 1 12
REMARK SMILES IDX 7 13 8 14 9 15 17 16 10 17 12 18 16 19 11 20 13 21 15 22
REMARK SMILES IDX 14 23 23 24 24 25 25 26 26 27 27 28 88 29 28 30 87 31 29 32
REMARK SMILES IDX 30 33 31 34 81 35 32 36 86 37 80 38 82 39 33 40 85 41 79 42
REMARK SMILES IDX 78 43 34 45 66 46 46 47 65 48 47 49 50 50 64 51 83 52 48 53
REMARK SMILES IDX 49 54 63 56 84 57 51 58 35 59 36 60 44 61 37 62 43 63 45 64
REMARK SMILES IDX 42 65 38 66 39 67 40 68 41 69 67 70 68 71 76 72 69 73 75 74
REMARK SMILES IDX 77 75 74 76 70 77 71 78 72 79 73 80 52 81 53 82 61 83 54 84
REMARK SMILES IDX 60 85 62 86 59 87 55 88 56 89 57 90 58 91
REMARK H PARENT 82 44 50 55
REMARK Flexibility Score: inf
ROOT
ATOM      1  C   UNL A   1      31.716  29.828  25.429  1.00  0.00     0.275 C 
ENDROOT
BRANCH   1   2
ATOM      2  C   UNL A   1      32.613  29.079  24.445  1.00  0.00     0.274 C 
BRANCH   2   3
ATOM      3  O   UNL A   1      31.995  27.859  23.979  1.00  0.00    -0.462 OA
BRANCH   3   4
ATOM      4  C   UNL A   1      32.774  27.079  23.185  1.00  0.00     0.312 C 
ATOM      5  O   UNL A   1      33.121  27.416  22.056  1.00  0.00    -0.252 OA
BRANCH   4   6
ATOM      6  C   UNL A   1      33.139  25.692  23.783  1.00  0.00     0.069 C 
ATOM      7  C   UNL A   1      32.465  24.576  25.864  1.00  0.00    -0.010 C 
ATOM      8  C   UNL A   1      33.354  25.750  26.234  1.00  0.00     0.005 C 
ATOM      9  C   UNL A   1      31.953  24.971  24.472  1.00  0.00     0.022 C 
ATOM     10  C   UNL A   1      34.134  25.950  24.939  1.00  0.00     0.019 C 
BRANCH   7  11
ATOM     11  C   UNL A   1      31.364  24.256  26.872  1.00  0.00     0.000 C 
ATOM     12  C   UNL A   1      30.512  23.082  26.403  1.00  0.00     0.004 C 
ENDBRANCH   7  11
BRANCH   6  13
ATOM     13  C   UNL A   1      33.714  24.929  22.539  1.00  0.00     0.027 C 
BRANCH  13  14
ATOM     14  C   UNL A   1      34.042  23.414  22.425  1.00  0.00     0.020 C 
ATOM     15  C   UNL A   1      32.896  22.490  22.001  1.00  0.00     0.009 C 
ATOM     16  C   UNL A   1      34.907  22.833  23.513  1.00  0.00    -0.042 A 
ATOM     17  C   UNL A   1      32.158  21.805  23.135  1.00  0.00     0.005 C 
ATOM     18  C   UNL A   1      34.422  21.844  24.382  1.00  0.00    -0.045 A 
ATOM     19  C   UNL A   1      36.232  23.292  23.665  1.00  0.00     0.004 A 
ATOM     20  C   UNL A   1      33.061  21.220  24.220  1.00  0.00     0.036 C 
ATOM     21  C   UNL A   1      35.252  21.375  25.415  1.00  0.00     0.004 A 
ATOM     22  C   UNL A   1      37.049  22.803  24.682  1.00  0.00     0.000 A 
ATOM     23  C   UNL A   1      36.554  21.854  25.566  1.00  0.00     0.000 A 
ENDBRANCH  13  14
ENDBRANCH   6  13
ENDBRANCH   4   6
ENDBRANCH   3   4
ENDBRANCH   2   3
ENDBRANCH   1   2
BRANCH   1  24
ATOM     24  O   UNL A   1      32.342  29.885  26.720  1.00  0.00    -0.458 OA
BRANCH  24  25
ATOM     25  C   UNL A   1      32.929  31.062  27.047  1.00  0.00     0.338 C 
ATOM     26  O   UNL A   1      32.436  32.171  26.933  1.00  0.00    -0.246 OA
BRANCH  25  27
ATOM     27  C   UNL A   1      34.286  30.830  27.596  1.00  0.00     0.060 A 
ATOM     28  C   UNL A   1      34.749  29.541  27.846  1.00  0.00     0.016 A 
ATOM     29  C   UNL A   1      35.071  31.918  27.978  1.00  0.00     0.016 A 
ATOM     30  C   UNL A   1      35.907  29.338  28.597  1.00  0.00     0.010 A 
ATOM     31  C   UNL A   1      36.311  31.706  28.595  1.00  0.00     0.010 A 
ATOM     32  C   UNL A   1      36.733  30.412  28.948  1.00  0.00    -0.014 A 
BRANCH  32  33
ATOM     33  C   UNL A   1      38.022  30.191  29.675  1.00  0.00     0.031 A 
ATOM     34  C   UNL A   1      39.112  29.349  29.055  1.00  0.00     0.074 A 
ATOM     35  C   UNL A   1      38.226  30.725  30.899  1.00  0.00     0.049 A 
ATOM     36  N   UNL A   1      40.159  28.799  29.617  1.00  0.00    -0.248 NA
ATOM     37  C   UNL A   1      38.993  29.069  27.616  1.00  0.00     0.031 C 
ATOM     38  C   UNL A   1      37.295  31.605  31.612  1.00  0.00     0.029 A 
ATOM     39  N   UNL A   1      39.286  30.605  31.768  1.00  0.00    -0.354 N 
ATOM     40  C   UNL A   1      40.777  28.045  28.624  1.00  0.00     0.074 A 
ATOM     41  C   UNL A   1      39.988  28.217  27.421  1.00  0.00     0.031 C 
ATOM     42  C   UNL A   1      37.842  31.985  32.773  1.00  0.00     0.029 A 
ATOM     43  C   UNL A   1      39.099  31.272  32.958  1.00  0.00     0.049 A 
ATOM     44  H   UNL A   1      40.100  30.093  31.559  1.00  0.00     0.167 HD
ATOM     45  C   UNL A   1      41.891  27.274  28.716  1.00  0.00     0.034 A 
ATOM     46  C   UNL A   1      39.807  31.260  34.104  1.00  0.00     0.034 A 
ATOM     47  C   UNL A   1      42.700  27.170  29.908  1.00  0.00     0.049 A 
ATOM     48  C   UNL A   1      41.014  30.371  34.199  1.00  0.00     0.074 A 
ATOM     49  C   UNL A   1      43.861  26.442  30.105  1.00  0.00     0.029 A 
ATOM     50  N   UNL A   1      42.441  27.827  31.105  1.00  0.00    -0.354 N 
ATOM     51  N   UNL A   1      41.526  29.576  33.288  1.00  0.00    -0.248 NA
ATOM     52  C   UNL A   1      41.718  30.353  35.486  1.00  0.00     0.031 C 
ATOM     53  C   UNL A   1      44.273  26.616  31.432  1.00  0.00     0.029 A 
ATOM     54  C   UNL A   1      43.405  27.503  32.048  1.00  0.00     0.049 A 
ATOM     55  H   UNL A   1      41.682  28.435  31.261  1.00  0.00     0.167 HD
ATOM     56  C   UNL A   1      42.610  28.956  33.897  1.00  0.00     0.074 A 
ATOM     57  C   UNL A   1      42.697  29.493  35.240  1.00  0.00     0.031 C 
ATOM     58  C   UNL A   1      43.454  28.020  33.394  1.00  0.00     0.034 A 
BRANCH  45  59
ATOM     59  C   UNL A   1      42.258  26.427  27.518  1.00  0.00     0.023 A 
ATOM     60  C   UNL A   1      41.866  25.084  27.392  1.00  0.00     0.031 A 
ATOM     61  C   UNL A   1      43.036  26.984  26.485  1.00  0.00     0.131 A 
ATOM     62  C   UNL A   1      42.304  24.327  26.293  1.00  0.00     0.055 A 
ATOM     63  C   UNL A   1      43.410  26.246  25.360  1.00  0.00     0.041 A 
ATOM     64  F   UNL A   1      43.458  28.257  26.557  1.00  0.00    -0.206 F 
ATOM     65  C   UNL A   1      43.053  24.905  25.265  1.00  0.00     0.022 A 
BRANCH  62  66
ATOM     66  S   UNL A   1      41.986  22.541  26.283  1.00  0.00     0.124 S 
ATOM     67  O   UNL A   1      40.525  22.500  26.296  1.00  0.00    -0.237 OA
ATOM     68  O   UNL A   1      42.626  22.114  25.045  1.00  0.00    -0.237 OA
ATOM     69  O   UNL A   1      42.626  22.070  27.510  1.00  0.00    -0.744 OA
ENDBRANCH  62  66
ENDBRANCH  45  59
BRANCH  46  70
ATOM     70  C   UNL A   1      39.327  32.031  35.286  1.00  0.00     0.023 A 
ATOM     71  C   UNL A   1      39.782  33.334  35.538  1.00  0.00     0.031 A 
ATOM     72  C   UNL A   1      38.404  31.468  36.187  1.00  0.00     0.131 A 
ATOM     73  C   UNL A   1      39.325  34.024  36.672  1.00  0.00     0.055 A 
ATOM     74  C   UNL A   1      37.913  32.177  37.283  1.00  0.00     0.041 A 
ATOM     75  F   UNL A   1      37.938  30.222  35.993  1.00  0.00    -0.206 F 
ATOM     76  C   UNL A   1      38.381  33.462  37.535  1.00  0.00     0.022 A 
BRANCH  73  77
ATOM     77  S   UNL A   1      40.027  35.656  37.039  1.00  0.00     0.124 S 
ATOM     78  O   UNL A   1      39.343  36.004  38.279  1.00  0.00    -0.237 OA
ATOM     79  O   UNL A   1      41.450  35.357  37.153  1.00  0.00    -0.237 OA
ATOM     80  O   UNL A   1      39.653  36.457  35.874  1.00  0.00    -0.744 OA
ENDBRANCH  73  77
ENDBRANCH  46  70
BRANCH  58  81
ATOM     81  C   UNL A   1      44.547  27.545  34.313  1.00  0.00     0.023 A 
ATOM     82  C   UNL A   1      44.395  26.384  35.092  1.00  0.00     0.031 A 
ATOM     83  C   UNL A   1      45.734  28.285  34.448  1.00  0.00     0.131 A 
ATOM     84  C   UNL A   1      45.389  26.027  36.014  1.00  0.00     0.055 A 
ATOM     85  C   UNL A   1      46.743  27.897  35.330  1.00  0.00     0.041 A 
ATOM     86  F   UNL A   1      45.926  29.404  33.731  1.00  0.00    -0.206 F 
ATOM     87  C   UNL A   1      46.568  26.770  36.129  1.00  0.00     0.022 A 
BRANCH  84  88
ATOM     88  S   UNL A   1      45.084  24.629  37.127  1.00  0.00     0.124 S 
ATOM     89  O   UNL A   1      46.424  24.348  37.635  1.00  0.00    -0.237 OA
ATOM     90  O   UNL A   1      44.143  25.193  38.090  1.00  0.00    -0.237 OA
ATOM     91  O   UNL A   1      44.528  23.604  36.246  1.00  0.00    -0.744 OA
ENDBRANCH  84  88
ENDBRANCH  58  81
ENDBRANCH  32  33
ENDBRANCH  25  27
ENDBRANCH  24  25
ENDBRANCH   1  24
TORSDOF 17
ENDMDL
MODEL 2
REMARK VINA RESULT:     -12.0      4.646      9.802
REMARK SMILES CC[C@@H]1CC[C@](C[C@@H]2CCCc3ccccc32)(C(=O)OCCOC(=O)c2ccc(-c3c4nc(c(-c5cc(S(=O)(=O)[O-])ccc5F)c5ccc([nH]5)c(-c5cc(S(=O)(=O)[O-])ccc5F)c5nc(c(-c6cc(S(=O)(=O)[O-])ccc6F)c6ccc3[nH]6)C=C5)C=C4)cc2)C1
REMARK SMILES IDX 22 1 21 2 20 3 18 4 19 5 6 6 3 7 4 8 89 9 5 10 2 11 1 12
REMARK SMILES IDX 7 13 8 14 9 15 17 16 10 17 12 18 16 19 11 20 13 21 15 22
REMARK SMILES IDX 14 23 23 24 24 25 25 26 26 27 27 28 88 29 28 30 87 31 29 32
REMARK SMILES IDX 30 33 31 34 81 35 32 36 86 37 80 38 82 39 33 40 85 41 79 42
REMARK SMILES IDX 78 43 34 45 66 46 46 47 65 48 47 49 50 50 64 51 83 52 48 53
REMARK SMILES IDX 49 54 63 56 84 57 51 58 35 59 36 60 44 61 37 62 43 63 45 64
REMARK SMILES IDX 42 65 38 66 39 67 40 68 41 69 67 70 68 71 76 72 69 73 75 74
REMARK SMILES IDX 77 75 74 76 70 77 71 78 72 79 73 80 52 81 53 82 61 83 54 84
REMARK SMILES IDX 60 85 62 86 59 87 55 88 56 89 57 90 58 91
REMARK H PARENT 82 44 50 55
REMARK Flexibility Score: inf
ROOT
ATOM      1  C   UNL A   1      35.903  20.711  25.022  1.00  0.00     0.275 C 
ENDROOT
BRANCH   1   2
ATOM      2  C   UNL A   1      34.649  21.094  25.806  1.00  0.00     0.274 C 
BRANCH   2   3
ATOM      3  O   UNL A   1      34.819  22.345  26.509  1.00  0.00    -0.462 OA
BRANCH   3   4
ATOM      4  C   UNL A   1      33.671  22.931  26.939  1.00  0.00     0.312 C 
ATOM      5  O   UNL A   1      33.098  22.593  27.972  1.00  0.00    -0.252 OA
BRANCH   4   6
ATOM      6  C   UNL A   1      33.093  24.017  25.990  1.00  0.00     0.069 C 
ATOM      7  C   UNL A   1      33.225  24.304  23.555  1.00  0.00    -0.010 C 
ATOM      8  C   UNL A   1      34.612  24.544  24.126  1.00  0.00     0.005 C 
ATOM      9  C   UNL A   1      32.556  23.460  24.648  1.00  0.00     0.022 C 
ATOM     10  C   UNL A   1      34.278  24.918  25.566  1.00  0.00     0.019 C 
BRANCH   7  11
ATOM     11  C   UNL A   1      33.199  23.672  22.167  1.00  0.00     0.000 C 
ATOM     12  C   UNL A   1      32.532  22.301  22.197  1.00  0.00     0.004 C 
ENDBRANCH   7  11
BRANCH   6  13
ATOM     13  C   UNL A   1      31.998  24.698  26.883  1.00  0.00     0.027 C 
BRANCH  13  14
ATOM     14  C   UNL A   1      31.117  25.928  26.530  1.00  0.00     0.020 C 
ATOM     15  C   UNL A   1      29.855  25.659  25.704  1.00  0.00     0.009 C 
ATOM     16  C   UNL A   1      31.849  27.178  26.113  1.00  0.00    -0.042 A 
ATOM     17  C   UNL A   1      29.997  25.872  24.210  1.00  0.00     0.005 C 
ATOM     18  C   UNL A   1      31.706  27.712  24.824  1.00  0.00    -0.045 A 
ATOM     19  C   UNL A   1      32.698  27.824  27.035  1.00  0.00     0.004 A 
ATOM     20  C   UNL A   1      30.738  27.150  23.817  1.00  0.00     0.036 C 
ATOM     21  C   UNL A   1      32.453  28.848  24.468  1.00  0.00     0.004 A 
ATOM     22  C   UNL A   1      33.418  28.961  26.674  1.00  0.00     0.000 A 
ATOM     23  C   UNL A   1      33.305  29.466  25.385  1.00  0.00     0.000 A 
ENDBRANCH  13  14
ENDBRANCH   6  13
ENDBRANCH   4   6
ENDBRANCH   3   4
ENDBRANCH   2   3
ENDBRANCH   1   2
BRANCH   1  24
ATOM     24  O   UNL A   1      36.892  21.745  25.141  1.00  0.00    -0.458 OA
BRANCH  24  25
ATOM     25  C   UNL A   1      38.114  21.354  25.580  1.00  0.00     0.338 C 
ATOM     26  O   UNL A   1      38.605  20.246  25.457  1.00  0.00    -0.246 OA
BRANCH  25  27
ATOM     27  C   UNL A   1      38.814  22.484  26.237  1.00  0.00     0.060 A 
ATOM     28  C   UNL A   1      38.366  23.793  26.085  1.00  0.00     0.016 A 
ATOM     29  C   UNL A   1      40.006  22.250  26.924  1.00  0.00     0.016 A 
ATOM     30  C   UNL A   1      39.165  24.865  26.481  1.00  0.00     0.010 A 
ATOM     31  C   UNL A   1      40.730  23.325  27.457  1.00  0.00     0.010 A 
ATOM     32  C   UNL A   1      40.340  24.654  27.213  1.00  0.00    -0.014 A 
BRANCH  32  33
ATOM     33  C   UNL A   1      41.154  25.804  27.718  1.00  0.00     0.031 A 
ATOM     34  C   UNL A   1      40.520  26.862  28.589  1.00  0.00     0.074 A 
ATOM     35  C   UNL A   1      42.460  25.921  27.392  1.00  0.00     0.049 A 
ATOM     36  N   UNL A   1      40.950  28.063  28.884  1.00  0.00    -0.248 NA
ATOM     37  C   UNL A   1      39.217  26.533  29.185  1.00  0.00     0.031 C 
ATOM     38  C   UNL A   1      43.234  24.957  26.606  1.00  0.00     0.029 A 
ATOM     39  N   UNL A   1      43.374  26.908  27.682  1.00  0.00    -0.354 N 
ATOM     40  C   UNL A   1      39.939  28.660  29.631  1.00  0.00     0.074 A 
ATOM     41  C   UNL A   1      38.876  27.683  29.748  1.00  0.00     0.031 C 
ATOM     42  C   UNL A   1      44.505  25.369  26.521  1.00  0.00     0.029 A 
ATOM     43  C   UNL A   1      44.613  26.690  27.125  1.00  0.00     0.049 A 
ATOM     44  H   UNL A   1      43.161  27.695  28.235  1.00  0.00     0.167 HD
ATOM     45  C   UNL A   1      39.901  29.912  30.156  1.00  0.00     0.034 A 
ATOM     46  C   UNL A   1      45.699  27.483  27.033  1.00  0.00     0.034 A 
ATOM     47  C   UNL A   1      41.000  30.847  30.083  1.00  0.00     0.049 A 
ATOM     48  C   UNL A   1      45.624  28.878  27.586  1.00  0.00     0.074 A 
ATOM     49  C   UNL A   1      41.081  32.128  30.602  1.00  0.00     0.029 A 
ATOM     50  N   UNL A   1      42.219  30.597  29.464  1.00  0.00    -0.354 N 
ATOM     51  N   UNL A   1      44.622  29.471  28.192  1.00  0.00    -0.248 NA
ATOM     52  C   UNL A   1      46.813  29.719  27.412  1.00  0.00     0.031 C 
ATOM     53  C   UNL A   1      42.324  32.670  30.252  1.00  0.00     0.029 A 
ATOM     54  C   UNL A   1      43.046  31.705  29.568  1.00  0.00     0.049 A 
ATOM     55  H   UNL A   1      42.460  29.753  29.016  1.00  0.00     0.167 HD
ATOM     56  C   UNL A   1      45.060  30.761  28.466  1.00  0.00     0.074 A 
ATOM     57  C   UNL A   1      46.425  30.848  27.988  1.00  0.00     0.031 C 
ATOM     58  C   UNL A   1      44.391  31.785  29.053  1.00  0.00     0.034 A 
BRANCH  45  59
ATOM     59  C   UNL A   1      38.607  30.367  30.791  1.00  0.00     0.023 A 
ATOM     60  C   UNL A   1      37.589  31.005  30.061  1.00  0.00     0.031 A 
ATOM     61  C   UNL A   1      38.400  30.167  32.169  1.00  0.00     0.131 A 
ATOM     62  C   UNL A   1      36.442  31.474  30.723  1.00  0.00     0.055 A 
ATOM     63  C   UNL A   1      37.227  30.572  32.808  1.00  0.00     0.041 A 
ATOM     64  F   UNL A   1      39.344  29.580  32.924  1.00  0.00    -0.206 F 
ATOM     65  C   UNL A   1      36.244  31.242  32.087  1.00  0.00     0.022 A 
BRANCH  62  66
ATOM     66  S   UNL A   1      35.265  32.504  29.803  1.00  0.00     0.124 S 
ATOM     67  O   UNL A   1      34.799  31.574  28.776  1.00  0.00    -0.237 OA
ATOM     68  O   UNL A   1      34.294  32.864  30.828  1.00  0.00    -0.237 OA
ATOM     69  O   UNL A   1      36.086  33.607  29.308  1.00  0.00    -0.744 OA
ENDBRANCH  62  66
ENDBRANCH  45  59
BRANCH  46  70
ATOM     70  C   UNL A   1      46.906  27.014  26.294  1.00  0.00     0.023 A 
ATOM     71  C   UNL A   1      47.977  26.405  26.964  1.00  0.00     0.031 A 
ATOM     72  C   UNL A   1      47.004  27.175  24.899  1.00  0.00     0.131 A 
ATOM     73  C   UNL A   1      49.108  25.993  26.240  1.00  0.00     0.055 A 
ATOM     74  C   UNL A   1      48.107  26.718  24.178  1.00  0.00     0.041 A 
ATOM     75  F   UNL A   1      46.007  27.755  24.210  1.00  0.00    -0.206 F 
ATOM     76  C   UNL A   1      49.172  26.129  24.850  1.00  0.00     0.022 A 
BRANCH  73  77
ATOM     77  S   UNL A   1      50.527  25.325  27.150  1.00  0.00     0.124 S 
ATOM     78  O   UNL A   1      49.921  24.213  27.874  1.00  0.00    -0.237 OA
ATOM     79  O   UNL A   1      51.439  24.965  26.069  1.00  0.00    -0.237 OA
ATOM     80  O   UNL A   1      50.961  26.448  27.979  1.00  0.00    -0.744 OA
ENDBRANCH  73  77
ENDBRANCH  46  70
BRANCH  58  81
ATOM     81  C   UNL A   1      45.153  33.074  29.215  1.00  0.00     0.023 A 
ATOM     82  C   UNL A   1      45.092  34.086  28.241  1.00  0.00     0.031 A 
ATOM     83  C   UNL A   1      45.984  33.273  30.330  1.00  0.00     0.131 A 
ATOM     84  C   UNL A   1      45.895  35.229  28.372  1.00  0.00     0.055 A 
ATOM     85  C   UNL A   1      46.741  34.435  30.481  1.00  0.00     0.041 A 
ATOM     86  F   UNL A   1      46.080  32.334  31.286  1.00  0.00    -0.206 F 
ATOM     87  C   UNL A   1      46.709  35.415  29.492  1.00  0.00     0.022 A 
BRANCH  84  88
ATOM     88  S   UNL A   1      45.929  36.431  27.014  1.00  0.00     0.124 S 
ATOM     89  O   UNL A   1      46.854  37.438  27.524  1.00  0.00    -0.237 OA
ATOM     90  O   UNL A   1      46.413  35.628  25.896  1.00  0.00    -0.237 OA
ATOM     91  O   UNL A   1      44.538  36.866  26.907  1.00  0.00    -0.744 OA
ENDBRANCH  84  88
ENDBRANCH  58  81
ENDBRANCH  32  33
ENDBRANCH  25  27
ENDBRANCH  24  25
ENDBRANCH   1  24
TORSDOF 17
ENDMDL
MODEL 3
REMARK VINA RESULT:     -12.0      1.323      1.573
REMARK SMILES CC[C@@H]1CC[C@](C[C@@H]2CCCc3ccccc32)(C(=O)OCCOC(=O)c2ccc(-c3c4nc(c(-c5cc(S(=O)(=O)[O-])ccc5F)c5ccc([nH]5)c(-c5cc(S(=O)(=O)[O-])ccc5F)c5nc(c(-c6cc(S(=O)(=O)[O-])ccc6F)c6ccc3[nH]6)C=C5)C=C4)cc2)C1
REMARK SMILES IDX 22 1 21 2 20 3 18 4 19 5 6 6 3 7 4 8 89 9 5 10 2 11 1 12
REMARK SMILES IDX 7 13 8 14 9 15 17 16 10 17 12 18 16 19 11 20 13 21 15 22
REMARK SMILES IDX 14 23 23 24 24 25 25 26 26 27 27 28 88 29 28 30 87 31 29 32
REMARK SMILES IDX 30 33 31 34 81 35 32 36 86 37 80 38 82 39 33 40 85 41 79 42
REMARK SMILES IDX 78 43 34 45 66 46 46 47 65 48 47 49 50 50 64 51 83 52 48 53
REMARK SMILES IDX 49 54 63 56 84 57 51 58 35 59 36 60 44 61 37 62 43 63 45 64
REMARK SMILES IDX 42 65 38 66 39 67 40 68 41 69 67 70 68 71 76 72 69 73 75 74
REMARK SMILES IDX 77 75 74 76 70 77 71 78 72 79 73 80 52 81 53 82 61 83 54 84
REMARK SMILES IDX 60 85 62 86 59 87 55 88 56 89 57 90 58 91
REMARK H PARENT 82 44 50 55
REMARK Flexibility Score: inf
ROOT
ATOM      1  C   UNL A   1      31.652  29.845  25.153  1.00  0.00     0.275 C 
ENDROOT
BRANCH   1   2
ATOM      2  C   UNL A   1      31.765  28.715  24.131  1.00  0.00     0.274 C 
BRANCH   2   3
ATOM      3  O   UNL A   1      33.018  28.006  24.255  1.00  0.00    -0.462 OA
BRANCH   3   4
ATOM      4  C   UNL A   1      33.248  27.062  23.304  1.00  0.00     0.312 C 
ATOM      5  O   UNL A   1      33.452  27.341  22.126  1.00  0.00    -0.252 OA
BRANCH   4   6
ATOM      6  C   UNL A   1      33.166  25.594  23.805  1.00  0.00     0.069 C 
ATOM      7  C   UNL A   1      31.871  24.548  25.610  1.00  0.00    -0.010 C 
ATOM      8  C   UNL A   1      32.918  25.444  26.248  1.00  0.00     0.005 C 
ATOM      9  C   UNL A   1      31.738  25.143  24.202  1.00  0.00     0.022 C 
ATOM     10  C   UNL A   1      33.955  25.528  25.134  1.00  0.00     0.019 C 
BRANCH   7  11
ATOM     11  C   UNL A   1      30.556  24.443  26.377  1.00  0.00     0.000 C 
ATOM     12  C   UNL A   1      30.306  23.016  26.852  1.00  0.00     0.004 C 
ENDBRANCH   7  11
BRANCH   6  13
ATOM     13  C   UNL A   1      33.777  24.793  22.603  1.00  0.00     0.027 C 
BRANCH  13  14
ATOM     14  C   UNL A   1      34.012  23.260  22.507  1.00  0.00     0.020 C 
ATOM     15  C   UNL A   1      32.789  22.392  22.195  1.00  0.00     0.009 C 
ATOM     16  C   UNL A   1      34.925  22.657  23.544  1.00  0.00    -0.042 A 
ATOM     17  C   UNL A   1      32.103  21.777  23.400  1.00  0.00     0.005 C 
ATOM     18  C   UNL A   1      34.453  21.719  24.473  1.00  0.00    -0.045 A 
ATOM     19  C   UNL A   1      36.280  23.045  23.584  1.00  0.00     0.004 A 
ATOM     20  C   UNL A   1      33.052  21.169  24.431  1.00  0.00     0.036 C 
ATOM     21  C   UNL A   1      35.332  21.228  25.456  1.00  0.00     0.004 A 
ATOM     22  C   UNL A   1      37.144  22.535  24.551  1.00  0.00     0.000 A 
ATOM     23  C   UNL A   1      36.667  21.636  25.496  1.00  0.00     0.000 A 
ENDBRANCH  13  14
ENDBRANCH   6  13
ENDBRANCH   4   6
ENDBRANCH   3   4
ENDBRANCH   2   3
ENDBRANCH   1   2
BRANCH   1  24
ATOM     24  O   UNL A   1      32.931  30.091  25.757  1.00  0.00    -0.458 OA
BRANCH  24  25
ATOM     25  C   UNL A   1      32.973  31.081  26.683  1.00  0.00     0.338 C 
ATOM     26  O   UNL A   1      32.153  31.970  26.828  1.00  0.00    -0.246 OA
BRANCH  25  27
ATOM     27  C   UNL A   1      34.171  30.934  27.544  1.00  0.00     0.060 A 
ATOM     28  C   UNL A   1      34.949  32.037  27.885  1.00  0.00     0.016 A 
ATOM     29  C   UNL A   1      34.595  29.661  27.925  1.00  0.00     0.016 A 
ATOM     30  C   UNL A   1      36.204  31.863  28.468  1.00  0.00     0.010 A 
ATOM     31  C   UNL A   1      35.784  29.505  28.649  1.00  0.00     0.010 A 
ATOM     32  C   UNL A   1      36.628  30.601  28.901  1.00  0.00    -0.014 A 
BRANCH  32  33
ATOM     33  C   UNL A   1      37.935  30.425  29.609  1.00  0.00     0.031 A 
ATOM     34  C   UNL A   1      39.032  29.594  28.988  1.00  0.00     0.074 A 
ATOM     35  C   UNL A   1      38.148  30.991  30.817  1.00  0.00     0.049 A 
ATOM     36  N   UNL A   1      40.100  29.079  29.543  1.00  0.00    -0.248 NA
ATOM     37  C   UNL A   1      38.893  29.278  27.558  1.00  0.00     0.031 C 
ATOM     38  C   UNL A   1      37.212  31.867  31.526  1.00  0.00     0.029 A 
ATOM     39  N   UNL A   1      39.226  30.915  31.668  1.00  0.00    -0.354 N 
ATOM     40  C   UNL A   1      40.717  28.317  28.555  1.00  0.00     0.074 A 
ATOM     41  C   UNL A   1      39.903  28.443  27.364  1.00  0.00     0.031 C 
ATOM     42  C   UNL A   1      37.771  32.285  32.669  1.00  0.00     0.029 A 
ATOM     43  C   UNL A   1      39.046  31.604  32.846  1.00  0.00     0.049 A 
ATOM     44  H   UNL A   1      40.047  30.415  31.455  1.00  0.00     0.167 HD
ATOM     45  C   UNL A   1      41.849  27.572  28.644  1.00  0.00     0.034 A 
ATOM     46  C   UNL A   1      39.774  31.634  33.979  1.00  0.00     0.034 A 
ATOM     47  C   UNL A   1      42.682  27.513  29.823  1.00  0.00     0.049 A 
ATOM     48  C   UNL A   1      41.003  30.774  34.071  1.00  0.00     0.074 A 
ATOM     49  C   UNL A   1      43.862  26.815  30.014  1.00  0.00     0.029 A 
ATOM     50  N   UNL A   1      42.430  28.192  31.010  1.00  0.00    -0.354 N 
ATOM     51  N   UNL A   1      41.515  29.970  33.169  1.00  0.00    -0.248 NA
ATOM     52  C   UNL A   1      41.730  30.800  35.345  1.00  0.00     0.031 C 
ATOM     53  C   UNL A   1      44.294  27.028  31.330  1.00  0.00     0.029 A 
ATOM     54  C   UNL A   1      43.418  27.910  31.942  1.00  0.00     0.049 A 
ATOM     55  H   UNL A   1      41.660  28.786  31.166  1.00  0.00     0.167 HD
ATOM     56  C   UNL A   1      42.624  29.388  33.771  1.00  0.00     0.074 A 
ATOM     57  C   UNL A   1      42.723  29.957  35.100  1.00  0.00     0.031 C 
ATOM     58  C   UNL A   1      43.479  28.459  33.274  1.00  0.00     0.034 A 
BRANCH  45  59
ATOM     59  C   UNL A   1      42.214  26.707  27.459  1.00  0.00     0.023 A 
ATOM     60  C   UNL A   1      41.858  25.350  27.376  1.00  0.00     0.031 A 
ATOM     61  C   UNL A   1      42.951  27.259  26.394  1.00  0.00     0.131 A 
ATOM     62  C   UNL A   1      42.293  24.578  26.285  1.00  0.00     0.055 A 
ATOM     63  C   UNL A   1      43.320  26.505  25.279  1.00  0.00     0.041 A 
ATOM     64  F   UNL A   1      43.336  28.546  26.425  1.00  0.00    -0.206 F 
ATOM     65  C   UNL A   1      43.001  25.152  25.225  1.00  0.00     0.022 A 
BRANCH  62  66
ATOM     66  S   UNL A   1      42.029  22.784  26.326  1.00  0.00     0.124 S 
ATOM     67  O   UNL A   1      40.581  22.702  26.516  1.00  0.00    -0.237 OA
ATOM     68  O   UNL A   1      42.527  22.362  25.023  1.00  0.00    -0.237 OA
ATOM     69  O   UNL A   1      42.824  22.344  27.471  1.00  0.00    -0.744 OA
ENDBRANCH  62  66
ENDBRANCH  45  59
BRANCH  46  70
ATOM     70  C   UNL A   1      39.299  32.421  35.152  1.00  0.00     0.023 A 
ATOM     71  C   UNL A   1      38.637  31.803  36.223  1.00  0.00     0.031 A 
ATOM     72  C   UNL A   1      39.498  33.813  35.213  1.00  0.00     0.131 A 
ATOM     73  C   UNL A   1      38.184  32.578  37.303  1.00  0.00     0.055 A 
ATOM     74  C   UNL A   1      39.092  34.571  36.312  1.00  0.00     0.041 A 
ATOM     75  F   UNL A   1      40.123  34.455  34.212  1.00  0.00    -0.206 F 
ATOM     76  C   UNL A   1      38.424  33.953  37.363  1.00  0.00     0.022 A 
BRANCH  73  77
ATOM     77  S   UNL A   1      37.224  31.769  38.612  1.00  0.00     0.124 S 
ATOM     78  O   UNL A   1      36.021  32.594  38.653  1.00  0.00    -0.237 OA
ATOM     79  O   UNL A   1      37.059  30.420  38.079  1.00  0.00    -0.237 OA
ATOM     80  O   UNL A   1      38.091  31.871  39.784  1.00  0.00    -0.744 OA
ENDBRANCH  73  77
ENDBRANCH  46  70
BRANCH  58  81
ATOM     81  C   UNL A   1      44.599  28.029  34.184  1.00  0.00     0.023 A 
ATOM     82  C   UNL A   1      44.463  26.919  35.037  1.00  0.00     0.031 A 
ATOM     83  C   UNL A   1      45.797  28.763  34.233  1.00  0.00     0.131 A 
ATOM     84  C   UNL A   1      45.485  26.609  35.945  1.00  0.00     0.055 A 
ATOM     85  C   UNL A   1      46.832  28.418  35.103  1.00  0.00     0.041 A 
ATOM     86  F   UNL A   1      45.974  29.834  33.442  1.00  0.00    -0.206 F 
ATOM     87  C   UNL A   1      46.674  27.344  35.974  1.00  0.00     0.022 A 
BRANCH  84  88
ATOM     88  S   UNL A   1      45.207  25.284  37.151  1.00  0.00     0.124 S 
ATOM     89  O   UNL A   1      46.565  24.806  37.396  1.00  0.00    -0.237 OA
ATOM     90  O   UNL A   1      44.572  25.994  38.258  1.00  0.00    -0.237 OA
ATOM     91  O   UNL A   1      44.340  24.348  36.439  1.00  0.00    -0.744 OA
ENDBRANCH  84  88
ENDBRANCH  58  81
ENDBRANCH  32  33
ENDBRANCH  25  27
ENDBRANCH  24  25
ENDBRANCH   1  24
TORSDOF 17
ENDMDL
