MODEL 1
REMARK VINA RESULT:      -9.8      0.000      0.000
REMARK SMILES CC1CC[NH+]([C@H](c2ccc(F)cc2)c2ccc([C@@H](C)C(=O)OCCOC(=O)c3ccc(-c4c5nc(c(-c6cc(S(=O)(=O)[O-])ccc6F)c6ccc([nH]6)c(-c6cc(S(=O)(=O)[O-])ccc6F)c6nc(c(-c7cc(S(=O)(=O)[O-])ccc7F)c7ccc4[nH]7)C=C6)C=C5)cc3)cc2-c2ccc(C(F)(F)F)cc2)CC1
REMARK SMILES IDX 23 1 22 2 20 3 21 4 18 5 19 6 17 7 14 8 15 9 92 10 16 11
REMARK SMILES IDX 91 12 6 13 5 14 1 15 2 16 3 17 104 18 4 19 103 20 7 22 8 23
REMARK SMILES IDX 13 24 9 25 12 26 10 27 11 28 93 29 94 30 102 31 95 32 101 33
REMARK SMILES IDX 96 34 97 35 98 36 99 37 100 38 24 39 25 40 26 41 27 42 28 43
REMARK SMILES IDX 29 44 90 45 30 46 89 47 31 48 32 49 33 50 83 51 34 52 88 53
REMARK SMILES IDX 82 54 84 55 35 56 87 57 81 58 80 59 36 61 68 62 48 63 67 64
REMARK SMILES IDX 49 65 52 66 66 67 85 68 50 69 51 70 65 72 86 73 53 74 37 75
REMARK SMILES IDX 38 76 46 77 39 78 45 79 47 80 44 81 40 82 41 83 42 84 43 85
REMARK SMILES IDX 69 86 70 87 78 88 71 89 77 90 79 91 76 92 72 93 73 94 74 95
REMARK SMILES IDX 75 96 54 97 55 98 63 99 56 100 62 101 64 102 61 103 57 104
REMARK SMILES IDX 58 105 59 106 60 107
REMARK H PARENT 5 21 84 60 52 71
REMARK Flexibility Score: inf
ROOT
ATOM      1  C   UNL A   1      38.999  35.515  40.137  1.00  0.00     0.274 C 
ENDROOT
BRANCH   1   2
ATOM      2  O   UNL A   1      39.417  34.628  39.084  1.00  0.00    -0.462 OA
BRANCH   2   3
ATOM      3  C   UNL A   1      39.060  33.319  39.179  1.00  0.00     0.313 C 
ATOM      4  O   UNL A   1      39.783  32.444  39.641  1.00  0.00    -0.252 OA
BRANCH   3   5
ATOM      5  C   UNL A   1      37.678  33.021  38.591  1.00  0.00     0.126 C 
ATOM      6  C   UNL A   1      36.966  31.987  39.461  1.00  0.00     0.025 C 
BRANCH   5   7
ATOM      7  C   UNL A   1      37.665  32.636  37.119  1.00  0.00    -0.033 A 
ATOM      8  C   UNL A   1      37.696  31.959  34.331  1.00  0.00     0.022 A 
ATOM      9  C   UNL A   1      38.534  31.334  35.276  1.00  0.00     0.011 A 
ATOM     10  C   UNL A   1      36.801  32.952  34.820  1.00  0.00    -0.009 A 
ATOM     11  C   UNL A   1      38.499  31.636  36.633  1.00  0.00     0.005 A 
ATOM     12  C   UNL A   1      36.816  33.277  36.201  1.00  0.00     0.013 A 
BRANCH   8  13
ATOM     13  C   UNL A   1      37.722  31.536  32.832  1.00  0.00     0.247 C 
BRANCH  13  14
ATOM     14  N   UNL A   1      38.409  30.247  32.472  1.00  0.00    -0.325 N 
ATOM     15  C   UNL A   1      39.277  26.842  29.831  1.00  0.00     0.008 C 
ATOM     16  C   UNL A   1      38.774  28.112  30.506  1.00  0.00    -0.003 C 
ATOM     17  C   UNL A   1      39.905  29.104  30.764  1.00  0.00     0.065 C 
ATOM     18  C   UNL A   1      38.128  27.806  31.853  1.00  0.00     0.065 C 
ATOM     19  C   UNL A   1      39.380  30.402  31.385  1.00  0.00     0.263 C 
ATOM     20  C   UNL A   1      37.539  29.069  32.477  1.00  0.00     0.263 C 
ATOM     21  H   UNL A   1      39.019  29.999  33.252  1.00  0.00     0.348 HD
ENDBRANCH  13  14
BRANCH  13  22
ATOM     22  C   UNL A   1      38.136  32.656  31.862  1.00  0.00     0.014 A 
ATOM     23  C   UNL A   1      37.450  32.888  30.655  1.00  0.00     0.013 A 
ATOM     24  C   UNL A   1      39.222  33.492  32.190  1.00  0.00     0.013 A 
ATOM     25  C   UNL A   1      37.832  33.933  29.811  1.00  0.00     0.040 A 
ATOM     26  C   UNL A   1      39.617  34.521  31.333  1.00  0.00     0.040 A 
ATOM     27  C   UNL A   1      38.910  34.739  30.157  1.00  0.00     0.123 A 
ATOM     28  F   UNL A   1      39.267  35.746  29.350  1.00  0.00    -0.207 F 
ENDBRANCH  13  22
ENDBRANCH   8  13
BRANCH  10  29
ATOM     29  C   UNL A   1      35.843  33.675  33.959  1.00  0.00    -0.018 A 
ATOM     30  C   UNL A   1      34.632  33.079  33.569  1.00  0.00     0.009 A 
ATOM     31  C   UNL A   1      36.114  34.977  33.511  1.00  0.00     0.009 A 
ATOM     32  C   UNL A   1      33.697  33.782  32.799  1.00  0.00     0.014 A 
ATOM     33  C   UNL A   1      35.180  35.684  32.748  1.00  0.00     0.014 A 
ATOM     34  C   UNL A   1      33.953  35.101  32.400  1.00  0.00     0.056 A 
BRANCH  34  35
ATOM     35  C   UNL A   1      32.920  35.873  31.606  1.00  0.00     0.416 C 
ATOM     36  F   UNL A   1      32.912  35.525  30.297  1.00  0.00    -0.166 F 
ATOM     37  F   UNL A   1      31.666  35.708  32.096  1.00  0.00    -0.166 F 
ATOM     38  F   UNL A   1      33.150  37.221  31.635  1.00  0.00    -0.166 F 
ENDBRANCH  34  35
ENDBRANCH  10  29
ENDBRANCH   5   7
ENDBRANCH   3   5
ENDBRANCH   2   3
ENDBRANCH   1   2
BRANCH   1  39
ATOM     39  C   UNL A   1      39.146  36.971  39.698  1.00  0.00     0.275 C 
BRANCH  39  40
ATOM     40  O   UNL A   1      39.711  37.040  38.378  1.00  0.00    -0.458 OA
BRANCH  40  41
ATOM     41  C   UNL A   1      41.064  37.050  38.320  1.00  0.00     0.338 C 
ATOM     42  O   UNL A   1      41.839  37.546  39.117  1.00  0.00    -0.246 OA
BRANCH  41  43
ATOM     43  C   UNL A   1      41.487  36.260  37.156  1.00  0.00     0.060 A 
ATOM     44  C   UNL A   1      40.514  35.844  36.245  1.00  0.00     0.016 A 
ATOM     45  C   UNL A   1      42.820  35.885  36.993  1.00  0.00     0.016 A 
ATOM     46  C   UNL A   1      40.867  35.043  35.163  1.00  0.00     0.010 A 
ATOM     47  C   UNL A   1      43.175  35.086  35.902  1.00  0.00     0.010 A 
ATOM     48  C   UNL A   1      42.200  34.653  34.985  1.00  0.00    -0.014 A 
BRANCH  48  49
ATOM     49  C   UNL A   1      42.562  33.741  33.873  1.00  0.00     0.031 A 
ATOM     50  C   UNL A   1      42.911  34.317  32.530  1.00  0.00     0.074 A 
ATOM     51  C   UNL A   1      42.620  32.411  34.078  1.00  0.00     0.049 A 
ATOM     52  N   UNL A   1      43.133  33.698  31.401  1.00  0.00    -0.248 NA
ATOM     53  C   UNL A   1      43.029  35.782  32.449  1.00  0.00     0.031 C 
ATOM     54  C   UNL A   1      42.389  31.744  35.361  1.00  0.00     0.029 A 
ATOM     55  N   UNL A   1      42.901  31.382  33.215  1.00  0.00    -0.354 N 
ATOM     56  C   UNL A   1      43.409  34.694  30.472  1.00  0.00     0.074 A 
ATOM     57  C   UNL A   1      43.311  35.961  31.165  1.00  0.00     0.031 C 
ATOM     58  C   UNL A   1      42.553  30.420  35.201  1.00  0.00     0.029 A 
ATOM     59  C   UNL A   1      42.840  30.138  33.798  1.00  0.00     0.049 A 
ATOM     60  H   UNL A   1      43.125  31.522  32.266  1.00  0.00     0.167 HD
ATOM     61  C   UNL A   1      43.718  34.558  29.160  1.00  0.00     0.034 A 
ATOM     62  C   UNL A   1      42.969  28.910  33.253  1.00  0.00     0.034 A 
ATOM     63  C   UNL A   1      43.823  33.293  28.483  1.00  0.00     0.049 A 
ATOM     64  C   UNL A   1      43.211  28.792  31.770  1.00  0.00     0.074 A 
ATOM     65  C   UNL A   1      44.091  33.053  27.145  1.00  0.00     0.029 A 
ATOM     66  N   UNL A   1      43.681  32.055  29.091  1.00  0.00    -0.354 N 
ATOM     67  N   UNL A   1      43.370  29.746  30.883  1.00  0.00    -0.248 NA
ATOM     68  C   UNL A   1      43.276  27.434  31.211  1.00  0.00     0.031 C 
ATOM     69  C   UNL A   1      44.071  31.670  26.937  1.00  0.00     0.029 A 
ATOM     70  C   UNL A   1      43.845  31.048  28.154  1.00  0.00     0.049 A 
ATOM     71  H   UNL A   1      43.492  31.912  30.046  1.00  0.00     0.167 HD
ATOM     72  C   UNL A   1      43.576  29.101  29.667  1.00  0.00     0.074 A 
ATOM     73  C   UNL A   1      43.527  27.679  29.932  1.00  0.00     0.031 C 
ATOM     74  C   UNL A   1      43.791  29.637  28.441  1.00  0.00     0.034 A 
BRANCH  61  75
ATOM     75  C   UNL A   1      43.928  35.811  28.357  1.00  0.00     0.023 A 
ATOM     76  C   UNL A   1      45.209  36.358  28.177  1.00  0.00     0.031 A 
ATOM     77  C   UNL A   1      42.839  36.434  27.724  1.00  0.00     0.131 A 
ATOM     78  C   UNL A   1      45.365  37.512  27.396  1.00  0.00     0.055 A 
ATOM     79  C   UNL A   1      43.008  37.554  26.909  1.00  0.00     0.041 A 
ATOM     80  F   UNL A   1      41.595  35.956  27.881  1.00  0.00    -0.206 F 
ATOM     81  C   UNL A   1      44.278  38.100  26.743  1.00  0.00     0.022 A 
BRANCH  78  82
ATOM     82  S   UNL A   1      47.008  38.268  27.278  1.00  0.00     0.124 S 
ATOM     83  O   UNL A   1      46.922  39.304  28.303  1.00  0.00    -0.237 OA
ATOM     84  O   UNL A   1      47.896  37.149  27.571  1.00  0.00    -0.237 OA
ATOM     85  O   UNL A   1      47.060  38.759  25.902  1.00  0.00    -0.744 OA
ENDBRANCH  78  82
ENDBRANCH  61  75
BRANCH  62  86
ATOM     86  C   UNL A   1      42.817  27.688  34.093  1.00  0.00     0.023 A 
ATOM     87  C   UNL A   1      43.940  27.001  34.579  1.00  0.00     0.031 A 
ATOM     88  C   UNL A   1      41.545  27.159  34.375  1.00  0.00     0.131 A 
ATOM     89  C   UNL A   1      43.771  25.805  35.293  1.00  0.00     0.055 A 
ATOM     90  C   UNL A   1      41.381  25.994  35.125  1.00  0.00     0.041 A 
ATOM     91  F   UNL A   1      40.438  27.774  33.929  1.00  0.00    -0.206 F 
ATOM     92  C   UNL A   1      42.500  25.304  35.581  1.00  0.00     0.022 A 
BRANCH  89  93
ATOM     93  S   UNL A   1      45.246  24.871  35.786  1.00  0.00     0.124 S 
ATOM     94  O   UNL A   1      44.677  23.568  36.112  1.00  0.00    -0.237 OA
ATOM     95  O   UNL A   1      46.063  24.932  34.578  1.00  0.00    -0.237 OA
ATOM     96  O   UNL A   1      45.764  25.628  36.924  1.00  0.00    -0.744 OA
ENDBRANCH  89  93
ENDBRANCH  62  86
BRANCH  74  97
ATOM     97  C   UNL A   1      44.034  28.684  27.303  1.00  0.00     0.023 A 
ATOM     98  C   UNL A   1      45.332  28.291  26.941  1.00  0.00     0.031 A 
ATOM     99  C   UNL A   1      42.946  28.133  26.603  1.00  0.00     0.131 A 
ATOM    100  C   UNL A   1      45.514  27.389  25.882  1.00  0.00     0.055 A 
ATOM    101  C   UNL A   1      43.131  27.204  25.579  1.00  0.00     0.041 A 
ATOM    102  F   UNL A   1      41.687  28.475  26.921  1.00  0.00    -0.206 F 
ATOM    103  C   UNL A   1      44.421  26.832  25.210  1.00  0.00     0.022 A 
BRANCH 100 104
ATOM    104  S   UNL A   1      47.202  26.965  25.377  1.00  0.00     0.124 S 
ATOM    105  O   UNL A   1      47.765  26.435  26.616  1.00  0.00    -0.237 OA
ATOM    106  O   UNL A   1      46.980  25.992  24.312  1.00  0.00    -0.237 OA
ATOM    107  O   UNL A   1      47.761  28.242  24.938  1.00  0.00    -0.744 OA
ENDBRANCH 100 104
ENDBRANCH  74  97
ENDBRANCH  48  49
ENDBRANCH  41  43
ENDBRANCH  40  41
ENDBRANCH  39  40
ENDBRANCH   1  39
TORSDOF 20
ENDMDL
MODEL 2
REMARK VINA RESULT:      -9.3      1.450      7.092
REMARK SMILES CC1CC[NH+]([C@H](c2ccc(F)cc2)c2ccc([C@@H](C)C(=O)OCCOC(=O)c3ccc(-c4c5nc(c(-c6cc(S(=O)(=O)[O-])ccc6F)c6ccc([nH]6)c(-c6cc(S(=O)(=O)[O-])ccc6F)c6nc(c(-c7cc(S(=O)(=O)[O-])ccc7F)c7ccc4[nH]7)C=C6)C=C5)cc3)cc2-c2ccc(C(F)(F)F)cc2)CC1
REMARK SMILES IDX 23 1 22 2 20 3 21 4 18 5 19 6 17 7 14 8 15 9 92 10 16 11
REMARK SMILES IDX 91 12 6 13 5 14 1 15 2 16 3 17 104 18 4 19 103 20 7 22 8 23
REMARK SMILES IDX 13 24 9 25 12 26 10 27 11 28 93 29 94 30 102 31 95 32 101 33
REMARK SMILES IDX 96 34 97 35 98 36 99 37 100 38 24 39 25 40 26 41 27 42 28 43
REMARK SMILES IDX 29 44 90 45 30 46 89 47 31 48 32 49 33 50 83 51 34 52 88 53
REMARK SMILES IDX 82 54 84 55 35 56 87 57 81 58 80 59 36 61 68 62 48 63 67 64
REMARK SMILES IDX 49 65 52 66 66 67 85 68 50 69 51 70 65 72 86 73 53 74 37 75
REMARK SMILES IDX 38 76 46 77 39 78 45 79 47 80 44 81 40 82 41 83 42 84 43 85
REMARK SMILES IDX 69 86 70 87 78 88 71 89 77 90 79 91 76 92 72 93 73 94 74 95
REMARK SMILES IDX 75 96 54 97 55 98 63 99 56 100 62 101 64 102 61 103 57 104
REMARK SMILES IDX 58 105 59 106 60 107
REMARK H PARENT 5 21 84 60 52 71
REMARK Flexibility Score: inf
ROOT
ATOM      1  C   UNL A   1      40.495  34.108  40.917  1.00  0.00     0.274 C 
ENDROOT
BRANCH   1   2
ATOM      2  O   UNL A   1      39.305  34.113  40.110  1.00  0.00    -0.462 OA
BRANCH   2   3
ATOM      3  C   UNL A   1      39.191  33.162  39.144  1.00  0.00     0.313 C 
ATOM      4  O   UNL A   1      40.128  32.484  38.736  1.00  0.00    -0.252 OA
BRANCH   3   5
ATOM      5  C   UNL A   1      37.780  33.055  38.559  1.00  0.00     0.126 C 
ATOM      6  C   UNL A   1      36.926  32.151  39.447  1.00  0.00     0.025 C 
BRANCH   5   7
ATOM      7  C   UNL A   1      37.711  32.647  37.095  1.00  0.00    -0.033 A 
ATOM      8  C   UNL A   1      37.636  31.926  34.319  1.00  0.00     0.022 A 
ATOM      9  C   UNL A   1      38.488  31.295  35.247  1.00  0.00     0.011 A 
ATOM     10  C   UNL A   1      36.781  32.948  34.819  1.00  0.00    -0.009 A 
ATOM     11  C   UNL A   1      38.504  31.619  36.599  1.00  0.00     0.005 A 
ATOM     12  C   UNL A   1      36.848  33.295  36.194  1.00  0.00     0.013 A 
BRANCH   8  13
ATOM     13  C   UNL A   1      37.603  31.479  32.827  1.00  0.00     0.247 C 
BRANCH  13  14
ATOM     14  N   UNL A   1      38.292  30.193  32.459  1.00  0.00    -0.325 N 
ATOM     15  C   UNL A   1      39.979  27.294  29.616  1.00  0.00     0.008 C 
ATOM     16  C   UNL A   1      39.321  28.468  30.332  1.00  0.00    -0.003 C 
ATOM     17  C   UNL A   1      40.296  29.186  31.262  1.00  0.00     0.065 C 
ATOM     18  C   UNL A   1      38.143  28.008  31.183  1.00  0.00     0.065 C 
ATOM     19  C   UNL A   1      39.643  30.401  31.927  1.00  0.00     0.263 C 
ATOM     20  C   UNL A   1      37.427  29.200  31.818  1.00  0.00     0.263 C 
ATOM     21  H   UNL A   1      38.492  29.695  33.326  1.00  0.00     0.348 HD
ENDBRANCH  13  14
BRANCH  13  22
ATOM     22  C   UNL A   1      37.960  32.588  31.822  1.00  0.00     0.014 A 
ATOM     23  C   UNL A   1      37.252  32.759  30.618  1.00  0.00     0.013 A 
ATOM     24  C   UNL A   1      39.014  33.476  32.115  1.00  0.00     0.013 A 
ATOM     25  C   UNL A   1      37.582  33.796  29.742  1.00  0.00     0.040 A 
ATOM     26  C   UNL A   1      39.357  34.497  31.226  1.00  0.00     0.040 A 
ATOM     27  C   UNL A   1      38.629  34.653  30.054  1.00  0.00     0.123 A 
ATOM     28  F   UNL A   1      38.935  35.652  29.216  1.00  0.00    -0.207 F 
ENDBRANCH  13  22
ENDBRANCH   8  13
BRANCH  10  29
ATOM     29  C   UNL A   1      35.814  33.681  33.978  1.00  0.00    -0.018 A 
ATOM     30  C   UNL A   1      36.042  35.020  33.617  1.00  0.00     0.009 A 
ATOM     31  C   UNL A   1      34.644  33.061  33.514  1.00  0.00     0.009 A 
ATOM     32  C   UNL A   1      35.155  35.702  32.774  1.00  0.00     0.014 A 
ATOM     33  C   UNL A   1      33.760  33.736  32.666  1.00  0.00     0.014 A 
ATOM     34  C   UNL A   1      34.016  35.057  32.272  1.00  0.00     0.056 A 
BRANCH  34  35
ATOM     35  C   UNL A   1      33.083  35.783  31.325  1.00  0.00     0.416 C 
ATOM     36  F   UNL A   1      33.561  36.998  30.963  1.00  0.00    -0.166 F 
ATOM     37  F   UNL A   1      32.839  35.070  30.197  1.00  0.00    -0.166 F 
ATOM     38  F   UNL A   1      31.857  36.013  31.885  1.00  0.00    -0.166 F 
ENDBRANCH  34  35
ENDBRANCH  10  29
ENDBRANCH   5   7
ENDBRANCH   3   5
ENDBRANCH   2   3
ENDBRANCH   1   2
BRANCH   1  39
ATOM     39  C   UNL A   1      41.233  35.440  40.788  1.00  0.00     0.275 C 
BRANCH  39  40
ATOM     40  O   UNL A   1      40.633  36.245  39.758  1.00  0.00    -0.458 OA
BRANCH  40  41
ATOM     41  C   UNL A   1      41.497  36.945  38.984  1.00  0.00     0.338 C 
ATOM     42  O   UNL A   1      42.022  38.014  39.234  1.00  0.00    -0.246 OA
BRANCH  41  43
ATOM     43  C   UNL A   1      41.798  36.149  37.786  1.00  0.00     0.060 A 
ATOM     44  C   UNL A   1      40.734  35.621  37.052  1.00  0.00     0.016 A 
ATOM     45  C   UNL A   1      43.117  35.880  37.421  1.00  0.00     0.016 A 
ATOM     46  C   UNL A   1      40.982  34.812  35.947  1.00  0.00     0.010 A 
ATOM     47  C   UNL A   1      43.364  35.072  36.306  1.00  0.00     0.010 A 
ATOM     48  C   UNL A   1      42.299  34.526  35.567  1.00  0.00    -0.014 A 
BRANCH  48  49
ATOM     49  C   UNL A   1      42.559  33.606  34.434  1.00  0.00     0.031 A 
ATOM     50  C   UNL A   1      42.584  32.124  34.678  1.00  0.00     0.074 A 
ATOM     51  C   UNL A   1      42.728  34.094  33.190  1.00  0.00     0.049 A 
ATOM     52  N   UNL A   1      42.913  31.160  33.860  1.00  0.00    -0.248 NA
ATOM     53  C   UNL A   1      42.181  31.667  36.018  1.00  0.00     0.031 C 
ATOM     54  C   UNL A   1      42.638  35.507  32.817  1.00  0.00     0.029 A 
ATOM     55  N   UNL A   1      43.001  33.455  32.006  1.00  0.00    -0.354 N 
ATOM     56  C   UNL A   1      42.767  29.983  34.583  1.00  0.00     0.074 A 
ATOM     57  C   UNL A   1      42.334  30.353  35.914  1.00  0.00     0.031 C 
ATOM     58  C   UNL A   1      42.836  35.623  31.493  1.00  0.00     0.029 A 
ATOM     59  C   UNL A   1      43.128  34.306  30.934  1.00  0.00     0.049 A 
ATOM     60  H   UNL A   1      43.098  32.477  31.932  1.00  0.00     0.167 HD
ATOM     61  C   UNL A   1      42.974  28.709  34.170  1.00  0.00     0.034 A 
ATOM     62  C   UNL A   1      43.471  34.055  29.654  1.00  0.00     0.034 A 
ATOM     63  C   UNL A   1      43.394  28.351  32.841  1.00  0.00     0.049 A 
ATOM     64  C   UNL A   1      43.795  32.639  29.250  1.00  0.00     0.074 A 
ATOM     65  C   UNL A   1      43.670  27.091  32.337  1.00  0.00     0.029 A 
ATOM     66  N   UNL A   1      43.584  29.249  31.801  1.00  0.00    -0.354 N 
ATOM     67  N   UNL A   1      43.751  31.545  29.975  1.00  0.00    -0.248 NA
ATOM     68  C   UNL A   1      44.231  32.424  27.863  1.00  0.00     0.031 C 
ATOM     69  C   UNL A   1      44.066  27.232  31.003  1.00  0.00     0.029 A 
ATOM     70  C   UNL A   1      43.984  28.572  30.662  1.00  0.00     0.049 A 
ATOM     71  H   UNL A   1      43.454  30.222  31.864  1.00  0.00     0.167 HD
ATOM     72  C   UNL A   1      44.130  30.512  29.123  1.00  0.00     0.074 A 
ATOM     73  C   UNL A   1      44.396  31.108  27.831  1.00  0.00     0.031 C 
ATOM     74  C   UNL A   1      44.245  29.187  29.385  1.00  0.00     0.034 A 
BRANCH  61  75
ATOM     75  C   UNL A   1      42.786  27.608  35.175  1.00  0.00     0.023 A 
ATOM     76  C   UNL A   1      43.714  27.392  36.206  1.00  0.00     0.031 A 
ATOM     77  C   UNL A   1      41.639  26.797  35.126  1.00  0.00     0.131 A 
ATOM     78  C   UNL A   1      43.486  26.372  37.140  1.00  0.00     0.055 A 
ATOM     79  C   UNL A   1      41.395  25.815  36.086  1.00  0.00     0.041 A 
ATOM     80  F   UNL A   1      40.733  26.956  34.148  1.00  0.00    -0.206 F 
ATOM     81  C   UNL A   1      42.323  25.597  37.101  1.00  0.00     0.022 A 
BRANCH  78  82
ATOM     82  S   UNL A   1      44.756  26.034  38.389  1.00  0.00     0.124 S 
ATOM     83  O   UNL A   1      44.881  24.583  38.286  1.00  0.00    -0.237 OA
ATOM     84  O   UNL A   1      45.892  26.812  37.907  1.00  0.00    -0.237 OA
ATOM     85  O   UNL A   1      44.153  26.518  39.629  1.00  0.00    -0.744 OA
ENDBRANCH  78  82
ENDBRANCH  61  75
BRANCH  62  86
ATOM     86  C   UNL A   1      43.586  35.166  28.667  1.00  0.00     0.023 A 
ATOM     87  C   UNL A   1      44.806  35.833  28.469  1.00  0.00     0.031 A 
ATOM     88  C   UNL A   1      42.464  35.613  27.948  1.00  0.00     0.131 A 
ATOM     89  C   UNL A   1      44.867  36.933  27.599  1.00  0.00     0.055 A 
ATOM     90  C   UNL A   1      42.540  36.678  27.050  1.00  0.00     0.041 A 
ATOM     91  F   UNL A   1      41.273  35.014  28.105  1.00  0.00    -0.206 F 
ATOM     92  C   UNL A   1      43.746  37.351  26.879  1.00  0.00     0.022 A 
BRANCH  89  93
ATOM     93  S   UNL A   1      46.422  37.856  27.473  1.00  0.00     0.124 S 
ATOM     94  O   UNL A   1      46.585  37.967  26.027  1.00  0.00    -0.237 OA
ATOM     95  O   UNL A   1      46.101  39.092  28.180  1.00  0.00    -0.237 OA
ATOM     96  O   UNL A   1      47.388  36.990  28.145  1.00  0.00    -0.744 OA
ENDBRANCH  89  93
ENDBRANCH  62  86
BRANCH  74  97
ATOM     97  C   UNL A   1      44.632  28.288  28.243  1.00  0.00     0.023 A 
ATOM     98  C   UNL A   1      43.671  27.552  27.532  1.00  0.00     0.031 A 
ATOM     99  C   UNL A   1      45.975  28.203  27.840  1.00  0.00     0.131 A 
ATOM    100  C   UNL A   1      44.072  26.736  26.465  1.00  0.00     0.055 A 
ATOM    101  C   UNL A   1      46.364  27.423  26.751  1.00  0.00     0.041 A 
ATOM    102  F   UNL A   1      46.927  28.895  28.487  1.00  0.00    -0.206 F 
ATOM    103  C   UNL A   1      45.410  26.680  26.061  1.00  0.00     0.022 A 
BRANCH 100 104
ATOM    104  S   UNL A   1      42.826  25.730  25.617  1.00  0.00     0.124 S 
ATOM    105  O   UNL A   1      41.927  25.376  26.713  1.00  0.00    -0.237 OA
ATOM    106  O   UNL A   1      42.288  26.656  24.627  1.00  0.00    -0.237 OA
ATOM    107  O   UNL A   1      43.599  24.618  25.066  1.00  0.00    -0.744 OA
ENDBRANCH 100 104
ENDBRANCH  74  97
ENDBRANCH  48  49
ENDBRANCH  41  43
ENDBRANCH  40  41
ENDBRANCH  39  40
ENDBRANCH   1  39
TORSDOF 20
ENDMDL
MODEL 3
REMARK VINA RESULT:      -8.8      4.487     11.162
REMARK SMILES CC1CC[NH+]([C@H](c2ccc(F)cc2)c2ccc([C@@H](C)C(=O)OCCOC(=O)c3ccc(-c4c5nc(c(-c6cc(S(=O)(=O)[O-])ccc6F)c6ccc([nH]6)c(-c6cc(S(=O)(=O)[O-])ccc6F)c6nc(c(-c7cc(S(=O)(=O)[O-])ccc7F)c7ccc4[nH]7)C=C6)C=C5)cc3)cc2-c2ccc(C(F)(F)F)cc2)CC1
REMARK SMILES IDX 23 1 22 2 20 3 21 4 18 5 19 6 17 7 14 8 15 9 92 10 16 11
REMARK SMILES IDX 91 12 6 13 5 14 1 15 2 16 3 17 104 18 4 19 103 20 7 22 8 23
REMARK SMILES IDX 13 24 9 25 12 26 10 27 11 28 93 29 94 30 102 31 95 32 101 33
REMARK SMILES IDX 96 34 97 35 98 36 99 37 100 38 24 39 25 40 26 41 27 42 28 43
REMARK SMILES IDX 29 44 90 45 30 46 89 47 31 48 32 49 33 50 83 51 34 52 88 53
REMARK SMILES IDX 82 54 84 55 35 56 87 57 81 58 80 59 36 61 68 62 48 63 67 64
REMARK SMILES IDX 49 65 52 66 66 67 85 68 50 69 51 70 65 72 86 73 53 74 37 75
REMARK SMILES IDX 38 76 46 77 39 78 45 79 47 80 44 81 40 82 41 83 42 84 43 85
REMARK SMILES IDX 69 86 70 87 78 88 71 89 77 90 79 91 76 92 72 93 73 94 74 95
REMARK SMILES IDX 75 96 54 97 55 98 63 99 56 100 62 101 64 102 61 103 57 104
REMARK SMILES IDX 58 105 59 106 60 107
REMARK H PARENT 5 21 84 60 52 71
REMARK Flexibility Score: inf
ROOT
ATOM      1  C   UNL A   1      47.598  24.938  34.695  1.00  0.00     0.274 C 
ENDROOT
BRANCH   1   2
ATOM      2  O   UNL A   1      48.391  24.852  33.497  1.00  0.00    -0.462 OA
BRANCH   2   3
ATOM      3  C   UNL A   1      48.500  25.969  32.729  1.00  0.00     0.313 C 
ATOM      4  O   UNL A   1      47.944  27.032  32.983  1.00  0.00    -0.252 OA
BRANCH   3   5
ATOM      5  C   UNL A   1      49.341  25.759  31.467  1.00  0.00     0.126 C 
ATOM      6  C   UNL A   1      50.740  26.335  31.684  1.00  0.00     0.025 C 
BRANCH   5   7
ATOM      7  C   UNL A   1      48.712  26.259  30.175  1.00  0.00    -0.033 A 
ATOM      8  C   UNL A   1      47.475  27.236  27.777  1.00  0.00     0.022 A 
ATOM      9  C   UNL A   1      48.454  27.965  28.481  1.00  0.00     0.011 A 
ATOM     10  C   UNL A   1      47.121  25.960  28.301  1.00  0.00    -0.009 A 
ATOM     11  C   UNL A   1      49.080  27.481  29.625  1.00  0.00     0.005 A 
ATOM     12  C   UNL A   1      47.739  25.506  29.495  1.00  0.00     0.013 A 
BRANCH   8  13
ATOM     13  C   UNL A   1      46.854  27.790  26.461  1.00  0.00     0.247 C 
BRANCH  13  14
ATOM     14  N   UNL A   1      47.749  27.928  25.259  1.00  0.00    -0.325 N 
ATOM     15  C   UNL A   1      49.620  26.498  21.548  1.00  0.00     0.008 C 
ATOM     16  C   UNL A   1      48.832  26.697  22.837  1.00  0.00    -0.003 C 
ATOM     17  C   UNL A   1      47.834  27.847  22.720  1.00  0.00     0.065 C 
ATOM     18  C   UNL A   1      49.755  27.021  24.006  1.00  0.00     0.065 C 
ATOM     19  C   UNL A   1      47.004  27.999  23.998  1.00  0.00     0.263 C 
ATOM     20  C   UNL A   1      48.970  27.122  25.313  1.00  0.00     0.263 C 
ATOM     21  H   UNL A   1      48.168  28.857  25.298  1.00  0.00     0.348 HD
ENDBRANCH  13  14
BRANCH  13  22
ATOM     22  C   UNL A   1      45.998  29.055  26.644  1.00  0.00     0.014 A 
ATOM     23  C   UNL A   1      46.494  30.339  26.351  1.00  0.00     0.013 A 
ATOM     24  C   UNL A   1      44.671  28.934  27.102  1.00  0.00     0.013 A 
ATOM     25  C   UNL A   1      45.680  31.465  26.499  1.00  0.00     0.040 A 
ATOM     26  C   UNL A   1      43.867  30.063  27.272  1.00  0.00     0.040 A 
ATOM     27  C   UNL A   1      44.377  31.317  26.958  1.00  0.00     0.123 A 
ATOM     28  F   UNL A   1      43.597  32.398  27.088  1.00  0.00    -0.207 F 
ENDBRANCH  13  22
ENDBRANCH   8  13
BRANCH  10  29
ATOM     29  C   UNL A   1      46.134  25.067  27.662  1.00  0.00    -0.018 A 
ATOM     30  C   UNL A   1      46.528  24.134  26.688  1.00  0.00     0.009 A 
ATOM     31  C   UNL A   1      44.776  25.123  28.013  1.00  0.00     0.009 A 
ATOM     32  C   UNL A   1      45.604  23.248  26.121  1.00  0.00     0.014 A 
ATOM     33  C   UNL A   1      43.852  24.235  27.453  1.00  0.00     0.014 A 
ATOM     34  C   UNL A   1      44.259  23.275  26.516  1.00  0.00     0.056 A 
BRANCH  34  35
ATOM     35  C   UNL A   1      43.272  22.286  25.933  1.00  0.00     0.416 C 
ATOM     36  F   UNL A   1      42.332  21.907  26.832  1.00  0.00    -0.166 F 
ATOM     37  F   UNL A   1      42.638  22.775  24.838  1.00  0.00    -0.166 F 
ATOM     38  F   UNL A   1      43.881  21.134  25.519  1.00  0.00    -0.166 F 
ENDBRANCH  34  35
ENDBRANCH  10  29
ENDBRANCH   5   7
ENDBRANCH   3   5
ENDBRANCH   2   3
ENDBRANCH   1   2
BRANCH   1  39
ATOM     39  C   UNL A   1      46.588  23.793  34.749  1.00  0.00     0.275 C 
BRANCH  39  40
ATOM     40  O   UNL A   1      45.826  23.740  33.530  1.00  0.00    -0.458 OA
BRANCH  40  41
ATOM     41  C   UNL A   1      44.498  23.971  33.659  1.00  0.00     0.338 C 
ATOM     42  O   UNL A   1      43.672  23.269  34.212  1.00  0.00    -0.246 OA
BRANCH  41  43
ATOM     43  C   UNL A   1      44.198  25.293  33.092  1.00  0.00     0.060 A 
ATOM     44  C   UNL A   1      44.285  25.461  31.710  1.00  0.00     0.016 A 
ATOM     45  C   UNL A   1      43.889  26.370  33.922  1.00  0.00     0.016 A 
ATOM     46  C   UNL A   1      44.067  26.713  31.143  1.00  0.00     0.010 A 
ATOM     47  C   UNL A   1      43.663  27.627  33.351  1.00  0.00     0.010 A 
ATOM     48  C   UNL A   1      43.759  27.809  31.959  1.00  0.00    -0.014 A 
BRANCH  48  49
ATOM     49  C   UNL A   1      43.599  29.156  31.361  1.00  0.00     0.031 A 
ATOM     50  C   UNL A   1      44.819  29.925  30.939  1.00  0.00     0.074 A 
ATOM     51  C   UNL A   1      42.369  29.666  31.157  1.00  0.00     0.049 A 
ATOM     52  N   UNL A   1      44.909  31.157  30.513  1.00  0.00    -0.248 NA
ATOM     53  C   UNL A   1      46.105  29.212  30.999  1.00  0.00     0.031 C 
ATOM     54  C   UNL A   1      41.111  28.975  31.446  1.00  0.00     0.029 A 
ATOM     55  N   UNL A   1      41.974  30.879  30.652  1.00  0.00    -0.354 N 
ATOM     56  C   UNL A   1      46.259  31.373  30.263  1.00  0.00     0.074 A 
ATOM     57  C   UNL A   1      46.954  30.149  30.600  1.00  0.00     0.031 C 
ATOM     58  C   UNL A   1      40.086  29.771  31.096  1.00  0.00     0.029 A 
ATOM     59  C   UNL A   1      40.610  31.047  30.619  1.00  0.00     0.049 A 
ATOM     60  H   UNL A   1      42.609  31.565  30.342  1.00  0.00     0.167 HD
ATOM     61  C   UNL A   1      46.859  32.493  29.793  1.00  0.00     0.034 A 
ATOM     62  C   UNL A   1      39.870  32.121  30.274  1.00  0.00     0.034 A 
ATOM     63  C   UNL A   1      46.156  33.702  29.451  1.00  0.00     0.049 A 
ATOM     64  C   UNL A   1      40.572  33.386  29.852  1.00  0.00     0.074 A 
ATOM     65  C   UNL A   1      46.679  34.904  29.005  1.00  0.00     0.029 A 
ATOM     66  N   UNL A   1      44.779  33.859  29.502  1.00  0.00    -0.354 N 
ATOM     67  N   UNL A   1      41.859  33.608  29.718  1.00  0.00    -0.248 NA
ATOM     68  C   UNL A   1      39.726  34.551  29.552  1.00  0.00     0.031 C 
ATOM     69  C   UNL A   1      45.622  35.800  28.825  1.00  0.00     0.029 A 
ATOM     70  C   UNL A   1      44.437  35.141  29.106  1.00  0.00     0.049 A 
ATOM     71  H   UNL A   1      44.141  33.163  29.779  1.00  0.00     0.167 HD
ATOM     72  C   UNL A   1      41.972  34.929  29.295  1.00  0.00     0.074 A 
ATOM     73  C   UNL A   1      40.627  35.455  29.192  1.00  0.00     0.031 C 
ATOM     74  C   UNL A   1      43.090  35.643  29.013  1.00  0.00     0.034 A 
BRANCH  61  75
ATOM     75  C   UNL A   1      48.355  32.480  29.655  1.00  0.00     0.023 A 
ATOM     76  C   UNL A   1      48.975  32.107  28.452  1.00  0.00     0.031 A 
ATOM     77  C   UNL A   1      49.166  32.895  30.725  1.00  0.00     0.131 A 
ATOM     78  C   UNL A   1      50.373  32.137  28.355  1.00  0.00     0.055 A 
ATOM     79  C   UNL A   1      50.554  32.969  30.607  1.00  0.00     0.041 A 
ATOM     80  F   UNL A   1      48.618  33.245  31.899  1.00  0.00    -0.206 F 
ATOM     81  C   UNL A   1      51.166  32.586  29.416  1.00  0.00     0.022 A 
BRANCH  78  82
ATOM     82  S   UNL A   1      51.155  31.535  26.834  1.00  0.00     0.124 S 
ATOM     83  O   UNL A   1      52.543  31.937  27.047  1.00  0.00    -0.237 OA
ATOM     84  O   UNL A   1      50.887  30.103  26.883  1.00  0.00    -0.237 OA
ATOM     85  O   UNL A   1      50.453  32.263  25.779  1.00  0.00    -0.744 OA
ENDBRANCH  78  82
ENDBRANCH  61  75
BRANCH  62  86
ATOM     86  C   UNL A   1      38.383  32.077  30.363  1.00  0.00     0.023 A 
ATOM     87  C   UNL A   1      37.706  32.667  31.443  1.00  0.00     0.031 A 
ATOM     88  C   UNL A   1      37.620  31.397  29.398  1.00  0.00     0.131 A 
ATOM     89  C   UNL A   1      36.313  32.536  31.549  1.00  0.00     0.055 A 
ATOM     90  C   UNL A   1      36.230  31.309  29.484  1.00  0.00     0.041 A 
ATOM     91  F   UNL A   1      38.218  30.810  28.349  1.00  0.00    -0.206 F 
ATOM     92  C   UNL A   1      35.569  31.873  30.571  1.00  0.00     0.022 A 
BRANCH  89  93
ATOM     93  S   UNL A   1      35.488  33.190  33.026  1.00  0.00     0.124 S 
ATOM     94  O   UNL A   1      35.845  34.603  32.965  1.00  0.00    -0.237 OA
ATOM     95  O   UNL A   1      34.089  32.867  32.762  1.00  0.00    -0.237 OA
ATOM     96  O   UNL A   1      36.102  32.438  34.120  1.00  0.00    -0.744 OA
ENDBRANCH  89  93
ENDBRANCH  62  86
BRANCH  74  97
ATOM     97  C   UNL A   1      42.903  37.053  28.523  1.00  0.00     0.023 A 
ATOM     98  C   UNL A   1      43.013  38.150  29.391  1.00  0.00     0.031 A 
ATOM     99  C   UNL A   1      42.654  37.297  27.161  1.00  0.00     0.131 A 
ATOM    100  C   UNL A   1      42.846  39.450  28.891  1.00  0.00     0.055 A 
ATOM    101  C   UNL A   1      42.530  38.593  26.662  1.00  0.00     0.041 A 
ATOM    102  F   UNL A   1      42.549  36.277  26.294  1.00  0.00    -0.206 F 
ATOM    103  C   UNL A   1      42.621  39.678  27.529  1.00  0.00     0.022 A 
BRANCH 100 104
ATOM    104  S   UNL A   1      42.906  40.845  30.046  1.00  0.00     0.124 S 
ATOM    105  O   UNL A   1      43.424  40.214  31.257  1.00  0.00    -0.237 OA
ATOM    106  O   UNL A   1      43.809  41.775  29.376  1.00  0.00    -0.237 OA
ATOM    107  O   UNL A   1      41.514  41.287  30.124  1.00  0.00    -0.744 OA
ENDBRANCH 100 104
ENDBRANCH  74  97
ENDBRANCH  48  49
ENDBRANCH  41  43
ENDBRANCH  40  41
ENDBRANCH  39  40
ENDBRANCH   1  39
TORSDOF 20
ENDMDL
