MODEL 1
REMARK VINA RESULT:     -11.9      0.000      0.000
REMARK SMILES O=C(CCn1c(SCc2ccccn2)nc2ccccc2c1=O)OCCOC(=O)c1ccc(-c2c3nc(c(-c4cc(S(=O)(=O)[O-])ccc4F)c4ccc([nH]4)c(-c4cc(S(=O)(=O)[O-])ccc4F)c4nc(c(-c5cc(S(=O)(=O)[O-])ccc5F)c5ccc2[nH]5)C=C4)C=C3)cc1
REMARK SMILES IDX 25 1 24 2 2 3 1 4 3 5 4 6 5 7 6 8 22 9 15 10 21 11 23 12
REMARK SMILES IDX 16 13 20 14 17 15 19 16 18 17 7 18 8 19 9 20 10 21 14 22
REMARK SMILES IDX 11 23 13 24 12 25 26 26 27 27 28 28 29 29 30 30 31 31 92 32
REMARK SMILES IDX 32 33 91 34 33 35 34 36 35 37 85 38 36 39 90 40 84 41 86 42
REMARK SMILES IDX 37 43 89 44 83 45 82 46 38 48 70 49 50 50 69 51 51 52 54 53
REMARK SMILES IDX 68 54 87 55 52 56 53 57 67 59 88 60 55 61 39 62 40 63 48 64
REMARK SMILES IDX 41 65 47 66 49 67 46 68 42 69 43 70 44 71 45 72 71 73 72 74
REMARK SMILES IDX 80 75 73 76 79 77 81 78 78 79 74 80 75 81 76 82 77 83 56 84
REMARK SMILES IDX 57 85 65 86 58 87 64 88 66 89 63 90 59 91 60 92 61 93 62 94
REMARK H PARENT 86 47 54 58
REMARK Flexibility Score: inf
ROOT
ATOM      1  C   UNL A   1      38.329  21.363  25.259  1.00  0.00     0.274 C 
ENDROOT
BRANCH   1   2
ATOM      2  O   UNL A   1      37.007  21.460  24.641  1.00  0.00    -0.462 OA
BRANCH   2   3
ATOM      3  C   UNL A   1      36.659  22.664  24.118  1.00  0.00     0.307 C 
ATOM      4  O   UNL A   1      36.667  22.876  22.906  1.00  0.00    -0.252 OA
BRANCH   3   5
ATOM      5  C   UNL A   1      36.186  23.756  25.097  1.00  0.00     0.144 C 
BRANCH   5   6
ATOM      6  C   UNL A   1      34.996  23.669  26.073  1.00  0.00     0.140 C 
BRANCH   6   7
ATOM      7  N   UNL A   1      33.743  24.056  25.485  1.00  0.00    -0.286 N 
ATOM      8  C   UNL A   1      32.908  23.161  24.867  1.00  0.00     0.171 A 
ATOM      9  C   UNL A   1      33.466  25.399  25.376  1.00  0.00     0.262 A 
ATOM     10  N   UNL A   1      32.328  23.454  23.738  1.00  0.00    -0.224 NA
ATOM     11  C   UNL A   1      33.023  25.779  24.035  1.00  0.00     0.066 A 
ATOM     12  O   UNL A   1      33.698  26.247  26.230  1.00  0.00    -0.269 OA
ATOM     13  C   UNL A   1      32.657  24.726  23.193  1.00  0.00     0.079 A 
ATOM     14  C   UNL A   1      33.299  27.071  23.577  1.00  0.00     0.016 A 
ATOM     15  C   UNL A   1      32.694  24.972  21.821  1.00  0.00     0.029 A 
ATOM     16  C   UNL A   1      33.321  27.299  22.210  1.00  0.00     0.001 A 
ATOM     17  C   UNL A   1      33.054  26.244  21.333  1.00  0.00     0.002 A 
BRANCH   8  18
ATOM     18  S   UNL A   1      32.521  21.736  25.798  1.00  0.00    -0.081 SA
BRANCH  18  19
ATOM     19  C   UNL A   1      33.817  20.492  25.538  1.00  0.00     0.134 C 
BRANCH  19  20
ATOM     20  C   UNL A   1      33.597  19.352  24.577  1.00  0.00     0.051 A 
ATOM     21  C   UNL A   1      34.515  18.300  24.506  1.00  0.00     0.025 A 
ATOM     22  N   UNL A   1      32.519  19.417  23.764  1.00  0.00    -0.260 NA
ATOM     23  C   UNL A   1      34.264  17.246  23.633  1.00  0.00     0.003 A 
ATOM     24  C   UNL A   1      32.307  18.394  22.911  1.00  0.00     0.111 A 
ATOM     25  C   UNL A   1      33.133  17.288  22.828  1.00  0.00     0.020 A 
ENDBRANCH  19  20
ENDBRANCH  18  19
ENDBRANCH   8  18
ENDBRANCH   6   7
ENDBRANCH   5   6
ENDBRANCH   3   5
ENDBRANCH   2   3
ENDBRANCH   1   2
BRANCH   1  26
ATOM     26  C   UNL A   1      38.941  19.931  25.271  1.00  0.00     0.275 C 
BRANCH  26  27
ATOM     27  O   UNL A   1      39.857  19.670  26.367  1.00  0.00    -0.458 OA
BRANCH  27  28
ATOM     28  C   UNL A   1      41.204  19.699  26.169  1.00  0.00     0.338 C 
ATOM     29  O   UNL A   1      41.864  18.838  25.615  1.00  0.00    -0.246 OA
BRANCH  28  30
ATOM     30  C   UNL A   1      41.715  21.054  26.560  1.00  0.00     0.060 A 
ATOM     31  C   UNL A   1      41.728  21.485  27.894  1.00  0.00     0.016 A 
ATOM     32  C   UNL A   1      41.999  21.981  25.548  1.00  0.00     0.016 A 
ATOM     33  C   UNL A   1      41.917  22.850  28.207  1.00  0.00     0.010 A 
ATOM     34  C   UNL A   1      42.131  23.348  25.862  1.00  0.00     0.010 A 
ATOM     35  C   UNL A   1      42.068  23.810  27.193  1.00  0.00    -0.014 A 
BRANCH  35  36
ATOM     36  C   UNL A   1      42.372  25.244  27.505  1.00  0.00     0.031 A 
ATOM     37  C   UNL A   1      41.401  26.222  28.127  1.00  0.00     0.074 A 
ATOM     38  C   UNL A   1      43.582  25.706  27.135  1.00  0.00     0.049 A 
ATOM     39  N   UNL A   1      41.615  27.465  28.500  1.00  0.00    -0.248 NA
ATOM     40  C   UNL A   1      40.023  25.772  28.347  1.00  0.00     0.031 C 
ATOM     41  C   UNL A   1      44.609  24.893  26.489  1.00  0.00     0.029 A 
ATOM     42  N   UNL A   1      44.136  26.961  27.207  1.00  0.00    -0.354 N 
ATOM     43  C   UNL A   1      40.412  27.940  29.019  1.00  0.00     0.074 A 
ATOM     44  C   UNL A   1      39.459  26.856  28.876  1.00  0.00     0.031 C 
ATOM     45  C   UNL A   1      45.646  25.677  26.171  1.00  0.00     0.029 A 
ATOM     46  C   UNL A   1      45.370  27.045  26.608  1.00  0.00     0.049 A 
ATOM     47  H   UNL A   1      43.693  27.724  27.643  1.00  0.00     0.167 HD
ATOM     48  C   UNL A   1      40.139  29.155  29.568  1.00  0.00     0.034 A 
ATOM     49  C   UNL A   1      46.205  28.088  26.424  1.00  0.00     0.034 A 
ATOM     50  C   UNL A   1      41.101  30.231  29.694  1.00  0.00     0.049 A 
ATOM     51  C   UNL A   1      45.891  29.423  27.034  1.00  0.00     0.074 A 
ATOM     52  C   UNL A   1      40.960  31.424  30.387  1.00  0.00     0.029 A 
ATOM     53  N   UNL A   1      42.349  30.278  29.091  1.00  0.00    -0.354 N 
ATOM     54  N   UNL A   1      44.830  29.785  27.712  1.00  0.00    -0.248 NA
ATOM     55  C   UNL A   1      46.901  30.481  26.895  1.00  0.00     0.031 C 
ATOM     56  C   UNL A   1      42.071  32.226  30.123  1.00  0.00     0.029 A 
ATOM     57  C   UNL A   1      42.955  31.502  29.342  1.00  0.00     0.049 A 
ATOM     58  H   UNL A   1      42.747  29.549  28.563  1.00  0.00     0.167 HD
ATOM     59  C   UNL A   1      45.057  31.099  28.110  1.00  0.00     0.074 A 
ATOM     60  C   UNL A   1      46.360  31.468  27.602  1.00  0.00     0.031 C 
ATOM     61  C   UNL A   1      44.249  31.909  28.841  1.00  0.00     0.034 A 
BRANCH  48  62
ATOM     62  C   UNL A   1      38.762  29.428  30.146  1.00  0.00     0.023 A 
ATOM     63  C   UNL A   1      37.823  30.197  29.422  1.00  0.00     0.031 A 
ATOM     64  C   UNL A   1      38.467  29.127  31.487  1.00  0.00     0.131 A 
ATOM     65  C   UNL A   1      36.659  30.664  30.053  1.00  0.00     0.055 A 
ATOM     66  C   UNL A   1      37.290  29.566  32.100  1.00  0.00     0.041 A 
ATOM     67  F   UNL A   1      39.336  28.429  32.236  1.00  0.00    -0.206 F 
ATOM     68  C   UNL A   1      36.388  30.351  31.388  1.00  0.00     0.022 A 
BRANCH  65  69
ATOM     69  S   UNL A   1      35.502  31.779  29.205  1.00  0.00     0.124 S 
ATOM     70  O   UNL A   1      36.412  32.748  28.600  1.00  0.00    -0.237 OA
ATOM     71  O   UNL A   1      34.836  30.880  28.265  1.00  0.00    -0.237 OA
ATOM     72  O   UNL A   1      34.662  32.300  30.279  1.00  0.00    -0.744 OA
ENDBRANCH  65  69
ENDBRANCH  48  62
BRANCH  49  73
ATOM     73  C   UNL A   1      47.480  27.817  25.706  1.00  0.00     0.023 A 
ATOM     74  C   UNL A   1      47.557  27.975  24.310  1.00  0.00     0.031 A 
ATOM     75  C   UNL A   1      48.545  27.190  26.371  1.00  0.00     0.131 A 
ATOM     76  C   UNL A   1      48.637  27.420  23.614  1.00  0.00     0.055 A 
ATOM     77  C   UNL A   1      49.652  26.703  25.679  1.00  0.00     0.041 A 
ATOM     78  F   UNL A   1      48.494  27.001  27.699  1.00  0.00    -0.206 F 
ATOM     79  C   UNL A   1      49.690  26.796  24.291  1.00  0.00     0.022 A 
BRANCH  76  80
ATOM     80  S   UNL A   1      48.627  27.338  21.801  1.00  0.00     0.124 S 
ATOM     81  O   UNL A   1      47.374  28.010  21.471  1.00  0.00    -0.237 OA
ATOM     82  O   UNL A   1      49.845  28.073  21.466  1.00  0.00    -0.237 OA
ATOM     83  O   UNL A   1      48.667  25.907  21.518  1.00  0.00    -0.744 OA
ENDBRANCH  76  80
ENDBRANCH  49  73
BRANCH  61  84
ATOM     84  C   UNL A   1      44.708  33.316  29.158  1.00  0.00     0.023 A 
ATOM     85  C   UNL A   1      44.307  34.394  28.342  1.00  0.00     0.031 A 
ATOM     86  C   UNL A   1      45.659  33.568  30.162  1.00  0.00     0.131 A 
ATOM     87  C   UNL A   1      44.891  35.658  28.513  1.00  0.00     0.055 A 
ATOM     88  C   UNL A   1      46.202  34.840  30.359  1.00  0.00     0.041 A 
ATOM     89  F   UNL A   1      46.081  32.578  30.965  1.00  0.00    -0.206 F 
ATOM     90  C   UNL A   1      45.831  35.888  29.522  1.00  0.00     0.022 A 
BRANCH  87  91
ATOM     91  S   UNL A   1      44.513  37.030  27.386  1.00  0.00     0.124 S 
ATOM     92  O   UNL A   1      45.776  37.193  26.668  1.00  0.00    -0.237 OA
ATOM     93  O   UNL A   1      43.414  36.483  26.595  1.00  0.00    -0.237 OA
ATOM     94  O   UNL A   1      44.160  38.131  28.276  1.00  0.00    -0.744 OA
ENDBRANCH  87  91
ENDBRANCH  61  84
ENDBRANCH  35  36
ENDBRANCH  28  30
ENDBRANCH  27  28
ENDBRANCH  26  27
ENDBRANCH   1  26
TORSDOF 19
ENDMDL
MODEL 2
REMARK VINA RESULT:     -11.7      5.405     10.730
REMARK SMILES O=C(CCn1c(SCc2ccccn2)nc2ccccc2c1=O)OCCOC(=O)c1ccc(-c2c3nc(c(-c4cc(S(=O)(=O)[O-])ccc4F)c4ccc([nH]4)c(-c4cc(S(=O)(=O)[O-])ccc4F)c4nc(c(-c5cc(S(=O)(=O)[O-])ccc5F)c5ccc2[nH]5)C=C4)C=C3)cc1
REMARK SMILES IDX 25 1 24 2 2 3 1 4 3 5 4 6 5 7 6 8 22 9 15 10 21 11 23 12
REMARK SMILES IDX 16 13 20 14 17 15 19 16 18 17 7 18 8 19 9 20 10 21 14 22
REMARK SMILES IDX 11 23 13 24 12 25 26 26 27 27 28 28 29 29 30 30 31 31 92 32
REMARK SMILES IDX 32 33 91 34 33 35 34 36 35 37 85 38 36 39 90 40 84 41 86 42
REMARK SMILES IDX 37 43 89 44 83 45 82 46 38 48 70 49 50 50 69 51 51 52 54 53
REMARK SMILES IDX 68 54 87 55 52 56 53 57 67 59 88 60 55 61 39 62 40 63 48 64
REMARK SMILES IDX 41 65 47 66 49 67 46 68 42 69 43 70 44 71 45 72 71 73 72 74
REMARK SMILES IDX 80 75 73 76 79 77 81 78 78 79 74 80 75 81 76 82 77 83 56 84
REMARK SMILES IDX 57 85 65 86 58 87 64 88 66 89 63 90 59 91 60 92 61 93 62 94
REMARK H PARENT 86 47 54 58
REMARK Flexibility Score: inf
ROOT
ATOM      1  C   UNL A   1      31.728  31.537  26.813  1.00  0.00     0.274 C 
ENDROOT
BRANCH   1   2
ATOM      2  O   UNL A   1      32.925  30.803  27.225  1.00  0.00    -0.462 OA
BRANCH   2   3
ATOM      3  C   UNL A   1      32.925  29.460  27.023  1.00  0.00     0.307 C 
ATOM      4  O   UNL A   1      33.814  28.734  27.466  1.00  0.00    -0.252 OA
BRANCH   3   5
ATOM      5  C   UNL A   1      31.729  28.855  26.264  1.00  0.00     0.144 C 
BRANCH   5   6
ATOM      6  C   UNL A   1      31.670  27.472  25.584  1.00  0.00     0.140 C 
BRANCH   6   7
ATOM      7  N   UNL A   1      31.203  27.521  24.226  1.00  0.00    -0.286 N 
ATOM      8  C   UNL A   1      31.915  28.125  23.220  1.00  0.00     0.171 A 
ATOM      9  C   UNL A   1      29.915  27.113  23.967  1.00  0.00     0.262 A 
ATOM     10  N   UNL A   1      31.323  28.886  22.344  1.00  0.00    -0.224 NA
ATOM     11  C   UNL A   1      29.165  28.077  23.163  1.00  0.00     0.066 A 
ATOM     12  O   UNL A   1      29.363  26.139  24.465  1.00  0.00    -0.269 OA
ATOM     13  C   UNL A   1      29.925  29.068  22.536  1.00  0.00     0.079 A 
ATOM     14  C   UNL A   1      27.780  28.160  23.330  1.00  0.00     0.016 A 
ATOM     15  C   UNL A   1      29.261  30.240  22.176  1.00  0.00     0.029 A 
ATOM     16  C   UNL A   1      27.135  29.328  22.957  1.00  0.00     0.001 A 
ATOM     17  C   UNL A   1      27.879  30.380  22.415  1.00  0.00     0.002 A 
BRANCH   8  18
ATOM     18  S   UNL A   1      33.581  27.626  23.081  1.00  0.00    -0.081 SA
BRANCH  18  19
ATOM     19  C   UNL A   1      33.633  25.886  22.563  1.00  0.00     0.134 C 
BRANCH  19  20
ATOM     20  C   UNL A   1      34.174  24.829  23.493  1.00  0.00     0.051 A 
ATOM     21  C   UNL A   1      34.365  23.522  23.040  1.00  0.00     0.025 A 
ATOM     22  N   UNL A   1      34.412  25.186  24.775  1.00  0.00    -0.260 NA
ATOM     23  C   UNL A   1      34.898  22.579  23.914  1.00  0.00     0.003 A 
ATOM     24  C   UNL A   1      34.909  24.250  25.609  1.00  0.00     0.111 A 
ATOM     25  C   UNL A   1      35.186  22.953  25.220  1.00  0.00     0.020 A 
ENDBRANCH  19  20
ENDBRANCH  18  19
ENDBRANCH   8  18
ENDBRANCH   6   7
ENDBRANCH   5   6
ENDBRANCH   3   5
ENDBRANCH   2   3
ENDBRANCH   1   2
BRANCH   1  26
ATOM     26  C   UNL A   1      31.808  33.079  27.010  1.00  0.00     0.275 C 
BRANCH  26  27
ATOM     27  O   UNL A   1      33.140  33.591  27.274  1.00  0.00    -0.458 OA
BRANCH  27  28
ATOM     28  C   UNL A   1      33.398  34.310  28.401  1.00  0.00     0.338 C 
ATOM     29  O   UNL A   1      32.680  35.169  28.881  1.00  0.00    -0.246 OA
BRANCH  28  30
ATOM     30  C   UNL A   1      34.609  33.731  29.072  1.00  0.00     0.060 A 
ATOM     31  C   UNL A   1      35.909  34.113  28.712  1.00  0.00     0.016 A 
ATOM     32  C   UNL A   1      34.440  32.640  29.935  1.00  0.00     0.016 A 
ATOM     33  C   UNL A   1      37.023  33.348  29.124  1.00  0.00     0.010 A 
ATOM     34  C   UNL A   1      35.549  31.850  30.298  1.00  0.00     0.010 A 
ATOM     35  C   UNL A   1      36.856  32.176  29.879  1.00  0.00    -0.014 A 
BRANCH  35  36
ATOM     36  C   UNL A   1      38.027  31.408  30.413  1.00  0.00     0.031 A 
ATOM     37  C   UNL A   1      38.722  30.273  29.695  1.00  0.00     0.074 A 
ATOM     38  C   UNL A   1      38.442  31.714  31.658  1.00  0.00     0.049 A 
ATOM     39  N   UNL A   1      39.796  29.607  30.060  1.00  0.00    -0.248 NA
ATOM     40  C   UNL A   1      38.147  29.811  28.428  1.00  0.00     0.031 C 
ATOM     41  C   UNL A   1      37.845  32.757  32.488  1.00  0.00     0.029 A 
ATOM     42  N   UNL A   1      39.418  31.164  32.452  1.00  0.00    -0.354 N 
ATOM     43  C   UNL A   1      40.040  28.666  29.063  1.00  0.00     0.074 A 
ATOM     44  C   UNL A   1      38.975  28.823  28.092  1.00  0.00     0.031 C 
ATOM     45  C   UNL A   1      38.426  32.736  33.693  1.00  0.00     0.029 A 
ATOM     46  C   UNL A   1      39.451  31.693  33.718  1.00  0.00     0.049 A 
ATOM     47  H   UNL A   1      40.032  30.458  32.143  1.00  0.00     0.167 HD
ATOM     48  C   UNL A   1      41.061  27.769  28.966  1.00  0.00     0.034 A 
ATOM     49  C   UNL A   1      40.213  31.398  34.792  1.00  0.00     0.034 A 
ATOM     50  C   UNL A   1      42.112  27.617  29.951  1.00  0.00     0.049 A 
ATOM     51  C   UNL A   1      41.333  30.406  34.672  1.00  0.00     0.074 A 
ATOM     52  C   UNL A   1      43.271  26.860  29.852  1.00  0.00     0.029 A 
ATOM     53  N   UNL A   1      42.126  28.182  31.217  1.00  0.00    -0.354 N 
ATOM     54  N   UNL A   1      41.678  29.680  33.637  1.00  0.00    -0.248 NA
ATOM     55  C   UNL A   1      42.196  30.220  35.846  1.00  0.00     0.031 C 
ATOM     56  C   UNL A   1      43.928  26.888  31.083  1.00  0.00     0.029 A 
ATOM     57  C   UNL A   1      43.235  27.738  31.927  1.00  0.00     0.049 A 
ATOM     58  H   UNL A   1      41.449  28.807  31.562  1.00  0.00     0.167 HD
ATOM     59  C   UNL A   1      42.816  28.978  34.021  1.00  0.00     0.074 A 
ATOM     60  C   UNL A   1      43.106  29.370  35.383  1.00  0.00     0.031 C 
ATOM     61  C   UNL A   1      43.549  28.098  33.291  1.00  0.00     0.034 A 
BRANCH  48  62
ATOM     62  C   UNL A   1      41.171  26.883  27.738  1.00  0.00     0.023 A 
ATOM     63  C   UNL A   1      40.862  25.507  27.820  1.00  0.00     0.031 A 
ATOM     64  C   UNL A   1      41.793  27.346  26.565  1.00  0.00     0.131 A 
ATOM     65  C   UNL A   1      41.207  24.644  26.767  1.00  0.00     0.055 A 
ATOM     66  C   UNL A   1      42.102  26.488  25.506  1.00  0.00     0.041 A 
ATOM     67  F   UNL A   1      42.142  28.637  26.443  1.00  0.00    -0.206 F 
ATOM     68  C   UNL A   1      41.824  25.129  25.611  1.00  0.00     0.022 A 
BRANCH  65  69
ATOM     69  S   UNL A   1      40.964  22.848  26.894  1.00  0.00     0.124 S 
ATOM     70  O   UNL A   1      41.471  22.573  28.236  1.00  0.00    -0.237 OA
ATOM     71  O   UNL A   1      39.517  22.717  26.738  1.00  0.00    -0.237 OA
ATOM     72  O   UNL A   1      41.766  22.305  25.803  1.00  0.00    -0.744 OA
ENDBRANCH  65  69
ENDBRANCH  48  62
BRANCH  49  73
ATOM     73  C   UNL A   1      39.965  32.178  36.035  1.00  0.00     0.023 A 
ATOM     74  C   UNL A   1      38.953  31.786  36.930  1.00  0.00     0.031 A 
ATOM     75  C   UNL A   1      40.576  33.429  36.216  1.00  0.00     0.131 A 
ATOM     76  C   UNL A   1      38.516  32.685  37.910  1.00  0.00     0.055 A 
ATOM     77  C   UNL A   1      40.184  34.290  37.239  1.00  0.00     0.041 A 
ATOM     78  F   UNL A   1      41.528  33.845  35.366  1.00  0.00    -0.206 F 
ATOM     79  C   UNL A   1      39.134  33.929  38.077  1.00  0.00     0.022 A 
BRANCH  76  80
ATOM     80  S   UNL A   1      37.024  32.341  38.884  1.00  0.00     0.124 S 
ATOM     81  O   UNL A   1      37.333  32.985  40.156  1.00  0.00    -0.237 OA
ATOM     82  O   UNL A   1      35.991  32.993  38.081  1.00  0.00    -0.237 OA
ATOM     83  O   UNL A   1      36.959  30.883  38.916  1.00  0.00    -0.744 OA
ENDBRANCH  76  80
ENDBRANCH  49  73
BRANCH  61  84
ATOM     84  C   UNL A   1      44.761  27.448  33.923  1.00  0.00     0.023 A 
ATOM     85  C   UNL A   1      44.636  26.218  34.601  1.00  0.00     0.031 A 
ATOM     86  C   UNL A   1      45.998  28.113  33.988  1.00  0.00     0.131 A 
ATOM     87  C   UNL A   1      45.709  25.720  35.354  1.00  0.00     0.055 A 
ATOM     88  C   UNL A   1      47.079  27.588  34.701  1.00  0.00     0.041 A 
ATOM     89  F   UNL A   1      46.173  29.289  33.365  1.00  0.00    -0.206 F 
ATOM     90  C   UNL A   1      46.932  26.395  35.401  1.00  0.00     0.022 A 
BRANCH  87  91
ATOM     91  S   UNL A   1      45.535  24.220  36.362  1.00  0.00     0.124 S 
ATOM     92  O   UNL A   1      46.518  23.327  35.753  1.00  0.00    -0.237 OA
ATOM     93  O   UNL A   1      45.877  24.705  37.696  1.00  0.00    -0.237 OA
ATOM     94  O   UNL A   1      44.141  23.829  36.174  1.00  0.00    -0.744 OA
ENDBRANCH  87  91
ENDBRANCH  61  84
ENDBRANCH  35  36
ENDBRANCH  28  30
ENDBRANCH  27  28
ENDBRANCH  26  27
ENDBRANCH   1  26
TORSDOF 19
ENDMDL
MODEL 3
REMARK VINA RESULT:     -11.5      5.424     10.966
REMARK SMILES O=C(CCn1c(SCc2ccccn2)nc2ccccc2c1=O)OCCOC(=O)c1ccc(-c2c3nc(c(-c4cc(S(=O)(=O)[O-])ccc4F)c4ccc([nH]4)c(-c4cc(S(=O)(=O)[O-])ccc4F)c4nc(c(-c5cc(S(=O)(=O)[O-])ccc5F)c5ccc2[nH]5)C=C4)C=C3)cc1
REMARK SMILES IDX 25 1 24 2 2 3 1 4 3 5 4 6 5 7 6 8 22 9 15 10 21 11 23 12
REMARK SMILES IDX 16 13 20 14 17 15 19 16 18 17 7 18 8 19 9 20 10 21 14 22
REMARK SMILES IDX 11 23 13 24 12 25 26 26 27 27 28 28 29 29 30 30 31 31 92 32
REMARK SMILES IDX 32 33 91 34 33 35 34 36 35 37 85 38 36 39 90 40 84 41 86 42
REMARK SMILES IDX 37 43 89 44 83 45 82 46 38 48 70 49 50 50 69 51 51 52 54 53
REMARK SMILES IDX 68 54 87 55 52 56 53 57 67 59 88 60 55 61 39 62 40 63 48 64
REMARK SMILES IDX 41 65 47 66 49 67 46 68 42 69 43 70 44 71 45 72 71 73 72 74
REMARK SMILES IDX 80 75 73 76 79 77 81 78 78 79 74 80 75 81 76 82 77 83 56 84
REMARK SMILES IDX 57 85 65 86 58 87 64 88 66 89 63 90 59 91 60 92 61 93 62 94
REMARK H PARENT 86 47 54 58
REMARK Flexibility Score: inf
ROOT
ATOM      1  C   UNL A   1      32.720  30.345  27.046  1.00  0.00     0.274 C 
ENDROOT
BRANCH   1   2
ATOM      2  O   UNL A   1      33.406  29.091  27.356  1.00  0.00    -0.462 OA
BRANCH   2   3
ATOM      3  C   UNL A   1      32.862  27.952  26.856  1.00  0.00     0.307 C 
ATOM      4  O   UNL A   1      31.806  27.491  27.286  1.00  0.00    -0.252 OA
BRANCH   3   5
ATOM      5  C   UNL A   1      33.585  27.277  25.675  1.00  0.00     0.144 C 
BRANCH   5   6
ATOM      6  C   UNL A   1      33.527  27.699  24.193  1.00  0.00     0.140 C 
BRANCH   6   7
ATOM      7  N   UNL A   1      32.583  26.941  23.418  1.00  0.00    -0.286 N 
ATOM      8  C   UNL A   1      31.252  26.868  23.738  1.00  0.00     0.171 A 
ATOM      9  C   UNL A   1      33.070  26.112  22.433  1.00  0.00     0.262 A 
ATOM     10  N   UNL A   1      30.610  25.736  23.686  1.00  0.00    -0.224 NA
ATOM     11  C   UNL A   1      32.517  24.760  22.506  1.00  0.00     0.066 A 
ATOM     12  O   UNL A   1      33.981  26.383  21.660  1.00  0.00    -0.269 OA
ATOM     13  C   UNL A   1      31.393  24.606  23.321  1.00  0.00     0.079 A 
ATOM     14  C   UNL A   1      33.296  23.691  22.057  1.00  0.00     0.016 A 
ATOM     15  C   UNL A   1      31.129  23.321  23.795  1.00  0.00     0.029 A 
ATOM     16  C   UNL A   1      33.012  22.419  22.529  1.00  0.00     0.001 A 
ATOM     17  C   UNL A   1      31.954  22.240  23.424  1.00  0.00     0.002 A 
BRANCH   8  18
ATOM     18  S   UNL A   1      30.461  28.403  23.993  1.00  0.00    -0.081 SA
BRANCH  18  19
ATOM     19  C   UNL A   1      29.369  28.744  22.582  1.00  0.00     0.134 C 
BRANCH  19  20
ATOM     20  C   UNL A   1      28.895  30.148  22.306  1.00  0.00     0.051 A 
ATOM     21  C   UNL A   1      28.870  31.099  23.329  1.00  0.00     0.025 A 
ATOM     22  N   UNL A   1      28.455  30.427  21.058  1.00  0.00    -0.260 NA
ATOM     23  C   UNL A   1      28.461  32.395  23.033  1.00  0.00     0.003 A 
ATOM     24  C   UNL A   1      28.043  31.684  20.800  1.00  0.00     0.111 A 
ATOM     25  C   UNL A   1      28.049  32.697  21.741  1.00  0.00     0.020 A 
ENDBRANCH  19  20
ENDBRANCH  18  19
ENDBRANCH   8  18
ENDBRANCH   6   7
ENDBRANCH   5   6
ENDBRANCH   3   5
ENDBRANCH   2   3
ENDBRANCH   1   2
BRANCH   1  26
ATOM     26  C   UNL A   1      33.587  31.626  27.229  1.00  0.00     0.275 C 
BRANCH  26  27
ATOM     27  O   UNL A   1      32.837  32.827  27.549  1.00  0.00    -0.458 OA
BRANCH  27  28
ATOM     28  C   UNL A   1      33.406  33.829  28.275  1.00  0.00     0.338 C 
ATOM     29  O   UNL A   1      32.904  34.913  28.514  1.00  0.00    -0.246 OA
BRANCH  28  30
ATOM     30  C   UNL A   1      34.662  33.308  28.907  1.00  0.00     0.060 A 
ATOM     31  C   UNL A   1      35.928  33.570  28.364  1.00  0.00     0.016 A 
ATOM     32  C   UNL A   1      34.553  32.375  29.947  1.00  0.00     0.016 A 
ATOM     33  C   UNL A   1      37.057  32.829  28.783  1.00  0.00     0.010 A 
ATOM     34  C   UNL A   1      35.670  31.602  30.320  1.00  0.00     0.010 A 
ATOM     35  C   UNL A   1      36.935  31.798  29.728  1.00  0.00    -0.014 A 
BRANCH  35  36
ATOM     36  C   UNL A   1      38.133  31.071  30.260  1.00  0.00     0.031 A 
ATOM     37  C   UNL A   1      38.843  29.935  29.558  1.00  0.00     0.074 A 
ATOM     38  C   UNL A   1      38.561  31.417  31.490  1.00  0.00     0.049 A 
ATOM     39  N   UNL A   1      39.937  29.304  29.921  1.00  0.00    -0.248 NA
ATOM     40  C   UNL A   1      38.258  29.429  28.313  1.00  0.00     0.031 C 
ATOM     41  C   UNL A   1      37.953  32.466  32.305  1.00  0.00     0.029 A 
ATOM     42  N   UNL A   1      39.563  30.909  32.280  1.00  0.00    -0.354 N 
ATOM     43  C   UNL A   1      40.188  28.344  28.942  1.00  0.00     0.074 A 
ATOM     44  C   UNL A   1      39.103  28.453  27.986  1.00  0.00     0.031 C 
ATOM     45  C   UNL A   1      38.554  32.488  33.501  1.00  0.00     0.029 A 
ATOM     46  C   UNL A   1      39.604  31.470  33.533  1.00  0.00     0.049 A 
ATOM     47  H   UNL A   1      40.188  30.211  31.979  1.00  0.00     0.167 HD
ATOM     48  C   UNL A   1      41.227  27.469  28.850  1.00  0.00     0.034 A 
ATOM     49  C   UNL A   1      40.390  31.218  34.600  1.00  0.00     0.034 A 
ATOM     50  C   UNL A   1      42.298  27.366  29.820  1.00  0.00     0.049 A 
ATOM     51  C   UNL A   1      41.531  30.250  34.485  1.00  0.00     0.074 A 
ATOM     52  C   UNL A   1      43.472  26.633  29.719  1.00  0.00     0.029 A 
ATOM     53  N   UNL A   1      42.319  27.962  31.072  1.00  0.00    -0.354 N 
ATOM     54  N   UNL A   1      41.876  29.508  33.462  1.00  0.00    -0.248 NA
ATOM     55  C   UNL A   1      42.418  30.113  35.648  1.00  0.00     0.031 C 
ATOM     56  C   UNL A   1      44.149  26.707  30.937  1.00  0.00     0.029 A 
ATOM     57  C   UNL A   1      43.450  27.560  31.773  1.00  0.00     0.049 A 
ATOM     58  H   UNL A   1      41.633  28.579  31.413  1.00  0.00     0.167 HD
ATOM     59  C   UNL A   1      43.037  28.841  33.843  1.00  0.00     0.074 A 
ATOM     60  C   UNL A   1      43.340  29.273  35.190  1.00  0.00     0.031 C 
ATOM     61  C   UNL A   1      43.778  27.961  33.122  1.00  0.00     0.034 A 
BRANCH  48  62
ATOM     62  C   UNL A   1      41.339  26.556  27.642  1.00  0.00     0.023 A 
ATOM     63  C   UNL A   1      41.063  25.176  27.762  1.00  0.00     0.031 A 
ATOM     64  C   UNL A   1      41.930  27.005  26.448  1.00  0.00     0.131 A 
ATOM     65  C   UNL A   1      41.410  24.296  26.725  1.00  0.00     0.055 A 
ATOM     66  C   UNL A   1      42.242  26.129  25.404  1.00  0.00     0.041 A 
ATOM     67  F   UNL A   1      42.247  28.300  26.289  1.00  0.00    -0.206 F 
ATOM     68  C   UNL A   1      41.997  24.767  25.546  1.00  0.00     0.022 A 
BRANCH  65  69
ATOM     69  S   UNL A   1      41.212  22.498  26.898  1.00  0.00     0.124 S 
ATOM     70  O   UNL A   1      42.415  22.001  26.235  1.00  0.00    -0.237 OA
ATOM     71  O   UNL A   1      41.185  22.326  28.348  1.00  0.00    -0.237 OA
ATOM     72  O   UNL A   1      39.959  22.212  26.208  1.00  0.00    -0.744 OA
ENDBRANCH  65  69
ENDBRANCH  48  62
BRANCH  49  73
ATOM     73  C   UNL A   1      40.145  32.023  35.828  1.00  0.00     0.023 A 
ATOM     74  C   UNL A   1      39.110  31.670  36.714  1.00  0.00     0.031 A 
ATOM     75  C   UNL A   1      40.785  33.260  36.001  1.00  0.00     0.131 A 
ATOM     76  C   UNL A   1      38.682  32.594  37.674  1.00  0.00     0.055 A 
ATOM     77  C   UNL A   1      40.402  34.145  37.005  1.00  0.00     0.041 A 
ATOM     78  F   UNL A   1      41.760  33.639  35.159  1.00  0.00    -0.206 F 
ATOM     79  C   UNL A   1      39.329  33.824  37.833  1.00  0.00     0.022 A 
BRANCH  76  80
ATOM     80  S   UNL A   1      37.167  32.303  38.630  1.00  0.00     0.124 S 
ATOM     81  O   UNL A   1      36.182  33.084  37.889  1.00  0.00    -0.237 OA
ATOM     82  O   UNL A   1      37.028  30.852  38.526  1.00  0.00    -0.237 OA
ATOM     83  O   UNL A   1      37.496  32.803  39.961  1.00  0.00    -0.744 OA
ENDBRANCH  76  80
ENDBRANCH  49  73
BRANCH  61  84
ATOM     84  C   UNL A   1      45.016  27.356  33.748  1.00  0.00     0.023 A 
ATOM     85  C   UNL A   1      44.911  26.209  34.563  1.00  0.00     0.031 A 
ATOM     86  C   UNL A   1      46.265  27.995  33.668  1.00  0.00     0.131 A 
ATOM     87  C   UNL A   1      46.020  25.770  35.302  1.00  0.00     0.055 A 
ATOM     88  C   UNL A   1      47.379  27.524  34.368  1.00  0.00     0.041 A 
ATOM     89  F   UNL A   1      46.422  29.092  32.911  1.00  0.00    -0.206 F 
ATOM     90  C   UNL A   1      47.255  26.418  35.202  1.00  0.00     0.022 A 
BRANCH  87  91
ATOM     91  S   UNL A   1      45.883  24.393  36.476  1.00  0.00     0.124 S 
ATOM     92  O   UNL A   1      46.325  25.011  37.725  1.00  0.00    -0.237 OA
ATOM     93  O   UNL A   1      44.460  24.074  36.410  1.00  0.00    -0.237 OA
ATOM     94  O   UNL A   1      46.781  23.378  35.936  1.00  0.00    -0.744 OA
ENDBRANCH  87  91
ENDBRANCH  61  84
ENDBRANCH  35  36
ENDBRANCH  28  30
ENDBRANCH  27  28
ENDBRANCH  26  27
ENDBRANCH   1  26
TORSDOF 19
ENDMDL
