MODEL 1
REMARK VINA RESULT:     -12.0      0.000      0.000
REMARK SMILES CCc1cc(Nc2ccc(C(=O)OCCOC(=O)c3ccc(-c4c5nc(c(-c6cc(S(=O)(=O)[O-])ccc6F)c6ccc([nH]6)c(-c6cc(S(=O)(=O)[O-])ccc6F)c6nc(c(-c7cc(S(=O)(=O)[O-])ccc7F)c7ccc4[nH]7)C=C6)C=C5)cc3)cc2)nc(C(C)C)n1
REMARK SMILES IDX 14 1 13 2 11 3 12 4 10 5 7 6 8 7 83 8 9 9 82 10 6 11 5 13
REMARK SMILES IDX 3 14 4 15 89 16 85 17 84 18 2 19 1 20 86 21 87 22 88 23
REMARK SMILES IDX 15 24 16 25 17 26 18 27 19 28 20 29 81 30 21 31 80 32 22 33
REMARK SMILES IDX 23 34 24 35 74 36 25 37 79 38 73 39 75 40 26 41 78 42 72 43
REMARK SMILES IDX 71 44 27 46 59 47 39 48 58 49 40 50 43 51 57 52 76 53 41 54
REMARK SMILES IDX 42 55 56 57 77 58 44 59 28 60 29 61 37 62 30 63 36 64 38 65
REMARK SMILES IDX 35 66 31 67 32 68 33 69 34 70 60 71 61 72 69 73 62 74 68 75
REMARK SMILES IDX 70 76 67 77 63 78 64 79 65 80 66 81 45 82 46 83 54 84 47 85
REMARK SMILES IDX 53 86 55 87 52 88 48 89 49 90 50 91 51 92
REMARK H PARENT 6 12 75 45 43 56
REMARK Flexibility Score: inf
ROOT
ATOM      1  C   UNL A   1      31.595  29.256  24.681  1.00  0.00     0.275 C 
ENDROOT
BRANCH   1   2
ATOM      2  O   UNL A   1      30.305  28.808  24.222  1.00  0.00    -0.458 OA
BRANCH   2   3
ATOM      3  C   UNL A   1      30.305  28.230  22.996  1.00  0.00     0.338 C 
ATOM      4  O   UNL A   1      29.968  28.753  21.946  1.00  0.00    -0.246 OA
BRANCH   3   5
ATOM      5  C   UNL A   1      30.816  26.847  23.067  1.00  0.00     0.060 A 
ATOM      6  C   UNL A   1      31.604  24.161  22.890  1.00  0.00     0.040 A 
ATOM      7  C   UNL A   1      32.245  25.133  22.119  1.00  0.00     0.027 A 
ATOM      8  C   UNL A   1      30.600  24.557  23.787  1.00  0.00     0.027 A 
ATOM      9  C   UNL A   1      31.835  26.463  22.188  1.00  0.00     0.018 A 
ATOM     10  C   UNL A   1      30.217  25.897  23.895  1.00  0.00     0.018 A 
BRANCH   6  11
ATOM     11  N   UNL A   1      31.816  22.800  22.585  1.00  0.00    -0.340 N 
ATOM     12  H   UNL A   1      31.348  22.415  21.810  1.00  0.00     0.168 HD
BRANCH  11  13
ATOM     13  C   UNL A   1      32.668  21.963  23.339  1.00  0.00     0.134 A 
ATOM     14  C   UNL A   1      33.201  19.862  24.264  1.00  0.00     0.046 A 
ATOM     15  C   UNL A   1      32.342  20.633  23.502  1.00  0.00     0.071 A 
ATOM     16  N   UNL A   1      34.326  20.367  24.813  1.00  0.00    -0.238 NA
ATOM     17  C   UNL A   1      34.570  21.671  24.603  1.00  0.00     0.133 A 
ATOM     18  N   UNL A   1      33.792  22.475  23.869  1.00  0.00    -0.216 NA
BRANCH  14  19
ATOM     19  C   UNL A   1      32.883  18.401  24.480  1.00  0.00     0.053 C 
ATOM     20  C   UNL A   1      33.761  17.440  23.688  1.00  0.00     0.011 C 
ENDBRANCH  14  19
BRANCH  17  21
ATOM     21  C   UNL A   1      35.820  22.290  25.185  1.00  0.00     0.051 C 
ATOM     22  C   UNL A   1      37.072  21.856  24.426  1.00  0.00     0.016 C 
ATOM     23  C   UNL A   1      35.689  23.810  25.226  1.00  0.00     0.016 C 
ENDBRANCH  17  21
ENDBRANCH  11  13
ENDBRANCH   6  11
ENDBRANCH   3   5
ENDBRANCH   2   3
ENDBRANCH   1   2
BRANCH   1  24
ATOM     24  C   UNL A   1      31.454  30.449  25.625  1.00  0.00     0.275 C 
BRANCH  24  25
ATOM     25  O   UNL A   1      32.327  30.283  26.756  1.00  0.00    -0.458 OA
BRANCH  25  26
ATOM     26  C   UNL A   1      32.971  31.400  27.165  1.00  0.00     0.338 C 
ATOM     27  O   UNL A   1      32.512  32.530  27.205  1.00  0.00    -0.246 OA
BRANCH  26  28
ATOM     28  C   UNL A   1      34.360  31.085  27.563  1.00  0.00     0.060 A 
ATOM     29  C   UNL A   1      34.783  29.765  27.711  1.00  0.00     0.016 A 
ATOM     30  C   UNL A   1      35.213  32.125  27.929  1.00  0.00     0.016 A 
ATOM     31  C   UNL A   1      35.994  29.480  28.350  1.00  0.00     0.010 A 
ATOM     32  C   UNL A   1      36.473  31.838  28.468  1.00  0.00     0.010 A 
ATOM     33  C   UNL A   1      36.854  30.512  28.751  1.00  0.00    -0.014 A 
BRANCH  33  34
ATOM     34  C   UNL A   1      38.081  30.234  29.562  1.00  0.00     0.031 A 
ATOM     35  C   UNL A   1      39.190  29.390  28.972  1.00  0.00     0.074 A 
ATOM     36  C   UNL A   1      38.240  30.735  30.805  1.00  0.00     0.049 A 
ATOM     37  N   UNL A   1      40.224  28.840  29.559  1.00  0.00    -0.248 NA
ATOM     38  C   UNL A   1      39.101  29.105  27.532  1.00  0.00     0.031 C 
ATOM     39  C   UNL A   1      37.289  31.601  31.503  1.00  0.00     0.029 A 
ATOM     40  N   UNL A   1      39.272  30.592  31.701  1.00  0.00    -0.354 N 
ATOM     41  C   UNL A   1      40.853  28.072  28.582  1.00  0.00     0.074 A 
ATOM     42  C   UNL A   1      40.084  28.233  27.367  1.00  0.00     0.031 C 
ATOM     43  C   UNL A   1      37.803  31.952  32.693  1.00  0.00     0.029 A 
ATOM     44  C   UNL A   1      39.078  31.269  32.884  1.00  0.00     0.049 A 
ATOM     45  H   UNL A   1      40.077  30.056  31.514  1.00  0.00     0.167 HD
ATOM     46  C   UNL A   1      41.966  27.300  28.689  1.00  0.00     0.034 A 
ATOM     47  C   UNL A   1      39.821  31.311  34.009  1.00  0.00     0.034 A 
ATOM     48  C   UNL A   1      42.776  27.212  29.882  1.00  0.00     0.049 A 
ATOM     49  C   UNL A   1      41.083  30.493  34.090  1.00  0.00     0.074 A 
ATOM     50  C   UNL A   1      43.914  26.456  30.102  1.00  0.00     0.029 A 
ATOM     51  N   UNL A   1      42.551  27.934  31.046  1.00  0.00    -0.354 N 
ATOM     52  N   UNL A   1      41.599  29.681  33.197  1.00  0.00    -0.248 NA
ATOM     53  C   UNL A   1      41.855  30.590  35.336  1.00  0.00     0.031 C 
ATOM     54  C   UNL A   1      44.361  26.698  31.408  1.00  0.00     0.029 A 
ATOM     55  C   UNL A   1      43.533  27.646  31.984  1.00  0.00     0.049 A 
ATOM     56  H   UNL A   1      41.804  28.560  31.186  1.00  0.00     0.167 HD
ATOM     57  C   UNL A   1      42.758  29.171  33.777  1.00  0.00     0.074 A 
ATOM     58  C   UNL A   1      42.882  29.793  35.080  1.00  0.00     0.031 C 
ATOM     59  C   UNL A   1      43.637  28.264  33.282  1.00  0.00     0.034 A 
BRANCH  46  60
ATOM     60  C   UNL A   1      42.329  26.442  27.501  1.00  0.00     0.023 A 
ATOM     61  C   UNL A   1      41.887  25.115  27.368  1.00  0.00     0.031 A 
ATOM     62  C   UNL A   1      43.179  26.956  26.502  1.00  0.00     0.131 A 
ATOM     63  C   UNL A   1      42.357  24.324  26.308  1.00  0.00     0.055 A 
ATOM     64  C   UNL A   1      43.579  26.188  25.407  1.00  0.00     0.041 A 
ATOM     65  F   UNL A   1      43.648  28.211  26.583  1.00  0.00    -0.206 F 
ATOM     66  C   UNL A   1      43.181  24.858  25.314  1.00  0.00     0.022 A 
BRANCH  63  67
ATOM     67  S   UNL A   1      41.995  22.547  26.326  1.00  0.00     0.124 S 
ATOM     68  O   UNL A   1      42.712  22.088  25.139  1.00  0.00    -0.237 OA
ATOM     69  O   UNL A   1      42.546  22.125  27.609  1.00  0.00    -0.237 OA
ATOM     70  O   UNL A   1      40.537  22.492  26.226  1.00  0.00    -0.744 OA
ENDBRANCH  63  67
ENDBRANCH  46  60
BRANCH  47  71
ATOM     71  C   UNL A   1      39.366  32.113  35.179  1.00  0.00     0.023 A 
ATOM     72  C   UNL A   1      39.807  33.432  35.367  1.00  0.00     0.031 A 
ATOM     73  C   UNL A   1      38.513  31.556  36.148  1.00  0.00     0.131 A 
ATOM     74  C   UNL A   1      39.420  34.141  36.516  1.00  0.00     0.055 A 
ATOM     75  C   UNL A   1      38.092  32.281  37.264  1.00  0.00     0.041 A 
ATOM     76  F   UNL A   1      38.064  30.298  36.013  1.00  0.00    -0.206 F 
ATOM     77  C   UNL A   1      38.555  33.579  37.457  1.00  0.00     0.022 A 
BRANCH  74  78
ATOM     78  S   UNL A   1      40.119  35.791  36.795  1.00  0.00     0.124 S 
ATOM     79  O   UNL A   1      39.552  36.139  38.093  1.00  0.00    -0.237 OA
ATOM     80  O   UNL A   1      41.552  35.523  36.772  1.00  0.00    -0.237 OA
ATOM     81  O   UNL A   1      39.615  36.570  35.665  1.00  0.00    -0.744 OA
ENDBRANCH  74  78
ENDBRANCH  47  71
BRANCH  59  82
ATOM     82  C   UNL A   1      44.823  27.929  34.148  1.00  0.00     0.023 A 
ATOM     83  C   UNL A   1      44.779  26.881  35.085  1.00  0.00     0.031 A 
ATOM     84  C   UNL A   1      45.999  28.695  34.063  1.00  0.00     0.131 A 
ATOM     85  C   UNL A   1      45.869  26.663  35.940  1.00  0.00     0.055 A 
ATOM     86  C   UNL A   1      47.098  28.443  34.885  1.00  0.00     0.041 A 
ATOM     87  F   UNL A   1      46.092  29.707  33.186  1.00  0.00    -0.206 F 
ATOM     88  C   UNL A   1      47.031  27.433  35.841  1.00  0.00     0.022 A 
BRANCH  85  89
ATOM     89  S   UNL A   1      45.711  25.426  37.259  1.00  0.00     0.124 S 
ATOM     90  O   UNL A   1      46.753  24.468  36.908  1.00  0.00    -0.237 OA
ATOM     91  O   UNL A   1      45.954  26.221  38.459  1.00  0.00    -0.237 OA
ATOM     92  O   UNL A   1      44.342  24.936  37.106  1.00  0.00    -0.744 OA
ENDBRANCH  85  89
ENDBRANCH  59  82
ENDBRANCH  33  34
ENDBRANCH  26  28
ENDBRANCH  25  26
ENDBRANCH  24  25
ENDBRANCH   1  24
TORSDOF 18
ENDMDL
MODEL 2
REMARK VINA RESULT:     -12.0      0.919      1.887
REMARK SMILES CCc1cc(Nc2ccc(C(=O)OCCOC(=O)c3ccc(-c4c5nc(c(-c6cc(S(=O)(=O)[O-])ccc6F)c6ccc([nH]6)c(-c6cc(S(=O)(=O)[O-])ccc6F)c6nc(c(-c7cc(S(=O)(=O)[O-])ccc7F)c7ccc4[nH]7)C=C6)C=C5)cc3)cc2)nc(C(C)C)n1
REMARK SMILES IDX 14 1 13 2 11 3 12 4 10 5 7 6 8 7 83 8 9 9 82 10 6 11 5 13
REMARK SMILES IDX 3 14 4 15 89 16 85 17 84 18 2 19 1 20 86 21 87 22 88 23
REMARK SMILES IDX 15 24 16 25 17 26 18 27 19 28 20 29 81 30 21 31 80 32 22 33
REMARK SMILES IDX 23 34 24 35 74 36 25 37 79 38 73 39 75 40 26 41 78 42 72 43
REMARK SMILES IDX 71 44 27 46 59 47 39 48 58 49 40 50 43 51 57 52 76 53 41 54
REMARK SMILES IDX 42 55 56 57 77 58 44 59 28 60 29 61 37 62 30 63 36 64 38 65
REMARK SMILES IDX 35 66 31 67 32 68 33 69 34 70 60 71 61 72 69 73 62 74 68 75
REMARK SMILES IDX 70 76 67 77 63 78 64 79 65 80 66 81 45 82 46 83 54 84 47 85
REMARK SMILES IDX 53 86 55 87 52 88 48 89 49 90 50 91 51 92
REMARK H PARENT 6 12 75 45 43 56
REMARK Flexibility Score: inf
ROOT
ATOM      1  C   UNL A   1      31.267  29.254  24.551  1.00  0.00     0.275 C 
ENDROOT
BRANCH   1   2
ATOM      2  O   UNL A   1      31.010  27.998  25.209  1.00  0.00    -0.458 OA
BRANCH   2   3
ATOM      3  C   UNL A   1      30.371  27.075  24.448  1.00  0.00     0.338 C 
ATOM      4  O   UNL A   1      29.526  27.295  23.596  1.00  0.00    -0.246 OA
BRANCH   3   5
ATOM      5  C   UNL A   1      30.860  25.716  24.752  1.00  0.00     0.060 A 
ATOM      6  C   UNL A   1      31.435  23.033  25.332  1.00  0.00     0.040 A 
ATOM      7  C   UNL A   1      31.120  23.417  24.027  1.00  0.00     0.027 A 
ATOM      8  C   UNL A   1      31.509  24.015  26.332  1.00  0.00     0.027 A 
ATOM      9  C   UNL A   1      30.809  24.745  23.745  1.00  0.00     0.018 A 
ATOM     10  C   UNL A   1      31.243  25.357  26.045  1.00  0.00     0.018 A 
BRANCH   6  11
ATOM     11  N   UNL A   1      31.443  21.659  25.655  1.00  0.00    -0.340 N 
ATOM     12  H   UNL A   1      30.666  21.285  26.128  1.00  0.00     0.168 HD
BRANCH  11  13
ATOM     13  C   UNL A   1      32.514  20.796  25.333  1.00  0.00     0.134 A 
ATOM     14  C   UNL A   1      34.814  20.401  25.002  1.00  0.00     0.046 A 
ATOM     15  C   UNL A   1      33.804  21.283  25.343  1.00  0.00     0.071 A 
ATOM     16  N   UNL A   1      34.568  19.111  24.694  1.00  0.00    -0.238 NA
ATOM     17  C   UNL A   1      33.284  18.717  24.712  1.00  0.00     0.133 A 
ATOM     18  N   UNL A   1      32.257  19.510  25.041  1.00  0.00    -0.216 NA
BRANCH  14  19
ATOM     19  C   UNL A   1      36.243  20.888  24.989  1.00  0.00     0.053 C 
ATOM     20  C   UNL A   1      36.473  22.152  24.169  1.00  0.00     0.011 C 
ENDBRANCH  14  19
BRANCH  17  21
ATOM     21  C   UNL A   1      32.947  17.281  24.384  1.00  0.00     0.051 C 
ATOM     22  C   UNL A   1      33.923  16.688  23.370  1.00  0.00     0.016 C 
ATOM     23  C   UNL A   1      32.889  16.445  25.660  1.00  0.00     0.016 C 
ENDBRANCH  17  21
ENDBRANCH  11  13
ENDBRANCH   6  11
ENDBRANCH   3   5
ENDBRANCH   2   3
ENDBRANCH   1   2
BRANCH   1  24
ATOM     24  C   UNL A   1      31.404  30.385  25.568  1.00  0.00     0.275 C 
BRANCH  24  25
ATOM     25  O   UNL A   1      32.498  30.110  26.460  1.00  0.00    -0.458 OA
BRANCH  25  26
ATOM     26  C   UNL A   1      33.038  31.190  27.071  1.00  0.00     0.338 C 
ATOM     27  O   UNL A   1      32.500  32.270  27.245  1.00  0.00    -0.246 OA
BRANCH  26  28
ATOM     28  C   UNL A   1      34.420  30.903  27.512  1.00  0.00     0.060 A 
ATOM     29  C   UNL A   1      34.872  29.592  27.651  1.00  0.00     0.016 A 
ATOM     30  C   UNL A   1      35.232  31.958  27.925  1.00  0.00     0.016 A 
ATOM     31  C   UNL A   1      36.068  29.327  28.326  1.00  0.00     0.010 A 
ATOM     32  C   UNL A   1      36.480  31.694  28.503  1.00  0.00     0.010 A 
ATOM     33  C   UNL A   1      36.886  30.373  28.775  1.00  0.00    -0.014 A 
BRANCH  33  34
ATOM     34  C   UNL A   1      38.092  30.111  29.624  1.00  0.00     0.031 A 
ATOM     35  C   UNL A   1      39.210  29.246  29.085  1.00  0.00     0.074 A 
ATOM     36  C   UNL A   1      38.223  30.646  30.856  1.00  0.00     0.049 A 
ATOM     37  N   UNL A   1      40.226  28.707  29.712  1.00  0.00    -0.248 NA
ATOM     38  C   UNL A   1      39.155  28.922  27.651  1.00  0.00     0.031 C 
ATOM     39  C   UNL A   1      37.260  31.536  31.507  1.00  0.00     0.029 A 
ATOM     40  N   UNL A   1      39.232  30.523  31.780  1.00  0.00    -0.354 N 
ATOM     41  C   UNL A   1      40.875  27.910  28.772  1.00  0.00     0.074 A 
ATOM     42  C   UNL A   1      40.136  28.040  27.535  1.00  0.00     0.031 C 
ATOM     43  C   UNL A   1      37.747  31.916  32.699  1.00  0.00     0.029 A 
ATOM     44  C   UNL A   1      39.013  31.233  32.939  1.00  0.00     0.049 A 
ATOM     45  H   UNL A   1      40.038  29.978  31.628  1.00  0.00     0.167 HD
ATOM     46  C   UNL A   1      41.981  27.136  28.928  1.00  0.00     0.034 A 
ATOM     47  C   UNL A   1      39.728  31.303  34.081  1.00  0.00     0.034 A 
ATOM     48  C   UNL A   1      42.760  27.077  30.142  1.00  0.00     0.049 A 
ATOM     49  C   UNL A   1      40.983  30.481  34.216  1.00  0.00     0.074 A 
ATOM     50  C   UNL A   1      43.889  26.321  30.411  1.00  0.00     0.029 A 
ATOM     51  N   UNL A   1      42.511  27.832  31.280  1.00  0.00    -0.354 N 
ATOM     52  N   UNL A   1      41.517  29.642  33.358  1.00  0.00    -0.248 NA
ATOM     53  C   UNL A   1      41.725  30.609  35.476  1.00  0.00     0.031 C 
ATOM     54  C   UNL A   1      44.305  26.598  31.721  1.00  0.00     0.029 A 
ATOM     55  C   UNL A   1      43.468  27.565  32.249  1.00  0.00     0.049 A 
ATOM     56  H   UNL A   1      41.764  28.465  31.385  1.00  0.00     0.167 HD
ATOM     57  C   UNL A   1      42.659  29.144  33.980  1.00  0.00     0.074 A 
ATOM     58  C   UNL A   1      42.754  29.801  35.268  1.00  0.00     0.031 C 
ATOM     59  C   UNL A   1      43.544  28.218  33.532  1.00  0.00     0.034 A 
BRANCH  46  60
ATOM     60  C   UNL A   1      42.368  26.243  27.773  1.00  0.00     0.023 A 
ATOM     61  C   UNL A   1      41.989  24.892  27.707  1.00  0.00     0.031 A 
ATOM     62  C   UNL A   1      43.177  26.751  26.739  1.00  0.00     0.131 A 
ATOM     63  C   UNL A   1      42.481  24.077  26.675  1.00  0.00     0.055 A 
ATOM     64  C   UNL A   1      43.598  25.955  25.672  1.00  0.00     0.041 A 
ATOM     65  F   UNL A   1      43.586  28.030  26.757  1.00  0.00    -0.206 F 
ATOM     66  C   UNL A   1      43.264  24.605  25.645  1.00  0.00     0.022 A 
BRANCH  63  67
ATOM     67  S   UNL A   1      42.206  22.288  26.778  1.00  0.00     0.124 S 
ATOM     68  O   UNL A   1      40.925  22.146  26.090  1.00  0.00    -0.237 OA
ATOM     69  O   UNL A   1      43.369  21.749  26.080  1.00  0.00    -0.237 OA
ATOM     70  O   UNL A   1      42.167  22.028  28.216  1.00  0.00    -0.744 OA
ENDBRANCH  63  67
ENDBRANCH  46  60
BRANCH  47  71
ATOM     71  C   UNL A   1      39.249  32.139  35.217  1.00  0.00     0.023 A 
ATOM     72  C   UNL A   1      39.712  33.453  35.393  1.00  0.00     0.031 A 
ATOM     73  C   UNL A   1      38.350  31.621  36.165  1.00  0.00     0.131 A 
ATOM     74  C   UNL A   1      39.300  34.194  36.512  1.00  0.00     0.055 A 
ATOM     75  C   UNL A   1      37.906  32.378  37.250  1.00  0.00     0.041 A 
ATOM     76  F   UNL A   1      37.879  30.370  36.041  1.00  0.00    -0.206 F 
ATOM     77  C   UNL A   1      38.390  33.670  37.433  1.00  0.00     0.022 A 
BRANCH  74  78
ATOM     78  S   UNL A   1      40.023  35.834  36.783  1.00  0.00     0.124 S 
ATOM     79  O   UNL A   1      41.425  35.507  37.017  1.00  0.00    -0.237 OA
ATOM     80  O   UNL A   1      39.724  36.510  35.525  1.00  0.00    -0.237 OA
ATOM     81  O   UNL A   1      39.297  36.340  37.947  1.00  0.00    -0.744 OA
ENDBRANCH  74  78
ENDBRANCH  47  71
BRANCH  59  82
ATOM     82  C   UNL A   1      44.707  27.902  34.436  1.00  0.00     0.023 A 
ATOM     83  C   UNL A   1      44.631  26.887  35.407  1.00  0.00     0.031 A 
ATOM     84  C   UNL A   1      45.893  28.652  34.352  1.00  0.00     0.131 A 
ATOM     85  C   UNL A   1      45.699  26.689  36.294  1.00  0.00     0.055 A 
ATOM     86  C   UNL A   1      46.970  28.418  35.207  1.00  0.00     0.041 A 
ATOM     87  F   UNL A   1      46.016  29.632  33.443  1.00  0.00    -0.206 F 
ATOM     88  C   UNL A   1      46.871  27.443  36.195  1.00  0.00     0.022 A 
BRANCH  85  89
ATOM     89  S   UNL A   1      45.498  25.500  37.650  1.00  0.00     0.124 S 
ATOM     90  O   UNL A   1      46.661  24.636  37.477  1.00  0.00    -0.237 OA
ATOM     91  O   UNL A   1      45.516  26.366  38.826  1.00  0.00    -0.237 OA
ATOM     92  O   UNL A   1      44.210  24.869  37.366  1.00  0.00    -0.744 OA
ENDBRANCH  85  89
ENDBRANCH  59  82
ENDBRANCH  33  34
ENDBRANCH  26  28
ENDBRANCH  25  26
ENDBRANCH  24  25
ENDBRANCH   1  24
TORSDOF 18
ENDMDL
MODEL 3
REMARK VINA RESULT:     -11.9      1.500      1.836
REMARK SMILES CCc1cc(Nc2ccc(C(=O)OCCOC(=O)c3ccc(-c4c5nc(c(-c6cc(S(=O)(=O)[O-])ccc6F)c6ccc([nH]6)c(-c6cc(S(=O)(=O)[O-])ccc6F)c6nc(c(-c7cc(S(=O)(=O)[O-])ccc7F)c7ccc4[nH]7)C=C6)C=C5)cc3)cc2)nc(C(C)C)n1
REMARK SMILES IDX 14 1 13 2 11 3 12 4 10 5 7 6 8 7 83 8 9 9 82 10 6 11 5 13
REMARK SMILES IDX 3 14 4 15 89 16 85 17 84 18 2 19 1 20 86 21 87 22 88 23
REMARK SMILES IDX 15 24 16 25 17 26 18 27 19 28 20 29 81 30 21 31 80 32 22 33
REMARK SMILES IDX 23 34 24 35 74 36 25 37 79 38 73 39 75 40 26 41 78 42 72 43
REMARK SMILES IDX 71 44 27 46 59 47 39 48 58 49 40 50 43 51 57 52 76 53 41 54
REMARK SMILES IDX 42 55 56 57 77 58 44 59 28 60 29 61 37 62 30 63 36 64 38 65
REMARK SMILES IDX 35 66 31 67 32 68 33 69 34 70 60 71 61 72 69 73 62 74 68 75
REMARK SMILES IDX 70 76 67 77 63 78 64 79 65 80 66 81 45 82 46 83 54 84 47 85
REMARK SMILES IDX 53 86 55 87 52 88 48 89 49 90 50 91 51 92
REMARK H PARENT 6 12 75 45 43 56
REMARK Flexibility Score: inf
ROOT
ATOM      1  C   UNL A   1      32.090  28.213  25.429  1.00  0.00     0.275 C 
ENDROOT
BRANCH   1   2
ATOM      2  O   UNL A   1      31.676  27.790  24.115  1.00  0.00    -0.458 OA
BRANCH   2   3
ATOM      3  C   UNL A   1      30.436  27.244  24.057  1.00  0.00     0.338 C 
ATOM      4  O   UNL A   1      29.413  27.800  23.692  1.00  0.00    -0.246 OA
BRANCH   3   5
ATOM      5  C   UNL A   1      30.468  25.826  24.467  1.00  0.00     0.060 A 
ATOM      6  C   UNL A   1      30.869  23.201  25.371  1.00  0.00     0.040 A 
ATOM      7  C   UNL A   1      30.531  24.211  26.274  1.00  0.00     0.027 A 
ATOM      8  C   UNL A   1      30.953  23.511  24.004  1.00  0.00     0.027 A 
ATOM      9  C   UNL A   1      30.359  25.519  25.828  1.00  0.00     0.018 A 
ATOM     10  C   UNL A   1      30.735  24.813  23.545  1.00  0.00     0.018 A 
BRANCH   6  11
ATOM     11  N   UNL A   1      31.337  21.968  25.870  1.00  0.00    -0.340 N 
ATOM     12  H   UNL A   1      30.761  21.464  26.488  1.00  0.00     0.168 HD
BRANCH  11  13
ATOM     13  C   UNL A   1      32.593  21.421  25.525  1.00  0.00     0.134 A 
ATOM     14  C   UNL A   1      33.927  19.618  24.801  1.00  0.00     0.046 A 
ATOM     15  C   UNL A   1      32.671  20.109  25.110  1.00  0.00     0.071 A 
ATOM     16  N   UNL A   1      35.036  20.383  24.875  1.00  0.00    -0.238 NA
ATOM     17  C   UNL A   1      34.871  21.652  25.285  1.00  0.00     0.133 A 
ATOM     18  N   UNL A   1      33.688  22.198  25.590  1.00  0.00    -0.216 NA
BRANCH  14  19
ATOM     19  C   UNL A   1      34.066  18.184  24.351  1.00  0.00     0.053 C 
ATOM     20  C   UNL A   1      32.850  17.311  24.634  1.00  0.00     0.011 C 
ENDBRANCH  14  19
BRANCH  17  21
ATOM     21  C   UNL A   1      36.076  22.559  25.379  1.00  0.00     0.051 C 
ATOM     22  C   UNL A   1      36.982  22.423  24.157  1.00  0.00     0.016 C 
ATOM     23  C   UNL A   1      35.636  24.005  25.591  1.00  0.00     0.016 C 
ENDBRANCH  17  21
ENDBRANCH  11  13
ENDBRANCH   6  11
ENDBRANCH   3   5
ENDBRANCH   2   3
ENDBRANCH   1   2
BRANCH   1  24
ATOM     24  C   UNL A   1      31.864  29.712  25.617  1.00  0.00     0.275 C 
BRANCH  24  25
ATOM     25  O   UNL A   1      32.109  30.075  26.987  1.00  0.00    -0.458 OA
BRANCH  25  26
ATOM     26  C   UNL A   1      32.788  31.231  27.170  1.00  0.00     0.338 C 
ATOM     27  O   UNL A   1      32.344  32.361  27.050  1.00  0.00    -0.246 OA
BRANCH  26  28
ATOM     28  C   UNL A   1      34.194  30.958  27.537  1.00  0.00     0.060 A 
ATOM     29  C   UNL A   1      34.649  29.652  27.714  1.00  0.00     0.016 A 
ATOM     30  C   UNL A   1      35.034  32.026  27.846  1.00  0.00     0.016 A 
ATOM     31  C   UNL A   1      35.884  29.412  28.325  1.00  0.00     0.010 A 
ATOM     32  C   UNL A   1      36.315  31.782  28.357  1.00  0.00     0.010 A 
ATOM     33  C   UNL A   1      36.732  30.474  28.669  1.00  0.00    -0.014 A 
BRANCH  33  34
ATOM     34  C   UNL A   1      37.989  30.247  29.452  1.00  0.00     0.031 A 
ATOM     35  C   UNL A   1      39.091  29.396  28.861  1.00  0.00     0.074 A 
ATOM     36  C   UNL A   1      38.177  30.800  30.668  1.00  0.00     0.049 A 
ATOM     37  N   UNL A   1      40.151  28.885  29.438  1.00  0.00    -0.248 NA
ATOM     38  C   UNL A   1      38.964  29.051  27.437  1.00  0.00     0.031 C 
ATOM     39  C   UNL A   1      37.234  31.680  31.360  1.00  0.00     0.029 A 
ATOM     40  N   UNL A   1      39.239  30.709  31.536  1.00  0.00    -0.354 N 
ATOM     41  C   UNL A   1      40.763  28.087  28.473  1.00  0.00     0.074 A 
ATOM     42  C   UNL A   1      39.954  28.187  27.277  1.00  0.00     0.031 C 
ATOM     43  C   UNL A   1      37.779  32.085  32.519  1.00  0.00     0.029 A 
ATOM     44  C   UNL A   1      39.070  31.430  32.697  1.00  0.00     0.049 A 
ATOM     45  H   UNL A   1      40.045  30.177  31.346  1.00  0.00     0.167 HD
ATOM     46  C   UNL A   1      41.891  27.337  28.576  1.00  0.00     0.034 A 
ATOM     47  C   UNL A   1      39.846  31.528  33.795  1.00  0.00     0.034 A 
ATOM     48  C   UNL A   1      42.738  27.309  29.746  1.00  0.00     0.049 A 
ATOM     49  C   UNL A   1      41.123  30.732  33.870  1.00  0.00     0.074 A 
ATOM     50  C   UNL A   1      43.894  26.579  29.961  1.00  0.00     0.029 A 
ATOM     51  N   UNL A   1      42.537  28.074  30.886  1.00  0.00    -0.354 N 
ATOM     52  N   UNL A   1      41.624  29.892  32.995  1.00  0.00    -0.248 NA
ATOM     53  C   UNL A   1      41.931  30.891  35.086  1.00  0.00     0.031 C 
ATOM     54  C   UNL A   1      44.376  26.880  31.241  1.00  0.00     0.029 A 
ATOM     55  C   UNL A   1      43.551  27.839  31.804  1.00  0.00     0.049 A 
ATOM     56  H   UNL A   1      41.785  28.694  31.025  1.00  0.00     0.167 HD
ATOM     57  C   UNL A   1      42.808  29.424  33.558  1.00  0.00     0.074 A 
ATOM     58  C   UNL A   1      42.962  30.099  34.830  1.00  0.00     0.031 C 
ATOM     59  C   UNL A   1      43.686  28.510  33.072  1.00  0.00     0.034 A 
BRANCH  46  60
ATOM     60  C   UNL A   1      42.230  26.436  27.412  1.00  0.00     0.023 A 
ATOM     61  C   UNL A   1      41.799  25.101  27.343  1.00  0.00     0.031 A 
ATOM     62  C   UNL A   1      43.048  26.919  26.372  1.00  0.00     0.131 A 
ATOM     63  C   UNL A   1      42.248  24.274  26.302  1.00  0.00     0.055 A 
ATOM     64  C   UNL A   1      43.427  26.112  25.297  1.00  0.00     0.041 A 
ATOM     65  F   UNL A   1      43.507  28.180  26.392  1.00  0.00    -0.206 F 
ATOM     66  C   UNL A   1      43.040  24.777  25.266  1.00  0.00     0.022 A 
BRANCH  63  67
ATOM     67  S   UNL A   1      41.905  22.496  26.398  1.00  0.00     0.124 S 
ATOM     68  O   UNL A   1      42.431  22.164  27.720  1.00  0.00    -0.237 OA
ATOM     69  O   UNL A   1      40.454  22.446  26.257  1.00  0.00    -0.237 OA
ATOM     70  O   UNL A   1      42.660  21.939  25.276  1.00  0.00    -0.744 OA
ENDBRANCH  63  67
ENDBRANCH  46  60
BRANCH  47  71
ATOM     71  C   UNL A   1      39.415  32.370  34.946  1.00  0.00     0.023 A 
ATOM     72  C   UNL A   1      38.778  31.801  36.061  1.00  0.00     0.031 A 
ATOM     73  C   UNL A   1      39.599  33.764  34.929  1.00  0.00     0.131 A 
ATOM     74  C   UNL A   1      38.319  32.627  37.099  1.00  0.00     0.055 A 
ATOM     75  C   UNL A   1      39.183  34.575  35.985  1.00  0.00     0.041 A 
ATOM     76  F   UNL A   1      40.202  34.356  33.885  1.00  0.00    -0.206 F 
ATOM     77  C   UNL A   1      38.530  34.008  37.075  1.00  0.00     0.022 A 
BRANCH  74  78
ATOM     78  S   UNL A   1      37.380  31.875  38.456  1.00  0.00     0.124 S 
ATOM     79  O   UNL A   1      37.193  30.513  37.971  1.00  0.00    -0.237 OA
ATOM     80  O   UNL A   1      38.292  32.036  39.583  1.00  0.00    -0.237 OA
ATOM     81  O   UNL A   1      36.166  32.687  38.521  1.00  0.00    -0.744 OA
ENDBRANCH  74  78
ENDBRANCH  47  71
BRANCH  59  82
ATOM     82  C   UNL A   1      44.903  28.227  33.914  1.00  0.00     0.023 A 
ATOM     83  C   UNL A   1      44.901  27.224  34.899  1.00  0.00     0.031 A 
ATOM     84  C   UNL A   1      46.067  29.000  33.755  1.00  0.00     0.131 A 
ATOM     85  C   UNL A   1      46.021  27.057  35.728  1.00  0.00     0.055 A 
ATOM     86  C   UNL A   1      47.194  28.798  34.552  1.00  0.00     0.041 A 
ATOM     87  F   UNL A   1      46.120  29.971  32.830  1.00  0.00    -0.206 F 
ATOM     88  C   UNL A   1      47.170  27.833  35.555  1.00  0.00     0.022 A 
BRANCH  85  89
ATOM     89  S   UNL A   1      45.919  25.882  37.106  1.00  0.00     0.124 S 
ATOM     90  O   UNL A   1      45.561  24.641  36.427  1.00  0.00    -0.237 OA
ATOM     91  O   UNL A   1      47.268  25.938  37.661  1.00  0.00    -0.237 OA
ATOM     92  O   UNL A   1      44.874  26.444  37.960  1.00  0.00    -0.744 OA
ENDBRANCH  85  89
ENDBRANCH  59  82
ENDBRANCH  33  34
ENDBRANCH  26  28
ENDBRANCH  25  26
ENDBRANCH  24  25
ENDBRANCH   1  24
TORSDOF 18
ENDMDL
