MODEL 1
REMARK VINA RESULT:      -8.8      0.000      0.000
REMARK SMILES CCC[C@@H]([NH2+]C[C@H]1CSc2ccccc21)C(=O)OCCOC(=O)c1ccc(-c2c3nc(c(-c4cc(S(=O)(=O)[O-])ccc4F)c4ccc([nH]4)c(-c4cc(S(=O)(=O)[O-])ccc4F)c4nc(c(-c5cc(S(=O)(=O)[O-])ccc5F)c5ccc2[nH]5)C=C4)C=C3)cc1
REMARK SMILES IDX 19 1 18 2 16 3 17 4 4 5 3 6 2 7 1 8 5 9 6 12 7 13 8 14 15 15
REMARK SMILES IDX 9 16 10 17 14 18 11 19 13 20 12 21 20 22 21 23 22 24 23 25
REMARK SMILES IDX 24 26 25 27 86 28 26 29 85 30 27 31 28 32 29 33 79 34 30 35
REMARK SMILES IDX 84 36 78 37 80 38 31 39 83 40 77 41 76 42 32 44 64 45 44 46
REMARK SMILES IDX 63 47 45 48 48 49 62 50 81 51 46 52 47 53 61 55 82 56 49 57
REMARK SMILES IDX 33 58 34 59 42 60 35 61 41 62 43 63 40 64 36 65 37 66 38 67
REMARK SMILES IDX 39 68 65 69 66 70 74 71 67 72 73 73 75 74 72 75 68 76 69 77
REMARK SMILES IDX 70 78 71 79 50 80 51 81 59 82 52 83 58 84 60 85 57 86 53 87
REMARK SMILES IDX 54 88 55 89 56 90
REMARK H PARENT 5 10 5 11 80 43 48 54
REMARK Flexibility Score: inf
ROOT
ATOM      1  C   UNL A   1      33.711  34.244  29.149  1.00  0.00     0.274 C 
ENDROOT
BRANCH   1   2
ATOM      2  O   UNL A   1      35.108  34.145  29.488  1.00  0.00    -0.458 OA
BRANCH   2   3
ATOM      3  C   UNL A   1      35.365  33.592  30.705  1.00  0.00     0.364 C 
ATOM      4  O   UNL A   1      34.494  33.079  31.405  1.00  0.00    -0.245 OA
BRANCH   3   5
ATOM      5  C   UNL A   1      36.851  33.659  31.132  1.00  0.00     0.293 C 
BRANCH   5   6
ATOM      6  C   UNL A   1      37.805  33.767  29.920  1.00  0.00     0.077 C 
BRANCH   6   7
ATOM      7  C   UNL A   1      38.925  34.812  30.013  1.00  0.00     0.003 C 
ATOM      8  C   UNL A   1      40.327  34.227  30.055  1.00  0.00     0.004 C 
ENDBRANCH   6   7
ENDBRANCH   5   6
BRANCH   5   9
ATOM      9  N   UNL A   1      37.119  34.731  32.123  1.00  0.00    -0.334 N 
ATOM     10  H   UNL A   1      36.354  35.402  32.065  1.00  0.00     0.347 HD
ATOM     11  H   UNL A   1      38.036  35.102  31.871  1.00  0.00     0.347 HD
BRANCH   9  12
ATOM     12  C   UNL A   1      37.245  34.320  33.531  1.00  0.00     0.270 C 
BRANCH  12  13
ATOM     13  C   UNL A   1      38.605  33.874  34.137  1.00  0.00     0.086 C 
ATOM     14  C   UNL A   1      39.804  34.819  33.960  1.00  0.00     0.089 C 
ATOM     15  C   UNL A   1      38.525  33.571  35.615  1.00  0.00    -0.025 A 
ATOM     16  S   UNL A   1      40.041  35.720  35.522  1.00  0.00    -0.125 SA
ATOM     17  C   UNL A   1      39.185  34.484  36.438  1.00  0.00     0.011 A 
ATOM     18  C   UNL A   1      37.879  32.472  36.172  1.00  0.00     0.005 A 
ATOM     19  C   UNL A   1      39.172  34.354  37.817  1.00  0.00     0.015 A 
ATOM     20  C   UNL A   1      37.885  32.315  37.558  1.00  0.00     0.000 A 
ATOM     21  C   UNL A   1      38.516  33.259  38.379  1.00  0.00     0.001 A 
ENDBRANCH  12  13
ENDBRANCH   9  12
ENDBRANCH   5   9
ENDBRANCH   3   5
ENDBRANCH   2   3
ENDBRANCH   1   2
BRANCH   1  22
ATOM     22  C   UNL A   1      33.343  33.372  27.942  1.00  0.00     0.275 C 
BRANCH  22  23
ATOM     23  O   UNL A   1      34.426  32.522  27.516  1.00  0.00    -0.458 OA
BRANCH  23  24
ATOM     24  C   UNL A   1      34.324  31.215  27.864  1.00  0.00     0.338 C 
ATOM     25  O   UNL A   1      33.366  30.483  27.667  1.00  0.00    -0.246 OA
BRANCH  24  26
ATOM     26  C   UNL A   1      35.631  30.736  28.356  1.00  0.00     0.060 A 
ATOM     27  C   UNL A   1      36.828  31.042  27.704  1.00  0.00     0.016 A 
ATOM     28  C   UNL A   1      35.644  29.948  29.509  1.00  0.00     0.016 A 
ATOM     29  C   UNL A   1      38.032  30.505  28.182  1.00  0.00     0.010 A 
ATOM     30  C   UNL A   1      36.836  29.391  29.963  1.00  0.00     0.010 A 
ATOM     31  C   UNL A   1      38.037  29.647  29.294  1.00  0.00    -0.014 A 
BRANCH  31  32
ATOM     32  C   UNL A   1      39.291  29.079  29.839  1.00  0.00     0.031 A 
ATOM     33  C   UNL A   1      39.983  29.707  31.014  1.00  0.00     0.074 A 
ATOM     34  C   UNL A   1      39.850  28.035  29.200  1.00  0.00     0.049 A 
ATOM     35  N   UNL A   1      41.054  29.302  31.644  1.00  0.00    -0.248 NA
ATOM     36  C   UNL A   1      39.407  30.951  31.546  1.00  0.00     0.031 C 
ATOM     37  C   UNL A   1      39.295  27.405  28.003  1.00  0.00     0.029 A 
ATOM     38  N   UNL A   1      41.006  27.340  29.444  1.00  0.00    -0.354 N 
ATOM     39  C   UNL A   1      41.267  30.218  32.667  1.00  0.00     0.074 A 
ATOM     40  C   UNL A   1      40.243  31.234  32.539  1.00  0.00     0.031 C 
ATOM     41  C   UNL A   1      40.112  26.414  27.616  1.00  0.00     0.029 A 
ATOM     42  C   UNL A   1      41.252  26.344  28.529  1.00  0.00     0.049 A 
ATOM     43  H   UNL A   1      41.602  27.533  30.203  1.00  0.00     0.167 HD
ATOM     44  C   UNL A   1      42.216  30.189  33.635  1.00  0.00     0.034 A 
ATOM     45  C   UNL A   1      42.275  25.468  28.437  1.00  0.00     0.034 A 
ATOM     46  C   UNL A   1      43.240  29.174  33.718  1.00  0.00     0.049 A 
ATOM     47  C   UNL A   1      43.334  25.471  29.511  1.00  0.00     0.074 A 
ATOM     48  C   UNL A   1      44.199  29.013  34.702  1.00  0.00     0.029 A 
ATOM     49  N   UNL A   1      43.452  28.168  32.787  1.00  0.00    -0.354 N 
ATOM     50  N   UNL A   1      43.429  26.241  30.570  1.00  0.00    -0.248 NA
ATOM     51  C   UNL A   1      44.409  24.475  29.400  1.00  0.00     0.031 C 
ATOM     52  C   UNL A   1      45.041  27.967  34.324  1.00  0.00     0.029 A 
ATOM     53  C   UNL A   1      44.551  27.409  33.154  1.00  0.00     0.049 A 
ATOM     54  H   UNL A   1      42.902  28.015  31.985  1.00  0.00     0.167 HD
ATOM     55  C   UNL A   1      44.549  25.799  31.269  1.00  0.00     0.074 A 
ATOM     56  C   UNL A   1      45.090  24.684  30.521  1.00  0.00     0.031 C 
ATOM     57  C   UNL A   1      45.074  26.276  32.425  1.00  0.00     0.034 A 
BRANCH  44  58
ATOM     58  C   UNL A   1      42.194  31.230  34.731  1.00  0.00     0.023 A 
ATOM     59  C   UNL A   1      42.979  32.396  34.623  1.00  0.00     0.031 A 
ATOM     60  C   UNL A   1      41.569  30.963  35.963  1.00  0.00     0.131 A 
ATOM     61  C   UNL A   1      43.163  33.218  35.744  1.00  0.00     0.055 A 
ATOM     62  C   UNL A   1      41.721  31.809  37.063  1.00  0.00     0.041 A 
ATOM     63  F   UNL A   1      40.822  29.859  36.123  1.00  0.00    -0.206 F 
ATOM     64  C   UNL A   1      42.536  32.932  36.961  1.00  0.00     0.022 A 
BRANCH  61  65
ATOM     65  S   UNL A   1      44.301  34.632  35.700  1.00  0.00     0.124 S 
ATOM     66  O   UNL A   1      45.521  34.052  36.257  1.00  0.00    -0.237 OA
ATOM     67  O   UNL A   1      44.353  34.938  34.274  1.00  0.00    -0.237 OA
ATOM     68  O   UNL A   1      43.650  35.632  36.539  1.00  0.00    -0.744 OA
ENDBRANCH  61  65
ENDBRANCH  44  58
BRANCH  45  69
ATOM     69  C   UNL A   1      42.266  24.464  27.334  1.00  0.00     0.023 A 
ATOM     70  C   UNL A   1      41.594  23.235  27.474  1.00  0.00     0.031 A 
ATOM     71  C   UNL A   1      43.034  24.669  26.175  1.00  0.00     0.131 A 
ATOM     72  C   UNL A   1      41.761  22.236  26.507  1.00  0.00     0.055 A 
ATOM     73  C   UNL A   1      43.138  23.698  25.178  1.00  0.00     0.041 A 
ATOM     74  F   UNL A   1      43.710  25.816  26.006  1.00  0.00    -0.206 F 
ATOM     75  C   UNL A   1      42.514  22.466  25.351  1.00  0.00     0.022 A 
BRANCH  72  76
ATOM     76  S   UNL A   1      41.129  20.558  26.783  1.00  0.00     0.124 S 
ATOM     77  O   UNL A   1      39.960  20.524  25.909  1.00  0.00    -0.237 OA
ATOM     78  O   UNL A   1      42.260  19.739  26.355  1.00  0.00    -0.237 OA
ATOM     79  O   UNL A   1      40.848  20.526  28.214  1.00  0.00    -0.744 OA
ENDBRANCH  72  76
ENDBRANCH  45  69
BRANCH  57  80
ATOM     80  C   UNL A   1      46.300  25.611  33.009  1.00  0.00     0.023 A 
ATOM     81  C   UNL A   1      46.148  24.604  33.983  1.00  0.00     0.031 A 
ATOM     82  C   UNL A   1      47.591  26.107  32.763  1.00  0.00     0.131 A 
ATOM     83  C   UNL A   1      47.257  24.178  34.725  1.00  0.00     0.055 A 
ATOM     84  C   UNL A   1      48.702  25.636  33.465  1.00  0.00     0.041 A 
ATOM     85  F   UNL A   1      47.788  27.074  31.853  1.00  0.00    -0.206 F 
ATOM     86  C   UNL A   1      48.534  24.683  34.466  1.00  0.00     0.022 A 
BRANCH  83  87
ATOM     87  S   UNL A   1      47.064  23.040  36.126  1.00  0.00     0.124 S 
ATOM     88  O   UNL A   1      48.289  23.283  36.886  1.00  0.00    -0.237 OA
ATOM     89  O   UNL A   1      45.837  23.530  36.750  1.00  0.00    -0.237 OA
ATOM     90  O   UNL A   1      46.972  21.724  35.503  1.00  0.00    -0.744 OA
ENDBRANCH  83  87
ENDBRANCH  57  80
ENDBRANCH  31  32
ENDBRANCH  24  26
ENDBRANCH  23  24
ENDBRANCH  22  23
ENDBRANCH   1  22
TORSDOF 19
ENDMDL
MODEL 2
REMARK VINA RESULT:      -8.8      3.562      6.919
REMARK SMILES CCC[C@@H]([NH2+]C[C@H]1CSc2ccccc21)C(=O)OCCOC(=O)c1ccc(-c2c3nc(c(-c4cc(S(=O)(=O)[O-])ccc4F)c4ccc([nH]4)c(-c4cc(S(=O)(=O)[O-])ccc4F)c4nc(c(-c5cc(S(=O)(=O)[O-])ccc5F)c5ccc2[nH]5)C=C4)C=C3)cc1
REMARK SMILES IDX 19 1 18 2 16 3 17 4 4 5 3 6 2 7 1 8 5 9 6 12 7 13 8 14 15 15
REMARK SMILES IDX 9 16 10 17 14 18 11 19 13 20 12 21 20 22 21 23 22 24 23 25
REMARK SMILES IDX 24 26 25 27 86 28 26 29 85 30 27 31 28 32 29 33 79 34 30 35
REMARK SMILES IDX 84 36 78 37 80 38 31 39 83 40 77 41 76 42 32 44 64 45 44 46
REMARK SMILES IDX 63 47 45 48 48 49 62 50 81 51 46 52 47 53 61 55 82 56 49 57
REMARK SMILES IDX 33 58 34 59 42 60 35 61 41 62 43 63 40 64 36 65 37 66 38 67
REMARK SMILES IDX 39 68 65 69 66 70 74 71 67 72 73 73 75 74 72 75 68 76 69 77
REMARK SMILES IDX 70 78 71 79 50 80 51 81 59 82 52 83 58 84 60 85 57 86 53 87
REMARK SMILES IDX 54 88 55 89 56 90
REMARK H PARENT 5 10 5 11 80 43 48 54
REMARK Flexibility Score: inf
ROOT
ATOM      1  C   UNL A   1      31.653  28.841  26.085  1.00  0.00     0.274 C 
ENDROOT
BRANCH   1   2
ATOM      2  O   UNL A   1      32.810  28.039  25.780  1.00  0.00    -0.458 OA
BRANCH   2   3
ATOM      3  C   UNL A   1      32.767  27.406  24.576  1.00  0.00     0.364 C 
ATOM      4  O   UNL A   1      32.591  27.999  23.513  1.00  0.00    -0.245 OA
BRANCH   3   5
ATOM      5  C   UNL A   1      32.966  25.872  24.658  1.00  0.00     0.293 C 
BRANCH   5   6
ATOM      6  C   UNL A   1      33.944  25.351  23.581  1.00  0.00     0.077 C 
BRANCH   6   7
ATOM      7  C   UNL A   1      33.349  24.461  22.481  1.00  0.00     0.003 C 
ATOM      8  C   UNL A   1      33.313  22.980  22.822  1.00  0.00     0.004 C 
ENDBRANCH   6   7
ENDBRANCH   5   6
BRANCH   5   9
ATOM      9  N   UNL A   1      33.363  25.413  26.012  1.00  0.00    -0.334 N 
ATOM     10  H   UNL A   1      32.959  26.061  26.688  1.00  0.00     0.347 HD
ATOM     11  H   UNL A   1      34.383  25.391  25.996  1.00  0.00     0.347 HD
BRANCH   9  12
ATOM     12  C   UNL A   1      32.955  24.052  26.400  1.00  0.00     0.270 C 
BRANCH  12  13
ATOM     13  C   UNL A   1      33.965  23.033  26.997  1.00  0.00     0.086 C 
ATOM     14  C   UNL A   1      33.433  21.636  27.359  1.00  0.00     0.089 C 
ATOM     15  C   UNL A   1      35.171  22.807  26.117  1.00  0.00    -0.025 A 
ATOM     16  S   UNL A   1      33.921  20.492  26.032  1.00  0.00    -0.125 SA
ATOM     17  C   UNL A   1      35.232  21.548  25.518  1.00  0.00     0.011 A 
ATOM     18  C   UNL A   1      36.186  23.732  25.897  1.00  0.00     0.005 A 
ATOM     19  C   UNL A   1      36.264  21.206  24.659  1.00  0.00     0.015 A 
ATOM     20  C   UNL A   1      37.244  23.388  25.056  1.00  0.00     0.000 A 
ATOM     21  C   UNL A   1      37.277  22.136  24.428  1.00  0.00     0.001 A 
ENDBRANCH  12  13
ENDBRANCH   9  12
ENDBRANCH   5   9
ENDBRANCH   3   5
ENDBRANCH   2   3
ENDBRANCH   1   2
BRANCH   1  22
ATOM     22  C   UNL A   1      32.028  30.175  26.743  1.00  0.00     0.275 C 
BRANCH  22  23
ATOM     23  O   UNL A   1      33.428  30.490  26.608  1.00  0.00    -0.458 OA
BRANCH  23  24
ATOM     24  C   UNL A   1      33.878  31.519  27.369  1.00  0.00     0.338 C 
ATOM     25  O   UNL A   1      33.282  32.556  27.615  1.00  0.00    -0.246 OA
BRANCH  24  26
ATOM     26  C   UNL A   1      35.139  31.124  28.029  1.00  0.00     0.060 A 
ATOM     27  C   UNL A   1      36.274  31.939  28.013  1.00  0.00     0.016 A 
ATOM     28  C   UNL A   1      35.174  29.889  28.679  1.00  0.00     0.016 A 
ATOM     29  C   UNL A   1      37.461  31.481  28.602  1.00  0.00     0.010 A 
ATOM     30  C   UNL A   1      36.363  29.424  29.236  1.00  0.00     0.010 A 
ATOM     31  C   UNL A   1      37.521  30.206  29.185  1.00  0.00    -0.014 A 
BRANCH  31  32
ATOM     32  C   UNL A   1      38.751  29.699  29.836  1.00  0.00     0.031 A 
ATOM     33  C   UNL A   1      39.221  30.253  31.148  1.00  0.00     0.074 A 
ATOM     34  C   UNL A   1      39.493  28.789  29.177  1.00  0.00     0.049 A 
ATOM     35  N   UNL A   1      40.244  29.882  31.874  1.00  0.00    -0.248 NA
ATOM     36  C   UNL A   1      38.455  31.372  31.718  1.00  0.00     0.031 C 
ATOM     37  C   UNL A   1      39.160  28.248  27.860  1.00  0.00     0.029 A 
ATOM     38  N   UNL A   1      40.676  28.180  29.505  1.00  0.00    -0.354 N 
ATOM     39  C   UNL A   1      40.229  30.693  33.002  1.00  0.00     0.074 A 
ATOM     40  C   UNL A   1      39.128  31.619  32.837  1.00  0.00     0.031 C 
ATOM     41  C   UNL A   1      40.119  27.385  27.491  1.00  0.00     0.029 A 
ATOM     42  C   UNL A   1      41.139  27.320  28.538  1.00  0.00     0.049 A 
ATOM     43  H   UNL A   1      41.150  28.343  30.352  1.00  0.00     0.167 HD
ATOM     44  C   UNL A   1      41.049  30.645  34.081  1.00  0.00     0.034 A 
ATOM     45  C   UNL A   1      42.252  26.558  28.498  1.00  0.00     0.034 A 
ATOM     46  C   UNL A   1      42.156  29.727  34.201  1.00  0.00     0.049 A 
ATOM     47  C   UNL A   1      43.163  26.539  29.699  1.00  0.00     0.074 A 
ATOM     48  C   UNL A   1      42.999  29.546  35.283  1.00  0.00     0.029 A 
ATOM     49  N   UNL A   1      42.588  28.854  33.212  1.00  0.00    -0.354 N 
ATOM     50  N   UNL A   1      43.045  27.192  30.832  1.00  0.00    -0.248 NA
ATOM     51  C   UNL A   1      44.344  25.666  29.637  1.00  0.00     0.031 C 
ATOM     52  C   UNL A   1      43.986  28.631  34.921  1.00  0.00     0.029 A 
ATOM     53  C   UNL A   1      43.707  28.164  33.646  1.00  0.00     0.049 A 
ATOM     54  H   UNL A   1      42.161  28.742  32.331  1.00  0.00     0.167 HD
ATOM     55  C   UNL A   1      44.109  26.780  31.629  1.00  0.00     0.074 A 
ATOM     56  C   UNL A   1      44.855  25.811  30.854  1.00  0.00     0.031 C 
ATOM     57  C   UNL A   1      44.434  27.172  32.886  1.00  0.00     0.034 A 
BRANCH  44  58
ATOM     58  C   UNL A   1      40.781  31.551  35.261  1.00  0.00     0.023 A 
ATOM     59  C   UNL A   1      39.682  31.311  36.110  1.00  0.00     0.031 A 
ATOM     60  C   UNL A   1      41.481  32.763  35.409  1.00  0.00     0.131 A 
ATOM     61  C   UNL A   1      39.283  32.293  37.027  1.00  0.00     0.055 A 
ATOM     62  C   UNL A   1      41.105  33.718  36.356  1.00  0.00     0.041 A 
ATOM     63  F   UNL A   1      42.527  33.048  34.617  1.00  0.00    -0.206 F 
ATOM     64  C   UNL A   1      39.991  33.492  37.156  1.00  0.00     0.022 A 
BRANCH  61  65
ATOM     65  S   UNL A   1      37.775  32.100  38.019  1.00  0.00     0.124 S 
ATOM     66  O   UNL A   1      38.258  32.411  39.363  1.00  0.00    -0.237 OA
ATOM     67  O   UNL A   1      36.891  33.101  37.429  1.00  0.00    -0.237 OA
ATOM     68  O   UNL A   1      37.388  30.710  37.806  1.00  0.00    -0.744 OA
ENDBRANCH  61  65
ENDBRANCH  44  58
BRANCH  45  69
ATOM     69  C   UNL A   1      42.486  25.687  27.310  1.00  0.00     0.023 A 
ATOM     70  C   UNL A   1      42.015  24.361  27.277  1.00  0.00     0.031 A 
ATOM     71  C   UNL A   1      43.291  26.130  26.248  1.00  0.00     0.131 A 
ATOM     72  C   UNL A   1      42.413  23.507  26.240  1.00  0.00     0.055 A 
ATOM     73  C   UNL A   1      43.623  25.296  25.178  1.00  0.00     0.041 A 
ATOM     74  F   UNL A   1      43.780  27.379  26.245  1.00  0.00    -0.206 F 
ATOM     75  C   UNL A   1      43.199  23.972  25.181  1.00  0.00     0.022 A 
BRANCH  72  76
ATOM     76  S   UNL A   1      42.046  21.731  26.303  1.00  0.00     0.124 S 
ATOM     77  O   UNL A   1      40.617  21.704  26.006  1.00  0.00    -0.237 OA
ATOM     78  O   UNL A   1      42.918  21.209  25.255  1.00  0.00    -0.237 OA
ATOM     79  O   UNL A   1      42.414  21.351  27.663  1.00  0.00    -0.744 OA
ENDBRANCH  72  76
ENDBRANCH  45  69
BRANCH  57  80
ATOM     80  C   UNL A   1      45.642  26.562  33.561  1.00  0.00     0.023 A 
ATOM     81  C   UNL A   1      45.482  25.427  34.381  1.00  0.00     0.031 A 
ATOM     82  C   UNL A   1      46.887  27.212  33.563  1.00  0.00     0.131 A 
ATOM     83  C   UNL A   1      46.526  25.021  35.222  1.00  0.00     0.055 A 
ATOM     84  C   UNL A   1      47.943  26.767  34.360  1.00  0.00     0.041 A 
ATOM     85  F   UNL A   1      47.088  28.304  32.808  1.00  0.00    -0.206 F 
ATOM     86  C   UNL A   1      47.758  25.680  35.210  1.00  0.00     0.022 A 
BRANCH  83  87
ATOM     87  S   UNL A   1      46.284  23.698  36.441  1.00  0.00     0.124 S 
ATOM     88  O   UNL A   1      45.029  24.096  37.076  1.00  0.00    -0.237 OA
ATOM     89  O   UNL A   1      46.203  22.512  35.592  1.00  0.00    -0.237 OA
ATOM     90  O   UNL A   1      47.465  23.783  37.294  1.00  0.00    -0.744 OA
ENDBRANCH  83  87
ENDBRANCH  57  80
ENDBRANCH  31  32
ENDBRANCH  24  26
ENDBRANCH  23  24
ENDBRANCH  22  23
ENDBRANCH   1  22
TORSDOF 19
ENDMDL
MODEL 3
REMARK VINA RESULT:      -8.7      5.502     11.575
REMARK SMILES CCC[C@@H]([NH2+]C[C@H]1CSc2ccccc21)C(=O)OCCOC(=O)c1ccc(-c2c3nc(c(-c4cc(S(=O)(=O)[O-])ccc4F)c4ccc([nH]4)c(-c4cc(S(=O)(=O)[O-])ccc4F)c4nc(c(-c5cc(S(=O)(=O)[O-])ccc5F)c5ccc2[nH]5)C=C4)C=C3)cc1
REMARK SMILES IDX 19 1 18 2 16 3 17 4 4 5 3 6 2 7 1 8 5 9 6 12 7 13 8 14 15 15
REMARK SMILES IDX 9 16 10 17 14 18 11 19 13 20 12 21 20 22 21 23 22 24 23 25
REMARK SMILES IDX 24 26 25 27 86 28 26 29 85 30 27 31 28 32 29 33 79 34 30 35
REMARK SMILES IDX 84 36 78 37 80 38 31 39 83 40 77 41 76 42 32 44 64 45 44 46
REMARK SMILES IDX 63 47 45 48 48 49 62 50 81 51 46 52 47 53 61 55 82 56 49 57
REMARK SMILES IDX 33 58 34 59 42 60 35 61 41 62 43 63 40 64 36 65 37 66 38 67
REMARK SMILES IDX 39 68 65 69 66 70 74 71 67 72 73 73 75 74 72 75 68 76 69 77
REMARK SMILES IDX 70 78 71 79 50 80 51 81 59 82 52 83 58 84 60 85 57 86 53 87
REMARK SMILES IDX 54 88 55 89 56 90
REMARK H PARENT 5 10 5 11 80 43 48 54
REMARK Flexibility Score: inf
ROOT
ATOM      1  C   UNL A   1      35.553  20.063  24.985  1.00  0.00     0.274 C 
ENDROOT
BRANCH   1   2
ATOM      2  O   UNL A   1      34.946  21.362  25.129  1.00  0.00    -0.458 OA
BRANCH   2   3
ATOM      3  C   UNL A   1      33.715  21.485  24.562  1.00  0.00     0.364 C 
ATOM      4  O   UNL A   1      33.087  20.529  24.109  1.00  0.00    -0.245 OA
BRANCH   3   5
ATOM      5  C   UNL A   1      33.167  22.933  24.542  1.00  0.00     0.293 C 
BRANCH   5   6
ATOM      6  C   UNL A   1      33.366  23.654  25.894  1.00  0.00     0.077 C 
BRANCH   6   7
ATOM      7  C   UNL A   1      32.359  23.327  27.005  1.00  0.00     0.003 C 
ATOM      8  C   UNL A   1      30.946  23.059  26.513  1.00  0.00     0.004 C 
ENDBRANCH   6   7
ENDBRANCH   5   6
BRANCH   5   9
ATOM      9  N   UNL A   1      33.708  23.738  23.418  1.00  0.00    -0.334 N 
ATOM     10  H   UNL A   1      32.980  23.805  22.709  1.00  0.00     0.347 HD
ATOM     11  H   UNL A   1      34.552  23.247  23.123  1.00  0.00     0.347 HD
BRANCH   9  12
ATOM     12  C   UNL A   1      34.151  25.107  23.733  1.00  0.00     0.270 C 
BRANCH  12  13
ATOM     13  C   UNL A   1      33.207  26.331  23.574  1.00  0.00     0.086 C 
ATOM     14  C   UNL A   1      31.886  26.115  22.819  1.00  0.00     0.089 C 
ATOM     15  C   UNL A   1      32.838  26.970  24.892  1.00  0.00    -0.025 A 
ATOM     16  S   UNL A   1      30.557  25.959  24.051  1.00  0.00    -0.125 SA
ATOM     17  C   UNL A   1      31.506  26.801  25.273  1.00  0.00     0.011 A 
ATOM     18  C   UNL A   1      33.704  27.702  25.698  1.00  0.00     0.005 A 
ATOM     19  C   UNL A   1      31.028  27.303  26.472  1.00  0.00     0.015 A 
ATOM     20  C   UNL A   1      33.226  28.237  26.894  1.00  0.00     0.000 A 
ATOM     21  C   UNL A   1      31.897  28.028  27.287  1.00  0.00     0.001 A 
ENDBRANCH  12  13
ENDBRANCH   9  12
ENDBRANCH   5   9
ENDBRANCH   3   5
ENDBRANCH   2   3
ENDBRANCH   1   2
BRANCH   1  22
ATOM     22  C   UNL A   1      37.084  20.139  24.945  1.00  0.00     0.275 C 
BRANCH  22  23
ATOM     23  O   UNL A   1      37.609  21.238  25.716  1.00  0.00    -0.458 OA
BRANCH  23  24
ATOM     24  C   UNL A   1      38.898  21.114  26.120  1.00  0.00     0.338 C 
ATOM     25  O   UNL A   1      39.586  20.106  26.057  1.00  0.00    -0.246 OA
BRANCH  24  26
ATOM     26  C   UNL A   1      39.428  22.444  26.482  1.00  0.00     0.060 A 
ATOM     27  C   UNL A   1      38.795  23.627  26.093  1.00  0.00     0.016 A 
ATOM     28  C   UNL A   1      40.604  22.494  27.231  1.00  0.00     0.016 A 
ATOM     29  C   UNL A   1      39.380  24.861  26.411  1.00  0.00     0.010 A 
ATOM     30  C   UNL A   1      41.200  23.720  27.519  1.00  0.00     0.010 A 
ATOM     31  C   UNL A   1      40.605  24.912  27.095  1.00  0.00    -0.014 A 
BRANCH  31  32
ATOM     32  C   UNL A   1      41.242  26.197  27.467  1.00  0.00     0.031 A 
ATOM     33  C   UNL A   1      42.677  26.479  27.132  1.00  0.00     0.074 A 
ATOM     34  C   UNL A   1      40.528  27.075  28.196  1.00  0.00     0.049 A 
ATOM     35  N   UNL A   1      43.365  27.571  27.337  1.00  0.00    -0.248 NA
ATOM     36  C   UNL A   1      43.442  25.397  26.493  1.00  0.00     0.031 C 
ATOM     37  C   UNL A   1      39.152  26.857  28.640  1.00  0.00     0.029 A 
ATOM     38  N   UNL A   1      40.860  28.301  28.710  1.00  0.00    -0.354 N 
ATOM     39  C   UNL A   1      44.634  27.328  26.825  1.00  0.00     0.074 A 
ATOM     40  C   UNL A   1      44.638  25.960  26.350  1.00  0.00     0.031 C 
ATOM     41  C   UNL A   1      38.755  27.916  29.360  1.00  0.00     0.029 A 
ATOM     42  C   UNL A   1      39.851  28.883  29.440  1.00  0.00     0.049 A 
ATOM     43  H   UNL A   1      41.737  28.727  28.570  1.00  0.00     0.167 HD
ATOM     44  C   UNL A   1      45.683  28.182  26.742  1.00  0.00     0.034 A 
ATOM     45  C   UNL A   1      39.805  30.063  30.093  1.00  0.00     0.034 A 
ATOM     46  C   UNL A   1      45.654  29.533  27.251  1.00  0.00     0.049 A 
ATOM     47  C   UNL A   1      40.994  30.987  30.008  1.00  0.00     0.074 A 
ATOM     48  C   UNL A   1      46.636  30.502  27.148  1.00  0.00     0.029 A 
ATOM     49  N   UNL A   1      44.610  30.100  27.969  1.00  0.00    -0.354 N 
ATOM     50  N   UNL A   1      42.131  30.809  29.376  1.00  0.00    -0.248 NA
ATOM     51  C   UNL A   1      40.893  32.281  30.697  1.00  0.00     0.031 C 
ATOM     52  C   UNL A   1      46.224  31.620  27.873  1.00  0.00     0.029 A 
ATOM     53  C   UNL A   1      44.942  31.389  28.348  1.00  0.00     0.049 A 
ATOM     54  H   UNL A   1      43.759  29.651  28.177  1.00  0.00     0.167 HD
ATOM     55  C   UNL A   1      42.861  31.980  29.558  1.00  0.00     0.074 A 
ATOM     56  C   UNL A   1      42.033  32.866  30.348  1.00  0.00     0.031 C 
ATOM     57  C   UNL A   1      44.104  32.287  29.109  1.00  0.00     0.034 A 
BRANCH  44  58
ATOM     58  C   UNL A   1      46.945  27.745  26.034  1.00  0.00     0.023 A 
ATOM     59  C   UNL A   1      47.145  28.056  24.674  1.00  0.00     0.031 A 
ATOM     60  C   UNL A   1      47.835  26.843  26.646  1.00  0.00     0.131 A 
ATOM     61  C   UNL A   1      48.173  27.426  23.959  1.00  0.00     0.055 A 
ATOM     62  C   UNL A   1      48.885  26.253  25.939  1.00  0.00     0.041 A 
ATOM     63  F   UNL A   1      47.682  26.502  27.935  1.00  0.00    -0.206 F 
ATOM     64  C   UNL A   1      49.046  26.530  24.586  1.00  0.00     0.022 A 
BRANCH  61  65
ATOM     65  S   UNL A   1      48.361  27.665  22.169  1.00  0.00     0.124 S 
ATOM     66  O   UNL A   1      48.412  26.286  21.687  1.00  0.00    -0.237 OA
ATOM     67  O   UNL A   1      47.145  28.398  21.829  1.00  0.00    -0.237 OA
ATOM     68  O   UNL A   1      49.608  28.412  22.043  1.00  0.00    -0.744 OA
ENDBRANCH  61  65
ENDBRANCH  44  58
BRANCH  45  69
ATOM     69  C   UNL A   1      38.545  30.452  30.790  1.00  0.00     0.023 A 
ATOM     70  C   UNL A   1      37.523  31.143  30.111  1.00  0.00     0.031 A 
ATOM     71  C   UNL A   1      38.402  30.250  32.172  1.00  0.00     0.131 A 
ATOM     72  C   UNL A   1      36.440  31.665  30.831  1.00  0.00     0.055 A 
ATOM     73  C   UNL A   1      37.284  30.708  32.872  1.00  0.00     0.041 A 
ATOM     74  F   UNL A   1      39.359  29.616  32.866  1.00  0.00    -0.206 F 
ATOM     75  C   UNL A   1      36.305  31.436  32.204  1.00  0.00     0.022 A 
BRANCH  72  76
ATOM     76  S   UNL A   1      35.247  32.780  30.039  1.00  0.00     0.124 S 
ATOM     77  O   UNL A   1      34.683  31.930  28.995  1.00  0.00    -0.237 OA
ATOM     78  O   UNL A   1      34.351  33.094  31.149  1.00  0.00    -0.237 OA
ATOM     79  O   UNL A   1      36.070  33.890  29.573  1.00  0.00    -0.744 OA
ENDBRANCH  72  76
ENDBRANCH  45  69
BRANCH  57  80
ATOM     80  C   UNL A   1      44.688  33.646  29.423  1.00  0.00     0.023 A 
ATOM     81  C   UNL A   1      44.495  34.712  28.520  1.00  0.00     0.031 A 
ATOM     82  C   UNL A   1      45.590  33.830  30.483  1.00  0.00     0.131 A 
ATOM     83  C   UNL A   1      45.249  35.884  28.655  1.00  0.00     0.055 A 
ATOM     84  C   UNL A   1      46.295  35.023  30.646  1.00  0.00     0.041 A 
ATOM     85  F   UNL A   1      45.817  32.842  31.365  1.00  0.00    -0.206 F 
ATOM     86  C   UNL A   1      46.142  36.049  29.717  1.00  0.00     0.022 A 
BRANCH  83  87
ATOM     87  S   UNL A   1      45.182  37.189  27.394  1.00  0.00     0.124 S 
ATOM     88  O   UNL A   1      43.822  37.044  26.879  1.00  0.00    -0.237 OA
ATOM     89  O   UNL A   1      45.422  38.392  28.186  1.00  0.00    -0.237 OA
ATOM     90  O   UNL A   1      46.241  36.829  26.457  1.00  0.00    -0.744 OA
ENDBRANCH  83  87
ENDBRANCH  57  80
ENDBRANCH  31  32
ENDBRANCH  24  26
ENDBRANCH  23  24
ENDBRANCH  22  23
ENDBRANCH   1  22
TORSDOF 19
ENDMDL
