MODEL 1
REMARK VINA RESULT:     -13.8      0.000      0.000
REMARK SMILES O=C(OCCOC(=O)c1nccnc1C(=O)Nc1n[nH]c2ncccc12)c1ccc(-c2c3nc(c(-c4cc(S(=O)(=O)[O-])ccc4F)c4ccc([nH]4)c(-c4cc(S(=O)(=O)[O-])ccc4F)c4nc(c(-c5cc(S(=O)(=O)[O-])ccc5F)c5ccc2[nH]5)C=C4)C=C3)cc1
REMARK SMILES IDX 4 1 3 2 2 3 1 4 27 5 28 6 89 7 29 8 88 9 30 10 31 11 32 12
REMARK SMILES IDX 82 13 33 14 87 15 81 16 83 17 34 18 86 19 80 20 79 21 35 23
REMARK SMILES IDX 67 24 47 25 66 26 48 27 51 28 65 29 84 30 49 31 50 32 64 34
REMARK SMILES IDX 85 35 52 36 36 37 37 38 45 39 38 40 44 41 46 42 43 43 39 44
REMARK SMILES IDX 40 45 41 46 42 47 68 48 69 49 77 50 70 51 76 52 78 53 75 54
REMARK SMILES IDX 71 55 72 56 73 57 74 58 53 59 54 60 62 61 55 62 61 63 63 64
REMARK SMILES IDX 60 65 56 66 57 67 58 68 59 69 5 70 6 71 7 72 8 73 9 74 10 75
REMARK SMILES IDX 14 76 11 77 13 78 12 79 15 80 16 81 17 82 18 84 19 85 26 86
REMARK SMILES IDX 20 87 21 88 25 89 22 91 24 92 23 93
REMARK H PARENT 83 22 51 33 17 83 20 90
REMARK Flexibility Score: inf
ROOT
ATOM      1  C   UNL A   1      39.399  19.191  25.980  1.00  0.00     0.275 C 
ENDROOT
BRANCH   1   2
ATOM      2  O   UNL A   1      40.928  19.293  25.816  1.00  0.00    -0.458 OA
BRANCH   2   3
ATOM      3  C   UNL A   1      41.897  20.288  25.906  1.00  0.00     0.338 C 
ATOM      4  O   UNL A   1      43.028  20.133  25.462  1.00  0.00    -0.246 OA
BRANCH   3   5
ATOM      5  C   UNL A   1      41.679  21.387  26.938  1.00  0.00     0.060 A 
ATOM      6  C   UNL A   1      40.483  22.046  26.932  1.00  0.00     0.016 A 
ATOM      7  C   UNL A   1      42.496  21.791  27.977  1.00  0.00     0.016 A 
ATOM      8  C   UNL A   1      40.360  23.384  27.317  1.00  0.00     0.010 A 
ATOM      9  C   UNL A   1      42.273  23.069  28.581  1.00  0.00     0.010 A 
ATOM     10  C   UNL A   1      41.347  23.991  28.034  1.00  0.00    -0.014 A 
BRANCH  10  11
ATOM     11  C   UNL A   1      41.542  25.497  28.055  1.00  0.00     0.031 A 
ATOM     12  C   UNL A   1      42.790  25.973  27.369  1.00  0.00     0.074 A 
ATOM     13  C   UNL A   1      40.690  26.517  28.348  1.00  0.00     0.049 A 
ATOM     14  N   UNL A   1      43.579  26.970  27.636  1.00  0.00    -0.248 NA
ATOM     15  C   UNL A   1      43.208  25.155  26.218  1.00  0.00     0.031 C 
ATOM     16  C   UNL A   1      39.237  26.475  28.461  1.00  0.00     0.029 A 
ATOM     17  N   UNL A   1      40.954  27.850  28.621  1.00  0.00    -0.354 N 
ATOM     18  C   UNL A   1      44.675  26.788  26.802  1.00  0.00     0.074 A 
ATOM     19  C   UNL A   1      44.442  25.584  26.037  1.00  0.00     0.031 C 
ATOM     20  C   UNL A   1      38.760  27.639  28.930  1.00  0.00     0.029 A 
ATOM     21  C   UNL A   1      39.874  28.533  29.158  1.00  0.00     0.049 A 
ATOM     22  H   UNL A   1      41.828  28.272  28.450  1.00  0.00     0.167 HD
ATOM     23  C   UNL A   1      45.779  27.564  26.716  1.00  0.00     0.034 A 
ATOM     24  C   UNL A   1      39.791  29.720  29.797  1.00  0.00     0.034 A 
ATOM     25  C   UNL A   1      45.866  28.828  27.398  1.00  0.00     0.049 A 
ATOM     26  C   UNL A   1      41.053  30.532  29.880  1.00  0.00     0.074 A 
ATOM     27  C   UNL A   1      46.933  29.699  27.488  1.00  0.00     0.029 A 
ATOM     28  N   UNL A   1      44.805  29.423  28.076  1.00  0.00    -0.354 N 
ATOM     29  N   UNL A   1      42.232  30.248  29.374  1.00  0.00    -0.248 NA
ATOM     30  C   UNL A   1      40.989  31.812  30.591  1.00  0.00     0.031 C 
ATOM     31  C   UNL A   1      46.534  30.788  28.275  1.00  0.00     0.029 A 
ATOM     32  C   UNL A   1      45.194  30.638  28.603  1.00  0.00     0.049 A 
ATOM     33  H   UNL A   1      43.905  29.032  28.165  1.00  0.00     0.167 HD
ATOM     34  C   UNL A   1      43.040  31.340  29.659  1.00  0.00     0.074 A 
ATOM     35  C   UNL A   1      42.213  32.282  30.393  1.00  0.00     0.031 C 
ATOM     36  C   UNL A   1      44.339  31.552  29.327  1.00  0.00     0.034 A 
BRANCH  23  37
ATOM     37  C   UNL A   1      46.968  26.969  26.004  1.00  0.00     0.023 A 
ATOM     38  C   UNL A   1      47.943  26.196  26.658  1.00  0.00     0.031 A 
ATOM     39  C   UNL A   1      47.216  27.345  24.670  1.00  0.00     0.131 A 
ATOM     40  C   UNL A   1      49.172  25.949  26.028  1.00  0.00     0.055 A 
ATOM     41  C   UNL A   1      48.392  26.992  24.010  1.00  0.00     0.041 A 
ATOM     42  F   UNL A   1      46.342  28.114  24.004  1.00  0.00    -0.206 F 
ATOM     43  C   UNL A   1      49.393  26.314  24.698  1.00  0.00     0.022 A 
BRANCH  40  44
ATOM     44  S   UNL A   1      50.557  25.357  27.044  1.00  0.00     0.124 S 
ATOM     45  O   UNL A   1      50.919  26.569  27.777  1.00  0.00    -0.237 OA
ATOM     46  O   UNL A   1      49.940  24.297  27.833  1.00  0.00    -0.237 OA
ATOM     47  O   UNL A   1      51.541  24.913  26.059  1.00  0.00    -0.744 OA
ENDBRANCH  40  44
ENDBRANCH  23  37
BRANCH  24  48
ATOM     48  C   UNL A   1      38.524  30.157  30.477  1.00  0.00     0.023 A 
ATOM     49  C   UNL A   1      37.552  30.944  29.837  1.00  0.00     0.031 A 
ATOM     50  C   UNL A   1      38.292  29.821  31.829  1.00  0.00     0.131 A 
ATOM     51  C   UNL A   1      36.418  31.390  30.549  1.00  0.00     0.055 A 
ATOM     52  C   UNL A   1      37.148  30.234  32.519  1.00  0.00     0.041 A 
ATOM     53  F   UNL A   1      39.180  29.073  32.505  1.00  0.00    -0.206 F 
ATOM     54  C   UNL A   1      36.207  31.031  31.882  1.00  0.00     0.022 A 
BRANCH  51  55
ATOM     55  S   UNL A   1      35.243  32.507  29.728  1.00  0.00     0.124 S 
ATOM     56  O   UNL A   1      36.116  33.588  29.287  1.00  0.00    -0.237 OA
ATOM     57  O   UNL A   1      34.698  31.652  28.679  1.00  0.00    -0.237 OA
ATOM     58  O   UNL A   1      34.305  32.859  30.793  1.00  0.00    -0.744 OA
ENDBRANCH  51  55
ENDBRANCH  24  48
BRANCH  36  59
ATOM     59  C   UNL A   1      44.920  32.887  29.697  1.00  0.00     0.023 A 
ATOM     60  C   UNL A   1      44.836  33.991  28.836  1.00  0.00     0.031 A 
ATOM     61  C   UNL A   1      45.550  33.050  30.943  1.00  0.00     0.131 A 
ATOM     62  C   UNL A   1      45.422  35.205  29.214  1.00  0.00     0.055 A 
ATOM     63  C   UNL A   1      46.069  34.280  31.342  1.00  0.00     0.041 A 
ATOM     64  F   UNL A   1      45.659  32.018  31.795  1.00  0.00    -0.206 F 
ATOM     65  C   UNL A   1      46.016  35.363  30.470  1.00  0.00     0.022 A 
BRANCH  62  66
ATOM     66  S   UNL A   1      45.478  36.548  28.000  1.00  0.00     0.124 S 
ATOM     67  O   UNL A   1      45.377  35.818  26.741  1.00  0.00    -0.237 OA
ATOM     68  O   UNL A   1      44.316  37.349  28.367  1.00  0.00    -0.237 OA
ATOM     69  O   UNL A   1      46.772  37.180  28.250  1.00  0.00    -0.744 OA
ENDBRANCH  62  66
ENDBRANCH  36  59
ENDBRANCH  10  11
ENDBRANCH   3   5
ENDBRANCH   2   3
ENDBRANCH   1   2
BRANCH   1  70
ATOM     70  C   UNL A   1      38.191  19.628  24.647  1.00  0.00     0.275 C 
BRANCH  70  71
ATOM     71  O   UNL A   1      37.331  21.446  24.297  1.00  0.00    -0.457 OA
BRANCH  71  72
ATOM     72  C   UNL A   1      36.183  22.350  24.023  1.00  0.00     0.359 C 
ATOM     73  O   UNL A   1      36.256  23.138  23.076  1.00  0.00    -0.244 OA
BRANCH  72  74
ATOM     74  C   UNL A   1      34.888  22.441  24.839  1.00  0.00     0.179 A 
ATOM     75  N   UNL A   1      35.194  22.808  26.135  1.00  0.00    -0.245 NA
ATOM     76  C   UNL A   1      33.534  22.432  24.432  1.00  0.00     0.161 A 
ATOM     77  C   UNL A   1      34.175  23.104  26.988  1.00  0.00     0.132 A 
ATOM     78  N   UNL A   1      32.537  22.658  25.371  1.00  0.00    -0.247 NA
ATOM     79  C   UNL A   1      32.862  22.980  26.629  1.00  0.00     0.132 A 
BRANCH  76  80
ATOM     80  C   UNL A   1      32.794  22.126  23.128  1.00  0.00     0.278 C 
ATOM     81  O   UNL A   1      32.529  20.945  22.859  1.00  0.00    -0.267 OA
ATOM     82  N   UNL A   1      32.410  23.002  22.155  1.00  0.00    -0.303 N 
ATOM     83  H   UNL A   1      32.116  22.604  21.303  1.00  0.00     0.172 HD
BRANCH  82  84
ATOM     84  C   UNL A   1      32.386  24.348  22.221  1.00  0.00     0.164 A 
ATOM     85  N   UNL A   1      33.192  24.994  21.363  1.00  0.00    -0.155 NA
ATOM     86  C   UNL A   1      31.487  25.159  22.935  1.00  0.00     0.063 A 
ATOM     87  N   UNL A   1      32.620  26.184  21.061  1.00  0.00    -0.259 N 
ATOM     88  C   UNL A   1      31.649  26.569  21.918  1.00  0.00     0.157 A 
ATOM     89  C   UNL A   1      30.115  25.198  24.187  1.00  0.00     0.017 A 
ATOM     90  H   UNL A   1      32.890  26.723  20.283  1.00  0.00     0.192 HD
ATOM     91  N   UNL A   1      30.628  27.915  21.979  1.00  0.00    -0.237 NA
ATOM     92  C   UNL A   1      29.017  26.580  24.251  1.00  0.00     0.021 A 
ATOM     93  C   UNL A   1      29.340  27.858  23.139  1.00  0.00     0.113 A 
ENDBRANCH  82  84
ENDBRANCH  76  80
ENDBRANCH  72  74
ENDBRANCH  71  72
ENDBRANCH  70  71
ENDBRANCH   1  70
TORSDOF 16
ENDMDL
MODEL 2
REMARK VINA RESULT:     -13.6      2.752      8.805
REMARK SMILES O=C(OCCOC(=O)c1nccnc1C(=O)Nc1n[nH]c2ncccc12)c1ccc(-c2c3nc(c(-c4cc(S(=O)(=O)[O-])ccc4F)c4ccc([nH]4)c(-c4cc(S(=O)(=O)[O-])ccc4F)c4nc(c(-c5cc(S(=O)(=O)[O-])ccc5F)c5ccc2[nH]5)C=C4)C=C3)cc1
REMARK SMILES IDX 4 1 3 2 2 3 1 4 27 5 28 6 89 7 29 8 88 9 30 10 31 11 32 12
REMARK SMILES IDX 82 13 33 14 87 15 81 16 83 17 34 18 86 19 80 20 79 21 35 23
REMARK SMILES IDX 67 24 47 25 66 26 48 27 51 28 65 29 84 30 49 31 50 32 64 34
REMARK SMILES IDX 85 35 52 36 36 37 37 38 45 39 38 40 44 41 46 42 43 43 39 44
REMARK SMILES IDX 40 45 41 46 42 47 68 48 69 49 77 50 70 51 76 52 78 53 75 54
REMARK SMILES IDX 71 55 72 56 73 57 74 58 53 59 54 60 62 61 55 62 61 63 63 64
REMARK SMILES IDX 60 65 56 66 57 67 58 68 59 69 5 70 6 71 7 72 8 73 9 74 10 75
REMARK SMILES IDX 14 76 11 77 13 78 12 79 15 80 16 81 17 82 18 84 19 85 26 86
REMARK SMILES IDX 20 87 21 88 25 89 22 91 24 92 23 93
REMARK H PARENT 83 22 51 33 17 83 20 90
REMARK Flexibility Score: inf
ROOT
ATOM      1  C   UNL A   1      32.738  29.861  27.216  1.00  0.00     0.275 C 
ENDROOT
BRANCH   1   2
ATOM      2  O   UNL A   1      34.118  30.416  27.619  1.00  0.00    -0.458 OA
BRANCH   2   3
ATOM      3  C   UNL A   1      34.616  31.340  28.533  1.00  0.00     0.338 C 
ATOM      4  O   UNL A   1      34.247  32.508  28.539  1.00  0.00    -0.246 OA
BRANCH   3   5
ATOM      5  C   UNL A   1      35.929  31.002  29.226  1.00  0.00     0.060 A 
ATOM      6  C   UNL A   1      36.997  31.826  29.017  1.00  0.00     0.016 A 
ATOM      7  C   UNL A   1      36.209  30.000  30.136  1.00  0.00     0.016 A 
ATOM      8  C   UNL A   1      38.316  31.363  29.025  1.00  0.00     0.010 A 
ATOM      9  C   UNL A   1      37.572  29.632  30.370  1.00  0.00     0.010 A 
ATOM     10  C   UNL A   1      38.622  30.155  29.575  1.00  0.00    -0.014 A 
BRANCH  10  11
ATOM     11  C   UNL A   1      39.865  29.369  29.195  1.00  0.00     0.031 A 
ATOM     12  C   UNL A   1      41.154  30.120  29.369  1.00  0.00     0.074 A 
ATOM     13  C   UNL A   1      40.065  28.042  28.972  1.00  0.00     0.049 A 
ATOM     14  N   UNL A   1      42.258  30.083  28.685  1.00  0.00    -0.248 NA
ATOM     15  C   UNL A   1      41.158  31.084  30.482  1.00  0.00     0.031 C 
ATOM     16  C   UNL A   1      39.186  26.928  29.308  1.00  0.00     0.029 A 
ATOM     17  N   UNL A   1      41.130  27.388  28.372  1.00  0.00    -0.354 N 
ATOM     18  C   UNL A   1      43.014  31.142  29.174  1.00  0.00     0.074 A 
ATOM     19  C   UNL A   1      42.232  31.796  30.197  1.00  0.00     0.031 C 
ATOM     20  C   UNL A   1      39.644  25.781  28.780  1.00  0.00     0.029 A 
ATOM     21  C   UNL A   1      40.864  26.065  28.056  1.00  0.00     0.049 A 
ATOM     22  H   UNL A   1      41.994  27.823  28.187  1.00  0.00     0.167 HD
ATOM     23  C   UNL A   1      44.245  31.526  28.769  1.00  0.00     0.034 A 
ATOM     24  C   UNL A   1      41.500  25.190  27.247  1.00  0.00     0.034 A 
ATOM     25  C   UNL A   1      45.020  30.731  27.853  1.00  0.00     0.049 A 
ATOM     26  C   UNL A   1      42.789  25.656  26.631  1.00  0.00     0.074 A 
ATOM     27  C   UNL A   1      46.244  31.007  27.277  1.00  0.00     0.029 A 
ATOM     28  N   UNL A   1      44.650  29.461  27.419  1.00  0.00    -0.354 N 
ATOM     29  N   UNL A   1      43.403  26.804  26.809  1.00  0.00    -0.248 NA
ATOM     30  C   UNL A   1      43.482  24.729  25.730  1.00  0.00     0.031 C 
ATOM     31  C   UNL A   1      46.579  29.932  26.444  1.00  0.00     0.029 A 
ATOM     32  C   UNL A   1      45.608  28.947  26.567  1.00  0.00     0.049 A 
ATOM     33  H   UNL A   1      43.823  28.995  27.682  1.00  0.00     0.167 HD
ATOM     34  C   UNL A   1      44.583  26.720  26.083  1.00  0.00     0.074 A 
ATOM     35  C   UNL A   1      44.587  25.410  25.456  1.00  0.00     0.031 C 
ATOM     36  C   UNL A   1      45.579  27.634  25.963  1.00  0.00     0.034 A 
BRANCH  23  37
ATOM     37  C   UNL A   1      44.698  32.899  29.198  1.00  0.00     0.023 A 
ATOM     38  C   UNL A   1      44.453  34.057  28.440  1.00  0.00     0.031 A 
ATOM     39  C   UNL A   1      45.556  33.013  30.309  1.00  0.00     0.131 A 
ATOM     40  C   UNL A   1      45.165  35.234  28.717  1.00  0.00     0.055 A 
ATOM     41  C   UNL A   1      46.168  34.218  30.649  1.00  0.00     0.041 A 
ATOM     42  F   UNL A   1      45.860  31.937  31.050  1.00  0.00    -0.206 F 
ATOM     43  C   UNL A   1      45.998  35.333  29.834  1.00  0.00     0.022 A 
BRANCH  40  44
ATOM     44  S   UNL A   1      45.171  36.551  27.467  1.00  0.00     0.124 S 
ATOM     45  O   UNL A   1      45.846  37.631  28.185  1.00  0.00    -0.237 OA
ATOM     46  O   UNL A   1      45.925  35.947  26.375  1.00  0.00    -0.237 OA
ATOM     47  O   UNL A   1      43.753  36.779  27.200  1.00  0.00    -0.744 OA
ENDBRANCH  40  44
ENDBRANCH  23  37
BRANCH  24  48
ATOM     48  C   UNL A   1      40.894  23.858  26.902  1.00  0.00     0.023 A 
ATOM     49  C   UNL A   1      41.625  22.658  26.947  1.00  0.00     0.031 A 
ATOM     50  C   UNL A   1      39.554  23.780  26.464  1.00  0.00     0.131 A 
ATOM     51  C   UNL A   1      41.027  21.448  26.538  1.00  0.00     0.055 A 
ATOM     52  C   UNL A   1      38.955  22.571  26.096  1.00  0.00     0.041 A 
ATOM     53  F   UNL A   1      38.797  24.888  26.395  1.00  0.00    -0.206 F 
ATOM     54  C   UNL A   1      39.695  21.397  26.123  1.00  0.00     0.022 A 
BRANCH  51  55
ATOM     55  S   UNL A   1      42.035  19.937  26.491  1.00  0.00     0.124 S 
ATOM     56  O   UNL A   1      42.210  19.650  27.910  1.00  0.00    -0.237 OA
ATOM     57  O   UNL A   1      41.171  19.022  25.751  1.00  0.00    -0.237 OA
ATOM     58  O   UNL A   1      43.246  20.355  25.785  1.00  0.00    -0.744 OA
ENDBRANCH  51  55
ENDBRANCH  24  48
BRANCH  36  59
ATOM     59  C   UNL A   1      46.789  27.213  25.178  1.00  0.00     0.023 A 
ATOM     60  C   UNL A   1      47.023  27.680  23.877  1.00  0.00     0.031 A 
ATOM     61  C   UNL A   1      47.727  26.343  25.760  1.00  0.00     0.131 A 
ATOM     62  C   UNL A   1      48.148  27.232  23.176  1.00  0.00     0.055 A 
ATOM     63  C   UNL A   1      48.881  25.957  25.083  1.00  0.00     0.041 A 
ATOM     64  F   UNL A   1      47.540  25.866  27.002  1.00  0.00    -0.206 F 
ATOM     65  C   UNL A   1      49.091  26.393  23.778  1.00  0.00     0.022 A 
BRANCH  62  66
ATOM     66  S   UNL A   1      48.314  27.689  21.431  1.00  0.00     0.124 S 
ATOM     67  O   UNL A   1      46.982  28.203  21.128  1.00  0.00    -0.237 OA
ATOM     68  O   UNL A   1      49.385  28.678  21.468  1.00  0.00    -0.237 OA
ATOM     69  O   UNL A   1      48.656  26.427  20.779  1.00  0.00    -0.744 OA
ENDBRANCH  62  66
ENDBRANCH  36  59
ENDBRANCH  10  11
ENDBRANCH   3   5
ENDBRANCH   2   3
ENDBRANCH   1   2
BRANCH   1  70
ATOM     70  C   UNL A   1      31.784  30.450  25.743  1.00  0.00     0.275 C 
BRANCH  70  71
ATOM     71  O   UNL A   1      30.633  29.333  24.481  1.00  0.00    -0.457 OA
BRANCH  71  72
ATOM     72  C   UNL A   1      30.415  28.304  23.430  1.00  0.00     0.359 C 
ATOM     73  O   UNL A   1      29.303  28.214  22.902  1.00  0.00    -0.244 OA
BRANCH  72  74
ATOM     74  C   UNL A   1      31.445  27.279  22.939  1.00  0.00     0.179 A 
ATOM     75  N   UNL A   1      31.029  26.763  21.728  1.00  0.00    -0.245 NA
ATOM     76  C   UNL A   1      32.752  26.987  23.394  1.00  0.00     0.161 A 
ATOM     77  C   UNL A   1      31.877  25.953  21.036  1.00  0.00     0.132 A 
ATOM     78  N   UNL A   1      33.536  26.085  22.688  1.00  0.00    -0.247 NA
ATOM     79  C   UNL A   1      33.093  25.575  21.532  1.00  0.00     0.132 A 
BRANCH  76  80
ATOM     80  C   UNL A   1      33.583  27.368  24.621  1.00  0.00     0.278 C 
ATOM     81  O   UNL A   1      34.267  28.402  24.578  1.00  0.00    -0.267 OA
ATOM     82  N   UNL A   1      33.721  26.676  25.790  1.00  0.00    -0.303 N 
ATOM     83  H   UNL A   1      34.442  26.976  26.389  1.00  0.00     0.172 HD
BRANCH  82  84
ATOM     84  C   UNL A   1      32.988  25.631  26.219  1.00  0.00     0.164 A 
ATOM     85  N   UNL A   1      31.797  25.930  26.761  1.00  0.00    -0.155 NA
ATOM     86  C   UNL A   1      33.225  24.263  25.996  1.00  0.00     0.063 A 
ATOM     87  N   UNL A   1      30.952  24.899  26.522  1.00  0.00    -0.259 N 
ATOM     88  C   UNL A   1      31.565  23.750  26.162  1.00  0.00     0.157 A 
ATOM     89  C   UNL A   1      34.419  22.997  25.347  1.00  0.00     0.017 A 
ATOM     90  H   UNL A   1      29.975  24.980  26.603  1.00  0.00     0.192 HD
ATOM     91  N   UNL A   1      30.990  22.218  25.735  1.00  0.00    -0.237 NA
ATOM     92  C   UNL A   1      33.838  21.399  24.867  1.00  0.00     0.021 A 
ATOM     93  C   UNL A   1      32.153  21.106  25.089  1.00  0.00     0.113 A 
ENDBRANCH  82  84
ENDBRANCH  76  80
ENDBRANCH  72  74
ENDBRANCH  71  72
ENDBRANCH  70  71
ENDBRANCH   1  70
TORSDOF 16
ENDMDL
MODEL 3
REMARK VINA RESULT:     -13.5      2.236      2.998
REMARK SMILES O=C(OCCOC(=O)c1nccnc1C(=O)Nc1n[nH]c2ncccc12)c1ccc(-c2c3nc(c(-c4cc(S(=O)(=O)[O-])ccc4F)c4ccc([nH]4)c(-c4cc(S(=O)(=O)[O-])ccc4F)c4nc(c(-c5cc(S(=O)(=O)[O-])ccc5F)c5ccc2[nH]5)C=C4)C=C3)cc1
REMARK SMILES IDX 4 1 3 2 2 3 1 4 27 5 28 6 89 7 29 8 88 9 30 10 31 11 32 12
REMARK SMILES IDX 82 13 33 14 87 15 81 16 83 17 34 18 86 19 80 20 79 21 35 23
REMARK SMILES IDX 67 24 47 25 66 26 48 27 51 28 65 29 84 30 49 31 50 32 64 34
REMARK SMILES IDX 85 35 52 36 36 37 37 38 45 39 38 40 44 41 46 42 43 43 39 44
REMARK SMILES IDX 40 45 41 46 42 47 68 48 69 49 77 50 70 51 76 52 78 53 75 54
REMARK SMILES IDX 71 55 72 56 73 57 74 58 53 59 54 60 62 61 55 62 61 63 63 64
REMARK SMILES IDX 60 65 56 66 57 67 58 68 59 69 5 70 6 71 7 72 8 73 9 74 10 75
REMARK SMILES IDX 14 76 11 77 13 78 12 79 15 80 16 81 17 82 18 84 19 85 26 86
REMARK SMILES IDX 20 87 21 88 25 89 22 91 24 92 23 93
REMARK H PARENT 83 22 51 33 17 83 20 90
REMARK Flexibility Score: inf
ROOT
ATOM      1  C   UNL A   1      37.808  21.691  25.147  1.00  0.00     0.275 C 
ENDROOT
BRANCH   1   2
ATOM      2  O   UNL A   1      39.134  21.566  25.921  1.00  0.00    -0.458 OA
BRANCH   2   3
ATOM      3  C   UNL A   1      40.296  22.316  26.077  1.00  0.00     0.338 C 
ATOM      4  O   UNL A   1      41.372  21.946  25.622  1.00  0.00    -0.246 OA
BRANCH   3   5
ATOM      5  C   UNL A   1      40.310  23.366  27.179  1.00  0.00     0.060 A 
ATOM      6  C   UNL A   1      39.140  24.006  27.472  1.00  0.00     0.016 A 
ATOM      7  C   UNL A   1      41.338  23.739  28.025  1.00  0.00     0.016 A 
ATOM      8  C   UNL A   1      39.099  25.325  27.934  1.00  0.00     0.010 A 
ATOM      9  C   UNL A   1      41.250  24.987  28.721  1.00  0.00     0.010 A 
ATOM     10  C   UNL A   1      40.218  25.916  28.438  1.00  0.00    -0.014 A 
BRANCH  10  11
ATOM     11  C   UNL A   1      40.404  27.423  28.483  1.00  0.00     0.031 A 
ATOM     12  C   UNL A   1      41.758  27.896  28.038  1.00  0.00     0.074 A 
ATOM     13  C   UNL A   1      39.512  28.443  28.603  1.00  0.00     0.049 A 
ATOM     14  N   UNL A   1      42.483  28.897  28.439  1.00  0.00    -0.248 NA
ATOM     15  C   UNL A   1      42.384  27.070  26.992  1.00  0.00     0.031 C 
ATOM     16  C   UNL A   1      38.063  28.398  28.443  1.00  0.00     0.029 A 
ATOM     17  N   UNL A   1      39.719  29.779  28.909  1.00  0.00    -0.354 N 
ATOM     18  C   UNL A   1      43.715  28.711  27.825  1.00  0.00     0.074 A 
ATOM     19  C   UNL A   1      43.630  27.501  27.041  1.00  0.00     0.031 C 
ATOM     20  C   UNL A   1      37.506  29.565  28.805  1.00  0.00     0.029 A 
ATOM     21  C   UNL A   1      38.557  30.463  29.230  1.00  0.00     0.049 A 
ATOM     22  H   UNL A   1      40.609  30.202  28.901  1.00  0.00     0.167 HD
ATOM     23  C   UNL A   1      44.815  29.489  27.941  1.00  0.00     0.034 A 
ATOM     24  C   UNL A   1      38.355  31.655  29.832  1.00  0.00     0.034 A 
ATOM     25  C   UNL A   1      44.772  30.759  28.616  1.00  0.00     0.049 A 
ATOM     26  C   UNL A   1      39.579  32.470  30.143  1.00  0.00     0.074 A 
ATOM     27  C   UNL A   1      45.803  31.634  28.896  1.00  0.00     0.029 A 
ATOM     28  N   UNL A   1      43.602  31.356  29.079  1.00  0.00    -0.354 N 
ATOM     29  N   UNL A   1      40.832  32.186  29.867  1.00  0.00    -0.248 NA
ATOM     30  C   UNL A   1      39.382  33.757  30.818  1.00  0.00     0.031 C 
ATOM     31  C   UNL A   1      45.263  32.727  29.586  1.00  0.00     0.029 A 
ATOM     32  C   UNL A   1      43.885  32.577  29.659  1.00  0.00     0.049 A 
ATOM     33  H   UNL A   1      42.702  30.964  29.002  1.00  0.00     0.167 HD
ATOM     34  C   UNL A   1      41.571  33.283  30.289  1.00  0.00     0.074 A 
ATOM     35  C   UNL A   1      40.621  34.228  30.848  1.00  0.00     0.031 C 
ATOM     36  C   UNL A   1      42.909  33.494  30.204  1.00  0.00     0.034 A 
BRANCH  23  37
ATOM     37  C   UNL A   1      46.116  28.892  27.467  1.00  0.00     0.023 A 
ATOM     38  C   UNL A   1      46.487  28.845  26.112  1.00  0.00     0.031 A 
ATOM     39  C   UNL A   1      46.915  28.191  28.390  1.00  0.00     0.131 A 
ATOM     40  C   UNL A   1      47.534  28.003  25.706  1.00  0.00     0.055 A 
ATOM     41  C   UNL A   1      48.028  27.451  27.991  1.00  0.00     0.041 A 
ATOM     42  F   UNL A   1      46.593  28.165  29.692  1.00  0.00    -0.206 F 
ATOM     43  C   UNL A   1      48.327  27.330  26.638  1.00  0.00     0.022 A 
BRANCH  40  44
ATOM     44  S   UNL A   1      47.693  27.616  23.939  1.00  0.00     0.124 S 
ATOM     45  O   UNL A   1      49.119  27.845  23.717  1.00  0.00    -0.237 OA
ATOM     46  O   UNL A   1      47.255  26.226  23.879  1.00  0.00    -0.237 OA
ATOM     47  O   UNL A   1      46.805  28.581  23.295  1.00  0.00    -0.744 OA
ENDBRANCH  40  44
ENDBRANCH  23  37
BRANCH  24  48
ATOM     48  C   UNL A   1      36.983  32.094  30.261  1.00  0.00     0.023 A 
ATOM     49  C   UNL A   1      36.107  32.786  29.406  1.00  0.00     0.031 A 
ATOM     50  C   UNL A   1      36.544  31.862  31.582  1.00  0.00     0.131 A 
ATOM     51  C   UNL A   1      34.861  33.241  29.887  1.00  0.00     0.055 A 
ATOM     52  C   UNL A   1      35.292  32.283  32.042  1.00  0.00     0.041 A 
ATOM     53  F   UNL A   1      37.331  31.209  32.455  1.00  0.00    -0.206 F 
ATOM     54  C   UNL A   1      34.446  32.985  31.195  1.00  0.00     0.022 A 
BRANCH  51  55
ATOM     55  S   UNL A   1      33.805  34.238  28.794  1.00  0.00     0.124 S 
ATOM     56  O   UNL A   1      34.739  35.250  28.316  1.00  0.00    -0.237 OA
ATOM     57  O   UNL A   1      33.370  33.249  27.812  1.00  0.00    -0.237 OA
ATOM     58  O   UNL A   1      32.756  34.730  29.687  1.00  0.00    -0.744 OA
ENDBRANCH  51  55
ENDBRANCH  24  48
BRANCH  36  59
ATOM     59  C   UNL A   1      43.410  34.834  30.664  1.00  0.00     0.023 A 
ATOM     60  C   UNL A   1      43.470  35.936  29.798  1.00  0.00     0.031 A 
ATOM     61  C   UNL A   1      43.814  35.004  31.999  1.00  0.00     0.131 A 
ATOM     62  C   UNL A   1      43.975  37.154  30.268  1.00  0.00     0.055 A 
ATOM     63  C   UNL A   1      44.249  36.237  32.478  1.00  0.00     0.041 A 
ATOM     64  F   UNL A   1      43.780  33.974  32.861  1.00  0.00    -0.206 F 
ATOM     65  C   UNL A   1      44.342  37.319  31.607  1.00  0.00     0.022 A 
BRANCH  62  66
ATOM     66  S   UNL A   1      44.231  38.495  29.078  1.00  0.00     0.124 S 
ATOM     67  O   UNL A   1      45.532  39.015  29.488  1.00  0.00    -0.237 OA
ATOM     68  O   UNL A   1      44.201  37.791  27.801  1.00  0.00    -0.237 OA
ATOM     69  O   UNL A   1      43.101  39.388  29.322  1.00  0.00    -0.744 OA
ENDBRANCH  62  66
ENDBRANCH  36  59
ENDBRANCH  10  11
ENDBRANCH   3   5
ENDBRANCH   2   3
ENDBRANCH   1   2
BRANCH   1  70
ATOM     70  C   UNL A   1      36.560  20.329  25.020  1.00  0.00     0.275 C 
BRANCH  70  71
ATOM     71  O   UNL A   1      34.559  20.507  24.660  1.00  0.00    -0.457 OA
BRANCH  71  72
ATOM     72  C   UNL A   1      33.138  20.675  25.066  1.00  0.00     0.359 C 
ATOM     73  O   UNL A   1      32.391  19.693  25.043  1.00  0.00    -0.244 OA
BRANCH  72  74
ATOM     74  C   UNL A   1      32.465  21.987  25.486  1.00  0.00     0.179 A 
ATOM     75  N   UNL A   1      31.127  21.751  25.733  1.00  0.00    -0.245 NA
ATOM     76  C   UNL A   1      33.018  23.237  25.848  1.00  0.00     0.161 A 
ATOM     77  C   UNL A   1      30.377  22.749  26.276  1.00  0.00     0.132 A 
ATOM     78  N   UNL A   1      32.183  24.244  26.315  1.00  0.00    -0.247 NA
ATOM     79  C   UNL A   1      30.883  23.996  26.515  1.00  0.00     0.132 A 
BRANCH  76  80
ATOM     80  C   UNL A   1      34.408  23.871  25.775  1.00  0.00     0.278 C 
ATOM     81  O   UNL A   1      35.267  23.516  26.597  1.00  0.00    -0.267 OA
ATOM     82  N   UNL A   1      34.843  24.847  24.926  1.00  0.00    -0.303 N 
ATOM     83  H   UNL A   1      35.707  25.263  25.148  1.00  0.00     0.172 HD
BRANCH  82  84
ATOM     84  C   UNL A   1      34.228  25.310  23.820  1.00  0.00     0.164 A 
ATOM     85  N   UNL A   1      34.139  24.451  22.793  1.00  0.00    -0.155 NA
ATOM     86  C   UNL A   1      33.502  26.505  23.675  1.00  0.00     0.063 A 
ATOM     87  N   UNL A   1      33.014  24.738  22.096  1.00  0.00    -0.259 N 
ATOM     88  C   UNL A   1      32.497  25.960  22.354  1.00  0.00     0.157 A 
ATOM     89  C   UNL A   1      33.026  28.118  24.461  1.00  0.00     0.017 A 
ATOM     90  H   UNL A   1      32.607  24.111  21.457  1.00  0.00     0.192 HD
ATOM     91  N   UNL A   1      31.127  26.777  21.794  1.00  0.00    -0.237 NA
ATOM     92  C   UNL A   1      31.582  28.977  23.914  1.00  0.00     0.021 A 
ATOM     93  C   UNL A   1      30.717  28.252  22.610  1.00  0.00     0.113 A 
ENDBRANCH  82  84
ENDBRANCH  76  80
ENDBRANCH  72  74
ENDBRANCH  71  72
ENDBRANCH  70  71
ENDBRANCH   1  70
TORSDOF 16
ENDMDL
