MODEL 1
REMARK VINA RESULT:     -11.6      0.000      0.000
REMARK SMILES O=C(OCCOC(=O)[C@@H]1CC[C@]2(CC[NH2+]C2)C1)c1ccc(-c2c3nc(c(-c4cc(S(=O)(=O)[O-])ccc4F)c4ccc([nH]4)c(-c4cc(S(=O)(=O)[O-])ccc4F)c4nc(c(-c5cc(S(=O)(=O)[O-])ccc5F)c5ccc2[nH]5)C=C4)C=C3)cc1
REMARK SMILES IDX 3 1 2 2 1 3 18 4 19 5 80 6 20 7 79 8 21 9 22 10 23 11 73 12
REMARK SMILES IDX 24 13 78 14 72 15 74 16 25 17 77 18 71 19 70 20 26 22 58 23
REMARK SMILES IDX 38 24 57 25 39 26 42 27 56 28 75 29 40 30 41 31 55 33 76 34
REMARK SMILES IDX 43 35 27 36 28 37 36 38 29 39 35 40 37 41 34 42 30 43 31 44
REMARK SMILES IDX 32 45 33 46 59 47 60 48 68 49 61 50 67 51 69 52 66 53 62 54
REMARK SMILES IDX 63 55 64 56 65 57 44 58 45 59 53 60 46 61 52 62 54 63 51 64
REMARK SMILES IDX 47 65 48 66 49 67 50 68 4 69 5 70 6 71 7 72 8 73 9 74 10 75
REMARK SMILES IDX 17 76 11 77 12 78 13 79 16 80 14 81 15 82
REMARK H PARENT 74 21 42 32 15 83 15 84
REMARK Flexibility Score: inf
ROOT
ATOM      1  O   UNL A   1      36.744  21.561  24.393  1.00  0.00    -0.458 OA
ENDROOT
BRANCH   1   2
ATOM      2  C   UNL A   1      37.842  21.206  25.102  1.00  0.00     0.338 C 
ATOM      3  O   UNL A   1      38.246  20.049  24.984  1.00  0.00    -0.246 OA
BRANCH   2   4
ATOM      4  C   UNL A   1      38.530  22.092  26.114  1.00  0.00     0.060 A 
ATOM      5  C   UNL A   1      39.681  21.778  26.858  1.00  0.00     0.016 A 
ATOM      6  C   UNL A   1      38.119  23.437  26.104  1.00  0.00     0.016 A 
ATOM      7  C   UNL A   1      40.545  22.763  27.326  1.00  0.00     0.010 A 
ATOM      8  C   UNL A   1      39.025  24.427  26.492  1.00  0.00     0.010 A 
ATOM      9  C   UNL A   1      40.328  24.061  26.922  1.00  0.00    -0.014 A 
BRANCH   9  10
ATOM     10  C   UNL A   1      41.394  25.076  27.053  1.00  0.00     0.031 A 
ATOM     11  C   UNL A   1      40.735  26.327  27.776  1.00  0.00     0.074 A 
ATOM     12  C   UNL A   1      42.727  25.025  26.587  1.00  0.00     0.049 A 
ATOM     13  N   UNL A   1      41.199  27.487  28.178  1.00  0.00    -0.248 NA
ATOM     14  C   UNL A   1      39.302  26.144  28.162  1.00  0.00     0.031 C 
ATOM     15  C   UNL A   1      44.485  24.055  25.850  1.00  0.00     0.029 A 
ATOM     16  N   UNL A   1      43.251  26.776  26.208  1.00  0.00    -0.354 N 
ATOM     17  C   UNL A   1      40.135  28.118  28.861  1.00  0.00     0.074 A 
ATOM     18  C   UNL A   1      38.988  27.264  28.770  1.00  0.00     0.031 C 
ATOM     19  C   UNL A   1      45.526  25.125  25.295  1.00  0.00     0.029 A 
ATOM     20  C   UNL A   1      44.871  26.836  25.526  1.00  0.00     0.049 A 
ATOM     21  H   UNL A   1      42.690  27.569  26.371  1.00  0.00     0.167 HD
ATOM     22  C   UNL A   1      40.072  29.285  29.548  1.00  0.00     0.034 A 
ATOM     23  C   UNL A   1      45.832  27.788  25.568  1.00  0.00     0.034 A 
ATOM     24  C   UNL A   1      41.153  30.219  29.608  1.00  0.00     0.049 A 
ATOM     25  C   UNL A   1      45.676  29.009  26.412  1.00  0.00     0.074 A 
ATOM     26  C   UNL A   1      41.195  31.426  30.279  1.00  0.00     0.029 A 
ATOM     27  N   UNL A   1      42.349  30.080  28.927  1.00  0.00    -0.354 N 
ATOM     28  N   UNL A   1      44.678  29.383  27.178  1.00  0.00    -0.248 NA
ATOM     29  C   UNL A   1      46.845  29.898  26.456  1.00  0.00     0.031 C 
ATOM     30  C   UNL A   1      42.367  32.077  29.904  1.00  0.00     0.029 A 
ATOM     31  C   UNL A   1      43.110  31.218  29.109  1.00  0.00     0.049 A 
ATOM     32  H   UNL A   1      42.616  29.296  28.396  1.00  0.00     0.167 HD
ATOM     33  C   UNL A   1      45.101  30.566  27.779  1.00  0.00     0.074 A 
ATOM     34  C   UNL A   1      46.465  30.792  27.351  1.00  0.00     0.031 C 
ATOM     35  C   UNL A   1      44.433  31.418  28.593  1.00  0.00     0.034 A 
BRANCH  22  36
ATOM     36  C   UNL A   1      38.762  29.660  30.228  1.00  0.00     0.023 A 
ATOM     37  C   UNL A   1      37.762  30.407  29.574  1.00  0.00     0.031 A 
ATOM     38  C   UNL A   1      38.524  29.285  31.563  1.00  0.00     0.131 A 
ATOM     39  C   UNL A   1      36.617  30.816  30.277  1.00  0.00     0.055 A 
ATOM     40  C   UNL A   1      37.337  29.608  32.224  1.00  0.00     0.041 A 
ATOM     41  F   UNL A   1      39.452  28.608  32.256  1.00  0.00    -0.206 F 
ATOM     42  C   UNL A   1      36.380  30.390  31.586  1.00  0.00     0.022 A 
BRANCH  39  43
ATOM     43  S   UNL A   1      35.533  32.065  29.528  1.00  0.00     0.124 S 
ATOM     44  O   UNL A   1      34.903  31.301  28.453  1.00  0.00    -0.237 OA
ATOM     45  O   UNL A   1      34.663  32.439  30.637  1.00  0.00    -0.237 OA
ATOM     46  O   UNL A   1      36.460  33.103  29.082  1.00  0.00    -0.744 OA
ENDBRANCH  39  43
ENDBRANCH  22  36
BRANCH  23  47
ATOM     47  C   UNL A   1      47.130  27.432  24.910  1.00  0.00     0.023 A 
ATOM     48  C   UNL A   1      47.440  27.789  23.585  1.00  0.00     0.031 A 
ATOM     49  C   UNL A   1      48.133  26.794  25.668  1.00  0.00     0.131 A 
ATOM     50  C   UNL A   1      48.688  27.442  23.041  1.00  0.00     0.055 A 
ATOM     51  C   UNL A   1      49.407  26.551  25.155  1.00  0.00     0.041 A 
ATOM     52  F   UNL A   1      47.908  26.468  26.951  1.00  0.00    -0.206 F 
ATOM     53  C   UNL A   1      49.683  26.857  23.828  1.00  0.00     0.022 A 
BRANCH  50  54
ATOM     54  S   UNL A   1      48.944  27.601  21.250  1.00  0.00     0.124 S 
ATOM     55  O   UNL A   1      47.585  27.457  20.740  1.00  0.00    -0.237 OA
ATOM     56  O   UNL A   1      49.539  28.928  21.136  1.00  0.00    -0.237 OA
ATOM     57  O   UNL A   1      49.843  26.489  20.941  1.00  0.00    -0.744 OA
ENDBRANCH  50  54
ENDBRANCH  23  47
BRANCH  35  58
ATOM     58  C   UNL A   1      45.137  32.688  28.976  1.00  0.00     0.023 A 
ATOM     59  C   UNL A   1      45.056  33.823  28.153  1.00  0.00     0.031 A 
ATOM     60  C   UNL A   1      45.865  32.777  30.173  1.00  0.00     0.131 A 
ATOM     61  C   UNL A   1      45.755  34.980  28.503  1.00  0.00     0.055 A 
ATOM     62  C   UNL A   1      46.475  33.967  30.564  1.00  0.00     0.041 A 
ATOM     63  F   UNL A   1      45.975  31.716  30.990  1.00  0.00    -0.206 F 
ATOM     64  C   UNL A   1      46.436  35.072  29.718  1.00  0.00     0.022 A 
BRANCH  61  65
ATOM     65  S   UNL A   1      45.874  36.307  27.278  1.00  0.00     0.124 S 
ATOM     66  O   UNL A   1      44.572  36.952  27.406  1.00  0.00    -0.237 OA
ATOM     67  O   UNL A   1      47.018  37.077  27.757  1.00  0.00    -0.237 OA
ATOM     68  O   UNL A   1      46.091  35.590  26.022  1.00  0.00    -0.744 OA
ENDBRANCH  61  65
ENDBRANCH  35  58
ENDBRANCH   9  10
ENDBRANCH   2   4
ENDBRANCH   1   2
BRANCH   1  69
ATOM     69  C   UNL A   1      35.372  21.284  24.701  1.00  0.00     0.275 C 
BRANCH  69  70
ATOM     70  C   UNL A   1      34.382  22.304  24.100  1.00  0.00     0.274 C 
BRANCH  70  71
ATOM     71  O   UNL A   1      33.230  22.564  24.943  1.00  0.00    -0.462 OA
BRANCH  71  72
ATOM     72  C   UNL A   1      33.118  23.791  25.529  1.00  0.00     0.309 C 
ATOM     73  O   UNL A   1      34.074  24.394  26.006  1.00  0.00    -0.252 OA
BRANCH  72  74
ATOM     74  C   UNL A   1      31.698  24.413  25.456  1.00  0.00     0.100 C 
ATOM     75  C   UNL A   1      30.924  24.048  24.221  1.00  0.00     0.016 C 
ATOM     76  C   UNL A   1      31.538  25.927  25.413  1.00  0.00     0.028 C 
ATOM     77  C   UNL A   1      31.328  25.125  23.208  1.00  0.00     0.014 C 
ATOM     78  C   UNL A   1      31.663  26.479  24.010  1.00  0.00     0.026 C 
ATOM     79  C   UNL A   1      33.483  27.013  23.712  1.00  0.00     0.074 C 
ATOM     80  C   UNL A   1      30.539  27.990  23.318  1.00  0.00     0.267 C 
ATOM     81  C   UNL A   1      33.665  28.649  22.783  1.00  0.00     0.261 C 
ATOM     82  N   UNL A   1      31.991  29.320  22.337  1.00  0.00    -0.346 N 
ATOM     83  H   UNL A   1      31.861  29.305  21.326  1.00  0.00     0.346 HD
ATOM     84  H   UNL A   1      31.880  30.288  22.638  1.00  0.00     0.346 HD
ENDBRANCH  72  74
ENDBRANCH  71  72
ENDBRANCH  70  71
ENDBRANCH  69  70
ENDBRANCH   1  69
TORSDOF 14
ENDMDL
MODEL 2
REMARK VINA RESULT:     -11.6      5.567     10.676
REMARK SMILES O=C(OCCOC(=O)[C@@H]1CC[C@]2(CC[NH2+]C2)C1)c1ccc(-c2c3nc(c(-c4cc(S(=O)(=O)[O-])ccc4F)c4ccc([nH]4)c(-c4cc(S(=O)(=O)[O-])ccc4F)c4nc(c(-c5cc(S(=O)(=O)[O-])ccc5F)c5ccc2[nH]5)C=C4)C=C3)cc1
REMARK SMILES IDX 3 1 2 2 1 3 18 4 19 5 80 6 20 7 79 8 21 9 22 10 23 11 73 12
REMARK SMILES IDX 24 13 78 14 72 15 74 16 25 17 77 18 71 19 70 20 26 22 58 23
REMARK SMILES IDX 38 24 57 25 39 26 42 27 56 28 75 29 40 30 41 31 55 33 76 34
REMARK SMILES IDX 43 35 27 36 28 37 36 38 29 39 35 40 37 41 34 42 30 43 31 44
REMARK SMILES IDX 32 45 33 46 59 47 60 48 68 49 61 50 67 51 69 52 66 53 62 54
REMARK SMILES IDX 63 55 64 56 65 57 44 58 45 59 53 60 46 61 52 62 54 63 51 64
REMARK SMILES IDX 47 65 48 66 49 67 50 68 4 69 5 70 6 71 7 72 8 73 9 74 10 75
REMARK SMILES IDX 17 76 11 77 12 78 13 79 16 80 14 81 15 82
REMARK H PARENT 74 21 42 32 15 83 15 84
REMARK Flexibility Score: inf
ROOT
ATOM      1  O   UNL A   1      31.916  28.856  26.535  1.00  0.00    -0.458 OA
ENDROOT
BRANCH   1   2
ATOM      2  C   UNL A   1      32.412  30.079  26.839  1.00  0.00     0.338 C 
ATOM      3  O   UNL A   1      31.636  31.034  26.794  1.00  0.00    -0.246 OA
BRANCH   2   4
ATOM      4  C   UNL A   1      33.870  30.368  27.111  1.00  0.00     0.060 A 
ATOM      5  C   UNL A   1      34.419  31.595  27.523  1.00  0.00     0.016 A 
ATOM      6  C   UNL A   1      34.694  29.232  27.203  1.00  0.00     0.016 A 
ATOM      7  C   UNL A   1      35.600  31.662  28.254  1.00  0.00     0.010 A 
ATOM      8  C   UNL A   1      35.833  29.283  28.011  1.00  0.00     0.010 A 
ATOM      9  C   UNL A   1      36.158  30.484  28.696  1.00  0.00    -0.014 A 
BRANCH   9  10
ATOM     10  C   UNL A   1      37.167  30.489  29.776  1.00  0.00     0.031 A 
ATOM     11  C   UNL A   1      38.282  29.440  29.352  1.00  0.00     0.074 A 
ATOM     12  C   UNL A   1      37.158  31.208  30.992  1.00  0.00     0.049 A 
ATOM     13  N   UNL A   1      39.414  29.055  29.893  1.00  0.00    -0.248 NA
ATOM     14  C   UNL A   1      38.061  28.795  28.021  1.00  0.00     0.031 C 
ATOM     15  C   UNL A   1      36.509  32.747  32.327  1.00  0.00     0.029 A 
ATOM     16  N   UNL A   1      38.084  30.185  32.249  1.00  0.00    -0.354 N 
ATOM     17  C   UNL A   1      40.011  28.173  28.965  1.00  0.00     0.074 A 
ATOM     18  C   UNL A   1      39.107  28.017  27.864  1.00  0.00     0.031 C 
ATOM     19  C   UNL A   1      37.033  32.467  33.804  1.00  0.00     0.029 A 
ATOM     20  C   UNL A   1      38.062  30.935  33.840  1.00  0.00     0.049 A 
ATOM     21  H   UNL A   1      38.531  29.331  32.047  1.00  0.00     0.167 HD
ATOM     22  C   UNL A   1      41.213  27.547  28.963  1.00  0.00     0.034 A 
ATOM     23  C   UNL A   1      38.937  30.888  34.870  1.00  0.00     0.034 A 
ATOM     24  C   UNL A   1      42.125  27.593  30.063  1.00  0.00     0.049 A 
ATOM     25  C   UNL A   1      40.263  30.218  34.731  1.00  0.00     0.074 A 
ATOM     26  C   UNL A   1      43.368  27.000  30.161  1.00  0.00     0.029 A 
ATOM     27  N   UNL A   1      41.865  28.216  31.272  1.00  0.00    -0.354 N 
ATOM     28  N   UNL A   1      40.784  29.585  33.706  1.00  0.00    -0.248 NA
ATOM     29  C   UNL A   1      41.160  30.348  35.888  1.00  0.00     0.031 C 
ATOM     30  C   UNL A   1      43.809  27.158  31.473  1.00  0.00     0.029 A 
ATOM     31  C   UNL A   1      42.902  27.960  32.146  1.00  0.00     0.049 A 
ATOM     32  H   UNL A   1      41.068  28.755  31.476  1.00  0.00     0.167 HD
ATOM     33  C   UNL A   1      42.067  29.225  34.112  1.00  0.00     0.074 A 
ATOM     34  C   UNL A   1      42.264  29.782  35.433  1.00  0.00     0.031 C 
ATOM     35  C   UNL A   1      43.005  28.480  33.478  1.00  0.00     0.034 A 
BRANCH  22  36
ATOM     36  C   UNL A   1      41.584  26.687  27.761  1.00  0.00     0.023 A 
ATOM     37  C   UNL A   1      41.269  25.315  27.693  1.00  0.00     0.031 A 
ATOM     38  C   UNL A   1      42.289  27.247  26.680  1.00  0.00     0.131 A 
ATOM     39  C   UNL A   1      41.724  24.543  26.611  1.00  0.00     0.055 A 
ATOM     40  C   UNL A   1      42.648  26.494  25.560  1.00  0.00     0.041 A 
ATOM     41  F   UNL A   1      42.655  28.538  26.700  1.00  0.00    -0.206 F 
ATOM     42  C   UNL A   1      42.379  25.131  25.526  1.00  0.00     0.022 A 
BRANCH  39  43
ATOM     43  S   UNL A   1      41.619  22.734  26.725  1.00  0.00     0.124 S 
ATOM     44  O   UNL A   1      42.166  22.326  25.433  1.00  0.00    -0.237 OA
ATOM     45  O   UNL A   1      42.447  22.439  27.889  1.00  0.00    -0.237 OA
ATOM     46  O   UNL A   1      40.190  22.481  26.895  1.00  0.00    -0.744 OA
ENDBRANCH  39  43
ENDBRANCH  22  36
BRANCH  23  47
ATOM     47  C   UNL A   1      38.591  31.734  36.058  1.00  0.00     0.023 A 
ATOM     48  C   UNL A   1      37.836  31.256  37.145  1.00  0.00     0.031 A 
ATOM     49  C   UNL A   1      39.115  33.040  36.148  1.00  0.00     0.131 A 
ATOM     50  C   UNL A   1      37.571  32.100  38.236  1.00  0.00     0.055 A 
ATOM     51  C   UNL A   1      38.938  33.832  37.282  1.00  0.00     0.041 A 
ATOM     52  F   UNL A   1      39.878  33.533  35.159  1.00  0.00    -0.206 F 
ATOM     53  C   UNL A   1      38.145  33.370  38.326  1.00  0.00     0.022 A 
BRANCH  50  54
ATOM     54  S   UNL A   1      36.326  31.595  39.459  1.00  0.00     0.124 S 
ATOM     55  O   UNL A   1      36.000  30.245  39.014  1.00  0.00    -0.237 OA
ATOM     56  O   UNL A   1      37.063  31.700  40.714  1.00  0.00    -0.237 OA
ATOM     57  O   UNL A   1      35.262  32.582  39.280  1.00  0.00    -0.744 OA
ENDBRANCH  50  54
ENDBRANCH  23  47
BRANCH  35  58
ATOM     58  C   UNL A   1      44.256  28.164  34.247  1.00  0.00     0.023 A 
ATOM     59  C   UNL A   1      44.322  27.021  35.059  1.00  0.00     0.031 A 
ATOM     60  C   UNL A   1      45.392  28.983  34.146  1.00  0.00     0.131 A 
ATOM     61  C   UNL A   1      45.478  26.767  35.802  1.00  0.00     0.055 A 
ATOM     62  C   UNL A   1      46.575  28.668  34.811  1.00  0.00     0.041 A 
ATOM     63  F   UNL A   1      45.374  30.090  33.385  1.00  0.00    -0.206 F 
ATOM     64  C   UNL A   1      46.616  27.563  35.658  1.00  0.00     0.022 A 
BRANCH  61  65
ATOM     65  S   UNL A   1      45.416  25.468  37.060  1.00  0.00     0.124 S 
ATOM     66  O   UNL A   1      46.584  25.783  37.875  1.00  0.00    -0.237 OA
ATOM     67  O   UNL A   1      44.119  25.699  37.688  1.00  0.00    -0.237 OA
ATOM     68  O   UNL A   1      45.517  24.236  36.280  1.00  0.00    -0.744 OA
ENDBRANCH  61  65
ENDBRANCH  35  58
ENDBRANCH   9  10
ENDBRANCH   2   4
ENDBRANCH   1   2
BRANCH   1  69
ATOM     69  C   UNL A   1      31.372  28.413  25.285  1.00  0.00     0.275 C 
BRANCH  69  70
ATOM     70  C   UNL A   1      30.939  26.933  25.284  1.00  0.00     0.274 C 
BRANCH  70  71
ATOM     71  O   UNL A   1      32.015  26.011  24.971  1.00  0.00    -0.462 OA
BRANCH  71  72
ATOM     72  C   UNL A   1      31.692  24.757  24.544  1.00  0.00     0.309 C 
ATOM     73  O   UNL A   1      30.805  24.084  25.058  1.00  0.00    -0.252 OA
BRANCH  72  74
ATOM     74  C   UNL A   1      32.468  24.284  23.286  1.00  0.00     0.100 C 
ATOM     75  C   UNL A   1      32.506  22.793  23.104  1.00  0.00     0.016 C 
ATOM     76  C   UNL A   1      33.953  24.591  23.155  1.00  0.00     0.028 C 
ATOM     77  C   UNL A   1      33.748  22.364  23.895  1.00  0.00     0.014 C 
ATOM     78  C   UNL A   1      34.817  23.566  23.857  1.00  0.00     0.026 C 
ATOM     79  C   UNL A   1      35.201  24.189  25.632  1.00  0.00     0.074 C 
ATOM     80  C   UNL A   1      36.567  22.914  23.125  1.00  0.00     0.267 C 
ATOM     81  C   UNL A   1      36.985  23.894  26.185  1.00  0.00     0.261 C 
ATOM     82  N   UNL A   1      37.927  23.006  24.852  1.00  0.00    -0.346 N 
ATOM     83  H   UNL A   1      38.176  22.067  25.160  1.00  0.00     0.346 HD
ATOM     84  H   UNL A   1      38.798  23.486  24.623  1.00  0.00     0.346 HD
ENDBRANCH  72  74
ENDBRANCH  71  72
ENDBRANCH  70  71
ENDBRANCH  69  70
ENDBRANCH   1  69
TORSDOF 14
ENDMDL
MODEL 3
REMARK VINA RESULT:     -11.5      6.012      9.298
REMARK SMILES O=C(OCCOC(=O)[C@@H]1CC[C@]2(CC[NH2+]C2)C1)c1ccc(-c2c3nc(c(-c4cc(S(=O)(=O)[O-])ccc4F)c4ccc([nH]4)c(-c4cc(S(=O)(=O)[O-])ccc4F)c4nc(c(-c5cc(S(=O)(=O)[O-])ccc5F)c5ccc2[nH]5)C=C4)C=C3)cc1
REMARK SMILES IDX 3 1 2 2 1 3 18 4 19 5 80 6 20 7 79 8 21 9 22 10 23 11 73 12
REMARK SMILES IDX 24 13 78 14 72 15 74 16 25 17 77 18 71 19 70 20 26 22 58 23
REMARK SMILES IDX 38 24 57 25 39 26 42 27 56 28 75 29 40 30 41 31 55 33 76 34
REMARK SMILES IDX 43 35 27 36 28 37 36 38 29 39 35 40 37 41 34 42 30 43 31 44
REMARK SMILES IDX 32 45 33 46 59 47 60 48 68 49 61 50 67 51 69 52 66 53 62 54
REMARK SMILES IDX 63 55 64 56 65 57 44 58 45 59 53 60 46 61 52 62 54 63 51 64
REMARK SMILES IDX 47 65 48 66 49 67 50 68 4 69 5 70 6 71 7 72 8 73 9 74 10 75
REMARK SMILES IDX 17 76 11 77 12 78 13 79 16 80 14 81 15 82
REMARK H PARENT 74 21 42 32 15 83 15 84
REMARK Flexibility Score: inf
ROOT
ATOM      1  O   UNL A   1      34.015  32.464  27.230  1.00  0.00    -0.458 OA
ENDROOT
BRANCH   1   2
ATOM      2  C   UNL A   1      34.379  31.225  27.642  1.00  0.00     0.338 C 
ATOM      3  O   UNL A   1      33.649  30.285  27.329  1.00  0.00    -0.246 OA
BRANCH   2   4
ATOM      4  C   UNL A   1      35.548  30.937  28.555  1.00  0.00     0.060 A 
ATOM      5  C   UNL A   1      35.529  30.147  29.718  1.00  0.00     0.016 A 
ATOM      6  C   UNL A   1      36.808  31.284  28.036  1.00  0.00     0.016 A 
ATOM      7  C   UNL A   1      36.665  29.493  30.182  1.00  0.00     0.010 A 
ATOM      8  C   UNL A   1      37.933  30.562  28.443  1.00  0.00     0.010 A 
ATOM      9  C   UNL A   1      37.793  29.516  29.393  1.00  0.00    -0.014 A 
BRANCH   9  10
ATOM     10  C   UNL A   1      38.888  28.550  29.620  1.00  0.00     0.031 A 
ATOM     11  C   UNL A   1      39.682  29.064  30.896  1.00  0.00     0.074 A 
ATOM     12  C   UNL A   1      39.245  27.420  28.850  1.00  0.00     0.049 A 
ATOM     13  N   UNL A   1      40.709  28.599  31.570  1.00  0.00    -0.248 NA
ATOM     14  C   UNL A   1      39.117  30.293  31.532  1.00  0.00     0.031 C 
ATOM     15  C   UNL A   1      38.921  25.890  27.391  1.00  0.00     0.029 A 
ATOM     16  N   UNL A   1      41.087  27.184  29.031  1.00  0.00    -0.354 N 
ATOM     17  C   UNL A   1      40.866  29.458  32.681  1.00  0.00     0.074 A 
ATOM     18  C   UNL A   1      39.893  30.503  32.570  1.00  0.00     0.031 C 
ATOM     19  C   UNL A   1      40.289  25.159  27.032  1.00  0.00     0.029 A 
ATOM     20  C   UNL A   1      41.672  25.855  28.037  1.00  0.00     0.049 A 
ATOM     21  H   UNL A   1      41.662  27.734  29.611  1.00  0.00     0.167 HD
ATOM     22  C   UNL A   1      41.706  29.409  33.744  1.00  0.00     0.034 A 
ATOM     23  C   UNL A   1      42.718  25.010  28.187  1.00  0.00     0.034 A 
ATOM     24  C   UNL A   1      42.753  28.443  33.874  1.00  0.00     0.049 A 
ATOM     25  C   UNL A   1      43.538  25.007  29.434  1.00  0.00     0.074 A 
ATOM     26  C   UNL A   1      43.654  28.303  34.911  1.00  0.00     0.029 A 
ATOM     27  N   UNL A   1      43.074  27.500  32.914  1.00  0.00    -0.354 N 
ATOM     28  N   UNL A   1      43.443  25.756  30.508  1.00  0.00    -0.248 NA
ATOM     29  C   UNL A   1      44.564  23.958  29.510  1.00  0.00     0.031 C 
ATOM     30  C   UNL A   1      44.600  27.357  34.524  1.00  0.00     0.029 A 
ATOM     31  C   UNL A   1      44.207  26.818  33.309  1.00  0.00     0.049 A 
ATOM     32  H   UNL A   1      42.574  27.340  32.082  1.00  0.00     0.167 HD
ATOM     33  C   UNL A   1      44.418  25.272  31.378  1.00  0.00     0.074 A 
ATOM     34  C   UNL A   1      45.024  24.125  30.737  1.00  0.00     0.031 C 
ATOM     35  C   UNL A   1      44.811  25.734  32.590  1.00  0.00     0.034 A 
BRANCH  22  36
ATOM     36  C   UNL A   1      41.583  30.480  34.820  1.00  0.00     0.023 A 
ATOM     37  C   UNL A   1      40.427  30.618  35.613  1.00  0.00     0.031 A 
ATOM     38  C   UNL A   1      42.631  31.394  35.033  1.00  0.00     0.131 A 
ATOM     39  C   UNL A   1      40.320  31.687  36.520  1.00  0.00     0.055 A 
ATOM     40  C   UNL A   1      42.558  32.391  36.009  1.00  0.00     0.041 A 
ATOM     41  F   UNL A   1      43.743  31.342  34.284  1.00  0.00    -0.206 F 
ATOM     42  C   UNL A   1      41.393  32.551  36.750  1.00  0.00     0.022 A 
BRANCH  39  43
ATOM     43  S   UNL A   1      38.700  32.049  37.255  1.00  0.00     0.124 S 
ATOM     44  O   UNL A   1      39.063  32.327  38.643  1.00  0.00    -0.237 OA
ATOM     45  O   UNL A   1      38.244  33.193  36.475  1.00  0.00    -0.237 OA
ATOM     46  O   UNL A   1      37.946  30.814  37.053  1.00  0.00    -0.744 OA
ENDBRANCH  39  43
ENDBRANCH  22  36
BRANCH  23  47
ATOM     47  C   UNL A   1      42.850  23.946  27.141  1.00  0.00     0.023 A 
ATOM     48  C   UNL A   1      42.130  22.738  27.181  1.00  0.00     0.031 A 
ATOM     49  C   UNL A   1      43.659  24.188  26.012  1.00  0.00     0.131 A 
ATOM     50  C   UNL A   1      42.287  21.796  26.152  1.00  0.00     0.055 A 
ATOM     51  C   UNL A   1      43.725  23.296  24.943  1.00  0.00     0.041 A 
ATOM     52  F   UNL A   1      44.337  25.343  25.900  1.00  0.00    -0.206 F 
ATOM     53  C   UNL A   1      43.053  22.081  25.019  1.00  0.00     0.022 A 
BRANCH  50  54
ATOM     54  S   UNL A   1      41.626  20.120  26.382  1.00  0.00     0.124 S 
ATOM     55  O   UNL A   1      41.998  19.839  27.765  1.00  0.00    -0.237 OA
ATOM     56  O   UNL A   1      40.203  20.307  26.122  1.00  0.00    -0.237 OA
ATOM     57  O   UNL A   1      42.343  19.336  25.377  1.00  0.00    -0.744 OA
ENDBRANCH  50  54
ENDBRANCH  23  47
BRANCH  35  58
ATOM     58  C   UNL A   1      45.990  25.056  33.227  1.00  0.00     0.023 A 
ATOM     59  C   UNL A   1      47.298  25.449  32.901  1.00  0.00     0.031 A 
ATOM     60  C   UNL A   1      45.812  24.041  34.180  1.00  0.00     0.131 A 
ATOM     61  C   UNL A   1      48.383  24.777  33.469  1.00  0.00     0.055 A 
ATOM     62  C   UNL A   1      46.897  23.445  34.817  1.00  0.00     0.041 A 
ATOM     63  F   UNL A   1      44.579  23.629  34.520  1.00  0.00    -0.206 F 
ATOM     64  C   UNL A   1      48.192  23.801  34.450  1.00  0.00     0.022 A 
BRANCH  61  65
ATOM     65  S   UNL A   1      50.033  25.101  32.800  1.00  0.00     0.124 S 
ATOM     66  O   UNL A   1      50.482  23.759  32.447  1.00  0.00    -0.237 OA
ATOM     67  O   UNL A   1      49.750  25.993  31.681  1.00  0.00    -0.237 OA
ATOM     68  O   UNL A   1      50.738  25.717  33.923  1.00  0.00    -0.744 OA
ENDBRANCH  61  65
ENDBRANCH  35  58
ENDBRANCH   9  10
ENDBRANCH   2   4
ENDBRANCH   1   2
BRANCH   1  69
ATOM     69  C   UNL A   1      32.972  33.293  27.756  1.00  0.00     0.275 C 
BRANCH  69  70
ATOM     70  C   UNL A   1      33.486  34.499  28.569  1.00  0.00     0.274 C 
BRANCH  70  71
ATOM     71  O   UNL A   1      32.530  34.998  29.540  1.00  0.00    -0.462 OA
BRANCH  71  72
ATOM     72  C   UNL A   1      32.821  36.153  30.205  1.00  0.00     0.309 C 
ATOM     73  O   UNL A   1      33.136  37.192  29.633  1.00  0.00    -0.252 OA
BRANCH  72  74
ATOM     74  C   UNL A   1      32.624  36.081  31.742  1.00  0.00     0.100 C 
ATOM     75  C   UNL A   1      33.430  37.081  32.520  1.00  0.00     0.016 C 
ATOM     76  C   UNL A   1      33.005  34.813  32.494  1.00  0.00     0.028 C 
ATOM     77  C   UNL A   1      34.760  36.359  32.768  1.00  0.00     0.014 C 
ATOM     78  C   UNL A   1      34.472  34.778  32.857  1.00  0.00     0.026 C 
ATOM     79  C   UNL A   1      35.430  33.836  31.486  1.00  0.00     0.074 C 
ATOM     80  C   UNL A   1      35.160  34.046  34.594  1.00  0.00     0.267 C 
ATOM     81  C   UNL A   1      36.760  32.662  32.141  1.00  0.00     0.261 C 
ATOM     82  N   UNL A   1      36.840  32.758  33.994  1.00  0.00    -0.346 N 
ATOM     83  H   UNL A   1      37.726  33.167  34.290  1.00  0.00     0.346 HD
ATOM     84  H   UNL A   1      36.780  31.835  34.423  1.00  0.00     0.346 HD
ENDBRANCH  72  74
ENDBRANCH  71  72
ENDBRANCH  70  71
ENDBRANCH  69  70
ENDBRANCH   1  69
TORSDOF 14
ENDMDL
