MODEL 1
REMARK VINA RESULT:     -12.4      0.000      0.000
REMARK SMILES Cc1ccc(-n2c(SCC(=O)OCCOC(=O)c3ccc(-c4c5nc(c(-c6cc(S(=O)(=O)[O-])ccc6F)c6ccc([nH]6)c(-c6cc(S(=O)(=O)[O-])ccc6F)c6nc(c(-c7cc(S(=O)(=O)[O-])ccc7F)c7ccc4[nH]7)C=C6)C=C5)cc3)nnc2-c2ccccc2)cc1
REMARK SMILES IDX 13 1 12 2 10 3 11 4 9 5 8 6 7 7 6 8 83 9 81 10 82 11 5 12
REMARK SMILES IDX 1 13 2 14 3 15 91 16 4 17 90 18 84 19 85 20 89 21 86 22
REMARK SMILES IDX 88 23 87 24 14 25 15 26 16 27 17 28 18 29 19 30 80 31 20 32
REMARK SMILES IDX 79 33 21 34 22 35 23 36 73 37 24 38 78 39 72 40 74 41 25 42
REMARK SMILES IDX 77 43 71 44 70 45 26 47 58 48 38 49 57 50 39 51 42 52 56 53
REMARK SMILES IDX 75 54 40 55 41 56 55 58 76 59 43 60 27 61 28 62 36 63 29 64
REMARK SMILES IDX 35 65 37 66 34 67 30 68 31 69 32 70 33 71 59 72 60 73 68 74
REMARK SMILES IDX 61 75 67 76 69 77 66 78 62 79 63 80 64 81 65 82 44 83 45 84
REMARK SMILES IDX 53 85 46 86 52 87 54 88 51 89 47 90 48 91 49 92 50 93
REMARK H PARENT 74 46 42 57
REMARK Flexibility Score: inf
ROOT
ATOM      1  C   UNL A   1      36.515  21.471  25.760  1.00  0.00     0.274 C 
ENDROOT
BRANCH   1   2
ATOM      2  O   UNL A   1      35.664  21.171  24.625  1.00  0.00    -0.461 OA
BRANCH   2   3
ATOM      3  C   UNL A   1      34.312  21.146  24.818  1.00  0.00     0.316 C 
ATOM      4  O   UNL A   1      33.717  20.252  25.410  1.00  0.00    -0.251 OA
BRANCH   3   5
ATOM      5  C   UNL A   1      33.612  22.294  24.109  1.00  0.00     0.200 C 
BRANCH   5   6
ATOM      6  S   UNL A   1      33.452  23.840  25.076  1.00  0.00    -0.074 SA
BRANCH   6   7
ATOM      7  C   UNL A   1      31.970  24.534  24.480  1.00  0.00     0.196 A 
ATOM      8  N   UNL A   1      31.555  25.851  24.649  1.00  0.00    -0.270 N 
ATOM      9  C   UNL A   1      30.519  25.995  23.718  1.00  0.00     0.169 A 
ATOM     10  N   UNL A   1      31.148  23.903  23.667  1.00  0.00    -0.122 NA
ATOM     11  N   UNL A   1      30.234  24.817  23.193  1.00  0.00    -0.129 NA
BRANCH   8  12
ATOM     12  C   UNL A   1      32.055  26.909  25.470  1.00  0.00     0.050 A 
ATOM     13  C   UNL A   1      33.499  30.443  27.503  1.00  0.00     0.044 C 
ATOM     14  C   UNL A   1      32.951  29.240  26.790  1.00  0.00    -0.051 A 
ATOM     15  C   UNL A   1      33.632  28.758  25.681  1.00  0.00     0.005 A 
ATOM     16  C   UNL A   1      31.802  28.557  27.224  1.00  0.00     0.005 A 
ATOM     17  C   UNL A   1      33.201  27.601  25.053  1.00  0.00     0.027 A 
ATOM     18  C   UNL A   1      31.350  27.388  26.573  1.00  0.00     0.027 A 
ENDBRANCH   8  12
BRANCH   9  19
ATOM     19  C   UNL A   1      29.860  27.270  23.431  1.00  0.00     0.020 A 
ATOM     20  C   UNL A   1      30.532  28.265  22.710  1.00  0.00     0.012 A 
ATOM     21  C   UNL A   1      28.484  27.406  23.667  1.00  0.00     0.012 A 
ATOM     22  C   UNL A   1      29.820  29.339  22.168  1.00  0.00     0.001 A 
ATOM     23  C   UNL A   1      27.770  28.455  23.088  1.00  0.00     0.001 A 
ATOM     24  C   UNL A   1      28.437  29.416  22.333  1.00  0.00     0.000 A 
ENDBRANCH   9  19
ENDBRANCH   6   7
ENDBRANCH   5   6
ENDBRANCH   3   5
ENDBRANCH   2   3
ENDBRANCH   1   2
BRANCH   1  25
ATOM     25  C   UNL A   1      37.780  22.235  25.305  1.00  0.00     0.275 C 
BRANCH  25  26
ATOM     26  O   UNL A   1      38.150  23.360  26.120  1.00  0.00    -0.458 OA
BRANCH  26  27
ATOM     27  C   UNL A   1      39.311  23.220  26.781  1.00  0.00     0.338 C 
ATOM     28  O   UNL A   1      40.003  22.200  26.704  1.00  0.00    -0.246 OA
BRANCH  27  29
ATOM     29  C   UNL A   1      39.814  24.533  27.222  1.00  0.00     0.060 A 
ATOM     30  C   UNL A   1      40.416  25.450  26.336  1.00  0.00     0.016 A 
ATOM     31  C   UNL A   1      39.340  24.950  28.458  1.00  0.00     0.016 A 
ATOM     32  C   UNL A   1      40.465  26.805  26.651  1.00  0.00     0.010 A 
ATOM     33  C   UNL A   1      39.224  26.282  28.689  1.00  0.00     0.010 A 
ATOM     34  C   UNL A   1      39.852  27.198  27.829  1.00  0.00    -0.014 A 
BRANCH  34  35
ATOM     35  C   UNL A   1      40.016  28.480  28.475  1.00  0.00     0.031 A 
ATOM     36  C   UNL A   1      38.984  29.519  28.415  1.00  0.00     0.074 A 
ATOM     37  C   UNL A   1      40.869  28.352  29.515  1.00  0.00     0.049 A 
ATOM     38  N   UNL A   1      39.180  30.745  28.762  1.00  0.00    -0.248 NA
ATOM     39  C   UNL A   1      37.614  29.255  27.975  1.00  0.00     0.031 C 
ATOM     40  C   UNL A   1      40.813  28.967  30.826  1.00  0.00     0.029 A 
ATOM     41  N   UNL A   1      41.898  27.438  29.671  1.00  0.00    -0.354 N 
ATOM     42  C   UNL A   1      37.928  31.258  29.032  1.00  0.00     0.074 A 
ATOM     43  C   UNL A   1      37.003  30.390  28.339  1.00  0.00     0.031 C 
ATOM     44  C   UNL A   1      41.923  28.623  31.511  1.00  0.00     0.029 A 
ATOM     45  C   UNL A   1      42.807  27.904  30.605  1.00  0.00     0.049 A 
ATOM     46  H   UNL A   1      41.973  26.584  29.187  1.00  0.00     0.167 HD
ATOM     47  C   UNL A   1      37.781  32.165  30.043  1.00  0.00     0.034 A 
ATOM     48  C   UNL A   1      44.062  28.288  30.206  1.00  0.00     0.034 A 
ATOM     49  C   UNL A   1      39.047  32.342  30.772  1.00  0.00     0.049 A 
ATOM     50  C   UNL A   1      44.180  29.791  30.204  1.00  0.00     0.074 A 
ATOM     51  C   UNL A   1      39.460  31.888  32.017  1.00  0.00     0.029 A 
ATOM     52  N   UNL A   1      40.193  32.782  30.120  1.00  0.00    -0.354 N 
ATOM     53  N   UNL A   1      43.164  30.584  30.380  1.00  0.00    -0.248 NA
ATOM     54  C   UNL A   1      45.422  30.522  29.998  1.00  0.00     0.031 C 
ATOM     55  C   UNL A   1      40.871  32.002  32.082  1.00  0.00     0.029 A 
ATOM     56  C   UNL A   1      41.319  32.536  30.886  1.00  0.00     0.049 A 
ATOM     57  H   UNL A   1      40.202  33.211  29.234  1.00  0.00     0.167 HD
ATOM     58  C   UNL A   1      43.554  31.882  30.303  1.00  0.00     0.074 A 
ATOM     59  C   UNL A   1      44.993  31.793  30.099  1.00  0.00     0.031 C 
ATOM     60  C   UNL A   1      42.643  32.896  30.399  1.00  0.00     0.034 A 
BRANCH  47  61
ATOM     61  C   UNL A   1      36.457  32.605  30.643  1.00  0.00     0.023 A 
ATOM     62  C   UNL A   1      35.672  33.539  29.934  1.00  0.00     0.031 A 
ATOM     63  C   UNL A   1      35.899  32.159  31.855  1.00  0.00     0.131 A 
ATOM     64  C   UNL A   1      34.479  34.065  30.454  1.00  0.00     0.055 A 
ATOM     65  C   UNL A   1      34.720  32.703  32.394  1.00  0.00     0.041 A 
ATOM     66  F   UNL A   1      36.432  31.142  32.546  1.00  0.00    -0.206 F 
ATOM     67  C   UNL A   1      34.008  33.672  31.699  1.00  0.00     0.022 A 
BRANCH  64  68
ATOM     68  S   UNL A   1      33.550  35.255  29.451  1.00  0.00     0.124 S 
ATOM     69  O   UNL A   1      34.567  35.727  28.516  1.00  0.00    -0.237 OA
ATOM     70  O   UNL A   1      32.489  34.429  28.887  1.00  0.00    -0.237 OA
ATOM     71  O   UNL A   1      33.104  36.246  30.429  1.00  0.00    -0.744 OA
ENDBRANCH  64  68
ENDBRANCH  47  61
BRANCH  48  72
ATOM     72  C   UNL A   1      44.629  27.378  29.152  1.00  0.00     0.023 A 
ATOM     73  C   UNL A   1      44.733  27.975  27.876  1.00  0.00     0.031 A 
ATOM     74  C   UNL A   1      45.586  26.417  29.529  1.00  0.00     0.131 A 
ATOM     75  C   UNL A   1      45.951  27.903  27.198  1.00  0.00     0.055 A 
ATOM     76  C   UNL A   1      46.774  26.300  28.813  1.00  0.00     0.041 A 
ATOM     77  F   UNL A   1      45.486  25.760  30.693  1.00  0.00    -0.206 F 
ATOM     78  C   UNL A   1      46.988  27.125  27.710  1.00  0.00     0.022 A 
BRANCH  75  79
ATOM     79  S   UNL A   1      46.293  29.095  25.865  1.00  0.00     0.124 S 
ATOM     80  O   UNL A   1      46.041  28.288  24.675  1.00  0.00    -0.237 OA
ATOM     81  O   UNL A   1      45.333  30.161  26.127  1.00  0.00    -0.237 OA
ATOM     82  O   UNL A   1      47.690  29.462  26.087  1.00  0.00    -0.744 OA
ENDBRANCH  75  79
ENDBRANCH  48  72
BRANCH  60  83
ATOM     83  C   UNL A   1      42.964  34.341  30.161  1.00  0.00     0.023 A 
ATOM     84  C   UNL A   1      42.750  34.955  28.926  1.00  0.00     0.031 A 
ATOM     85  C   UNL A   1      43.487  35.164  31.185  1.00  0.00     0.131 A 
ATOM     86  C   UNL A   1      43.216  36.249  28.680  1.00  0.00     0.055 A 
ATOM     87  C   UNL A   1      43.832  36.499  30.974  1.00  0.00     0.041 A 
ATOM     88  F   UNL A   1      43.696  34.707  32.428  1.00  0.00    -0.206 F 
ATOM     89  C   UNL A   1      43.737  37.039  29.701  1.00  0.00     0.022 A 
BRANCH  86  90
ATOM     90  S   UNL A   1      43.271  36.791  26.957  1.00  0.00     0.124 S 
ATOM     91  O   UNL A   1      43.113  35.526  26.242  1.00  0.00    -0.237 OA
ATOM     92  O   UNL A   1      42.137  37.705  26.878  1.00  0.00    -0.237 OA
ATOM     93  O   UNL A   1      44.587  37.413  26.835  1.00  0.00    -0.744 OA
ENDBRANCH  86  90
ENDBRANCH  60  83
ENDBRANCH  34  35
ENDBRANCH  27  29
ENDBRANCH  26  27
ENDBRANCH  25  26
ENDBRANCH   1  25
TORSDOF 18
ENDMDL
MODEL 2
REMARK VINA RESULT:     -12.2      4.203      9.561
REMARK SMILES Cc1ccc(-n2c(SCC(=O)OCCOC(=O)c3ccc(-c4c5nc(c(-c6cc(S(=O)(=O)[O-])ccc6F)c6ccc([nH]6)c(-c6cc(S(=O)(=O)[O-])ccc6F)c6nc(c(-c7cc(S(=O)(=O)[O-])ccc7F)c7ccc4[nH]7)C=C6)C=C5)cc3)nnc2-c2ccccc2)cc1
REMARK SMILES IDX 13 1 12 2 10 3 11 4 9 5 8 6 7 7 6 8 83 9 81 10 82 11 5 12
REMARK SMILES IDX 1 13 2 14 3 15 91 16 4 17 90 18 84 19 85 20 89 21 86 22
REMARK SMILES IDX 88 23 87 24 14 25 15 26 16 27 17 28 18 29 19 30 80 31 20 32
REMARK SMILES IDX 79 33 21 34 22 35 23 36 73 37 24 38 78 39 72 40 74 41 25 42
REMARK SMILES IDX 77 43 71 44 70 45 26 47 58 48 38 49 57 50 39 51 42 52 56 53
REMARK SMILES IDX 75 54 40 55 41 56 55 58 76 59 43 60 27 61 28 62 36 63 29 64
REMARK SMILES IDX 35 65 37 66 34 67 30 68 31 69 32 70 33 71 59 72 60 73 68 74
REMARK SMILES IDX 61 75 67 76 69 77 66 78 62 79 63 80 64 81 65 82 44 83 45 84
REMARK SMILES IDX 53 85 46 86 52 87 54 88 51 89 47 90 48 91 49 92 50 93
REMARK H PARENT 74 46 42 57
REMARK Flexibility Score: inf
ROOT
ATOM      1  C   UNL A   1      32.050  30.146  26.896  1.00  0.00     0.274 C 
ENDROOT
BRANCH   1   2
ATOM      2  O   UNL A   1      31.745  30.416  25.505  1.00  0.00    -0.461 OA
BRANCH   2   3
ATOM      3  C   UNL A   1      31.507  29.356  24.677  1.00  0.00     0.316 C 
ATOM      4  O   UNL A   1      30.752  29.391  23.712  1.00  0.00    -0.251 OA
BRANCH   3   5
ATOM      5  C   UNL A   1      32.194  28.088  25.160  1.00  0.00     0.200 C 
BRANCH   5   6
ATOM      6  S   UNL A   1      33.361  27.322  23.976  1.00  0.00    -0.074 SA
BRANCH   6   7
ATOM      7  C   UNL A   1      32.552  25.851  23.512  1.00  0.00     0.196 A 
ATOM      8  N   UNL A   1      33.045  24.560  23.668  1.00  0.00    -0.270 N 
ATOM      9  C   UNL A   1      31.918  23.749  23.482  1.00  0.00     0.169 A 
ATOM     10  N   UNL A   1      31.303  25.809  23.094  1.00  0.00    -0.122 NA
ATOM     11  N   UNL A   1      30.907  24.491  23.068  1.00  0.00    -0.129 NA
BRANCH   8  12
ATOM     12  C   UNL A   1      34.340  24.072  24.026  1.00  0.00     0.050 A 
ATOM     13  C   UNL A   1      37.988  22.247  25.465  1.00  0.00     0.044 C 
ATOM     14  C   UNL A   1      36.706  22.834  24.948  1.00  0.00    -0.051 A 
ATOM     15  C   UNL A   1      35.887  23.523  25.831  1.00  0.00     0.005 A 
ATOM     16  C   UNL A   1      36.321  22.750  23.598  1.00  0.00     0.005 A 
ATOM     17  C   UNL A   1      34.740  24.148  25.368  1.00  0.00     0.027 A 
ATOM     18  C   UNL A   1      35.143  23.370  23.128  1.00  0.00     0.027 A 
ENDBRANCH   8  12
BRANCH   9  19
ATOM     19  C   UNL A   1      31.920  22.300  23.692  1.00  0.00     0.020 A 
ATOM     20  C   UNL A   1      32.025  21.429  22.600  1.00  0.00     0.012 A 
ATOM     21  C   UNL A   1      32.056  21.790  24.992  1.00  0.00     0.012 A 
ATOM     22  C   UNL A   1      32.341  20.083  22.806  1.00  0.00     0.001 A 
ATOM     23  C   UNL A   1      32.413  20.456  25.191  1.00  0.00     0.001 A 
ATOM     24  C   UNL A   1      32.563  19.606  24.098  1.00  0.00     0.000 A 
ENDBRANCH   9  19
ENDBRANCH   6   7
ENDBRANCH   5   6
ENDBRANCH   3   5
ENDBRANCH   2   3
ENDBRANCH   1   2
BRANCH   1  25
ATOM     25  C   UNL A   1      33.384  30.817  27.301  1.00  0.00     0.275 C 
BRANCH  25  26
ATOM     26  O   UNL A   1      34.337  29.958  27.948  1.00  0.00    -0.458 OA
BRANCH  26  27
ATOM     27  C   UNL A   1      35.383  30.593  28.504  1.00  0.00     0.338 C 
ATOM     28  O   UNL A   1      35.248  31.545  29.279  1.00  0.00    -0.246 OA
BRANCH  27  29
ATOM     29  C   UNL A   1      36.598  29.767  28.406  1.00  0.00     0.060 A 
ATOM     30  C   UNL A   1      37.497  29.868  27.324  1.00  0.00     0.016 A 
ATOM     31  C   UNL A   1      36.987  29.163  29.594  1.00  0.00     0.016 A 
ATOM     32  C   UNL A   1      38.814  29.440  27.460  1.00  0.00     0.010 A 
ATOM     33  C   UNL A   1      38.305  28.913  29.790  1.00  0.00     0.010 A 
ATOM     34  C   UNL A   1      39.197  28.976  28.707  1.00  0.00    -0.014 A 
BRANCH  34  35
ATOM     35  C   UNL A   1      40.409  28.243  28.996  1.00  0.00     0.031 A 
ATOM     36  C   UNL A   1      40.571  26.833  28.632  1.00  0.00     0.074 A 
ATOM     37  C   UNL A   1      41.447  29.106  29.071  1.00  0.00     0.049 A 
ATOM     38  N   UNL A   1      41.519  26.082  29.076  1.00  0.00    -0.248 NA
ATOM     39  C   UNL A   1      39.677  26.144  27.701  1.00  0.00     0.031 C 
ATOM     40  C   UNL A   1      42.806  28.945  28.595  1.00  0.00     0.029 A 
ATOM     41  N   UNL A   1      41.425  30.442  29.433  1.00  0.00    -0.354 N 
ATOM     42  C   UNL A   1      41.625  25.045  28.172  1.00  0.00     0.074 A 
ATOM     43  C   UNL A   1      40.355  25.011  27.481  1.00  0.00     0.031 C 
ATOM     44  C   UNL A   1      43.524  30.026  28.967  1.00  0.00     0.029 A 
ATOM     45  C   UNL A   1      42.687  30.845  29.834  1.00  0.00     0.049 A 
ATOM     46  H   UNL A   1      40.629  31.021  29.409  1.00  0.00     0.167 HD
ATOM     47  C   UNL A   1      42.857  24.525  27.891  1.00  0.00     0.034 A 
ATOM     48  C   UNL A   1      42.922  31.150  31.151  1.00  0.00     0.034 A 
ATOM     49  C   UNL A   1      43.913  25.301  28.560  1.00  0.00     0.049 A 
ATOM     50  C   UNL A   1      43.701  30.045  31.819  1.00  0.00     0.074 A 
ATOM     51  C   UNL A   1      44.828  26.222  28.068  1.00  0.00     0.029 A 
ATOM     52  N   UNL A   1      43.937  25.432  29.944  1.00  0.00    -0.354 N 
ATOM     53  N   UNL A   1      43.937  28.899  31.252  1.00  0.00    -0.248 NA
ATOM     54  C   UNL A   1      44.261  30.124  33.160  1.00  0.00     0.031 C 
ATOM     55  C   UNL A   1      45.354  26.950  29.164  1.00  0.00     0.029 A 
ATOM     56  C   UNL A   1      44.773  26.467  30.324  1.00  0.00     0.049 A 
ATOM     57  H   UNL A   1      43.429  24.866  30.568  1.00  0.00     0.167 HD
ATOM     58  C   UNL A   1      44.632  28.088  32.090  1.00  0.00     0.074 A 
ATOM     59  C   UNL A   1      44.847  28.918  33.267  1.00  0.00     0.031 C 
ATOM     60  C   UNL A   1      44.945  26.807  31.730  1.00  0.00     0.034 A 
BRANCH  47  61
ATOM     61  C   UNL A   1      43.174  23.593  26.735  1.00  0.00     0.023 A 
ATOM     62  C   UNL A   1      42.832  22.230  26.855  1.00  0.00     0.031 A 
ATOM     63  C   UNL A   1      43.773  23.950  25.513  1.00  0.00     0.131 A 
ATOM     64  C   UNL A   1      43.167  21.283  25.873  1.00  0.00     0.055 A 
ATOM     65  C   UNL A   1      44.136  23.003  24.539  1.00  0.00     0.041 A 
ATOM     66  F   UNL A   1      43.984  25.231  25.177  1.00  0.00    -0.206 F 
ATOM     67  C   UNL A   1      43.844  21.658  24.721  1.00  0.00     0.022 A 
BRANCH  64  68
ATOM     68  S   UNL A   1      42.670  19.558  26.132  1.00  0.00     0.124 S 
ATOM     69  O   UNL A   1      41.477  19.456  25.298  1.00  0.00    -0.237 OA
ATOM     70  O   UNL A   1      43.843  18.822  25.673  1.00  0.00    -0.237 OA
ATOM     71  O   UNL A   1      42.426  19.490  27.572  1.00  0.00    -0.744 OA
ENDBRANCH  64  68
ENDBRANCH  47  61
BRANCH  48  72
ATOM     72  C   UNL A   1      41.778  31.898  31.775  1.00  0.00     0.023 A 
ATOM     73  C   UNL A   1      40.910  31.085  32.538  1.00  0.00     0.031 A 
ATOM     74  C   UNL A   1      41.977  33.233  32.173  1.00  0.00     0.131 A 
ATOM     75  C   UNL A   1      40.593  31.477  33.839  1.00  0.00     0.055 A 
ATOM     76  C   UNL A   1      41.600  33.643  33.450  1.00  0.00     0.041 A 
ATOM     77  F   UNL A   1      42.722  34.071  31.439  1.00  0.00    -0.206 F 
ATOM     78  C   UNL A   1      41.004  32.723  34.310  1.00  0.00     0.022 A 
BRANCH  75  79
ATOM     79  S   UNL A   1      39.970  30.232  35.012  1.00  0.00     0.124 S 
ATOM     80  O   UNL A   1      38.555  30.173  34.658  1.00  0.00    -0.237 OA
ATOM     81  O   UNL A   1      40.760  29.050  34.683  1.00  0.00    -0.237 OA
ATOM     82  O   UNL A   1      40.263  30.818  36.319  1.00  0.00    -0.744 OA
ENDBRANCH  75  79
ENDBRANCH  48  72
BRANCH  60  83
ATOM     83  C   UNL A   1      45.561  25.800  32.653  1.00  0.00     0.023 A 
ATOM     84  C   UNL A   1      44.794  24.859  33.343  1.00  0.00     0.031 A 
ATOM     85  C   UNL A   1      46.958  25.739  32.860  1.00  0.00     0.131 A 
ATOM     86  C   UNL A   1      45.370  24.048  34.325  1.00  0.00     0.055 A 
ATOM     87  C   UNL A   1      47.548  24.838  33.746  1.00  0.00     0.041 A 
ATOM     88  F   UNL A   1      47.808  26.557  32.222  1.00  0.00    -0.206 F 
ATOM     89  C   UNL A   1      46.748  24.011  34.519  1.00  0.00     0.022 A 
BRANCH  86  90
ATOM     90  S   UNL A   1      44.244  23.181  35.440  1.00  0.00     0.124 S 
ATOM     91  O   UNL A   1      42.961  23.351  34.762  1.00  0.00    -0.237 OA
ATOM     92  O   UNL A   1      44.782  21.826  35.440  1.00  0.00    -0.237 OA
ATOM     93  O   UNL A   1      44.381  23.909  36.700  1.00  0.00    -0.744 OA
ENDBRANCH  86  90
ENDBRANCH  60  83
ENDBRANCH  34  35
ENDBRANCH  27  29
ENDBRANCH  26  27
ENDBRANCH  25  26
ENDBRANCH   1  25
TORSDOF 18
ENDMDL
MODEL 3
REMARK VINA RESULT:     -12.1      1.216      2.314
REMARK SMILES Cc1ccc(-n2c(SCC(=O)OCCOC(=O)c3ccc(-c4c5nc(c(-c6cc(S(=O)(=O)[O-])ccc6F)c6ccc([nH]6)c(-c6cc(S(=O)(=O)[O-])ccc6F)c6nc(c(-c7cc(S(=O)(=O)[O-])ccc7F)c7ccc4[nH]7)C=C6)C=C5)cc3)nnc2-c2ccccc2)cc1
REMARK SMILES IDX 13 1 12 2 10 3 11 4 9 5 8 6 7 7 6 8 83 9 81 10 82 11 5 12
REMARK SMILES IDX 1 13 2 14 3 15 91 16 4 17 90 18 84 19 85 20 89 21 86 22
REMARK SMILES IDX 88 23 87 24 14 25 15 26 16 27 17 28 18 29 19 30 80 31 20 32
REMARK SMILES IDX 79 33 21 34 22 35 23 36 73 37 24 38 78 39 72 40 74 41 25 42
REMARK SMILES IDX 77 43 71 44 70 45 26 47 58 48 38 49 57 50 39 51 42 52 56 53
REMARK SMILES IDX 75 54 40 55 41 56 55 58 76 59 43 60 27 61 28 62 36 63 29 64
REMARK SMILES IDX 35 65 37 66 34 67 30 68 31 69 32 70 33 71 59 72 60 73 68 74
REMARK SMILES IDX 61 75 67 76 69 77 66 78 62 79 63 80 64 81 65 82 44 83 45 84
REMARK SMILES IDX 53 85 46 86 52 87 54 88 51 89 47 90 48 91 49 92 50 93
REMARK H PARENT 74 46 42 57
REMARK Flexibility Score: inf
ROOT
ATOM      1  C   UNL A   1      35.803  22.258  25.756  1.00  0.00     0.274 C 
ENDROOT
BRANCH   1   2
ATOM      2  O   UNL A   1      35.260  21.479  24.660  1.00  0.00    -0.461 OA
BRANCH   2   3
ATOM      3  C   UNL A   1      34.223  22.006  23.944  1.00  0.00     0.316 C 
ATOM      4  O   UNL A   1      33.075  21.576  23.975  1.00  0.00    -0.251 OA
BRANCH   3   5
ATOM      5  C   UNL A   1      34.679  23.115  23.009  1.00  0.00     0.200 C 
BRANCH   5   6
ATOM      6  S   UNL A   1      33.382  23.817  21.925  1.00  0.00    -0.074 SA
BRANCH   6   7
ATOM      7  C   UNL A   1      33.303  25.484  22.423  1.00  0.00     0.196 A 
ATOM      8  N   UNL A   1      32.807  25.955  23.634  1.00  0.00    -0.270 N 
ATOM      9  C   UNL A   1      33.277  27.273  23.696  1.00  0.00     0.169 A 
ATOM     10  N   UNL A   1      33.854  26.471  21.747  1.00  0.00    -0.122 NA
ATOM     11  N   UNL A   1      33.832  27.595  22.541  1.00  0.00    -0.129 NA
BRANCH   8  12
ATOM     12  C   UNL A   1      32.072  25.312  24.678  1.00  0.00     0.050 A 
ATOM     13  C   UNL A   1      29.682  22.997  27.442  1.00  0.00     0.044 C 
ATOM     14  C   UNL A   1      30.541  23.758  26.473  1.00  0.00    -0.051 A 
ATOM     15  C   UNL A   1      29.932  24.390  25.398  1.00  0.00     0.005 A 
ATOM     16  C   UNL A   1      31.932  23.892  26.632  1.00  0.00     0.005 A 
ATOM     17  C   UNL A   1      30.685  25.169  24.535  1.00  0.00     0.027 A 
ATOM     18  C   UNL A   1      32.704  24.671  25.743  1.00  0.00     0.027 A 
ENDBRANCH   8  12
BRANCH   9  19
ATOM     19  C   UNL A   1      33.121  28.134  24.869  1.00  0.00     0.020 A 
ATOM     20  C   UNL A   1      31.916  28.813  25.091  1.00  0.00     0.012 A 
ATOM     21  C   UNL A   1      34.084  28.094  25.889  1.00  0.00     0.012 A 
ATOM     22  C   UNL A   1      31.649  29.374  26.343  1.00  0.00     0.001 A 
ATOM     23  C   UNL A   1      33.796  28.617  27.150  1.00  0.00     0.001 A 
ATOM     24  C   UNL A   1      32.576  29.249  27.378  1.00  0.00     0.000 A 
ENDBRANCH   9  19
ENDBRANCH   6   7
ENDBRANCH   5   6
ENDBRANCH   3   5
ENDBRANCH   2   3
ENDBRANCH   1   2
BRANCH   1  25
ATOM     25  C   UNL A   1      37.349  22.200  25.751  1.00  0.00     0.275 C 
BRANCH  25  26
ATOM     26  O   UNL A   1      38.015  23.420  26.117  1.00  0.00    -0.458 OA
BRANCH  26  27
ATOM     27  C   UNL A   1      39.245  23.258  26.631  1.00  0.00     0.338 C 
ATOM     28  O   UNL A   1      39.940  22.264  26.398  1.00  0.00    -0.246 OA
BRANCH  27  29
ATOM     29  C   UNL A   1      39.775  24.545  27.114  1.00  0.00     0.060 A 
ATOM     30  C   UNL A   1      40.453  25.450  26.271  1.00  0.00     0.016 A 
ATOM     31  C   UNL A   1      39.258  24.965  28.331  1.00  0.00     0.016 A 
ATOM     32  C   UNL A   1      40.538  26.798  26.607  1.00  0.00     0.010 A 
ATOM     33  C   UNL A   1      39.180  26.297  28.575  1.00  0.00     0.010 A 
ATOM     34  C   UNL A   1      39.883  27.199  27.759  1.00  0.00    -0.014 A 
BRANCH  34  35
ATOM     35  C   UNL A   1      40.063  28.467  28.430  1.00  0.00     0.031 A 
ATOM     36  C   UNL A   1      39.046  29.521  28.389  1.00  0.00     0.074 A 
ATOM     37  C   UNL A   1      40.912  28.307  29.469  1.00  0.00     0.049 A 
ATOM     38  N   UNL A   1      39.257  30.737  28.759  1.00  0.00    -0.248 NA
ATOM     39  C   UNL A   1      37.673  29.284  27.942  1.00  0.00     0.031 C 
ATOM     40  C   UNL A   1      40.862  28.897  30.791  1.00  0.00     0.029 A 
ATOM     41  N   UNL A   1      41.929  27.376  29.608  1.00  0.00    -0.354 N 
ATOM     42  C   UNL A   1      38.012  31.262  29.038  1.00  0.00     0.074 A 
ATOM     43  C   UNL A   1      37.076  30.420  28.327  1.00  0.00     0.031 C 
ATOM     44  C   UNL A   1      41.967  28.525  31.472  1.00  0.00     0.029 A 
ATOM     45  C   UNL A   1      42.842  27.811  30.553  1.00  0.00     0.049 A 
ATOM     46  H   UNL A   1      41.993  26.531  29.109  1.00  0.00     0.167 HD
ATOM     47  C   UNL A   1      37.875  32.151  30.066  1.00  0.00     0.034 A 
ATOM     48  C   UNL A   1      44.103  28.186  30.163  1.00  0.00     0.034 A 
ATOM     49  C   UNL A   1      39.142  32.296  30.800  1.00  0.00     0.049 A 
ATOM     50  C   UNL A   1      44.242  29.687  30.191  1.00  0.00     0.074 A 
ATOM     51  C   UNL A   1      39.547  31.812  32.037  1.00  0.00     0.029 A 
ATOM     52  N   UNL A   1      40.295  32.733  30.158  1.00  0.00    -0.354 N 
ATOM     53  N   UNL A   1      43.236  30.490  30.380  1.00  0.00    -0.248 NA
ATOM     54  C   UNL A   1      45.493  30.405  30.001  1.00  0.00     0.031 C 
ATOM     55  C   UNL A   1      40.960  31.906  32.106  1.00  0.00     0.029 A 
ATOM     56  C   UNL A   1      41.416  32.457  30.921  1.00  0.00     0.049 A 
ATOM     57  H   UNL A   1      40.312  33.179  29.281  1.00  0.00     0.167 HD
ATOM     58  C   UNL A   1      43.643  31.784  30.329  1.00  0.00     0.074 A 
ATOM     59  C   UNL A   1      45.081  31.680  30.126  1.00  0.00     0.031 C 
ATOM     60  C   UNL A   1      42.746  32.809  30.444  1.00  0.00     0.034 A 
BRANCH  47  61
ATOM     61  C   UNL A   1      36.556  32.596  30.672  1.00  0.00     0.023 A 
ATOM     62  C   UNL A   1      35.747  33.493  29.942  1.00  0.00     0.031 A 
ATOM     63  C   UNL A   1      36.025  32.191  31.910  1.00  0.00     0.131 A 
ATOM     64  C   UNL A   1      34.557  34.024  30.464  1.00  0.00     0.055 A 
ATOM     65  C   UNL A   1      34.849  32.740  32.449  1.00  0.00     0.041 A 
ATOM     66  F   UNL A   1      36.584  31.207  32.630  1.00  0.00    -0.206 F 
ATOM     67  C   UNL A   1      34.113  33.673  31.731  1.00  0.00     0.022 A 
BRANCH  64  68
ATOM     68  S   UNL A   1      33.595  35.163  29.432  1.00  0.00     0.124 S 
ATOM     69  O   UNL A   1      33.140  36.149  30.408  1.00  0.00    -0.237 OA
ATOM     70  O   UNL A   1      34.586  35.623  28.465  1.00  0.00    -0.237 OA
ATOM     71  O   UNL A   1      32.544  34.312  28.878  1.00  0.00    -0.744 OA
ENDBRANCH  64  68
ENDBRANCH  47  61
BRANCH  48  72
ATOM     72  C   UNL A   1      44.660  27.289  29.093  1.00  0.00     0.023 A 
ATOM     73  C   UNL A   1      44.781  27.911  27.830  1.00  0.00     0.031 A 
ATOM     74  C   UNL A   1      45.597  26.303  29.454  1.00  0.00     0.131 A 
ATOM     75  C   UNL A   1      46.001  27.833  27.158  1.00  0.00     0.055 A 
ATOM     76  C   UNL A   1      46.787  26.180  28.742  1.00  0.00     0.041 A 
ATOM     77  F   UNL A   1      45.478  25.623  30.602  1.00  0.00    -0.206 F 
ATOM     78  C   UNL A   1      47.021  27.025  27.658  1.00  0.00     0.022 A 
BRANCH  75  79
ATOM     79  S   UNL A   1      46.373  29.047  25.852  1.00  0.00     0.124 S 
ATOM     80  O   UNL A   1      45.448  30.127  26.181  1.00  0.00    -0.237 OA
ATOM     81  O   UNL A   1      47.788  29.331  26.065  1.00  0.00    -0.237 OA
ATOM     82  O   UNL A   1      46.074  28.322  24.619  1.00  0.00    -0.744 OA
ENDBRANCH  75  79
ENDBRANCH  48  72
BRANCH  60  83
ATOM     83  C   UNL A   1      43.088  34.253  30.234  1.00  0.00     0.023 A 
ATOM     84  C   UNL A   1      43.097  34.837  28.966  1.00  0.00     0.031 A 
ATOM     85  C   UNL A   1      43.402  35.106  31.317  1.00  0.00     0.131 A 
ATOM     86  C   UNL A   1      43.583  36.133  28.779  1.00  0.00     0.055 A 
ATOM     87  C   UNL A   1      43.763  36.442  31.141  1.00  0.00     0.041 A 
ATOM     88  F   UNL A   1      43.383  34.680  32.588  1.00  0.00    -0.206 F 
ATOM     89  C   UNL A   1      43.897  36.954  29.859  1.00  0.00     0.022 A 
BRANCH  86  90
ATOM     90  S   UNL A   1      43.948  36.639  27.083  1.00  0.00     0.124 S 
ATOM     91  O   UNL A   1      42.646  36.483  26.439  1.00  0.00    -0.237 OA
ATOM     92  O   UNL A   1      44.405  38.013  27.256  1.00  0.00    -0.237 OA
ATOM     93  O   UNL A   1      44.972  35.688  26.654  1.00  0.00    -0.744 OA
ENDBRANCH  86  90
ENDBRANCH  60  83
ENDBRANCH  34  35
ENDBRANCH  27  29
ENDBRANCH  26  27
ENDBRANCH  25  26
ENDBRANCH   1  25
TORSDOF 18
ENDMDL
