MODEL 1
REMARK VINA RESULT:     -10.8      0.000      0.000
REMARK SMILES CC(=O)c1ccc(N2/C(=[NH+]/C(=O)CCCC(=O)OCCOC(=O)c3ccc(-c4c5nc(c(-c6cc(S(=O)(=O)[O-])ccc6F)c6ccc([nH]6)c(-c6cc(S(=O)(=O)[O-])ccc6F)c6nc(c(-c7cc(S(=O)(=O)[O-])ccc7F)c7ccc4[nH]7)C=C6)C=C5)cc3)S[C@H]3CS(=O)(=O)C[C@H]32)cc1
REMARK SMILES IDX 19 1 18 2 16 3 17 4 15 5 14 6 13 7 11 8 8 9 9 10 94 11 10 12
REMARK SMILES IDX 87 13 88 14 93 15 89 17 90 18 12 19 91 20 92 21 7 22 4 23
REMARK SMILES IDX 5 24 96 25 6 26 95 27 2 28 1 29 3 30 20 31 21 32 22 33 23 34
REMARK SMILES IDX 24 35 25 36 86 37 26 38 85 39 27 40 28 41 29 42 79 43 30 44
REMARK SMILES IDX 84 45 78 46 80 47 31 48 83 49 77 50 76 51 32 53 64 54 44 55
REMARK SMILES IDX 63 56 45 57 48 58 62 59 81 60 46 61 47 62 61 64 82 65 49 66
REMARK SMILES IDX 33 67 34 68 42 69 35 70 41 71 43 72 40 73 36 74 37 75 38 76
REMARK SMILES IDX 39 77 65 78 66 79 74 80 67 81 73 82 75 83 72 84 68 85 69 86
REMARK SMILES IDX 70 87 71 88 50 89 51 90 59 91 52 92 58 93 60 94 57 95 53 96
REMARK SMILES IDX 54 97 55 98 56 99
REMARK H PARENT 10 16 80 52 48 63
REMARK Flexibility Score: inf
ROOT
ATOM      1  C   UNL A   1      46.662  38.849  26.100  1.00  0.00     0.274 C 
ENDROOT
BRANCH   1   2
ATOM      2  O   UNL A   1      47.084  40.059  25.443  1.00  0.00    -0.462 OA
BRANCH   2   3
ATOM      3  C   UNL A   1      46.138  40.997  25.195  1.00  0.00     0.305 C 
ATOM      4  O   UNL A   1      44.933  40.778  25.169  1.00  0.00    -0.252 OA
BRANCH   3   5
ATOM      5  C   UNL A   1      46.705  42.387  24.964  1.00  0.00     0.123 C 
BRANCH   5   6
ATOM      6  C   UNL A   1      46.811  43.346  26.147  1.00  0.00     0.024 C 
BRANCH   6   7
ATOM      7  C   UNL A   1      45.552  44.071  26.613  1.00  0.00     0.128 C 
BRANCH   7   8
ATOM      8  C   UNL A   1      45.229  44.043  28.095  1.00  0.00     0.307 C 
ATOM      9  N   UNL A   1      43.772  41.569  30.308  1.00  0.00    -0.217 N 
ATOM     10  C   UNL A   1      44.601  42.510  29.729  1.00  0.00     0.319 C 
ATOM     11  C   UNL A   1      43.390  41.892  31.683  1.00  0.00     0.212 C 
ATOM     12  N   UNL A   1      44.514  42.947  28.519  1.00  0.00    -0.204 N 
ATOM     13  S   UNL A   1      45.681  43.138  30.977  1.00  0.00    -0.029 SA
ATOM     14  C   UNL A   1      44.645  42.509  32.340  1.00  0.00     0.120 C 
ATOM     15  C   UNL A   1      42.279  42.936  31.682  1.00  0.00     0.188 C 
ATOM     16  H   UNL A   1      43.922  42.486  27.882  1.00  0.00     0.316 HD
ATOM     17  C   UNL A   1      44.267  43.625  33.302  1.00  0.00     0.156 C 
ATOM     18  S   UNL A   1      42.506  43.814  33.191  1.00  0.00     0.155 S 
ATOM     19  O   UNL A   1      45.421  45.053  28.769  1.00  0.00    -0.247 OA
ATOM     20  O   UNL A   1      42.176  45.206  32.983  1.00  0.00    -0.229 OA
ATOM     21  O   UNL A   1      41.906  43.029  34.251  1.00  0.00    -0.229 OA
BRANCH   9  22
ATOM     22  C   UNL A   1      43.278  40.395  29.724  1.00  0.00     0.128 A 
ATOM     23  C   UNL A   1      42.438  38.042  28.355  1.00  0.00     0.018 A 
ATOM     24  C   UNL A   1      43.380  37.976  29.385  1.00  0.00     0.016 A 
ATOM     25  C   UNL A   1      41.890  39.283  28.027  1.00  0.00     0.016 A 
ATOM     26  C   UNL A   1      43.798  39.135  30.050  1.00  0.00     0.052 A 
ATOM     27  C   UNL A   1      42.303  40.442  28.713  1.00  0.00     0.052 A 
BRANCH  23  28
ATOM     28  C   UNL A   1      42.095  36.773  27.644  1.00  0.00     0.159 C 
ATOM     29  C   UNL A   1      41.487  35.630  28.415  1.00  0.00     0.093 C 
ATOM     30  O   UNL A   1      42.230  36.715  26.421  1.00  0.00    -0.295 OA
ENDBRANCH  23  28
ENDBRANCH   9  22
ENDBRANCH   7   8
ENDBRANCH   6   7
ENDBRANCH   5   6
ENDBRANCH   3   5
ENDBRANCH   2   3
ENDBRANCH   1   2
BRANCH   1  31
ATOM     31  C   UNL A   1      47.574  38.535  27.288  1.00  0.00     0.275 C 
BRANCH  31  32
ATOM     32  O   UNL A   1      47.518  37.137  27.625  1.00  0.00    -0.458 OA
BRANCH  32  33
ATOM     33  C   UNL A   1      46.938  36.863  28.818  1.00  0.00     0.338 C 
ATOM     34  O   UNL A   1      46.919  37.570  29.811  1.00  0.00    -0.246 OA
BRANCH  33  35
ATOM     35  C   UNL A   1      46.163  35.621  28.705  1.00  0.00     0.060 A 
ATOM     36  C   UNL A   1      46.307  34.678  29.721  1.00  0.00     0.016 A 
ATOM     37  C   UNL A   1      45.385  35.339  27.586  1.00  0.00     0.016 A 
ATOM     38  C   UNL A   1      45.705  33.432  29.624  1.00  0.00     0.010 A 
ATOM     39  C   UNL A   1      44.750  34.094  27.500  1.00  0.00     0.010 A 
ATOM     40  C   UNL A   1      44.918  33.129  28.511  1.00  0.00    -0.014 A 
BRANCH  40  41
ATOM     41  C   UNL A   1      44.321  31.777  28.397  1.00  0.00     0.031 A 
ATOM     42  C   UNL A   1      45.049  30.708  27.636  1.00  0.00     0.074 A 
ATOM     43  C   UNL A   1      43.152  31.508  29.009  1.00  0.00     0.049 A 
ATOM     44  N   UNL A   1      44.650  29.508  27.307  1.00  0.00    -0.248 NA
ATOM     45  C   UNL A   1      46.407  31.041  27.178  1.00  0.00     0.031 C 
ATOM     46  C   UNL A   1      42.394  32.452  29.833  1.00  0.00     0.029 A 
ATOM     47  N   UNL A   1      42.395  30.365  29.031  1.00  0.00    -0.354 N 
ATOM     48  C   UNL A   1      45.689  28.952  26.569  1.00  0.00     0.074 A 
ATOM     49  C   UNL A   1      46.731  29.955  26.490  1.00  0.00     0.031 C 
ATOM     50  C   UNL A   1      41.282  31.848  30.281  1.00  0.00     0.029 A 
ATOM     51  C   UNL A   1      41.212  30.505  29.719  1.00  0.00     0.049 A 
ATOM     52  H   UNL A   1      42.671  29.526  28.597  1.00  0.00     0.167 HD
ATOM     53  C   UNL A   1      45.759  27.719  26.010  1.00  0.00     0.034 A 
ATOM     54  C   UNL A   1      40.167  29.662  29.840  1.00  0.00     0.034 A 
ATOM     55  C   UNL A   1      44.709  26.734  26.120  1.00  0.00     0.049 A 
ATOM     56  C   UNL A   1      40.239  28.323  29.154  1.00  0.00     0.074 A 
ATOM     57  C   UNL A   1      44.673  25.451  25.602  1.00  0.00     0.029 A 
ATOM     58  N   UNL A   1      43.507  26.923  26.792  1.00  0.00    -0.354 N 
ATOM     59  N   UNL A   1      41.208  27.820  28.423  1.00  0.00    -0.248 NA
ATOM     60  C   UNL A   1      39.077  27.439  29.307  1.00  0.00     0.031 C 
ATOM     61  C   UNL A   1      43.426  24.892  25.904  1.00  0.00     0.029 A 
ATOM     62  C   UNL A   1      42.712  25.793  26.677  1.00  0.00     0.049 A 
ATOM     63  H   UNL A   1      43.257  27.741  27.279  1.00  0.00     0.167 HD
ATOM     64  C   UNL A   1      40.779  26.553  28.043  1.00  0.00     0.074 A 
ATOM     65  C   UNL A   1      39.473  26.361  28.644  1.00  0.00     0.031 C 
ATOM     66  C   UNL A   1      41.405  25.629  27.272  1.00  0.00     0.034 A 
BRANCH  53  67
ATOM     67  C   UNL A   1      46.975  27.404  25.174  1.00  0.00     0.023 A 
ATOM     68  C   UNL A   1      47.124  27.876  23.859  1.00  0.00     0.031 A 
ATOM     69  C   UNL A   1      47.992  26.584  25.698  1.00  0.00     0.131 A 
ATOM     70  C   UNL A   1      48.227  27.471  23.091  1.00  0.00     0.055 A 
ATOM     71  C   UNL A   1      49.125  26.246  24.955  1.00  0.00     0.041 A 
ATOM     72  F   UNL A   1      47.893  26.082  26.940  1.00  0.00    -0.206 F 
ATOM     73  C   UNL A   1      49.240  26.679  23.638  1.00  0.00     0.022 A 
BRANCH  70  74
ATOM     74  S   UNL A   1      48.253  27.880  21.324  1.00  0.00     0.124 S 
ATOM     75  O   UNL A   1      49.280  28.920  21.278  1.00  0.00    -0.237 OA
ATOM     76  O   UNL A   1      48.607  26.606  20.710  1.00  0.00    -0.237 OA
ATOM     77  O   UNL A   1      46.894  28.346  21.058  1.00  0.00    -0.744 OA
ENDBRANCH  70  74
ENDBRANCH  53  67
BRANCH  54  78
ATOM     78  C   UNL A   1      38.944  30.083  30.579  1.00  0.00     0.023 A 
ATOM     79  C   UNL A   1      37.937  30.834  29.955  1.00  0.00     0.031 A 
ATOM     80  C   UNL A   1      38.778  29.758  31.940  1.00  0.00     0.131 A 
ATOM     81  C   UNL A   1      36.826  31.266  30.698  1.00  0.00     0.055 A 
ATOM     82  C   UNL A   1      37.647  30.145  32.658  1.00  0.00     0.041 A 
ATOM     83  F   UNL A   1      39.711  29.041  32.585  1.00  0.00    -0.206 F 
ATOM     84  C   UNL A   1      36.667  30.915  32.040  1.00  0.00     0.022 A 
BRANCH  81  85
ATOM     85  S   UNL A   1      35.617  32.355  29.897  1.00  0.00     0.124 S 
ATOM     86  O   UNL A   1      36.477  33.388  29.328  1.00  0.00    -0.237 OA
ATOM     87  O   UNL A   1      34.982  31.452  28.943  1.00  0.00    -0.237 OA
ATOM     88  O   UNL A   1      34.765  32.790  31.001  1.00  0.00    -0.744 OA
ENDBRANCH  81  85
ENDBRANCH  54  78
BRANCH  66  89
ATOM     89  C   UNL A   1      40.695  24.312  27.074  1.00  0.00     0.023 A 
ATOM     90  C   UNL A   1      39.502  24.220  26.336  1.00  0.00     0.031 A 
ATOM     91  C   UNL A   1      41.214  23.138  27.648  1.00  0.00     0.131 A 
ATOM     92  C   UNL A   1      38.837  22.988  26.237  1.00  0.00     0.055 A 
ATOM     93  C   UNL A   1      40.580  21.905  27.494  1.00  0.00     0.041 A 
ATOM     94  F   UNL A   1      42.349  23.172  28.365  1.00  0.00    -0.206 F 
ATOM     95  C   UNL A   1      39.378  21.827  26.797  1.00  0.00     0.022 A 
BRANCH  92  96
ATOM     96  S   UNL A   1      37.207  22.940  25.444  1.00  0.00     0.124 S 
ATOM     97  O   UNL A   1      36.597  21.775  26.077  1.00  0.00    -0.237 OA
ATOM     98  O   UNL A   1      36.643  24.234  25.810  1.00  0.00    -0.237 OA
ATOM     99  O   UNL A   1      37.522  22.779  24.026  1.00  0.00    -0.744 OA
ENDBRANCH  92  96
ENDBRANCH  66  89
ENDBRANCH  40  41
ENDBRANCH  33  35
ENDBRANCH  32  33
ENDBRANCH  31  32
ENDBRANCH   1  31
TORSDOF 19
ENDMDL
MODEL 2
REMARK VINA RESULT:     -10.3      4.523     12.616
REMARK SMILES CC(=O)c1ccc(N2/C(=[NH+]/C(=O)CCCC(=O)OCCOC(=O)c3ccc(-c4c5nc(c(-c6cc(S(=O)(=O)[O-])ccc6F)c6ccc([nH]6)c(-c6cc(S(=O)(=O)[O-])ccc6F)c6nc(c(-c7cc(S(=O)(=O)[O-])ccc7F)c7ccc4[nH]7)C=C6)C=C5)cc3)S[C@H]3CS(=O)(=O)C[C@H]32)cc1
REMARK SMILES IDX 19 1 18 2 16 3 17 4 15 5 14 6 13 7 11 8 8 9 9 10 94 11 10 12
REMARK SMILES IDX 87 13 88 14 93 15 89 17 90 18 12 19 91 20 92 21 7 22 4 23
REMARK SMILES IDX 5 24 96 25 6 26 95 27 2 28 1 29 3 30 20 31 21 32 22 33 23 34
REMARK SMILES IDX 24 35 25 36 86 37 26 38 85 39 27 40 28 41 29 42 79 43 30 44
REMARK SMILES IDX 84 45 78 46 80 47 31 48 83 49 77 50 76 51 32 53 64 54 44 55
REMARK SMILES IDX 63 56 45 57 48 58 62 59 81 60 46 61 47 62 61 64 82 65 49 66
REMARK SMILES IDX 33 67 34 68 42 69 35 70 41 71 43 72 40 73 36 74 37 75 38 76
REMARK SMILES IDX 39 77 65 78 66 79 74 80 67 81 73 82 75 83 72 84 68 85 69 86
REMARK SMILES IDX 70 87 71 88 50 89 51 90 59 91 52 92 58 93 60 94 57 95 53 96
REMARK SMILES IDX 54 97 55 98 56 99
REMARK H PARENT 10 16 80 52 48 63
REMARK Flexibility Score: inf
ROOT
ATOM      1  C   UNL A   1      34.389  34.050  31.126  1.00  0.00     0.274 C 
ENDROOT
BRANCH   1   2
ATOM      2  O   UNL A   1      35.324  33.595  30.128  1.00  0.00    -0.462 OA
BRANCH   2   3
ATOM      3  C   UNL A   1      34.963  33.729  28.830  1.00  0.00     0.305 C 
ATOM      4  O   UNL A   1      35.710  34.116  27.937  1.00  0.00    -0.252 OA
BRANCH   3   5
ATOM      5  C   UNL A   1      33.523  33.331  28.554  1.00  0.00     0.123 C 
BRANCH   5   6
ATOM      6  C   UNL A   1      33.251  32.105  27.687  1.00  0.00     0.024 C 
BRANCH   6   7
ATOM      7  C   UNL A   1      34.380  31.103  27.465  1.00  0.00     0.128 C 
BRANCH   7   8
ATOM      8  C   UNL A   1      34.005  29.709  26.996  1.00  0.00     0.307 C 
ATOM      9  N   UNL A   1      31.631  28.419  24.579  1.00  0.00    -0.217 N 
ATOM     10  C   UNL A   1      32.778  28.696  25.299  1.00  0.00     0.319 C 
ATOM     11  C   UNL A   1      31.338  26.990  24.472  1.00  0.00     0.212 C 
ATOM     12  N   UNL A   1      32.914  29.645  26.162  1.00  0.00    -0.204 N 
ATOM     13  S   UNL A   1      33.958  27.426  24.969  1.00  0.00    -0.029 SA
ATOM     14  C   UNL A   1      32.702  26.288  24.292  1.00  0.00     0.120 C 
ATOM     15  C   UNL A   1      30.701  26.492  25.763  1.00  0.00     0.188 C 
ATOM     16  H   UNL A   1      32.220  30.341  26.226  1.00  0.00     0.316 HD
ATOM     17  C   UNL A   1      32.729  24.950  25.014  1.00  0.00     0.156 C 
ATOM     18  S   UNL A   1      31.175  24.797  25.856  1.00  0.00     0.155 S 
ATOM     19  O   UNL A   1      34.532  28.735  27.530  1.00  0.00    -0.247 OA
ATOM     20  O   UNL A   1      31.400  24.444  27.239  1.00  0.00    -0.229 OA
ATOM     21  O   UNL A   1      30.278  24.043  25.003  1.00  0.00    -0.229 OA
BRANCH   9  22
ATOM     22  C   UNL A   1      30.759  29.339  23.981  1.00  0.00     0.128 A 
ATOM     23  C   UNL A   1      29.186  31.334  22.693  1.00  0.00     0.018 A 
ATOM     24  C   UNL A   1      29.529  30.152  22.031  1.00  0.00     0.016 A 
ATOM     25  C   UNL A   1      29.603  31.508  24.014  1.00  0.00     0.016 A 
ATOM     26  C   UNL A   1      30.310  29.177  22.663  1.00  0.00     0.052 A 
ATOM     27  C   UNL A   1      30.374  30.514  24.648  1.00  0.00     0.052 A 
BRANCH  23  28
ATOM     28  C   UNL A   1      28.411  32.359  21.930  1.00  0.00     0.159 C 
ATOM     29  C   UNL A   1      28.017  32.081  20.502  1.00  0.00     0.093 C 
ATOM     30  O   UNL A   1      28.028  33.376  22.508  1.00  0.00    -0.295 OA
ENDBRANCH  23  28
ENDBRANCH   9  22
ENDBRANCH   7   8
ENDBRANCH   6   7
ENDBRANCH   5   6
ENDBRANCH   3   5
ENDBRANCH   2   3
ENDBRANCH   1   2
BRANCH   1  31
ATOM     31  C   UNL A   1      34.538  33.236  32.414  1.00  0.00     0.275 C 
BRANCH  31  32
ATOM     32  O   UNL A   1      35.152  31.962  32.150  1.00  0.00    -0.458 OA
BRANCH  32  33
ATOM     33  C   UNL A   1      36.280  31.718  32.858  1.00  0.00     0.338 C 
ATOM     34  O   UNL A   1      36.428  31.801  34.065  1.00  0.00    -0.246 OA
BRANCH  33  35
ATOM     35  C   UNL A   1      37.303  31.159  31.964  1.00  0.00     0.060 A 
ATOM     36  C   UNL A   1      38.500  30.737  32.538  1.00  0.00     0.016 A 
ATOM     37  C   UNL A   1      37.137  31.136  30.582  1.00  0.00     0.016 A 
ATOM     38  C   UNL A   1      39.557  30.316  31.747  1.00  0.00     0.010 A 
ATOM     39  C   UNL A   1      38.191  30.680  29.782  1.00  0.00     0.010 A 
ATOM     40  C   UNL A   1      39.412  30.281  30.359  1.00  0.00    -0.014 A 
BRANCH  40  41
ATOM     41  C   UNL A   1      40.566  29.875  29.523  1.00  0.00     0.031 A 
ATOM     42  C   UNL A   1      40.569  28.522  28.873  1.00  0.00     0.074 A 
ATOM     43  C   UNL A   1      41.582  30.735  29.320  1.00  0.00     0.049 A 
ATOM     44  N   UNL A   1      41.524  27.922  28.214  1.00  0.00    -0.248 NA
ATOM     45  C   UNL A   1      39.330  27.738  28.989  1.00  0.00     0.031 C 
ATOM     46  C   UNL A   1      41.650  32.101  29.845  1.00  0.00     0.029 A 
ATOM     47  N   UNL A   1      42.753  30.590  28.621  1.00  0.00    -0.354 N 
ATOM     48  C   UNL A   1      41.020  26.673  27.868  1.00  0.00     0.074 A 
ATOM     49  C   UNL A   1      39.676  26.601  28.403  1.00  0.00     0.031 C 
ATOM     50  C   UNL A   1      42.800  32.667  29.448  1.00  0.00     0.029 A 
ATOM     51  C   UNL A   1      43.581  31.685  28.706  1.00  0.00     0.049 A 
ATOM     52  H   UNL A   1      42.979  29.780  28.109  1.00  0.00     0.167 HD
ATOM     53  C   UNL A   1      41.629  25.683  27.171  1.00  0.00     0.034 A 
ATOM     54  C   UNL A   1      44.846  31.859  28.276  1.00  0.00     0.034 A 
ATOM     55  C   UNL A   1      42.966  25.791  26.635  1.00  0.00     0.049 A 
ATOM     56  C   UNL A   1      45.527  30.720  27.561  1.00  0.00     0.074 A 
ATOM     57  C   UNL A   1      43.681  24.857  25.907  1.00  0.00     0.029 A 
ATOM     58  N   UNL A   1      43.791  26.901  26.773  1.00  0.00    -0.354 N 
ATOM     59  N   UNL A   1      45.058  29.527  27.275  1.00  0.00    -0.248 NA
ATOM     60  C   UNL A   1      46.906  30.950  27.116  1.00  0.00     0.031 C 
ATOM     61  C   UNL A   1      44.958  25.375  25.663  1.00  0.00     0.029 A 
ATOM     62  C   UNL A   1      45.016  26.664  26.169  1.00  0.00     0.049 A 
ATOM     63  H   UNL A   1      43.541  27.736  27.232  1.00  0.00     0.167 HD
ATOM     64  C   UNL A   1      46.080  28.869  26.598  1.00  0.00     0.074 A 
ATOM     65  C   UNL A   1      47.182  29.807  26.502  1.00  0.00     0.031 C 
ATOM     66  C   UNL A   1      46.108  27.608  26.098  1.00  0.00     0.034 A 
BRANCH  53  67
ATOM     67  C   UNL A   1      40.881  24.381  27.016  1.00  0.00     0.023 A 
ATOM     68  C   UNL A   1      39.694  24.283  26.271  1.00  0.00     0.031 A 
ATOM     69  C   UNL A   1      41.353  23.221  27.658  1.00  0.00     0.131 A 
ATOM     70  C   UNL A   1      38.984  23.073  26.243  1.00  0.00     0.055 A 
ATOM     71  C   UNL A   1      40.683  22.000  27.562  1.00  0.00     0.041 A 
ATOM     72  F   UNL A   1      42.469  23.259  28.404  1.00  0.00    -0.206 F 
ATOM     73  C   UNL A   1      39.483  21.924  26.863  1.00  0.00     0.022 A 
BRANCH  70  74
ATOM     74  S   UNL A   1      37.330  23.052  25.497  1.00  0.00     0.124 S 
ATOM     75  O   UNL A   1      37.052  21.618  25.438  1.00  0.00    -0.237 OA
ATOM     76  O   UNL A   1      36.542  23.816  26.457  1.00  0.00    -0.237 OA
ATOM     77  O   UNL A   1      37.529  23.694  24.200  1.00  0.00    -0.744 OA
ENDBRANCH  70  74
ENDBRANCH  53  67
BRANCH  54  78
ATOM     78  C   UNL A   1      45.572  33.128  28.567  1.00  0.00     0.023 A 
ATOM     79  C   UNL A   1      45.284  34.309  27.868  1.00  0.00     0.031 A 
ATOM     80  C   UNL A   1      46.589  33.167  29.540  1.00  0.00     0.131 A 
ATOM     81  C   UNL A   1      46.027  35.472  28.127  1.00  0.00     0.055 A 
ATOM     82  C   UNL A   1      47.289  34.339  29.829  1.00  0.00     0.041 A 
ATOM     83  F   UNL A   1      46.904  32.065  30.239  1.00  0.00    -0.206 F 
ATOM     84  C   UNL A   1      47.018  35.498  29.111  1.00  0.00     0.022 A 
BRANCH  81  85
ATOM     85  S   UNL A   1      45.726  36.939  27.104  1.00  0.00     0.124 S 
ATOM     86  O   UNL A   1      47.085  37.353  26.769  1.00  0.00    -0.237 OA
ATOM     87  O   UNL A   1      44.936  36.386  26.009  1.00  0.00    -0.237 OA
ATOM     88  O   UNL A   1      45.002  37.837  28.000  1.00  0.00    -0.744 OA
ENDBRANCH  81  85
ENDBRANCH  54  78
BRANCH  66  89
ATOM     89  C   UNL A   1      47.361  27.193  25.367  1.00  0.00     0.023 A 
ATOM     90  C   UNL A   1      47.621  27.610  24.051  1.00  0.00     0.031 A 
ATOM     91  C   UNL A   1      48.298  26.354  25.996  1.00  0.00     0.131 A 
ATOM     92  C   UNL A   1      48.763  27.142  23.384  1.00  0.00     0.055 A 
ATOM     93  C   UNL A   1      49.462  25.941  25.348  1.00  0.00     0.041 A 
ATOM     94  F   UNL A   1      48.096  25.923  27.252  1.00  0.00    -0.206 F 
ATOM     95  C   UNL A   1      49.694  26.324  24.030  1.00  0.00     0.022 A 
BRANCH  92  96
ATOM     96  S   UNL A   1      48.972  27.543  21.628  1.00  0.00     0.124 S 
ATOM     97  O   UNL A   1      49.746  26.403  21.147  1.00  0.00    -0.237 OA
ATOM     98  O   UNL A   1      47.592  27.620  21.159  1.00  0.00    -0.237 OA
ATOM     99  O   UNL A   1      49.691  28.815  21.649  1.00  0.00    -0.744 OA
ENDBRANCH  92  96
ENDBRANCH  66  89
ENDBRANCH  40  41
ENDBRANCH  33  35
ENDBRANCH  32  33
ENDBRANCH  31  32
ENDBRANCH   1  31
TORSDOF 19
ENDMDL
MODEL 3
REMARK VINA RESULT:     -10.2      4.656     10.735
REMARK SMILES CC(=O)c1ccc(N2/C(=[NH+]/C(=O)CCCC(=O)OCCOC(=O)c3ccc(-c4c5nc(c(-c6cc(S(=O)(=O)[O-])ccc6F)c6ccc([nH]6)c(-c6cc(S(=O)(=O)[O-])ccc6F)c6nc(c(-c7cc(S(=O)(=O)[O-])ccc7F)c7ccc4[nH]7)C=C6)C=C5)cc3)S[C@H]3CS(=O)(=O)C[C@H]32)cc1
REMARK SMILES IDX 19 1 18 2 16 3 17 4 15 5 14 6 13 7 11 8 8 9 9 10 94 11 10 12
REMARK SMILES IDX 87 13 88 14 93 15 89 17 90 18 12 19 91 20 92 21 7 22 4 23
REMARK SMILES IDX 5 24 96 25 6 26 95 27 2 28 1 29 3 30 20 31 21 32 22 33 23 34
REMARK SMILES IDX 24 35 25 36 86 37 26 38 85 39 27 40 28 41 29 42 79 43 30 44
REMARK SMILES IDX 84 45 78 46 80 47 31 48 83 49 77 50 76 51 32 53 64 54 44 55
REMARK SMILES IDX 63 56 45 57 48 58 62 59 81 60 46 61 47 62 61 64 82 65 49 66
REMARK SMILES IDX 33 67 34 68 42 69 35 70 41 71 43 72 40 73 36 74 37 75 38 76
REMARK SMILES IDX 39 77 65 78 66 79 74 80 67 81 73 82 75 83 72 84 68 85 69 86
REMARK SMILES IDX 70 87 71 88 50 89 51 90 59 91 52 92 58 93 60 94 57 95 53 96
REMARK SMILES IDX 54 97 55 98 56 99
REMARK H PARENT 10 16 80 52 48 63
REMARK Flexibility Score: inf
ROOT
ATOM      1  C   UNL A   1      34.732  34.303  29.507  1.00  0.00     0.274 C 
ENDROOT
BRANCH   1   2
ATOM      2  O   UNL A   1      34.659  33.612  30.769  1.00  0.00    -0.462 OA
BRANCH   2   3
ATOM      3  C   UNL A   1      35.802  33.069  31.250  1.00  0.00     0.305 C 
ATOM      4  O   UNL A   1      35.922  31.901  31.603  1.00  0.00    -0.252 OA
BRANCH   3   5
ATOM      5  C   UNL A   1      36.966  34.044  31.300  1.00  0.00     0.123 C 
BRANCH   5   6
ATOM      6  C   UNL A   1      38.090  33.904  30.279  1.00  0.00     0.024 C 
BRANCH   6   7
ATOM      7  C   UNL A   1      39.340  34.763  30.448  1.00  0.00     0.128 C 
BRANCH   7   8
ATOM      8  C   UNL A   1      40.652  34.214  29.917  1.00  0.00     0.307 C 
ATOM      9  N   UNL A   1      43.450  35.667  28.128  1.00  0.00    -0.217 N 
ATOM     10  C   UNL A   1      42.660  34.997  29.044  1.00  0.00     0.319 C 
ATOM     11  C   UNL A   1      44.515  34.841  27.559  1.00  0.00     0.212 C 
ATOM     12  N   UNL A   1      41.377  35.081  29.136  1.00  0.00    -0.204 N 
ATOM     13  S   UNL A   1      43.687  33.877  29.943  1.00  0.00    -0.029 SA
ATOM     14  C   UNL A   1      45.034  33.959  28.715  1.00  0.00     0.120 C 
ATOM     15  C   UNL A   1      43.946  33.935  26.474  1.00  0.00     0.188 C 
ATOM     16  H   UNL A   1      40.904  35.784  28.633  1.00  0.00     0.316 HD
ATOM     17  C   UNL A   1      45.408  32.571  28.220  1.00  0.00     0.156 C 
ATOM     18  S   UNL A   1      44.994  32.520  26.495  1.00  0.00     0.155 S 
ATOM     19  O   UNL A   1      40.885  33.012  30.025  1.00  0.00    -0.247 OA
ATOM     20  O   UNL A   1      44.204  31.342  26.216  1.00  0.00    -0.229 OA
ATOM     21  O   UNL A   1      46.187  32.845  25.740  1.00  0.00    -0.229 OA
BRANCH   9  22
ATOM     22  C   UNL A   1      43.322  36.997  27.707  1.00  0.00     0.128 A 
ATOM     23  C   UNL A   1      43.088  39.620  26.619  1.00  0.00     0.018 A 
ATOM     24  C   UNL A   1      41.952  38.859  26.911  1.00  0.00     0.016 A 
ATOM     25  C   UNL A   1      44.345  39.082  26.901  1.00  0.00     0.016 A 
ATOM     26  C   UNL A   1      42.070  37.566  27.436  1.00  0.00     0.052 A 
ATOM     27  C   UNL A   1      44.454  37.788  27.447  1.00  0.00     0.052 A 
BRANCH  23  28
ATOM     28  C   UNL A   1      42.884  40.961  25.993  1.00  0.00     0.159 C 
ATOM     29  C   UNL A   1      41.682  41.197  25.116  1.00  0.00     0.093 C 
ATOM     30  O   UNL A   1      43.654  41.879  26.277  1.00  0.00    -0.295 OA
ENDBRANCH  23  28
ENDBRANCH   9  22
ENDBRANCH   7   8
ENDBRANCH   6   7
ENDBRANCH   5   6
ENDBRANCH   3   5
ENDBRANCH   2   3
ENDBRANCH   1   2
BRANCH   1  31
ATOM     31  C   UNL A   1      33.850  33.613  28.464  1.00  0.00     0.275 C 
BRANCH  31  32
ATOM     32  O   UNL A   1      34.632  32.752  27.616  1.00  0.00    -0.458 OA
BRANCH  32  33
ATOM     33  C   UNL A   1      34.426  31.428  27.808  1.00  0.00     0.338 C 
ATOM     34  O   UNL A   1      33.406  30.797  27.588  1.00  0.00    -0.246 OA
BRANCH  33  35
ATOM     35  C   UNL A   1      35.696  30.790  28.181  1.00  0.00     0.060 A 
ATOM     36  C   UNL A   1      35.633  29.637  28.962  1.00  0.00     0.016 A 
ATOM     37  C   UNL A   1      36.925  31.356  27.858  1.00  0.00     0.016 A 
ATOM     38  C   UNL A   1      36.788  29.050  29.456  1.00  0.00     0.010 A 
ATOM     39  C   UNL A   1      38.095  30.747  28.328  1.00  0.00     0.010 A 
ATOM     40  C   UNL A   1      38.032  29.600  29.142  1.00  0.00    -0.014 A 
BRANCH  40  41
ATOM     41  C   UNL A   1      39.255  28.991  29.716  1.00  0.00     0.031 A 
ATOM     42  C   UNL A   1      39.859  29.575  30.960  1.00  0.00     0.074 A 
ATOM     43  C   UNL A   1      39.792  27.897  29.142  1.00  0.00     0.049 A 
ATOM     44  N   UNL A   1      40.987  29.281  31.549  1.00  0.00    -0.248 NA
ATOM     45  C   UNL A   1      39.089  30.639  31.623  1.00  0.00     0.031 C 
ATOM     46  C   UNL A   1      39.247  27.205  27.972  1.00  0.00     0.029 A 
ATOM     47  N   UNL A   1      40.914  27.177  29.461  1.00  0.00    -0.354 N 
ATOM     48  C   UNL A   1      41.086  30.149  32.632  1.00  0.00     0.074 A 
ATOM     49  C   UNL A   1      39.906  30.988  32.606  1.00  0.00     0.031 C 
ATOM     50  C   UNL A   1      40.035  26.160  27.675  1.00  0.00     0.029 A 
ATOM     51  C   UNL A   1      41.175  26.151  28.583  1.00  0.00     0.049 A 
ATOM     52  H   UNL A   1      41.478  27.375  30.244  1.00  0.00     0.167 HD
ATOM     53  C   UNL A   1      42.076  30.234  33.555  1.00  0.00     0.034 A 
ATOM     54  C   UNL A   1      42.240  25.330  28.491  1.00  0.00     0.034 A 
ATOM     55  C   UNL A   1      43.234  29.371  33.563  1.00  0.00     0.049 A 
ATOM     56  C   UNL A   1      43.358  25.487  29.488  1.00  0.00     0.074 A 
ATOM     57  C   UNL A   1      44.294  29.360  34.452  1.00  0.00     0.029 A 
ATOM     58  N   UNL A   1      43.485  28.368  32.635  1.00  0.00    -0.354 N 
ATOM     59  N   UNL A   1      43.464  26.337  30.483  1.00  0.00    -0.248 NA
ATOM     60  C   UNL A   1      44.501  24.576  29.347  1.00  0.00     0.031 C 
ATOM     61  C   UNL A   1      45.215  28.398  34.023  1.00  0.00     0.029 A 
ATOM     62  C   UNL A   1      44.697  27.752  32.912  1.00  0.00     0.049 A 
ATOM     63  H   UNL A   1      42.890  28.128  31.888  1.00  0.00     0.167 HD
ATOM     64  C   UNL A   1      44.678  26.051  31.100  1.00  0.00     0.074 A 
ATOM     65  C   UNL A   1      45.257  24.936  30.375  1.00  0.00     0.031 C 
ATOM     66  C   UNL A   1      45.263  26.651  32.167  1.00  0.00     0.034 A 
BRANCH  53  67
ATOM     67  C   UNL A   1      41.978  31.338  34.578  1.00  0.00     0.023 A 
ATOM     68  C   UNL A   1      42.531  32.612  34.361  1.00  0.00     0.031 A 
ATOM     69  C   UNL A   1      41.344  31.098  35.811  1.00  0.00     0.131 A 
ATOM     70  C   UNL A   1      42.500  33.571  35.385  1.00  0.00     0.055 A 
ATOM     71  C   UNL A   1      41.248  32.082  36.797  1.00  0.00     0.041 A 
ATOM     72  F   UNL A   1      40.818  29.892  36.085  1.00  0.00    -0.206 F 
ATOM     73  C   UNL A   1      41.841  33.323  36.593  1.00  0.00     0.022 A 
BRANCH  70  74
ATOM     74  S   UNL A   1      43.449  35.102  35.171  1.00  0.00     0.124 S 
ATOM     75  O   UNL A   1      42.918  35.604  33.905  1.00  0.00    -0.237 OA
ATOM     76  O   UNL A   1      43.091  35.865  36.361  1.00  0.00    -0.237 OA
ATOM     77  O   UNL A   1      44.835  34.643  35.118  1.00  0.00    -0.744 OA
ENDBRANCH  70  74
ENDBRANCH  53  67
BRANCH  54  78
ATOM     78  C   UNL A   1      42.330  24.339  27.381  1.00  0.00     0.023 A 
ATOM     79  C   UNL A   1      41.659  23.110  27.446  1.00  0.00     0.031 A 
ATOM     80  C   UNL A   1      43.119  24.603  26.244  1.00  0.00     0.131 A 
ATOM     81  C   UNL A   1      41.815  22.174  26.410  1.00  0.00     0.055 A 
ATOM     82  C   UNL A   1      43.227  23.691  25.194  1.00  0.00     0.041 A 
ATOM     83  F   UNL A   1      43.782  25.765  26.132  1.00  0.00    -0.206 F 
ATOM     84  C   UNL A   1      42.582  22.462  25.279  1.00  0.00     0.022 A 
BRANCH  81  85
ATOM     85  S   UNL A   1      41.050  20.540  26.594  1.00  0.00     0.124 S 
ATOM     86  O   UNL A   1      42.053  19.671  25.987  1.00  0.00    -0.237 OA
ATOM     87  O   UNL A   1      40.903  20.437  28.042  1.00  0.00    -0.237 OA
ATOM     88  O   UNL A   1      39.798  20.663  25.851  1.00  0.00    -0.744 OA
ENDBRANCH  81  85
ENDBRANCH  54  78
BRANCH  66  89
ATOM     89  C   UNL A   1      46.577  26.078  32.635  1.00  0.00     0.023 A 
ATOM     90  C   UNL A   1      47.795  26.433  32.031  1.00  0.00     0.031 A 
ATOM     91  C   UNL A   1      46.605  25.149  33.691  1.00  0.00     0.131 A 
ATOM     92  C   UNL A   1      48.987  25.823  32.451  1.00  0.00     0.055 A 
ATOM     93  C   UNL A   1      47.801  24.590  34.144  1.00  0.00     0.041 A 
ATOM     94  F   UNL A   1      45.470  24.772  34.300  1.00  0.00    -0.206 F 
ATOM     95  C   UNL A   1      48.999  24.916  33.515  1.00  0.00     0.022 A 
BRANCH  92  96
ATOM     96  S   UNL A   1      50.510  26.159  31.527  1.00  0.00     0.124 S 
ATOM     97  O   UNL A   1      51.537  25.884  32.527  1.00  0.00    -0.237 OA
ATOM     98  O   UNL A   1      50.423  25.208  30.424  1.00  0.00    -0.237 OA
ATOM     99  O   UNL A   1      50.377  27.563  31.146  1.00  0.00    -0.744 OA
ENDBRANCH  92  96
ENDBRANCH  66  89
ENDBRANCH  40  41
ENDBRANCH  33  35
ENDBRANCH  32  33
ENDBRANCH  31  32
ENDBRANCH   1  31
TORSDOF 19
ENDMDL
