MODEL 1
REMARK VINA RESULT:     -11.9      0.000      0.000
REMARK SMILES O=C(OCCOC(=O)[C@H]1C[C@](O)(c2ccc(Cl)cc2)[C@@H](c2ccc(Cl)cc2)O1)c1ccc(-c2c3nc(c(-c4cc(S(=O)(=O)[O-])ccc4F)c4ccc([nH]4)c(-c4cc(S(=O)(=O)[O-])ccc4F)c4nc(c(-c5cc(S(=O)(=O)[O-])ccc5F)c5ccc2[nH]5)C=C4)C=C3)cc1
REMARK SMILES IDX 4 1 3 2 2 3 1 4 29 5 30 6 91 7 31 8 90 9 32 10 33 11 34 12
REMARK SMILES IDX 84 13 35 14 89 15 83 16 85 17 36 18 88 19 82 20 81 21 37 23
REMARK SMILES IDX 69 24 49 25 68 26 50 27 53 28 67 29 86 30 51 31 52 32 66 34
REMARK SMILES IDX 87 35 54 36 38 37 39 38 47 39 40 40 46 41 48 42 45 43 41 44
REMARK SMILES IDX 42 45 43 46 44 47 70 48 71 49 79 50 72 51 78 52 80 53 77 54
REMARK SMILES IDX 73 55 74 56 75 57 76 58 55 59 56 60 64 61 57 62 63 63 65 64
REMARK SMILES IDX 62 65 58 66 59 67 60 68 61 69 5 70 6 71 7 72 8 73 9 74 10 75
REMARK SMILES IDX 28 76 11 77 20 78 13 79 14 80 19 81 15 82 18 83 16 84 17 85
REMARK SMILES IDX 12 86 21 88 22 89 27 90 23 91 26 92 24 93 25 94
REMARK H PARENT 85 22 53 33 12 87
REMARK Flexibility Score: inf
ROOT
ATOM      1  C   UNL A   1      38.181  21.191  25.105  1.00  0.00     0.275 C 
ENDROOT
BRANCH   1   2
ATOM      2  O   UNL A   1      38.537  21.542  26.462  1.00  0.00    -0.458 OA
BRANCH   2   3
ATOM      3  C   UNL A   1      39.845  21.626  26.849  1.00  0.00     0.338 C 
ATOM      4  O   UNL A   1      40.431  20.670  27.342  1.00  0.00    -0.246 OA
BRANCH   3   5
ATOM      5  C   UNL A   1      40.354  23.039  27.017  1.00  0.00     0.060 A 
ATOM      6  C   UNL A   1      39.891  24.087  26.247  1.00  0.00     0.016 A 
ATOM      7  C   UNL A   1      41.274  23.398  28.009  1.00  0.00     0.016 A 
ATOM      8  C   UNL A   1      40.180  25.442  26.573  1.00  0.00     0.010 A 
ATOM      9  C   UNL A   1      41.499  24.785  28.352  1.00  0.00     0.010 A 
ATOM     10  C   UNL A   1      40.826  25.864  27.721  1.00  0.00    -0.014 A 
BRANCH  10  11
ATOM     11  C   UNL A   1      41.030  27.391  28.013  1.00  0.00     0.031 A 
ATOM     12  C   UNL A   1      42.405  27.859  27.834  1.00  0.00     0.074 A 
ATOM     13  C   UNL A   1      40.199  28.454  28.273  1.00  0.00     0.049 A 
ATOM     14  N   UNL A   1      42.968  28.915  28.337  1.00  0.00    -0.248 NA
ATOM     15  C   UNL A   1      43.238  27.002  26.997  1.00  0.00     0.031 C 
ATOM     16  C   UNL A   1      38.786  28.356  28.265  1.00  0.00     0.029 A 
ATOM     17  N   UNL A   1      40.318  29.805  28.612  1.00  0.00    -0.354 N 
ATOM     18  C   UNL A   1      44.270  28.822  27.925  1.00  0.00     0.074 A 
ATOM     19  C   UNL A   1      44.411  27.550  27.235  1.00  0.00     0.031 C 
ATOM     20  C   UNL A   1      38.117  29.468  28.581  1.00  0.00     0.029 A 
ATOM     21  C   UNL A   1      39.108  30.422  28.981  1.00  0.00     0.049 A 
ATOM     22  H   UNL A   1      41.178  30.286  28.593  1.00  0.00     0.167 HD
ATOM     23  C   UNL A   1      45.244  29.740  28.072  1.00  0.00     0.034 A 
ATOM     24  C   UNL A   1      38.767  31.537  29.670  1.00  0.00     0.034 A 
ATOM     25  C   UNL A   1      45.077  31.022  28.697  1.00  0.00     0.049 A 
ATOM     26  C   UNL A   1      39.885  32.410  30.113  1.00  0.00     0.074 A 
ATOM     27  C   UNL A   1      46.036  31.997  28.884  1.00  0.00     0.029 A 
ATOM     28  N   UNL A   1      43.895  31.519  29.235  1.00  0.00    -0.354 N 
ATOM     29  N   UNL A   1      41.161  32.217  29.906  1.00  0.00    -0.248 NA
ATOM     30  C   UNL A   1      39.552  33.625  30.862  1.00  0.00     0.031 C 
ATOM     31  C   UNL A   1      45.452  33.063  29.575  1.00  0.00     0.029 A 
ATOM     32  C   UNL A   1      44.108  32.788  29.760  1.00  0.00     0.049 A 
ATOM     33  H   UNL A   1      43.033  31.042  29.244  1.00  0.00     0.167 HD
ATOM     34  C   UNL A   1      41.787  33.325  30.436  1.00  0.00     0.074 A 
ATOM     35  C   UNL A   1      40.756  34.159  31.024  1.00  0.00     0.031 C 
ATOM     36  C   UNL A   1      43.103  33.626  30.370  1.00  0.00     0.034 A 
BRANCH  23  37
ATOM     37  C   UNL A   1      46.585  29.265  27.615  1.00  0.00     0.023 A 
ATOM     38  C   UNL A   1      46.851  29.050  26.250  1.00  0.00     0.031 A 
ATOM     39  C   UNL A   1      47.471  28.756  28.574  1.00  0.00     0.131 A 
ATOM     40  C   UNL A   1      47.880  28.169  25.900  1.00  0.00     0.055 A 
ATOM     41  C   UNL A   1      48.579  28.004  28.201  1.00  0.00     0.041 A 
ATOM     42  F   UNL A   1      47.216  28.898  29.884  1.00  0.00    -0.206 F 
ATOM     43  C   UNL A   1      48.767  27.676  26.860  1.00  0.00     0.022 A 
BRANCH  40  44
ATOM     44  S   UNL A   1      47.839  27.446  24.232  1.00  0.00     0.124 S 
ATOM     45  O   UNL A   1      47.239  28.542  23.456  1.00  0.00    -0.237 OA
ATOM     46  O   UNL A   1      49.219  27.156  23.966  1.00  0.00    -0.237 OA
ATOM     47  O   UNL A   1      46.956  26.278  24.399  1.00  0.00    -0.744 OA
ENDBRANCH  40  44
ENDBRANCH  23  37
BRANCH  24  48
ATOM     48  C   UNL A   1      37.368  31.802  30.182  1.00  0.00     0.023 A 
ATOM     49  C   UNL A   1      36.425  32.604  29.511  1.00  0.00     0.031 A 
ATOM     50  C   UNL A   1      37.003  31.333  31.460  1.00  0.00     0.131 A 
ATOM     51  C   UNL A   1      35.193  32.918  30.132  1.00  0.00     0.055 A 
ATOM     52  C   UNL A   1      35.769  31.608  32.054  1.00  0.00     0.041 A 
ATOM     53  F   UNL A   1      37.865  30.607  32.180  1.00  0.00    -0.206 F 
ATOM     54  C   UNL A   1      34.856  32.413  31.392  1.00  0.00     0.022 A 
BRANCH  51  55
ATOM     55  S   UNL A   1      34.041  34.068  29.317  1.00  0.00     0.124 S 
ATOM     56  O   UNL A   1      33.267  34.562  30.449  1.00  0.00    -0.237 OA
ATOM     57  O   UNL A   1      34.955  35.020  28.695  1.00  0.00    -0.237 OA
ATOM     58  O   UNL A   1      33.309  33.214  28.383  1.00  0.00    -0.744 OA
ENDBRANCH  51  55
ENDBRANCH  24  48
BRANCH  36  59
ATOM     59  C   UNL A   1      43.492  34.992  30.844  1.00  0.00     0.023 A 
ATOM     60  C   UNL A   1      43.541  36.098  29.984  1.00  0.00     0.031 A 
ATOM     61  C   UNL A   1      43.833  35.171  32.196  1.00  0.00     0.131 A 
ATOM     62  C   UNL A   1      43.943  37.342  30.489  1.00  0.00     0.055 A 
ATOM     63  C   UNL A   1      44.178  36.420  32.702  1.00  0.00     0.041 A 
ATOM     64  F   UNL A   1      43.829  34.130  33.044  1.00  0.00    -0.206 F 
ATOM     65  C   UNL A   1      44.237  37.515  31.845  1.00  0.00     0.022 A 
BRANCH  62  66
ATOM     66  S   UNL A   1      44.119  38.733  29.340  1.00  0.00     0.124 S 
ATOM     67  O   UNL A   1      42.726  39.061  29.051  1.00  0.00    -0.237 OA
ATOM     68  O   UNL A   1      44.852  39.710  30.138  1.00  0.00    -0.237 OA
ATOM     69  O   UNL A   1      44.869  38.160  28.225  1.00  0.00    -0.744 OA
ENDBRANCH  62  66
ENDBRANCH  36  59
ENDBRANCH  10  11
ENDBRANCH   3   5
ENDBRANCH   2   3
ENDBRANCH   1   2
BRANCH   1  70
ATOM     70  C   UNL A   1      36.818  21.804  24.739  1.00  0.00     0.274 C 
BRANCH  70  71
ATOM     71  O   UNL A   1      36.058  22.198  25.889  1.00  0.00    -0.460 OA
BRANCH  71  72
ATOM     72  C   UNL A   1      35.626  23.489  26.004  1.00  0.00     0.335 C 
ATOM     73  O   UNL A   1      36.288  24.478  25.710  1.00  0.00    -0.249 OA
BRANCH  72  74
ATOM     74  C   UNL A   1      34.219  23.550  26.656  1.00  0.00     0.232 C 
ATOM     75  C   UNL A   1      33.272  24.587  26.052  1.00  0.00     0.087 C 
ATOM     76  O   UNL A   1      33.568  22.277  26.622  1.00  0.00    -0.355 OA
ATOM     77  C   UNL A   1      32.783  23.903  24.787  1.00  0.00     0.123 C 
ATOM     78  C   UNL A   1      32.582  22.291  25.559  1.00  0.00     0.186 C 
BRANCH  77  79
ATOM     79  C   UNL A   1      31.780  24.960  24.044  1.00  0.00    -0.013 A 
ATOM     80  C   UNL A   1      30.517  25.346  24.596  1.00  0.00     0.008 A 
ATOM     81  C   UNL A   1      32.015  25.588  22.807  1.00  0.00     0.008 A 
ATOM     82  C   UNL A   1      29.749  26.453  24.137  1.00  0.00     0.021 A 
ATOM     83  C   UNL A   1      31.288  26.740  22.369  1.00  0.00     0.021 A 
ATOM     84  C   UNL A   1      30.182  27.196  23.060  1.00  0.00     0.041 A 
ATOM     85  Cl  UNL A   1      29.340  28.615  22.572  1.00  0.00    -0.084 Cl
ENDBRANCH  77  79
BRANCH  77  86
ATOM     86  O   UNL A   1      33.971  23.863  23.993  1.00  0.00    -0.382 OA
ATOM     87  H   UNL A   1      34.734  23.677  24.562  1.00  0.00     0.212 HD
ENDBRANCH  77  86
BRANCH  78  88
ATOM     88  C   UNL A   1      32.589  20.795  24.961  1.00  0.00    -0.016 A 
ATOM     89  C   UNL A   1      32.871  19.650  25.731  1.00  0.00     0.008 A 
ATOM     90  C   UNL A   1      32.282  20.467  23.606  1.00  0.00     0.008 A 
ATOM     91  C   UNL A   1      33.101  18.361  25.171  1.00  0.00     0.021 A 
ATOM     92  C   UNL A   1      32.532  19.194  23.021  1.00  0.00     0.021 A 
ATOM     93  C   UNL A   1      32.984  18.150  23.805  1.00  0.00     0.041 A 
ATOM     94  Cl  UNL A   1      33.410  16.636  23.109  1.00  0.00    -0.084 Cl
ENDBRANCH  78  88
ENDBRANCH  72  74
ENDBRANCH  71  72
ENDBRANCH  70  71
ENDBRANCH   1  70
TORSDOF 17
ENDMDL
MODEL 2
REMARK VINA RESULT:     -11.9      5.952      9.892
REMARK SMILES O=C(OCCOC(=O)[C@H]1C[C@](O)(c2ccc(Cl)cc2)[C@@H](c2ccc(Cl)cc2)O1)c1ccc(-c2c3nc(c(-c4cc(S(=O)(=O)[O-])ccc4F)c4ccc([nH]4)c(-c4cc(S(=O)(=O)[O-])ccc4F)c4nc(c(-c5cc(S(=O)(=O)[O-])ccc5F)c5ccc2[nH]5)C=C4)C=C3)cc1
REMARK SMILES IDX 4 1 3 2 2 3 1 4 29 5 30 6 91 7 31 8 90 9 32 10 33 11 34 12
REMARK SMILES IDX 84 13 35 14 89 15 83 16 85 17 36 18 88 19 82 20 81 21 37 23
REMARK SMILES IDX 69 24 49 25 68 26 50 27 53 28 67 29 86 30 51 31 52 32 66 34
REMARK SMILES IDX 87 35 54 36 38 37 39 38 47 39 40 40 46 41 48 42 45 43 41 44
REMARK SMILES IDX 42 45 43 46 44 47 70 48 71 49 79 50 72 51 78 52 80 53 77 54
REMARK SMILES IDX 73 55 74 56 75 57 76 58 55 59 56 60 64 61 57 62 63 63 65 64
REMARK SMILES IDX 62 65 58 66 59 67 60 68 61 69 5 70 6 71 7 72 8 73 9 74 10 75
REMARK SMILES IDX 28 76 11 77 20 78 13 79 14 80 19 81 15 82 18 83 16 84 17 85
REMARK SMILES IDX 12 86 21 88 22 89 27 90 23 91 26 92 24 93 25 94
REMARK H PARENT 85 22 53 33 12 87
REMARK Flexibility Score: inf
ROOT
ATOM      1  C   UNL A   1      45.147  21.666  25.423  1.00  0.00     0.275 C 
ENDROOT
BRANCH   1   2
ATOM      2  O   UNL A   1      43.848  22.118  25.869  1.00  0.00    -0.458 OA
BRANCH   2   3
ATOM      3  C   UNL A   1      43.078  22.934  25.087  1.00  0.00     0.338 C 
ATOM      4  O   UNL A   1      43.204  22.963  23.870  1.00  0.00    -0.246 OA
BRANCH   3   5
ATOM      5  C   UNL A   1      42.402  24.057  25.840  1.00  0.00     0.060 A 
ATOM      6  C   UNL A   1      41.749  23.853  27.039  1.00  0.00     0.016 A 
ATOM      7  C   UNL A   1      42.452  25.389  25.415  1.00  0.00     0.016 A 
ATOM      8  C   UNL A   1      41.338  24.939  27.863  1.00  0.00     0.010 A 
ATOM      9  C   UNL A   1      42.080  26.470  26.300  1.00  0.00     0.010 A 
ATOM     10  C   UNL A   1      41.641  26.270  27.635  1.00  0.00    -0.014 A 
BRANCH  10  11
ATOM     11  C   UNL A   1      41.196  27.380  28.649  1.00  0.00     0.031 A 
ATOM     12  C   UNL A   1      42.052  27.493  29.831  1.00  0.00     0.074 A 
ATOM     13  C   UNL A   1      40.260  28.387  28.646  1.00  0.00     0.049 A 
ATOM     14  N   UNL A   1      41.766  28.011  30.986  1.00  0.00    -0.248 NA
ATOM     15  C   UNL A   1      43.386  26.924  29.675  1.00  0.00     0.031 C 
ATOM     16  C   UNL A   1      39.442  28.683  27.528  1.00  0.00     0.029 A 
ATOM     17  N   UNL A   1      39.769  29.348  29.533  1.00  0.00    -0.354 N 
ATOM     18  C   UNL A   1      42.884  27.773  31.740  1.00  0.00     0.074 A 
ATOM     19  C   UNL A   1      43.783  26.969  30.929  1.00  0.00     0.031 C 
ATOM     20  C   UNL A   1      38.550  29.662  27.696  1.00  0.00     0.029 A 
ATOM     21  C   UNL A   1      38.622  30.027  29.079  1.00  0.00     0.049 A 
ATOM     22  H   UNL A   1      40.190  29.536  30.403  1.00  0.00     0.167 HD
ATOM     23  C   UNL A   1      43.148  28.227  32.979  1.00  0.00     0.034 A 
ATOM     24  C   UNL A   1      37.638  30.752  29.663  1.00  0.00     0.034 A 
ATOM     25  C   UNL A   1      42.280  29.076  33.746  1.00  0.00     0.049 A 
ATOM     26  C   UNL A   1      37.771  30.994  31.123  1.00  0.00     0.074 A 
ATOM     27  C   UNL A   1      42.492  29.564  35.020  1.00  0.00     0.029 A 
ATOM     28  N   UNL A   1      41.048  29.568  33.333  1.00  0.00    -0.354 N 
ATOM     29  N   UNL A   1      38.737  30.584  31.902  1.00  0.00    -0.248 NA
ATOM     30  C   UNL A   1      36.724  31.774  31.789  1.00  0.00     0.031 C 
ATOM     31  C   UNL A   1      41.373  30.310  35.398  1.00  0.00     0.029 A 
ATOM     32  C   UNL A   1      40.487  30.350  34.335  1.00  0.00     0.049 A 
ATOM     33  H   UNL A   1      40.631  29.389  32.458  1.00  0.00     0.167 HD
ATOM     34  C   UNL A   1      38.457  31.117  33.142  1.00  0.00     0.074 A 
ATOM     35  C   UNL A   1      37.200  31.833  33.026  1.00  0.00     0.031 C 
ATOM     36  C   UNL A   1      39.228  31.053  34.250  1.00  0.00     0.034 A 
BRANCH  23  37
ATOM     37  C   UNL A   1      44.409  27.674  33.560  1.00  0.00     0.023 A 
ATOM     38  C   UNL A   1      45.654  28.273  33.293  1.00  0.00     0.031 A 
ATOM     39  C   UNL A   1      44.373  26.391  34.124  1.00  0.00     0.131 A 
ATOM     40  C   UNL A   1      46.810  27.495  33.414  1.00  0.00     0.055 A 
ATOM     41  C   UNL A   1      45.544  25.685  34.377  1.00  0.00     0.041 A 
ATOM     42  F   UNL A   1      43.202  25.771  34.339  1.00  0.00    -0.206 F 
ATOM     43  C   UNL A   1      46.769  26.223  33.987  1.00  0.00     0.022 A 
BRANCH  40  44
ATOM     44  S   UNL A   1      48.297  28.054  32.526  1.00  0.00     0.124 S 
ATOM     45  O   UNL A   1      48.106  29.513  32.532  1.00  0.00    -0.237 OA
ATOM     46  O   UNL A   1      49.369  27.547  33.333  1.00  0.00    -0.237 OA
ATOM     47  O   UNL A   1      48.142  27.435  31.198  1.00  0.00    -0.744 OA
ENDBRANCH  40  44
ENDBRANCH  23  37
BRANCH  24  48
ATOM     48  C   UNL A   1      36.347  31.117  28.963  1.00  0.00     0.023 A 
ATOM     49  C   UNL A   1      35.771  32.401  28.997  1.00  0.00     0.031 A 
ATOM     50  C   UNL A   1      35.593  30.103  28.337  1.00  0.00     0.131 A 
ATOM     51  C   UNL A   1      34.489  32.617  28.438  1.00  0.00     0.055 A 
ATOM     52  C   UNL A   1      34.347  30.328  27.748  1.00  0.00     0.041 A 
ATOM     53  F   UNL A   1      36.051  28.847  28.309  1.00  0.00    -0.206 F 
ATOM     54  C   UNL A   1      33.783  31.592  27.803  1.00  0.00     0.022 A 
BRANCH  51  55
ATOM     55  S   UNL A   1      33.696  34.246  28.611  1.00  0.00     0.124 S 
ATOM     56  O   UNL A   1      32.449  34.045  27.884  1.00  0.00    -0.237 OA
ATOM     57  O   UNL A   1      33.585  34.376  30.060  1.00  0.00    -0.237 OA
ATOM     58  O   UNL A   1      34.647  35.160  27.980  1.00  0.00    -0.744 OA
ENDBRANCH  51  55
ENDBRANCH  24  48
BRANCH  36  59
ATOM     59  C   UNL A   1      38.791  31.894  35.409  1.00  0.00     0.023 A 
ATOM     60  C   UNL A   1      38.184  31.345  36.547  1.00  0.00     0.031 A 
ATOM     61  C   UNL A   1      38.983  33.285  35.350  1.00  0.00     0.131 A 
ATOM     62  C   UNL A   1      37.772  32.195  37.582  1.00  0.00     0.055 A 
ATOM     63  C   UNL A   1      38.622  34.117  36.404  1.00  0.00     0.041 A 
ATOM     64  F   UNL A   1      39.532  33.852  34.263  1.00  0.00    -0.206 F 
ATOM     65  C   UNL A   1      38.009  33.572  37.528  1.00  0.00     0.022 A 
BRANCH  62  66
ATOM     66  S   UNL A   1      36.879  31.484  38.990  1.00  0.00     0.124 S 
ATOM     67  O   UNL A   1      37.836  31.669  40.076  1.00  0.00    -0.237 OA
ATOM     68  O   UNL A   1      35.678  32.310  39.052  1.00  0.00    -0.237 OA
ATOM     69  O   UNL A   1      36.655  30.098  38.586  1.00  0.00    -0.744 OA
ENDBRANCH  62  66
ENDBRANCH  36  59
ENDBRANCH  10  11
ENDBRANCH   3   5
ENDBRANCH   2   3
ENDBRANCH   1   2
BRANCH   1  70
ATOM     70  C   UNL A   1      46.144  22.838  25.422  1.00  0.00     0.274 C 
BRANCH  70  71
ATOM     71  O   UNL A   1      46.585  23.195  26.738  1.00  0.00    -0.460 OA
BRANCH  71  72
ATOM     72  C   UNL A   1      46.296  24.434  27.236  1.00  0.00     0.335 C 
ATOM     73  O   UNL A   1      45.171  24.910  27.318  1.00  0.00    -0.249 OA
BRANCH  72  74
ATOM     74  C   UNL A   1      47.594  25.208  27.592  1.00  0.00     0.232 C 
ATOM     75  C   UNL A   1      48.512  25.507  26.407  1.00  0.00     0.087 C 
ATOM     76  O   UNL A   1      47.305  26.441  28.256  1.00  0.00    -0.355 OA
ATOM     77  C   UNL A   1      47.840  26.702  25.752  1.00  0.00     0.123 C 
ATOM     78  C   UNL A   1      47.455  27.525  27.305  1.00  0.00     0.186 C 
BRANCH  77  79
ATOM     79  C   UNL A   1      48.740  27.080  24.439  1.00  0.00    -0.013 A 
ATOM     80  C   UNL A   1      50.170  27.049  24.446  1.00  0.00     0.008 A 
ATOM     81  C   UNL A   1      48.239  27.482  23.187  1.00  0.00     0.008 A 
ATOM     82  C   UNL A   1      50.977  27.096  23.274  1.00  0.00     0.021 A 
ATOM     83  C   UNL A   1      49.029  27.470  21.993  1.00  0.00     0.021 A 
ATOM     84  C   UNL A   1      50.389  27.233  22.035  1.00  0.00     0.041 A 
ATOM     85  Cl  UNL A   1      51.333  27.159  20.598  1.00  0.00    -0.084 Cl
ENDBRANCH  77  79
BRANCH  77  86
ATOM     86  O   UNL A   1      46.632  26.126  25.250  1.00  0.00    -0.382 OA
ATOM     87  H   UNL A   1      46.108  26.811  24.807  1.00  0.00     0.212 HD
ENDBRANCH  77  86
BRANCH  78  88
ATOM     88  C   UNL A   1      46.325  28.598  27.710  1.00  0.00    -0.016 A 
ATOM     89  C   UNL A   1      46.347  29.337  28.910  1.00  0.00     0.008 A 
ATOM     90  C   UNL A   1      45.206  28.938  26.893  1.00  0.00     0.008 A 
ATOM     91  C   UNL A   1      45.248  30.112  29.378  1.00  0.00     0.021 A 
ATOM     92  C   UNL A   1      44.085  29.687  27.351  1.00  0.00     0.021 A 
ATOM     93  C   UNL A   1      44.095  30.238  28.618  1.00  0.00     0.041 A 
ATOM     94  Cl  UNL A   1      42.712  31.045  29.247  1.00  0.00    -0.084 Cl
ENDBRANCH  78  88
ENDBRANCH  72  74
ENDBRANCH  71  72
ENDBRANCH  70  71
ENDBRANCH   1  70
TORSDOF 17
ENDMDL
MODEL 3
REMARK VINA RESULT:     -11.8      5.776      9.817
REMARK SMILES O=C(OCCOC(=O)[C@H]1C[C@](O)(c2ccc(Cl)cc2)[C@@H](c2ccc(Cl)cc2)O1)c1ccc(-c2c3nc(c(-c4cc(S(=O)(=O)[O-])ccc4F)c4ccc([nH]4)c(-c4cc(S(=O)(=O)[O-])ccc4F)c4nc(c(-c5cc(S(=O)(=O)[O-])ccc5F)c5ccc2[nH]5)C=C4)C=C3)cc1
REMARK SMILES IDX 4 1 3 2 2 3 1 4 29 5 30 6 91 7 31 8 90 9 32 10 33 11 34 12
REMARK SMILES IDX 84 13 35 14 89 15 83 16 85 17 36 18 88 19 82 20 81 21 37 23
REMARK SMILES IDX 69 24 49 25 68 26 50 27 53 28 67 29 86 30 51 31 52 32 66 34
REMARK SMILES IDX 87 35 54 36 38 37 39 38 47 39 40 40 46 41 48 42 45 43 41 44
REMARK SMILES IDX 42 45 43 46 44 47 70 48 71 49 79 50 72 51 78 52 80 53 77 54
REMARK SMILES IDX 73 55 74 56 75 57 76 58 55 59 56 60 64 61 57 62 63 63 65 64
REMARK SMILES IDX 62 65 58 66 59 67 60 68 61 69 5 70 6 71 7 72 8 73 9 74 10 75
REMARK SMILES IDX 28 76 11 77 20 78 13 79 14 80 19 81 15 82 18 83 16 84 17 85
REMARK SMILES IDX 12 86 21 88 22 89 27 90 23 91 26 92 24 93 25 94
REMARK H PARENT 85 22 53 33 12 87
REMARK Flexibility Score: inf
ROOT
ATOM      1  C   UNL A   1      44.860  22.122  24.576  1.00  0.00     0.275 C 
ENDROOT
BRANCH   1   2
ATOM      2  O   UNL A   1      43.583  22.797  24.532  1.00  0.00    -0.458 OA
BRANCH   2   3
ATOM      3  C   UNL A   1      42.613  22.533  25.459  1.00  0.00     0.338 C 
ATOM      4  O   UNL A   1      42.020  21.462  25.480  1.00  0.00    -0.246 OA
BRANCH   3   5
ATOM      5  C   UNL A   1      42.054  23.761  26.140  1.00  0.00     0.060 A 
ATOM      6  C   UNL A   1      41.283  23.684  27.283  1.00  0.00     0.016 A 
ATOM      7  C   UNL A   1      42.338  25.061  25.707  1.00  0.00     0.016 A 
ATOM      8  C   UNL A   1      40.974  24.838  28.058  1.00  0.00     0.010 A 
ATOM      9  C   UNL A   1      42.063  26.205  26.547  1.00  0.00     0.010 A 
ATOM     10  C   UNL A   1      41.492  26.103  27.842  1.00  0.00    -0.014 A 
BRANCH  10  11
ATOM     11  C   UNL A   1      41.138  27.290  28.804  1.00  0.00     0.031 A 
ATOM     12  C   UNL A   1      42.027  27.413  29.960  1.00  0.00     0.074 A 
ATOM     13  C   UNL A   1      40.264  28.350  28.766  1.00  0.00     0.049 A 
ATOM     14  N   UNL A   1      41.800  28.007  31.092  1.00  0.00    -0.248 NA
ATOM     15  C   UNL A   1      43.321  26.756  29.808  1.00  0.00     0.031 C 
ATOM     16  C   UNL A   1      39.439  28.637  27.650  1.00  0.00     0.029 A 
ATOM     17  N   UNL A   1      39.852  29.385  29.610  1.00  0.00    -0.354 N 
ATOM     18  C   UNL A   1      42.919  27.741  31.834  1.00  0.00     0.074 A 
ATOM     19  C   UNL A   1      43.749  26.842  31.050  1.00  0.00     0.031 C 
ATOM     20  C   UNL A   1      38.611  29.676  27.783  1.00  0.00     0.029 A 
ATOM     21  C   UNL A   1      38.738  30.108  29.143  1.00  0.00     0.049 A 
ATOM     22  H   UNL A   1      40.304  29.593  30.460  1.00  0.00     0.167 HD
ATOM     23  C   UNL A   1      43.239  28.242  33.042  1.00  0.00     0.034 A 
ATOM     24  C   UNL A   1      37.813  30.921  29.707  1.00  0.00     0.034 A 
ATOM     25  C   UNL A   1      42.441  29.181  33.780  1.00  0.00     0.049 A 
ATOM     26  C   UNL A   1      37.995  31.231  31.149  1.00  0.00     0.074 A 
ATOM     27  C   UNL A   1      42.712  29.722  35.020  1.00  0.00     0.029 A 
ATOM     28  N   UNL A   1      41.231  29.726  33.365  1.00  0.00    -0.354 N 
ATOM     29  N   UNL A   1      38.953  30.804  31.929  1.00  0.00    -0.248 NA
ATOM     30  C   UNL A   1      37.012  32.108  31.793  1.00  0.00     0.031 C 
ATOM     31  C   UNL A   1      41.649  30.554  35.381  1.00  0.00     0.029 A 
ATOM     32  C   UNL A   1      40.742  30.592  34.335  1.00  0.00     0.049 A 
ATOM     33  H   UNL A   1      40.784  29.526  32.510  1.00  0.00     0.167 HD
ATOM     34  C   UNL A   1      38.734  31.418  33.145  1.00  0.00     0.074 A 
ATOM     35  C   UNL A   1      37.520  32.202  33.015  1.00  0.00     0.031 C 
ATOM     36  C   UNL A   1      39.526  31.365  34.238  1.00  0.00     0.034 A 
BRANCH  23  37
ATOM     37  C   UNL A   1      44.478  27.645  33.626  1.00  0.00     0.023 A 
ATOM     38  C   UNL A   1      44.410  26.537  34.490  1.00  0.00     0.031 A 
ATOM     39  C   UNL A   1      45.670  28.376  33.541  1.00  0.00     0.131 A 
ATOM     40  C   UNL A   1      45.466  26.319  35.382  1.00  0.00     0.055 A 
ATOM     41  C   UNL A   1      46.768  28.054  34.332  1.00  0.00     0.041 A 
ATOM     42  F   UNL A   1      45.748  29.470  32.767  1.00  0.00    -0.206 F 
ATOM     43  C   UNL A   1      46.656  27.044  35.284  1.00  0.00     0.022 A 
BRANCH  40  44
ATOM     44  S   UNL A   1      45.130  25.300  36.851  1.00  0.00     0.124 S 
ATOM     45  O   UNL A   1      44.674  26.317  37.811  1.00  0.00    -0.237 OA
ATOM     46  O   UNL A   1      44.140  24.371  36.386  1.00  0.00    -0.237 OA
ATOM     47  O   UNL A   1      46.451  24.728  37.166  1.00  0.00    -0.744 OA
ENDBRANCH  40  44
ENDBRANCH  23  37
BRANCH  24  48
ATOM     48  C   UNL A   1      36.530  31.327  29.015  1.00  0.00     0.023 A 
ATOM     49  C   UNL A   1      35.568  30.413  28.545  1.00  0.00     0.031 A 
ATOM     50  C   UNL A   1      36.317  32.685  28.702  1.00  0.00     0.131 A 
ATOM     51  C   UNL A   1      34.470  30.873  27.780  1.00  0.00     0.055 A 
ATOM     52  C   UNL A   1      35.210  33.141  27.984  1.00  0.00     0.041 A 
ATOM     53  F   UNL A   1      37.212  33.607  29.072  1.00  0.00    -0.206 F 
ATOM     54  C   UNL A   1      34.280  32.231  27.510  1.00  0.00     0.022 A 
BRANCH  51  55
ATOM     55  S   UNL A   1      33.310  29.669  27.058  1.00  0.00     0.124 S 
ATOM     56  O   UNL A   1      32.141  30.501  26.806  1.00  0.00    -0.237 OA
ATOM     57  O   UNL A   1      34.043  29.212  25.883  1.00  0.00    -0.237 OA
ATOM     58  O   UNL A   1      33.151  28.671  28.114  1.00  0.00    -0.744 OA
ENDBRANCH  51  55
ENDBRANCH  24  48
BRANCH  36  59
ATOM     59  C   UNL A   1      39.167  32.291  35.359  1.00  0.00     0.023 A 
ATOM     60  C   UNL A   1      39.687  33.589  35.454  1.00  0.00     0.031 A 
ATOM     61  C   UNL A   1      38.288  31.840  36.358  1.00  0.00     0.131 A 
ATOM     62  C   UNL A   1      39.332  34.392  36.546  1.00  0.00     0.055 A 
ATOM     63  C   UNL A   1      37.896  32.661  37.411  1.00  0.00     0.041 A 
ATOM     64  F   UNL A   1      37.793  30.591  36.319  1.00  0.00    -0.206 F 
ATOM     65  C   UNL A   1      38.422  33.945  37.510  1.00  0.00     0.022 A 
BRANCH  62  66
ATOM     66  S   UNL A   1      40.107  36.020  36.720  1.00  0.00     0.124 S 
ATOM     67  O   UNL A   1      39.766  36.652  35.449  1.00  0.00    -0.237 OA
ATOM     68  O   UNL A   1      39.443  36.563  37.900  1.00  0.00    -0.237 OA
ATOM     69  O   UNL A   1      41.523  35.706  36.899  1.00  0.00    -0.744 OA
ENDBRANCH  62  66
ENDBRANCH  36  59
ENDBRANCH  10  11
ENDBRANCH   3   5
ENDBRANCH   2   3
ENDBRANCH   1   2
BRANCH   1  70
ATOM     70  C   UNL A   1      46.005  23.148  24.517  1.00  0.00     0.274 C 
BRANCH  70  71
ATOM     71  O   UNL A   1      46.704  23.274  25.762  1.00  0.00    -0.460 OA
BRANCH  71  72
ATOM     72  C   UNL A   1      46.474  24.359  26.560  1.00  0.00     0.335 C 
ATOM     73  O   UNL A   1      45.372  24.712  26.961  1.00  0.00    -0.249 OA
BRANCH  72  74
ATOM     74  C   UNL A   1      47.784  25.152  26.813  1.00  0.00     0.232 C 
ATOM     75  C   UNL A   1      48.553  25.547  25.552  1.00  0.00     0.087 C 
ATOM     76  O   UNL A   1      47.543  26.336  27.579  1.00  0.00    -0.355 OA
ATOM     77  C   UNL A   1      47.781  26.756  25.050  1.00  0.00     0.123 C 
ATOM     78  C   UNL A   1      47.556  27.476  26.683  1.00  0.00     0.186 C 
BRANCH  77  79
ATOM     79  C   UNL A   1      48.514  27.235  23.668  1.00  0.00    -0.013 A 
ATOM     80  C   UNL A   1      49.926  27.126  23.463  1.00  0.00     0.008 A 
ATOM     81  C   UNL A   1      47.875  27.809  22.554  1.00  0.00     0.008 A 
ATOM     82  C   UNL A   1      50.564  27.265  22.199  1.00  0.00     0.021 A 
ATOM     83  C   UNL A   1      48.488  27.895  21.264  1.00  0.00     0.021 A 
ATOM     84  C   UNL A   1      49.821  27.580  21.081  1.00  0.00     0.041 A 
ATOM     85  Cl  UNL A   1      50.548  27.624  19.522  1.00  0.00    -0.084 Cl
ENDBRANCH  77  79
BRANCH  77  86
ATOM     86  O   UNL A   1      46.538  26.171  24.654  1.00  0.00    -0.382 OA
ATOM     87  H   UNL A   1      45.930  26.163  25.410  1.00  0.00     0.212 HD
ENDBRANCH  77  86
BRANCH  78  88
ATOM     88  C   UNL A   1      46.454  28.489  27.277  1.00  0.00    -0.016 A 
ATOM     89  C   UNL A   1      46.557  29.096  28.544  1.00  0.00     0.008 A 
ATOM     90  C   UNL A   1      45.279  28.902  26.580  1.00  0.00     0.008 A 
ATOM     91  C   UNL A   1      45.491  29.806  29.167  1.00  0.00     0.021 A 
ATOM     92  C   UNL A   1      44.191  29.586  27.191  1.00  0.00     0.021 A 
ATOM     93  C   UNL A   1      44.287  30.000  28.506  1.00  0.00     0.041 A 
ATOM     94  Cl  UNL A   1      42.949  30.721  29.310  1.00  0.00    -0.084 Cl
ENDBRANCH  78  88
ENDBRANCH  72  74
ENDBRANCH  71  72
ENDBRANCH  70  71
ENDBRANCH   1  70
TORSDOF 17
ENDMDL
