MODEL 1
REMARK VINA RESULT:     -11.8      0.000      0.000
REMARK SMILES CCSc1nc(CC(=O)N[C@@H](C(=O)OCCOC(=O)c2ccc(-c3c4nc(c(-c5cc(S(=O)(=O)[O-])ccc5F)c5ccc([nH]5)c(-c5cc(S(=O)(=O)[O-])ccc5F)c5nc(c(-c6cc(S(=O)(=O)[O-])ccc6F)c6ccc3[nH]6)C=C5)C=C4)cc2)C2=C(C)N=N[C@@H]2C)cs1
REMARK SMILES IDX 15 1 14 2 12 3 13 4 11 5 10 6 8 7 9 8 7 10 6 11 4 12 5 13
REMARK SMILES IDX 91 14 90 15 3 16 2 17 1 18 83 19 84 20 88 21 85 22 86 23
REMARK SMILES IDX 87 24 89 25 16 26 17 27 18 28 19 29 20 30 21 31 82 32 22 33
REMARK SMILES IDX 81 34 23 35 24 36 25 37 75 38 26 39 80 40 74 41 76 42 27 43
REMARK SMILES IDX 79 44 73 45 72 46 28 48 60 49 40 50 59 51 41 52 44 53 58 54
REMARK SMILES IDX 77 55 42 56 43 57 57 59 78 60 45 61 29 62 30 63 38 64 31 65
REMARK SMILES IDX 37 66 39 67 36 68 32 69 33 70 34 71 35 72 61 73 62 74 70 75
REMARK SMILES IDX 63 76 69 77 71 78 68 79 64 80 65 81 66 82 67 83 46 84 47 85
REMARK SMILES IDX 55 86 48 87 54 88 56 89 53 90 49 91 50 92 51 93 52 94
REMARK H PARENT 10 9 76 47 44 58
REMARK Flexibility Score: inf
ROOT
ATOM      1  C   UNL A   1      31.676  29.283  24.718  1.00  0.00     0.274 C 
ENDROOT
BRANCH   1   2
ATOM      2  O   UNL A   1      31.009  28.046  25.045  1.00  0.00    -0.460 OA
BRANCH   2   3
ATOM      3  C   UNL A   1      30.627  27.258  23.994  1.00  0.00     0.333 C 
ATOM      4  O   UNL A   1      29.953  27.651  23.049  1.00  0.00    -0.249 OA
BRANCH   3   5
ATOM      5  C   UNL A   1      31.066  25.776  24.187  1.00  0.00     0.223 C 
BRANCH   5   6
ATOM      6  N   UNL A   1      31.088  25.316  25.571  1.00  0.00    -0.339 N 
ATOM      7  C   UNL A   1      30.907  24.045  26.033  1.00  0.00     0.226 C 
ATOM      8  O   UNL A   1      30.801  23.858  27.247  1.00  0.00    -0.275 OA
ATOM      9  H   UNL A   1      31.254  26.005  26.255  1.00  0.00     0.164 HD
BRANCH   7  10
ATOM     10  C   UNL A   1      30.835  22.888  25.058  1.00  0.00     0.157 C 
BRANCH  10  11
ATOM     11  C   UNL A   1      31.991  21.964  25.242  1.00  0.00     0.062 A 
ATOM     12  C   UNL A   1      32.897  19.940  25.358  1.00  0.00     0.150 A 
ATOM     13  N   UNL A   1      31.769  20.596  25.190  1.00  0.00    -0.234 NA
ATOM     14  S   UNL A   1      34.281  20.926  25.593  1.00  0.00    -0.116 S 
ATOM     15  C   UNL A   1      33.304  22.324  25.474  1.00  0.00     0.092 A 
BRANCH  12  16
ATOM     16  S   UNL A   1      32.900  18.193  25.254  1.00  0.00    -0.096 SA
BRANCH  16  17
ATOM     17  C   UNL A   1      32.860  17.859  23.473  1.00  0.00     0.074 C 
ATOM     18  C   UNL A   1      33.998  16.942  23.053  1.00  0.00     0.016 C 
ENDBRANCH  16  17
ENDBRANCH  12  16
ENDBRANCH  10  11
ENDBRANCH   7  10
ENDBRANCH   5   6
BRANCH   5  19
ATOM     19  C   UNL A   1      32.380  25.439  23.574  1.00  0.00     0.012 C 
ATOM     20  C   UNL A   1      33.613  25.523  24.091  1.00  0.00     0.064 C 
ATOM     21  C   UNL A   1      32.570  24.788  22.250  1.00  0.00     0.156 C 
ATOM     22  C   UNL A   1      34.047  26.047  25.412  1.00  0.00     0.069 C 
ATOM     23  N   UNL A   1      34.572  25.034  23.242  1.00  0.00    -0.160 NA
ATOM     24  N   UNL A   1      34.042  24.605  22.182  1.00  0.00    -0.181 NA
ATOM     25  C   UNL A   1      32.118  25.578  21.035  1.00  0.00     0.040 C 
ENDBRANCH   5  19
ENDBRANCH   3   5
ENDBRANCH   2   3
ENDBRANCH   1   2
BRANCH   1  26
ATOM     26  C   UNL A   1      31.449  30.340  25.792  1.00  0.00     0.275 C 
BRANCH  26  27
ATOM     27  O   UNL A   1      32.476  30.220  26.786  1.00  0.00    -0.458 OA
BRANCH  27  28
ATOM     28  C   UNL A   1      33.056  31.370  27.191  1.00  0.00     0.338 C 
ATOM     29  O   UNL A   1      32.526  32.472  27.245  1.00  0.00    -0.246 OA
BRANCH  28  30
ATOM     30  C   UNL A   1      34.445  31.112  27.628  1.00  0.00     0.060 A 
ATOM     31  C   UNL A   1      34.876  29.818  27.917  1.00  0.00     0.016 A 
ATOM     32  C   UNL A   1      35.291  32.192  27.888  1.00  0.00     0.016 A 
ATOM     33  C   UNL A   1      36.081  29.617  28.593  1.00  0.00     0.010 A 
ATOM     34  C   UNL A   1      36.553  31.970  28.450  1.00  0.00     0.010 A 
ATOM     35  C   UNL A   1      36.950  30.682  28.857  1.00  0.00    -0.014 A 
BRANCH  35  36
ATOM     36  C   UNL A   1      38.243  30.492  29.583  1.00  0.00     0.031 A 
ATOM     37  C   UNL A   1      39.309  29.603  28.991  1.00  0.00     0.074 A 
ATOM     38  C   UNL A   1      38.480  31.077  30.777  1.00  0.00     0.049 A 
ATOM     39  N   UNL A   1      40.294  28.978  29.580  1.00  0.00    -0.248 NA
ATOM     40  C   UNL A   1      39.232  29.368  27.541  1.00  0.00     0.031 C 
ATOM     41  C   UNL A   1      37.609  32.043  31.448  1.00  0.00     0.029 A 
ATOM     42  N   UNL A   1      39.534  30.927  31.650  1.00  0.00    -0.354 N 
ATOM     43  C   UNL A   1      40.900  28.204  28.593  1.00  0.00     0.074 A 
ATOM     44  C   UNL A   1      40.179  28.456  27.362  1.00  0.00     0.031 C 
ATOM     45  C   UNL A   1      38.174  32.421  32.603  1.00  0.00     0.029 A 
ATOM     46  C   UNL A   1      39.369  31.620  32.827  1.00  0.00     0.049 A 
ATOM     47  H   UNL A   1      40.327  30.378  31.451  1.00  0.00     0.167 HD
ATOM     48  C   UNL A   1      41.947  27.350  28.717  1.00  0.00     0.034 A 
ATOM     49  C   UNL A   1      40.037  31.555  33.997  1.00  0.00     0.034 A 
ATOM     50  C   UNL A   1      42.698  27.180  29.939  1.00  0.00     0.049 A 
ATOM     51  C   UNL A   1      41.159  30.567  34.141  1.00  0.00     0.074 A 
ATOM     52  C   UNL A   1      43.778  26.347  30.184  1.00  0.00     0.029 A 
ATOM     53  N   UNL A   1      42.462  27.875  31.118  1.00  0.00    -0.354 N 
ATOM     54  N   UNL A   1      41.622  29.713  33.257  1.00  0.00    -0.248 NA
ATOM     55  C   UNL A   1      41.825  30.508  35.448  1.00  0.00     0.031 C 
ATOM     56  C   UNL A   1      44.165  26.506  31.519  1.00  0.00     0.029 A 
ATOM     57  C   UNL A   1      43.366  27.482  32.093  1.00  0.00     0.049 A 
ATOM     58  H   UNL A   1      41.756  28.549  31.243  1.00  0.00     0.167 HD
ATOM     59  C   UNL A   1      42.640  29.019  33.902  1.00  0.00     0.074 A 
ATOM     60  C   UNL A   1      42.730  29.560  35.244  1.00  0.00     0.031 C 
ATOM     61  C   UNL A   1      43.429  28.022  33.429  1.00  0.00     0.034 A 
BRANCH  48  62
ATOM     62  C   UNL A   1      42.291  26.478  27.533  1.00  0.00     0.023 A 
ATOM     63  C   UNL A   1      41.860  25.147  27.416  1.00  0.00     0.031 A 
ATOM     64  C   UNL A   1      43.082  27.007  26.494  1.00  0.00     0.131 A 
ATOM     65  C   UNL A   1      42.262  24.376  26.312  1.00  0.00     0.055 A 
ATOM     66  C   UNL A   1      43.420  26.258  25.366  1.00  0.00     0.041 A 
ATOM     67  F   UNL A   1      43.543  28.267  26.560  1.00  0.00    -0.206 F 
ATOM     68  C   UNL A   1      43.018  24.931  25.275  1.00  0.00     0.022 A 
BRANCH  65  69
ATOM     69  S   UNL A   1      41.878  22.603  26.297  1.00  0.00     0.124 S 
ATOM     70  O   UNL A   1      42.561  22.163  25.082  1.00  0.00    -0.237 OA
ATOM     71  O   UNL A   1      42.452  22.145  27.555  1.00  0.00    -0.237 OA
ATOM     72  O   UNL A   1      40.419  22.568  26.227  1.00  0.00    -0.744 OA
ENDBRANCH  65  69
ENDBRANCH  48  62
BRANCH  49  73
ATOM     73  C   UNL A   1      39.569  32.363  35.160  1.00  0.00     0.023 A 
ATOM     74  C   UNL A   1      40.012  33.678  35.360  1.00  0.00     0.031 A 
ATOM     75  C   UNL A   1      38.657  31.822  36.086  1.00  0.00     0.131 A 
ATOM     76  C   UNL A   1      39.550  34.407  36.468  1.00  0.00     0.055 A 
ATOM     77  C   UNL A   1      38.161  32.567  37.155  1.00  0.00     0.041 A 
ATOM     78  F   UNL A   1      38.206  30.567  35.941  1.00  0.00    -0.206 F 
ATOM     79  C   UNL A   1      38.613  33.867  37.354  1.00  0.00     0.022 A 
BRANCH  76  80
ATOM     80  S   UNL A   1      40.226  36.062  36.767  1.00  0.00     0.124 S 
ATOM     81  O   UNL A   1      41.648  35.779  36.929  1.00  0.00    -0.237 OA
ATOM     82  O   UNL A   1      39.847  36.771  35.549  1.00  0.00    -0.237 OA
ATOM     83  O   UNL A   1      39.536  36.498  37.979  1.00  0.00    -0.744 OA
ENDBRANCH  76  80
ENDBRANCH  49  73
BRANCH  61  84
ATOM     84  C   UNL A   1      44.488  27.498  34.360  1.00  0.00     0.023 A 
ATOM     85  C   UNL A   1      44.290  26.330  35.116  1.00  0.00     0.031 A 
ATOM     86  C   UNL A   1      45.702  28.190  34.502  1.00  0.00     0.131 A 
ATOM     87  C   UNL A   1      45.280  25.911  36.017  1.00  0.00     0.055 A 
ATOM     88  C   UNL A   1      46.701  27.744  35.367  1.00  0.00     0.041 A 
ATOM     89  F   UNL A   1      45.934  29.311  33.801  1.00  0.00    -0.206 F 
ATOM     90  C   UNL A   1      46.489  26.603  36.137  1.00  0.00     0.022 A 
BRANCH  87  91
ATOM     91  S   UNL A   1      44.950  24.476  37.075  1.00  0.00     0.124 S 
ATOM     92  O   UNL A   1      44.194  23.606  36.179  1.00  0.00    -0.237 OA
ATOM     93  O   UNL A   1      46.292  24.022  37.421  1.00  0.00    -0.237 OA
ATOM     94  O   UNL A   1      44.182  25.038  38.186  1.00  0.00    -0.744 OA
ENDBRANCH  87  91
ENDBRANCH  61  84
ENDBRANCH  35  36
ENDBRANCH  28  30
ENDBRANCH  27  28
ENDBRANCH  26  27
ENDBRANCH   1  26
TORSDOF 20
ENDMDL
MODEL 2
REMARK VINA RESULT:     -11.4      5.216     10.063
REMARK SMILES CCSc1nc(CC(=O)N[C@@H](C(=O)OCCOC(=O)c2ccc(-c3c4nc(c(-c5cc(S(=O)(=O)[O-])ccc5F)c5ccc([nH]5)c(-c5cc(S(=O)(=O)[O-])ccc5F)c5nc(c(-c6cc(S(=O)(=O)[O-])ccc6F)c6ccc3[nH]6)C=C5)C=C4)cc2)C2=C(C)N=N[C@@H]2C)cs1
REMARK SMILES IDX 15 1 14 2 12 3 13 4 11 5 10 6 8 7 9 8 7 10 6 11 4 12 5 13
REMARK SMILES IDX 91 14 90 15 3 16 2 17 1 18 83 19 84 20 88 21 85 22 86 23
REMARK SMILES IDX 87 24 89 25 16 26 17 27 18 28 19 29 20 30 21 31 82 32 22 33
REMARK SMILES IDX 81 34 23 35 24 36 25 37 75 38 26 39 80 40 74 41 76 42 27 43
REMARK SMILES IDX 79 44 73 45 72 46 28 48 60 49 40 50 59 51 41 52 44 53 58 54
REMARK SMILES IDX 77 55 42 56 43 57 57 59 78 60 45 61 29 62 30 63 38 64 31 65
REMARK SMILES IDX 37 66 39 67 36 68 32 69 33 70 34 71 35 72 61 73 62 74 70 75
REMARK SMILES IDX 63 76 69 77 71 78 68 79 64 80 65 81 66 82 67 83 46 84 47 85
REMARK SMILES IDX 55 86 48 87 54 88 56 89 53 90 49 91 50 92 51 93 52 94
REMARK H PARENT 10 9 76 47 44 58
REMARK Flexibility Score: inf
ROOT
ATOM      1  C   UNL A   1      35.029  20.718  24.978  1.00  0.00     0.274 C 
ENDROOT
BRANCH   1   2
ATOM      2  O   UNL A   1      34.372  21.570  24.016  1.00  0.00    -0.460 OA
BRANCH   2   3
ATOM      3  C   UNL A   1      33.005  21.584  24.043  1.00  0.00     0.333 C 
ATOM      4  O   UNL A   1      32.308  20.583  24.155  1.00  0.00    -0.249 OA
BRANCH   3   5
ATOM      5  C   UNL A   1      32.432  23.016  23.815  1.00  0.00     0.223 C 
BRANCH   5   6
ATOM      6  N   UNL A   1      33.219  23.858  22.920  1.00  0.00    -0.339 N 
ATOM      7  C   UNL A   1      32.781  24.888  22.141  1.00  0.00     0.226 C 
ATOM      8  O   UNL A   1      33.554  25.393  21.323  1.00  0.00    -0.275 OA
ATOM      9  H   UNL A   1      34.182  23.659  22.872  1.00  0.00     0.164 HD
BRANCH   7  10
ATOM     10  C   UNL A   1      31.360  25.394  22.284  1.00  0.00     0.157 C 
BRANCH  10  11
ATOM     11  C   UNL A   1      31.341  26.765  22.871  1.00  0.00     0.062 A 
ATOM     12  C   UNL A   1      30.364  28.714  23.293  1.00  0.00     0.150 A 
ATOM     13  N   UNL A   1      30.210  27.550  22.701  1.00  0.00    -0.234 NA
ATOM     14  S   UNL A   1      31.873  28.934  24.080  1.00  0.00    -0.116 S 
ATOM     15  C   UNL A   1      32.357  27.371  23.585  1.00  0.00     0.092 A 
BRANCH  12  16
ATOM     16  S   UNL A   1      29.042  29.861  23.294  1.00  0.00    -0.096 SA
BRANCH  16  17
ATOM     17  C   UNL A   1      29.273  30.798  21.758  1.00  0.00     0.074 C 
ATOM     18  C   UNL A   1      28.036  30.734  20.876  1.00  0.00     0.016 C 
ENDBRANCH  16  17
ENDBRANCH  12  16
ENDBRANCH  10  11
ENDBRANCH   7  10
ENDBRANCH   5   6
BRANCH   5  19
ATOM     19  C   UNL A   1      32.188  23.786  25.066  1.00  0.00     0.012 C 
ATOM     20  C   UNL A   1      33.016  24.574  25.763  1.00  0.00     0.064 C 
ATOM     21  C   UNL A   1      30.869  23.938  25.738  1.00  0.00     0.156 C 
ATOM     22  C   UNL A   1      34.457  24.862  25.536  1.00  0.00     0.069 C 
ATOM     23  N   UNL A   1      32.393  25.186  26.820  1.00  0.00    -0.160 NA
ATOM     24  N   UNL A   1      31.176  24.862  26.858  1.00  0.00    -0.181 NA
ATOM     25  C   UNL A   1      30.247  22.673  26.302  1.00  0.00     0.040 C 
ENDBRANCH   5  19
ENDBRANCH   3   5
ENDBRANCH   2   3
ENDBRANCH   1   2
BRANCH   1  26
ATOM     26  C   UNL A   1      35.907  21.524  25.928  1.00  0.00     0.275 C 
BRANCH  26  27
ATOM     27  O   UNL A   1      37.041  22.020  25.204  1.00  0.00    -0.458 OA
BRANCH  27  28
ATOM     28  C   UNL A   1      38.255  21.650  25.664  1.00  0.00     0.338 C 
ATOM     29  O   UNL A   1      38.809  20.574  25.474  1.00  0.00    -0.246 OA
BRANCH  28  30
ATOM     30  C   UNL A   1      38.879  22.765  26.408  1.00  0.00     0.060 A 
ATOM     31  C   UNL A   1      38.454  24.080  26.216  1.00  0.00     0.016 A 
ATOM     32  C   UNL A   1      39.999  22.515  27.203  1.00  0.00     0.016 A 
ATOM     33  C   UNL A   1      39.224  25.141  26.694  1.00  0.00     0.010 A 
ATOM     34  C   UNL A   1      40.692  23.581  27.786  1.00  0.00     0.010 A 
ATOM     35  C   UNL A   1      40.345  24.915  27.502  1.00  0.00    -0.014 A 
BRANCH  35  36
ATOM     36  C   UNL A   1      41.189  26.035  28.023  1.00  0.00     0.031 A 
ATOM     37  C   UNL A   1      40.556  27.116  28.865  1.00  0.00     0.074 A 
ATOM     38  C   UNL A   1      42.505  26.124  27.740  1.00  0.00     0.049 A 
ATOM     39  N   UNL A   1      40.953  28.343  29.080  1.00  0.00    -0.248 NA
ATOM     40  C   UNL A   1      39.290  26.772  29.529  1.00  0.00     0.031 C 
ATOM     41  C   UNL A   1      43.301  25.122  27.029  1.00  0.00     0.029 A 
ATOM     42  N   UNL A   1      43.410  27.126  28.011  1.00  0.00    -0.354 N 
ATOM     43  C   UNL A   1      39.945  28.946  29.828  1.00  0.00     0.074 A 
ATOM     44  C   UNL A   1      38.926  27.938  30.043  1.00  0.00     0.031 C 
ATOM     45  C   UNL A   1      44.571  25.541  26.948  1.00  0.00     0.029 A 
ATOM     46  C   UNL A   1      44.654  26.899  27.467  1.00  0.00     0.049 A 
ATOM     47  H   UNL A   1      43.189  27.925  28.541  1.00  0.00     0.167 HD
ATOM     48  C   UNL A   1      39.875  30.226  30.271  1.00  0.00     0.034 A 
ATOM     49  C   UNL A   1      45.716  27.714  27.307  1.00  0.00     0.034 A 
ATOM     50  C   UNL A   1      40.943  31.185  30.111  1.00  0.00     0.049 A 
ATOM     51  C   UNL A   1      45.609  29.145  27.752  1.00  0.00     0.074 A 
ATOM     52  C   UNL A   1      40.988  32.509  30.521  1.00  0.00     0.029 A 
ATOM     53  N   UNL A   1      42.168  30.917  29.513  1.00  0.00    -0.354 N 
ATOM     54  N   UNL A   1      44.590  29.760  28.307  1.00  0.00    -0.248 NA
ATOM     55  C   UNL A   1      46.778  30.000  27.518  1.00  0.00     0.031 C 
ATOM     56  C   UNL A   1      42.219  33.050  30.131  1.00  0.00     0.029 A 
ATOM     57  C   UNL A   1      42.967  32.049  29.532  1.00  0.00     0.049 A 
ATOM     58  H   UNL A   1      42.430  30.048  29.132  1.00  0.00     0.167 HD
ATOM     59  C   UNL A   1      45.001  31.075  28.493  1.00  0.00     0.074 A 
ATOM     60  C   UNL A   1      46.361  31.162  28.002  1.00  0.00     0.031 C 
ATOM     61  C   UNL A   1      44.314  32.119  29.022  1.00  0.00     0.034 A 
BRANCH  48  62
ATOM     62  C   UNL A   1      38.581  30.688  30.896  1.00  0.00     0.023 A 
ATOM     63  C   UNL A   1      37.572  31.340  30.167  1.00  0.00     0.031 A 
ATOM     64  C   UNL A   1      38.359  30.466  32.269  1.00  0.00     0.131 A 
ATOM     65  C   UNL A   1      36.414  31.790  30.823  1.00  0.00     0.055 A 
ATOM     66  C   UNL A   1      37.177  30.854  32.902  1.00  0.00     0.041 A 
ATOM     67  F   UNL A   1      39.296  29.868  33.024  1.00  0.00    -0.206 F 
ATOM     68  C   UNL A   1      36.200  31.529  32.179  1.00  0.00     0.022 A 
BRANCH  65  69
ATOM     69  S   UNL A   1      35.235  32.821  29.908  1.00  0.00     0.124 S 
ATOM     70  O   UNL A   1      34.401  33.345  30.987  1.00  0.00    -0.237 OA
ATOM     71  O   UNL A   1      36.105  33.785  29.246  1.00  0.00    -0.237 OA
ATOM     72  O   UNL A   1      34.566  31.872  29.020  1.00  0.00    -0.744 OA
ENDBRANCH  65  69
ENDBRANCH  48  62
BRANCH  49  73
ATOM     73  C   UNL A   1      46.921  27.223  26.579  1.00  0.00     0.023 A 
ATOM     74  C   UNL A   1      47.154  27.567  25.240  1.00  0.00     0.031 A 
ATOM     75  C   UNL A   1      47.865  26.405  27.228  1.00  0.00     0.131 A 
ATOM     76  C   UNL A   1      48.301  27.085  24.588  1.00  0.00     0.055 A 
ATOM     77  C   UNL A   1      49.028  25.972  26.592  1.00  0.00     0.041 A 
ATOM     78  F   UNL A   1      47.686  26.045  28.508  1.00  0.00    -0.206 F 
ATOM     79  C   UNL A   1      49.248  26.307  25.261  1.00  0.00     0.022 A 
BRANCH  76  80
ATOM     80  S   UNL A   1      48.519  27.449  22.825  1.00  0.00     0.124 S 
ATOM     81  O   UNL A   1      47.322  28.229  22.531  1.00  0.00    -0.237 OA
ATOM     82  O   UNL A   1      49.781  28.181  22.819  1.00  0.00    -0.237 OA
ATOM     83  O   UNL A   1      48.568  26.125  22.207  1.00  0.00    -0.744 OA
ENDBRANCH  76  80
ENDBRANCH  49  73
BRANCH  61  84
ATOM     84  C   UNL A   1      45.053  33.424  29.139  1.00  0.00     0.023 A 
ATOM     85  C   UNL A   1      45.203  34.286  28.039  1.00  0.00     0.031 A 
ATOM     86  C   UNL A   1      45.627  33.798  30.365  1.00  0.00     0.131 A 
ATOM     87  C   UNL A   1      45.951  35.464  28.178  1.00  0.00     0.055 A 
ATOM     88  C   UNL A   1      46.334  34.992  30.508  1.00  0.00     0.041 A 
ATOM     89  F   UNL A   1      45.512  33.006  31.442  1.00  0.00    -0.206 F 
ATOM     90  C   UNL A   1      46.506  35.829  29.409  1.00  0.00     0.022 A 
BRANCH  87  91
ATOM     91  S   UNL A   1      46.240  36.494  26.713  1.00  0.00     0.124 S 
ATOM     92  O   UNL A   1      45.985  35.554  25.626  1.00  0.00    -0.237 OA
ATOM     93  O   UNL A   1      45.256  37.560  26.878  1.00  0.00    -0.237 OA
ATOM     94  O   UNL A   1      47.633  36.913  26.857  1.00  0.00    -0.744 OA
ENDBRANCH  87  91
ENDBRANCH  61  84
ENDBRANCH  35  36
ENDBRANCH  28  30
ENDBRANCH  27  28
ENDBRANCH  26  27
ENDBRANCH   1  26
TORSDOF 20
ENDMDL
MODEL 3
REMARK VINA RESULT:     -11.3      1.541      2.045
REMARK SMILES CCSc1nc(CC(=O)N[C@@H](C(=O)OCCOC(=O)c2ccc(-c3c4nc(c(-c5cc(S(=O)(=O)[O-])ccc5F)c5ccc([nH]5)c(-c5cc(S(=O)(=O)[O-])ccc5F)c5nc(c(-c6cc(S(=O)(=O)[O-])ccc6F)c6ccc3[nH]6)C=C5)C=C4)cc2)C2=C(C)N=N[C@@H]2C)cs1
REMARK SMILES IDX 15 1 14 2 12 3 13 4 11 5 10 6 8 7 9 8 7 10 6 11 4 12 5 13
REMARK SMILES IDX 91 14 90 15 3 16 2 17 1 18 83 19 84 20 88 21 85 22 86 23
REMARK SMILES IDX 87 24 89 25 16 26 17 27 18 28 19 29 20 30 21 31 82 32 22 33
REMARK SMILES IDX 81 34 23 35 24 36 25 37 75 38 26 39 80 40 74 41 76 42 27 43
REMARK SMILES IDX 79 44 73 45 72 46 28 48 60 49 40 50 59 51 41 52 44 53 58 54
REMARK SMILES IDX 77 55 42 56 43 57 57 59 78 60 45 61 29 62 30 63 38 64 31 65
REMARK SMILES IDX 37 66 39 67 36 68 32 69 33 70 34 71 35 72 61 73 62 74 70 75
REMARK SMILES IDX 63 76 69 77 71 78 68 79 64 80 65 81 66 82 67 83 46 84 47 85
REMARK SMILES IDX 55 86 48 87 54 88 56 89 53 90 49 91 50 92 51 93 52 94
REMARK H PARENT 10 9 76 47 44 58
REMARK Flexibility Score: inf
ROOT
ATOM      1  C   UNL A   1      31.599  27.772  25.722  1.00  0.00     0.274 C 
ENDROOT
BRANCH   1   2
ATOM      2  O   UNL A   1      30.746  26.945  24.904  1.00  0.00    -0.460 OA
BRANCH   2   3
ATOM      3  C   UNL A   1      31.347  26.269  23.878  1.00  0.00     0.333 C 
ATOM      4  O   UNL A   1      31.482  26.715  22.745  1.00  0.00    -0.249 OA
BRANCH   3   5
ATOM      5  C   UNL A   1      31.754  24.823  24.292  1.00  0.00     0.223 C 
BRANCH   5   6
ATOM      6  N   UNL A   1      31.806  24.587  25.732  1.00  0.00    -0.339 N 
ATOM      7  C   UNL A   1      31.406  23.474  26.411  1.00  0.00     0.226 C 
ATOM      8  O   UNL A   1      31.374  23.503  27.644  1.00  0.00    -0.275 OA
ATOM      9  H   UNL A   1      32.175  25.318  26.278  1.00  0.00     0.164 HD
BRANCH   7  10
ATOM     10  C   UNL A   1      31.004  22.227  25.651  1.00  0.00     0.157 C 
BRANCH  10  11
ATOM     11  C   UNL A   1      32.174  21.324  25.454  1.00  0.00     0.062 A 
ATOM     12  C   UNL A   1      33.111  19.436  24.753  1.00  0.00     0.150 A 
ATOM     13  N   UNL A   1      31.973  20.088  24.859  1.00  0.00    -0.234 NA
ATOM     14  S   UNL A   1      34.481  20.267  25.365  1.00  0.00    -0.116 S 
ATOM     15  C   UNL A   1      33.483  21.581  25.812  1.00  0.00     0.092 A 
BRANCH  12  16
ATOM     16  S   UNL A   1      33.140  17.876  23.960  1.00  0.00    -0.096 SA
BRANCH  16  17
ATOM     17  C   UNL A   1      32.501  16.735  25.215  1.00  0.00     0.074 C 
ATOM     18  C   UNL A   1      33.368  15.491  25.328  1.00  0.00     0.016 C 
ENDBRANCH  16  17
ENDBRANCH  12  16
ENDBRANCH  10  11
ENDBRANCH   7  10
ENDBRANCH   5   6
BRANCH   5  19
ATOM     19  C   UNL A   1      33.041  24.356  23.708  1.00  0.00     0.012 C 
ATOM     20  C   UNL A   1      33.271  23.409  22.789  1.00  0.00     0.064 C 
ATOM     21  C   UNL A   1      34.372  24.976  23.951  1.00  0.00     0.156 C 
ATOM     22  C   UNL A   1      32.313  22.487  22.125  1.00  0.00     0.069 C 
ATOM     23  N   UNL A   1      34.595  23.327  22.440  1.00  0.00    -0.160 NA
ATOM     24  N   UNL A   1      35.267  24.189  23.066  1.00  0.00    -0.181 NA
ATOM     25  C   UNL A   1      34.902  24.908  25.372  1.00  0.00     0.040 C 
ENDBRANCH   5  19
ENDBRANCH   3   5
ENDBRANCH   2   3
ENDBRANCH   1   2
BRANCH   1  26
ATOM     26  C   UNL A   1      32.002  29.050  24.994  1.00  0.00     0.275 C 
BRANCH  26  27
ATOM     27  O   UNL A   1      33.209  29.556  25.579  1.00  0.00    -0.458 OA
BRANCH  27  28
ATOM     28  C   UNL A   1      33.068  30.556  26.475  1.00  0.00     0.338 C 
ATOM     29  O   UNL A   1      32.123  31.330  26.559  1.00  0.00    -0.246 OA
BRANCH  28  30
ATOM     30  C   UNL A   1      34.213  30.567  27.410  1.00  0.00     0.060 A 
ATOM     31  C   UNL A   1      34.921  31.742  27.661  1.00  0.00     0.016 A 
ATOM     32  C   UNL A   1      34.676  29.360  27.937  1.00  0.00     0.016 A 
ATOM     33  C   UNL A   1      36.157  31.689  28.310  1.00  0.00     0.010 A 
ATOM     34  C   UNL A   1      35.851  29.336  28.697  1.00  0.00     0.010 A 
ATOM     35  C   UNL A   1      36.637  30.492  28.855  1.00  0.00    -0.014 A 
BRANCH  35  36
ATOM     36  C   UNL A   1      37.959  30.410  29.550  1.00  0.00     0.031 A 
ATOM     37  C   UNL A   1      39.072  29.592  28.941  1.00  0.00     0.074 A 
ATOM     38  C   UNL A   1      38.183  31.030  30.727  1.00  0.00     0.049 A 
ATOM     39  N   UNL A   1      40.116  29.050  29.513  1.00  0.00    -0.248 NA
ATOM     40  C   UNL A   1      38.975  29.326  27.498  1.00  0.00     0.031 C 
ATOM     41  C   UNL A   1      37.261  31.941  31.408  1.00  0.00     0.029 A 
ATOM     42  N   UNL A   1      39.268  30.973  31.573  1.00  0.00    -0.354 N 
ATOM     43  C   UNL A   1      40.751  28.306  28.522  1.00  0.00     0.074 A 
ATOM     44  C   UNL A   1      39.981  28.484  27.307  1.00  0.00     0.031 C 
ATOM     45  C   UNL A   1      37.826  32.379  32.541  1.00  0.00     0.029 A 
ATOM     46  C   UNL A   1      39.083  31.672  32.745  1.00  0.00     0.049 A 
ATOM     47  H   UNL A   1      40.093  30.480  31.361  1.00  0.00     0.167 HD
ATOM     48  C   UNL A   1      41.861  27.533  28.630  1.00  0.00     0.034 A 
ATOM     49  C   UNL A   1      39.784  31.676  33.896  1.00  0.00     0.034 A 
ATOM     50  C   UNL A   1      42.654  27.439  29.834  1.00  0.00     0.049 A 
ATOM     51  C   UNL A   1      40.979  30.775  34.025  1.00  0.00     0.074 A 
ATOM     52  C   UNL A   1      43.799  26.693  30.061  1.00  0.00     0.029 A 
ATOM     53  N   UNL A   1      42.398  28.135  31.008  1.00  0.00    -0.354 N 
ATOM     54  N   UNL A   1      41.481  29.943  33.142  1.00  0.00    -0.248 NA
ATOM     55  C   UNL A   1      41.681  30.787  35.313  1.00  0.00     0.031 C 
ATOM     56  C   UNL A   1      44.208  26.902  31.383  1.00  0.00     0.029 A 
ATOM     57  C   UNL A   1      43.354  27.826  31.964  1.00  0.00     0.049 A 
ATOM     58  H   UNL A   1      41.648  28.757  31.142  1.00  0.00     0.167 HD
ATOM     59  C   UNL A   1      42.564  29.336  33.769  1.00  0.00     0.074 A 
ATOM     60  C   UNL A   1      42.648  29.905  35.099  1.00  0.00     0.031 C 
ATOM     61  C   UNL A   1      43.411  28.392  33.289  1.00  0.00     0.034 A 
BRANCH  48  62
ATOM     62  C   UNL A   1      42.238  26.670  27.450  1.00  0.00     0.023 A 
ATOM     63  C   UNL A   1      41.897  25.310  27.361  1.00  0.00     0.031 A 
ATOM     64  C   UNL A   1      42.966  27.236  26.386  1.00  0.00     0.131 A 
ATOM     65  C   UNL A   1      42.326  24.552  26.258  1.00  0.00     0.055 A 
ATOM     66  C   UNL A   1      43.330  26.495  25.260  1.00  0.00     0.041 A 
ATOM     67  F   UNL A   1      43.341  28.525  26.423  1.00  0.00    -0.206 F 
ATOM     68  C   UNL A   1      43.018  25.141  25.197  1.00  0.00     0.022 A 
BRANCH  65  69
ATOM     69  S   UNL A   1      42.065  22.757  26.276  1.00  0.00     0.124 S 
ATOM     70  O   UNL A   1      42.859  22.355  27.435  1.00  0.00    -0.237 OA
ATOM     71  O   UNL A   1      40.619  22.649  26.422  1.00  0.00    -0.237 OA
ATOM     72  O   UNL A   1      42.596  22.320  24.987  1.00  0.00    -0.744 OA
ENDBRANCH  65  69
ENDBRANCH  48  62
BRANCH  49  73
ATOM     73  C   UNL A   1      39.288  32.466  35.060  1.00  0.00     0.023 A 
ATOM     74  C   UNL A   1      38.646  31.848  36.142  1.00  0.00     0.031 A 
ATOM     75  C   UNL A   1      39.465  33.862  35.103  1.00  0.00     0.131 A 
ATOM     76  C   UNL A   1      38.193  32.626  37.219  1.00  0.00     0.055 A 
ATOM     77  C   UNL A   1      39.060  34.624  36.199  1.00  0.00     0.041 A 
ATOM     78  F   UNL A   1      40.071  34.502  34.091  1.00  0.00    -0.206 F 
ATOM     79  C   UNL A   1      38.414  34.006  37.263  1.00  0.00     0.022 A 
BRANCH  76  80
ATOM     80  S   UNL A   1      37.264  31.818  38.550  1.00  0.00     0.124 S 
ATOM     81  O   UNL A   1      36.051  32.626  38.600  1.00  0.00    -0.237 OA
ATOM     82  O   UNL A   1      37.112  30.461  38.035  1.00  0.00    -0.237 OA
ATOM     83  O   UNL A   1      38.147  31.946  39.708  1.00  0.00    -0.744 OA
ENDBRANCH  76  80
ENDBRANCH  49  73
BRANCH  61  84
ATOM     84  C   UNL A   1      44.530  27.963  34.199  1.00  0.00     0.023 A 
ATOM     85  C   UNL A   1      44.422  26.820  35.010  1.00  0.00     0.031 A 
ATOM     86  C   UNL A   1      45.711  28.720  34.264  1.00  0.00     0.131 A 
ATOM     87  C   UNL A   1      45.465  26.491  35.887  1.00  0.00     0.055 A 
ATOM     88  C   UNL A   1      46.763  28.364  35.107  1.00  0.00     0.041 A 
ATOM     89  F   UNL A   1      45.858  29.820  33.510  1.00  0.00    -0.206 F 
ATOM     90  C   UNL A   1      46.640  27.248  35.931  1.00  0.00     0.022 A 
BRANCH  87  91
ATOM     91  S   UNL A   1      45.249  25.088  37.016  1.00  0.00     0.124 S 
ATOM     92  O   UNL A   1      44.812  25.749  38.242  1.00  0.00    -0.237 OA
ATOM     93  O   UNL A   1      44.242  24.284  36.332  1.00  0.00    -0.237 OA
ATOM     94  O   UNL A   1      46.581  24.487  37.076  1.00  0.00    -0.744 OA
ENDBRANCH  87  91
ENDBRANCH  61  84
ENDBRANCH  35  36
ENDBRANCH  28  30
ENDBRANCH  27  28
ENDBRANCH  26  27
ENDBRANCH   1  26
TORSDOF 20
ENDMDL
