MODEL 1
REMARK VINA RESULT:     -12.7      0.000      0.000
REMARK SMILES O=C(OCCOC(=O)c1ccc2c(c1)[C@@H]1C=CC[C@@H]1[C@H](c1ccncc1)N2)c1ccc(-c2c3nc(c(-c4cc(S(=O)(=O)[O-])ccc4F)c4ccc([nH]4)c(-c4cc(S(=O)(=O)[O-])ccc4F)c4nc(c(-c5cc(S(=O)(=O)[O-])ccc5F)c5ccc2[nH]5)C=C4)C=C3)cc1
REMARK SMILES IDX 4 1 3 2 2 3 1 4 28 5 29 6 90 7 30 8 89 9 31 10 32 11 33 12
REMARK SMILES IDX 83 13 34 14 88 15 82 16 84 17 35 18 87 19 81 20 80 21 36 23
REMARK SMILES IDX 68 24 48 25 67 26 49 27 52 28 66 29 85 30 50 31 51 32 65 34
REMARK SMILES IDX 86 35 53 36 37 37 38 38 46 39 39 40 45 41 47 42 44 43 40 44
REMARK SMILES IDX 41 45 42 46 43 47 69 48 70 49 78 50 71 51 77 52 79 53 76 54
REMARK SMILES IDX 72 55 73 56 74 57 75 58 54 59 55 60 63 61 56 62 62 63 64 64
REMARK SMILES IDX 61 65 57 66 58 67 59 68 60 69 5 70 6 71 7 72 8 73 9 74 10 75
REMARK SMILES IDX 14 76 11 77 13 78 12 79 15 80 27 81 16 82 19 83 20 84 17 86
REMARK SMILES IDX 18 87 21 88 22 89 26 90 23 91 25 92 24 93
REMARK H PARENT 84 22 52 33 27 85
REMARK Flexibility Score: inf
ROOT
ATOM      1  C   UNL A   1      33.860  28.728  26.091  1.00  0.00     0.275 C 
ENDROOT
BRANCH   1   2
ATOM      2  O   UNL A   1      33.541  29.933  26.809  1.00  0.00    -0.458 OA
BRANCH   2   3
ATOM      3  C   UNL A   1      34.354  30.745  27.529  1.00  0.00     0.338 C 
ATOM      4  O   UNL A   1      34.071  31.938  27.623  1.00  0.00    -0.246 OA
BRANCH   3   5
ATOM      5  C   UNL A   1      35.659  30.278  28.088  1.00  0.00     0.060 A 
ATOM      6  C   UNL A   1      35.835  29.709  29.352  1.00  0.00     0.016 A 
ATOM      7  C   UNL A   1      36.787  30.421  27.265  1.00  0.00     0.016 A 
ATOM      8  C   UNL A   1      37.069  29.190  29.748  1.00  0.00     0.010 A 
ATOM      9  C   UNL A   1      38.026  29.902  27.655  1.00  0.00     0.010 A 
ATOM     10  C   UNL A   1      38.176  29.281  28.909  1.00  0.00    -0.014 A 
BRANCH  10  11
ATOM     11  C   UNL A   1      39.528  28.982  29.445  1.00  0.00     0.031 A 
ATOM     12  C   UNL A   1      40.163  27.703  28.975  1.00  0.00     0.074 A 
ATOM     13  C   UNL A   1      40.188  29.812  30.284  1.00  0.00     0.049 A 
ATOM     14  N   UNL A   1      41.206  27.076  29.439  1.00  0.00    -0.248 NA
ATOM     15  C   UNL A   1      39.548  27.064  27.795  1.00  0.00     0.031 C 
ATOM     16  C   UNL A   1      39.738  31.139  30.715  1.00  0.00     0.029 A 
ATOM     17  N   UNL A   1      41.310  29.587  31.064  1.00  0.00    -0.354 N 
ATOM     18  C   UNL A   1      41.439  26.043  28.539  1.00  0.00     0.074 A 
ATOM     19  C   UNL A   1      40.336  26.019  27.608  1.00  0.00     0.031 C 
ATOM     20  C   UNL A   1      40.424  31.501  31.820  1.00  0.00     0.029 A 
ATOM     21  C   UNL A   1      41.334  30.423  32.175  1.00  0.00     0.049 A 
ATOM     22  H   UNL A   1      42.003  28.919  30.857  1.00  0.00     0.167 HD
ATOM     23  C   UNL A   1      42.538  25.258  28.446  1.00  0.00     0.034 A 
ATOM     24  C   UNL A   1      41.881  30.208  33.393  1.00  0.00     0.034 A 
ATOM     25  C   UNL A   1      43.586  25.288  29.430  1.00  0.00     0.049 A 
ATOM     26  C   UNL A   1      42.813  29.039  33.541  1.00  0.00     0.074 A 
ATOM     27  C   UNL A   1      44.786  24.606  29.453  1.00  0.00     0.029 A 
ATOM     28  N   UNL A   1      43.524  26.035  30.600  1.00  0.00    -0.354 N 
ATOM     29  N   UNL A   1      43.071  28.076  32.688  1.00  0.00    -0.248 NA
ATOM     30  C   UNL A   1      43.590  28.982  34.782  1.00  0.00     0.031 C 
ATOM     31  C   UNL A   1      45.416  24.887  30.673  1.00  0.00     0.029 A 
ATOM     32  C   UNL A   1      44.646  25.804  31.372  1.00  0.00     0.049 A 
ATOM     33  H   UNL A   1      42.787  26.641  30.843  1.00  0.00     0.167 HD
ATOM     34  C   UNL A   1      44.146  27.381  33.230  1.00  0.00     0.074 A 
ATOM     35  C   UNL A   1      44.407  27.971  34.530  1.00  0.00     0.031 C 
ATOM     36  C   UNL A   1      44.903  26.412  32.657  1.00  0.00     0.034 A 
BRANCH  23  37
ATOM     37  C   UNL A   1      42.642  24.359  27.241  1.00  0.00     0.023 A 
ATOM     38  C   UNL A   1      42.085  23.066  27.255  1.00  0.00     0.031 A 
ATOM     39  C   UNL A   1      43.332  24.763  26.089  1.00  0.00     0.131 A 
ATOM     40  C   UNL A   1      42.298  22.194  26.179  1.00  0.00     0.055 A 
ATOM     41  C   UNL A   1      43.473  23.918  24.985  1.00  0.00     0.041 A 
ATOM     42  F   UNL A   1      43.905  25.976  26.024  1.00  0.00    -0.206 F 
ATOM     43  C   UNL A   1      42.969  22.619  25.031  1.00  0.00     0.022 A 
BRANCH  40  44
ATOM     44  S   UNL A   1      41.814  20.454  26.362  1.00  0.00     0.124 S 
ATOM     45  O   UNL A   1      40.370  20.525  26.152  1.00  0.00    -0.237 OA
ATOM     46  O   UNL A   1      42.579  19.798  25.309  1.00  0.00    -0.237 OA
ATOM     47  O   UNL A   1      42.222  20.128  27.727  1.00  0.00    -0.744 OA
ENDBRANCH  40  44
ENDBRANCH  23  37
BRANCH  24  48
ATOM     48  C   UNL A   1      41.512  30.996  34.610  1.00  0.00     0.023 A 
ATOM     49  C   UNL A   1      40.305  30.797  35.290  1.00  0.00     0.031 A 
ATOM     50  C   UNL A   1      42.290  32.107  34.996  1.00  0.00     0.131 A 
ATOM     51  C   UNL A   1      39.923  31.693  36.310  1.00  0.00     0.055 A 
ATOM     52  C   UNL A   1      41.955  32.935  36.069  1.00  0.00     0.041 A 
ATOM     53  F   UNL A   1      43.343  32.487  34.264  1.00  0.00    -0.206 F 
ATOM     54  C   UNL A   1      40.756  32.733  36.731  1.00  0.00     0.022 A 
BRANCH  51  55
ATOM     55  S   UNL A   1      38.238  31.589  36.975  1.00  0.00     0.124 S 
ATOM     56  O   UNL A   1      37.483  32.327  35.968  1.00  0.00    -0.237 OA
ATOM     57  O   UNL A   1      38.018  30.148  37.020  1.00  0.00    -0.237 OA
ATOM     58  O   UNL A   1      38.346  32.242  38.278  1.00  0.00    -0.744 OA
ENDBRANCH  51  55
ENDBRANCH  24  48
BRANCH  36  59
ATOM     59  C   UNL A   1      46.193  26.071  33.349  1.00  0.00     0.023 A 
ATOM     60  C   UNL A   1      46.312  25.002  34.246  1.00  0.00     0.031 A 
ATOM     61  C   UNL A   1      47.323  26.879  33.116  1.00  0.00     0.131 A 
ATOM     62  C   UNL A   1      47.522  24.806  34.925  1.00  0.00     0.055 A 
ATOM     63  C   UNL A   1      48.544  26.629  33.734  1.00  0.00     0.041 A 
ATOM     64  F   UNL A   1      47.253  27.928  32.278  1.00  0.00    -0.206 F 
ATOM     65  C   UNL A   1      48.645  25.594  34.657  1.00  0.00     0.022 A 
BRANCH  62  66
ATOM     66  S   UNL A   1      47.576  23.576  36.255  1.00  0.00     0.124 S 
ATOM     67  O   UNL A   1      48.116  24.357  37.363  1.00  0.00    -0.237 OA
ATOM     68  O   UNL A   1      46.175  23.184  36.375  1.00  0.00    -0.237 OA
ATOM     69  O   UNL A   1      48.466  22.543  35.730  1.00  0.00    -0.744 OA
ENDBRANCH  62  66
ENDBRANCH  36  59
ENDBRANCH  10  11
ENDBRANCH   3   5
ENDBRANCH   2   3
ENDBRANCH   1   2
BRANCH   1  70
ATOM     70  C   UNL A   1      32.918  28.351  24.938  1.00  0.00     0.275 C 
BRANCH  70  71
ATOM     71  O   UNL A   1      31.562  28.064  25.327  1.00  0.00    -0.458 OA
BRANCH  71  72
ATOM     72  C   UNL A   1      31.430  27.107  26.281  1.00  0.00     0.338 C 
ATOM     73  O   UNL A   1      31.049  27.293  27.431  1.00  0.00    -0.246 OA
BRANCH  72  74
ATOM     74  C   UNL A   1      31.682  25.752  25.740  1.00  0.00     0.060 A 
ATOM     75  C   UNL A   1      30.806  25.260  24.768  1.00  0.00     0.018 A 
ATOM     76  C   UNL A   1      32.724  24.939  26.185  1.00  0.00     0.022 A 
ATOM     77  C   UNL A   1      30.975  23.971  24.238  1.00  0.00     0.027 A 
ATOM     78  C   UNL A   1      32.872  23.623  25.669  1.00  0.00    -0.017 A 
ATOM     79  C   UNL A   1      31.994  23.128  24.689  1.00  0.00     0.038 A 
ATOM     80  C   UNL A   1      34.030  22.767  26.116  1.00  0.00     0.049 C 
ATOM     81  N   UNL A   1      32.088  21.822  24.205  1.00  0.00    -0.378 N 
ATOM     82  C   UNL A   1      35.330  23.406  25.776  1.00  0.00    -0.023 C 
ATOM     83  C   UNL A   1      34.202  21.447  25.355  1.00  0.00     0.031 C 
ATOM     84  C   UNL A   1      32.882  20.829  24.928  1.00  0.00     0.114 C 
ATOM     85  H   UNL A   1      31.618  21.570  23.377  1.00  0.00     0.161 HD
ATOM     86  C   UNL A   1      35.893  22.878  24.683  1.00  0.00    -0.030 C 
ATOM     87  C   UNL A   1      35.132  21.729  24.164  1.00  0.00     0.034 C 
BRANCH  84  88
ATOM     88  C   UNL A   1      33.199  19.530  24.176  1.00  0.00    -0.022 A 
ATOM     89  C   UNL A   1      32.383  19.189  23.075  1.00  0.00     0.026 A 
ATOM     90  C   UNL A   1      34.115  18.567  24.606  1.00  0.00     0.026 A 
ATOM     91  C   UNL A   1      32.480  17.929  22.507  1.00  0.00     0.111 A 
ATOM     92  C   UNL A   1      34.155  17.339  23.951  1.00  0.00     0.111 A 
ATOM     93  N   UNL A   1      33.367  17.002  22.909  1.00  0.00    -0.265 NA
ENDBRANCH  84  88
ENDBRANCH  72  74
ENDBRANCH  71  72
ENDBRANCH  70  71
ENDBRANCH   1  70
TORSDOF 15
ENDMDL
MODEL 2
REMARK VINA RESULT:     -12.6      1.276      1.513
REMARK SMILES O=C(OCCOC(=O)c1ccc2c(c1)[C@@H]1C=CC[C@@H]1[C@H](c1ccncc1)N2)c1ccc(-c2c3nc(c(-c4cc(S(=O)(=O)[O-])ccc4F)c4ccc([nH]4)c(-c4cc(S(=O)(=O)[O-])ccc4F)c4nc(c(-c5cc(S(=O)(=O)[O-])ccc5F)c5ccc2[nH]5)C=C4)C=C3)cc1
REMARK SMILES IDX 4 1 3 2 2 3 1 4 28 5 29 6 90 7 30 8 89 9 31 10 32 11 33 12
REMARK SMILES IDX 83 13 34 14 88 15 82 16 84 17 35 18 87 19 81 20 80 21 36 23
REMARK SMILES IDX 68 24 48 25 67 26 49 27 52 28 66 29 85 30 50 31 51 32 65 34
REMARK SMILES IDX 86 35 53 36 37 37 38 38 46 39 39 40 45 41 47 42 44 43 40 44
REMARK SMILES IDX 41 45 42 46 43 47 69 48 70 49 78 50 71 51 77 52 79 53 76 54
REMARK SMILES IDX 72 55 73 56 74 57 75 58 54 59 55 60 63 61 56 62 62 63 64 64
REMARK SMILES IDX 61 65 57 66 58 67 59 68 60 69 5 70 6 71 7 72 8 73 9 74 10 75
REMARK SMILES IDX 14 76 11 77 13 78 12 79 15 80 27 81 16 82 19 83 20 84 17 86
REMARK SMILES IDX 18 87 21 88 22 89 26 90 23 91 25 92 24 93
REMARK H PARENT 84 22 52 33 27 85
REMARK Flexibility Score: inf
ROOT
ATOM      1  C   UNL A   1      32.909  29.791  25.751  1.00  0.00     0.275 C 
ENDROOT
BRANCH   1   2
ATOM      2  O   UNL A   1      33.381  29.944  27.102  1.00  0.00    -0.458 OA
BRANCH   2   3
ATOM      3  C   UNL A   1      34.322  30.789  27.592  1.00  0.00     0.338 C 
ATOM      4  O   UNL A   1      34.158  32.001  27.461  1.00  0.00    -0.246 OA
BRANCH   3   5
ATOM      5  C   UNL A   1      35.619  30.304  28.152  1.00  0.00     0.060 A 
ATOM      6  C   UNL A   1      35.779  29.697  29.401  1.00  0.00     0.016 A 
ATOM      7  C   UNL A   1      36.756  30.468  27.347  1.00  0.00     0.016 A 
ATOM      8  C   UNL A   1      37.008  29.164  29.795  1.00  0.00     0.010 A 
ATOM      9  C   UNL A   1      37.990  29.936  27.735  1.00  0.00     0.010 A 
ATOM     10  C   UNL A   1      38.125  29.278  28.972  1.00  0.00    -0.014 A 
BRANCH  10  11
ATOM     11  C   UNL A   1      39.470  28.961  29.515  1.00  0.00     0.031 A 
ATOM     12  C   UNL A   1      40.092  27.676  29.044  1.00  0.00     0.074 A 
ATOM     13  C   UNL A   1      40.135  29.780  30.361  1.00  0.00     0.049 A 
ATOM     14  N   UNL A   1      41.125  27.036  29.511  1.00  0.00    -0.248 NA
ATOM     15  C   UNL A   1      39.477  27.049  27.857  1.00  0.00     0.031 C 
ATOM     16  C   UNL A   1      39.699  31.111  30.795  1.00  0.00     0.029 A 
ATOM     17  N   UNL A   1      41.249  29.538  31.146  1.00  0.00    -0.354 N 
ATOM     18  C   UNL A   1      41.352  26.003  28.609  1.00  0.00     0.074 A 
ATOM     19  C   UNL A   1      40.254  25.996  27.671  1.00  0.00     0.031 C 
ATOM     20  C   UNL A   1      40.382  31.460  31.905  1.00  0.00     0.029 A 
ATOM     21  C   UNL A   1      41.277  30.369  32.261  1.00  0.00     0.049 A 
ATOM     22  H   UNL A   1      41.936  28.863  30.941  1.00  0.00     0.167 HD
ATOM     23  C   UNL A   1      42.442  25.205  28.518  1.00  0.00     0.034 A 
ATOM     24  C   UNL A   1      41.814  30.144  33.481  1.00  0.00     0.034 A 
ATOM     25  C   UNL A   1      43.484  25.219  29.509  1.00  0.00     0.049 A 
ATOM     26  C   UNL A   1      42.731  28.962  33.630  1.00  0.00     0.074 A 
ATOM     27  C   UNL A   1      44.676  24.523  29.536  1.00  0.00     0.029 A 
ATOM     28  N   UNL A   1      43.424  25.962  30.681  1.00  0.00    -0.354 N 
ATOM     29  N   UNL A   1      42.983  28.000  32.775  1.00  0.00    -0.248 NA
ATOM     30  C   UNL A   1      43.500  28.892  34.875  1.00  0.00     0.031 C 
ATOM     31  C   UNL A   1      45.302  24.792  30.760  1.00  0.00     0.029 A 
ATOM     32  C   UNL A   1      44.539  25.715  31.459  1.00  0.00     0.049 A 
ATOM     33  H   UNL A   1      42.693  26.576  30.922  1.00  0.00     0.167 HD
ATOM     34  C   UNL A   1      44.047  27.290  33.320  1.00  0.00     0.074 A 
ATOM     35  C   UNL A   1      44.307  27.872  34.624  1.00  0.00     0.031 C 
ATOM     36  C   UNL A   1      44.796  26.315  32.748  1.00  0.00     0.034 A 
BRANCH  23  37
ATOM     37  C   UNL A   1      42.542  24.310  27.310  1.00  0.00     0.023 A 
ATOM     38  C   UNL A   1      41.937  23.038  27.303  1.00  0.00     0.031 A 
ATOM     39  C   UNL A   1      43.275  24.695  26.178  1.00  0.00     0.131 A 
ATOM     40  C   UNL A   1      42.145  22.165  26.226  1.00  0.00     0.055 A 
ATOM     41  C   UNL A   1      43.411  23.851  25.073  1.00  0.00     0.041 A 
ATOM     42  F   UNL A   1      43.894  25.885  26.135  1.00  0.00    -0.206 F 
ATOM     43  C   UNL A   1      42.859  22.572  25.098  1.00  0.00     0.022 A 
BRANCH  40  44
ATOM     44  S   UNL A   1      41.592  20.444  26.387  1.00  0.00     0.124 S 
ATOM     45  O   UNL A   1      41.955  20.144  27.769  1.00  0.00    -0.237 OA
ATOM     46  O   UNL A   1      40.163  20.541  26.110  1.00  0.00    -0.237 OA
ATOM     47  O   UNL A   1      42.376  19.737  25.376  1.00  0.00    -0.744 OA
ENDBRANCH  40  44
ENDBRANCH  23  37
BRANCH  24  48
ATOM     48  C   UNL A   1      41.448  30.931  34.700  1.00  0.00     0.023 A 
ATOM     49  C   UNL A   1      40.245  30.727  35.386  1.00  0.00     0.031 A 
ATOM     50  C   UNL A   1      42.223  32.046  35.081  1.00  0.00     0.131 A 
ATOM     51  C   UNL A   1      39.864  31.623  36.406  1.00  0.00     0.055 A 
ATOM     52  C   UNL A   1      41.889  32.874  36.154  1.00  0.00     0.041 A 
ATOM     53  F   UNL A   1      43.270  32.430  34.343  1.00  0.00    -0.206 F 
ATOM     54  C   UNL A   1      40.694  32.667  36.822  1.00  0.00     0.022 A 
BRANCH  51  55
ATOM     55  S   UNL A   1      38.182  31.512  37.079  1.00  0.00     0.124 S 
ATOM     56  O   UNL A   1      37.444  32.369  36.158  1.00  0.00    -0.237 OA
ATOM     57  O   UNL A   1      37.912  30.082  36.987  1.00  0.00    -0.237 OA
ATOM     58  O   UNL A   1      38.325  32.031  38.438  1.00  0.00    -0.744 OA
ENDBRANCH  51  55
ENDBRANCH  24  48
BRANCH  36  59
ATOM     59  C   UNL A   1      46.078  25.956  33.445  1.00  0.00     0.023 A 
ATOM     60  C   UNL A   1      47.294  26.594  33.170  1.00  0.00     0.031 A 
ATOM     61  C   UNL A   1      46.068  24.911  34.390  1.00  0.00     0.131 A 
ATOM     62  C   UNL A   1      48.465  26.139  33.791  1.00  0.00     0.055 A 
ATOM     63  C   UNL A   1      47.221  24.518  35.062  1.00  0.00     0.041 A 
ATOM     64  F   UNL A   1      44.929  24.257  34.673  1.00  0.00    -0.206 F 
ATOM     65  C   UNL A   1      48.433  25.125  34.753  1.00  0.00     0.022 A 
BRANCH  62  66
ATOM     66  S   UNL A   1      50.053  26.814  33.238  1.00  0.00     0.124 S 
ATOM     67  O   UNL A   1      49.709  27.350  31.925  1.00  0.00    -0.237 OA
ATOM     68  O   UNL A   1      50.351  27.801  34.271  1.00  0.00    -0.237 OA
ATOM     69  O   UNL A   1      50.934  25.648  33.222  1.00  0.00    -0.744 OA
ENDBRANCH  62  66
ENDBRANCH  36  59
ENDBRANCH  10  11
ENDBRANCH   3   5
ENDBRANCH   2   3
ENDBRANCH   1   2
BRANCH   1  70
ATOM     70  C   UNL A   1      31.477  29.260  25.585  1.00  0.00     0.275 C 
BRANCH  70  71
ATOM     71  O   UNL A   1      31.380  27.894  25.141  1.00  0.00    -0.458 OA
BRANCH  71  72
ATOM     72  C   UNL A   1      31.342  26.970  26.134  1.00  0.00     0.338 C 
ATOM     73  O   UNL A   1      31.004  27.180  27.294  1.00  0.00    -0.246 OA
BRANCH  72  74
ATOM     74  C   UNL A   1      31.641  25.609  25.631  1.00  0.00     0.060 A 
ATOM     75  C   UNL A   1      30.805  25.076  24.645  1.00  0.00     0.018 A 
ATOM     76  C   UNL A   1      32.687  24.830  26.125  1.00  0.00     0.022 A 
ATOM     77  C   UNL A   1      31.020  23.780  24.150  1.00  0.00     0.027 A 
ATOM     78  C   UNL A   1      32.880  23.508  25.644  1.00  0.00    -0.017 A 
ATOM     79  C   UNL A   1      32.043  22.971  24.650  1.00  0.00     0.038 A 
ATOM     80  C   UNL A   1      34.042  22.687  26.144  1.00  0.00     0.049 C 
ATOM     81  N   UNL A   1      32.181  21.658  24.197  1.00  0.00    -0.378 N 
ATOM     82  C   UNL A   1      35.338  23.349  25.829  1.00  0.00    -0.023 C 
ATOM     83  C   UNL A   1      34.267  21.357  25.418  1.00  0.00     0.031 C 
ATOM     84  C   UNL A   1      32.975  20.698  24.966  1.00  0.00     0.114 C 
ATOM     85  H   UNL A   1      31.742  21.377  23.362  1.00  0.00     0.161 HD
ATOM     86  C   UNL A   1      35.945  22.811  24.765  1.00  0.00    -0.030 C 
ATOM     87  C   UNL A   1      35.226  21.634  24.250  1.00  0.00     0.034 C 
BRANCH  84  88
ATOM     88  C   UNL A   1      33.343  19.391  24.253  1.00  0.00    -0.022 A 
ATOM     89  C   UNL A   1      32.529  18.974  23.177  1.00  0.00     0.026 A 
ATOM     90  C   UNL A   1      34.311  18.488  24.700  1.00  0.00     0.026 A 
ATOM     91  C   UNL A   1      32.679  17.702  22.650  1.00  0.00     0.111 A 
ATOM     92  C   UNL A   1      34.401  17.242  24.086  1.00  0.00     0.111 A 
ATOM     93  N   UNL A   1      33.615  16.833  23.069  1.00  0.00    -0.265 NA
ENDBRANCH  84  88
ENDBRANCH  72  74
ENDBRANCH  71  72
ENDBRANCH  70  71
ENDBRANCH   1  70
TORSDOF 15
ENDMDL
MODEL 3
REMARK VINA RESULT:     -12.5      5.092     10.046
REMARK SMILES O=C(OCCOC(=O)c1ccc2c(c1)[C@@H]1C=CC[C@@H]1[C@H](c1ccncc1)N2)c1ccc(-c2c3nc(c(-c4cc(S(=O)(=O)[O-])ccc4F)c4ccc([nH]4)c(-c4cc(S(=O)(=O)[O-])ccc4F)c4nc(c(-c5cc(S(=O)(=O)[O-])ccc5F)c5ccc2[nH]5)C=C4)C=C3)cc1
REMARK SMILES IDX 4 1 3 2 2 3 1 4 28 5 29 6 90 7 30 8 89 9 31 10 32 11 33 12
REMARK SMILES IDX 83 13 34 14 88 15 82 16 84 17 35 18 87 19 81 20 80 21 36 23
REMARK SMILES IDX 68 24 48 25 67 26 49 27 52 28 66 29 85 30 50 31 51 32 65 34
REMARK SMILES IDX 86 35 53 36 37 37 38 38 46 39 39 40 45 41 47 42 44 43 40 44
REMARK SMILES IDX 41 45 42 46 43 47 69 48 70 49 78 50 71 51 77 52 79 53 76 54
REMARK SMILES IDX 72 55 73 56 74 57 75 58 54 59 55 60 63 61 56 62 62 63 64 64
REMARK SMILES IDX 61 65 57 66 58 67 59 68 60 69 5 70 6 71 7 72 8 73 9 74 10 75
REMARK SMILES IDX 14 76 11 77 13 78 12 79 15 80 27 81 16 82 19 83 20 84 17 86
REMARK SMILES IDX 18 87 21 88 22 89 26 90 23 91 25 92 24 93
REMARK H PARENT 84 22 52 33 27 85
REMARK Flexibility Score: inf
ROOT
ATOM      1  C   UNL A   1      36.876  23.450  24.737  1.00  0.00     0.275 C 
ENDROOT
BRANCH   1   2
ATOM      2  O   UNL A   1      37.544  22.667  25.743  1.00  0.00    -0.458 OA
BRANCH   2   3
ATOM      3  C   UNL A   1      38.796  22.805  26.248  1.00  0.00     0.338 C 
ATOM      4  O   UNL A   1      39.488  21.800  26.402  1.00  0.00    -0.246 OA
BRANCH   3   5
ATOM      5  C   UNL A   1      39.311  24.109  26.765  1.00  0.00     0.060 A 
ATOM      6  C   UNL A   1      40.051  25.033  26.021  1.00  0.00     0.016 A 
ATOM      7  C   UNL A   1      39.014  24.423  28.099  1.00  0.00     0.016 A 
ATOM      8  C   UNL A   1      40.390  26.281  26.547  1.00  0.00     0.010 A 
ATOM      9  C   UNL A   1      39.349  25.672  28.632  1.00  0.00     0.010 A 
ATOM     10  C   UNL A   1      40.046  26.614  27.854  1.00  0.00    -0.014 A 
BRANCH  10  11
ATOM     11  C   UNL A   1      40.648  27.817  28.485  1.00  0.00     0.031 A 
ATOM     12  C   UNL A   1      39.709  28.952  28.783  1.00  0.00     0.074 A 
ATOM     13  C   UNL A   1      41.956  27.899  28.815  1.00  0.00     0.049 A 
ATOM     14  N   UNL A   1      39.975  30.185  29.106  1.00  0.00    -0.248 NA
ATOM     15  C   UNL A   1      38.267  28.635  28.742  1.00  0.00     0.031 C 
ATOM     16  C   UNL A   1      42.945  26.824  28.695  1.00  0.00     0.029 A 
ATOM     17  N   UNL A   1      42.722  28.999  29.162  1.00  0.00    -0.354 N 
ATOM     18  C   UNL A   1      38.746  30.753  29.419  1.00  0.00     0.074 A 
ATOM     19  C   UNL A   1      37.723  29.791  29.082  1.00  0.00     0.031 C 
ATOM     20  C   UNL A   1      44.185  27.356  28.736  1.00  0.00     0.029 A 
ATOM     21  C   UNL A   1      44.065  28.802  28.860  1.00  0.00     0.049 A 
ATOM     22  H   UNL A   1      42.360  29.818  29.572  1.00  0.00     0.167 HD
ATOM     23  C   UNL A   1      38.512  31.936  30.035  1.00  0.00     0.034 A 
ATOM     24  C   UNL A   1      45.010  29.712  28.533  1.00  0.00     0.034 A 
ATOM     25  C   UNL A   1      39.564  32.880  30.302  1.00  0.00     0.049 A 
ATOM     26  C   UNL A   1      44.685  31.162  28.757  1.00  0.00     0.074 A 
ATOM     27  C   UNL A   1      39.508  34.088  30.967  1.00  0.00     0.029 A 
ATOM     28  N   UNL A   1      40.875  32.717  29.872  1.00  0.00    -0.354 N 
ATOM     29  N   UNL A   1      43.540  31.710  29.088  1.00  0.00    -0.248 NA
ATOM     30  C   UNL A   1      45.804  32.101  28.647  1.00  0.00     0.031 C 
ATOM     31  C   UNL A   1      40.771  34.688  30.875  1.00  0.00     0.029 A 
ATOM     32  C   UNL A   1      41.632  33.819  30.222  1.00  0.00     0.049 A 
ATOM     33  H   UNL A   1      41.215  31.930  29.388  1.00  0.00     0.167 HD
ATOM     34  C   UNL A   1      43.834  33.040  29.368  1.00  0.00     0.074 A 
ATOM     35  C   UNL A   1      45.239  33.227  29.058  1.00  0.00     0.031 C 
ATOM     36  C   UNL A   1      43.035  33.985  29.923  1.00  0.00     0.034 A 
BRANCH  23  37
ATOM     37  C   UNL A   1      37.097  32.221  30.464  1.00  0.00     0.023 A 
ATOM     38  C   UNL A   1      36.173  32.794  29.569  1.00  0.00     0.031 A 
ATOM     39  C   UNL A   1      36.669  31.969  31.775  1.00  0.00     0.131 A 
ATOM     40  C   UNL A   1      34.899  33.173  30.015  1.00  0.00     0.055 A 
ATOM     41  C   UNL A   1      35.371  32.274  32.194  1.00  0.00     0.041 A 
ATOM     42  F   UNL A   1      37.510  31.446  32.681  1.00  0.00    -0.206 F 
ATOM     43  C   UNL A   1      34.483  32.894  31.317  1.00  0.00     0.022 A 
BRANCH  40  44
ATOM     44  S   UNL A   1      33.853  34.163  28.912  1.00  0.00     0.124 S 
ATOM     45  O   UNL A   1      34.814  35.124  28.375  1.00  0.00    -0.237 OA
ATOM     46  O   UNL A   1      33.352  33.169  27.970  1.00  0.00    -0.237 OA
ATOM     47  O   UNL A   1      32.850  34.732  29.810  1.00  0.00    -0.744 OA
ENDBRANCH  40  44
ENDBRANCH  23  37
BRANCH  24  48
ATOM     48  C   UNL A   1      46.296  29.356  27.858  1.00  0.00     0.023 A 
ATOM     49  C   UNL A   1      46.359  29.030  26.498  1.00  0.00     0.031 A 
ATOM     50  C   UNL A   1      47.463  29.147  28.622  1.00  0.00     0.131 A 
ATOM     51  C   UNL A   1      47.557  28.517  25.958  1.00  0.00     0.055 A 
ATOM     52  C   UNL A   1      48.673  28.730  28.065  1.00  0.00     0.041 A 
ATOM     53  F   UNL A   1      47.425  29.231  29.957  1.00  0.00    -0.206 F 
ATOM     54  C   UNL A   1      48.723  28.404  26.720  1.00  0.00     0.022 A 
BRANCH  51  55
ATOM     55  S   UNL A   1      47.534  27.835  24.277  1.00  0.00     0.124 S 
ATOM     56  O   UNL A   1      46.799  26.591  24.480  1.00  0.00    -0.237 OA
ATOM     57  O   UNL A   1      46.840  28.881  23.535  1.00  0.00    -0.237 OA
ATOM     58  O   UNL A   1      48.951  27.679  23.954  1.00  0.00    -0.744 OA
ENDBRANCH  51  55
ENDBRANCH  24  48
BRANCH  36  59
ATOM     59  C   UNL A   1      43.712  35.236  30.407  1.00  0.00     0.023 A 
ATOM     60  C   UNL A   1      44.262  35.351  31.690  1.00  0.00     0.031 A 
ATOM     61  C   UNL A   1      43.765  36.354  29.552  1.00  0.00     0.131 A 
ATOM     62  C   UNL A   1      44.791  36.581  32.104  1.00  0.00     0.055 A 
ATOM     63  C   UNL A   1      44.363  37.548  29.942  1.00  0.00     0.041 A 
ATOM     64  F   UNL A   1      43.233  36.298  28.320  1.00  0.00    -0.206 F 
ATOM     65  C   UNL A   1      44.869  37.671  31.231  1.00  0.00     0.022 A 
BRANCH  62  66
ATOM     66  S   UNL A   1      45.272  36.775  33.840  1.00  0.00     0.124 S 
ATOM     67  O   UNL A   1      46.723  36.642  33.765  1.00  0.00    -0.237 OA
ATOM     68  O   UNL A   1      44.770  38.108  34.157  1.00  0.00    -0.237 OA
ATOM     69  O   UNL A   1      44.580  35.676  34.511  1.00  0.00    -0.744 OA
ENDBRANCH  62  66
ENDBRANCH  36  59
ENDBRANCH  10  11
ENDBRANCH   3   5
ENDBRANCH   2   3
ENDBRANCH   1   2
BRANCH   1  70
ATOM     70  C   UNL A   1      36.214  22.669  23.593  1.00  0.00     0.275 C 
BRANCH  70  71
ATOM     71  O   UNL A   1      35.295  23.430  22.787  1.00  0.00    -0.458 OA
BRANCH  71  72
ATOM     72  C   UNL A   1      33.985  23.263  23.100  1.00  0.00     0.338 C 
ATOM     73  O   UNL A   1      33.496  22.269  23.625  1.00  0.00    -0.246 OA
BRANCH  72  74
ATOM     74  C   UNL A   1      33.198  24.493  22.848  1.00  0.00     0.060 A 
ATOM     75  C   UNL A   1      33.339  25.118  21.605  1.00  0.00     0.018 A 
ATOM     76  C   UNL A   1      32.362  25.068  23.804  1.00  0.00     0.022 A 
ATOM     77  C   UNL A   1      32.643  26.302  21.318  1.00  0.00     0.027 A 
ATOM     78  C   UNL A   1      31.684  26.283  23.519  1.00  0.00    -0.017 A 
ATOM     79  C   UNL A   1      31.822  26.912  22.270  1.00  0.00     0.038 A 
ATOM     80  C   UNL A   1      30.742  26.875  24.537  1.00  0.00     0.049 C 
ATOM     81  N   UNL A   1      31.208  28.133  21.984  1.00  0.00    -0.378 N 
ATOM     82  C   UNL A   1      29.628  25.936  24.842  1.00  0.00    -0.023 C 
ATOM     83  C   UNL A   1      29.921  28.075  24.052  1.00  0.00     0.031 C 
ATOM     84  C   UNL A   1      30.676  28.956  23.071  1.00  0.00     0.114 C 
ATOM     85  H   UNL A   1      31.133  28.440  21.052  1.00  0.00     0.161 HD
ATOM     86  C   UNL A   1      28.495  26.260  24.210  1.00  0.00    -0.030 C 
ATOM     87  C   UNL A   1      28.615  27.522  23.462  1.00  0.00     0.034 C 
BRANCH  84  88
ATOM     88  C   UNL A   1      29.743  30.104  22.665  1.00  0.00    -0.022 A 
ATOM     89  C   UNL A   1      29.173  30.885  23.693  1.00  0.00     0.026 A 
ATOM     90  C   UNL A   1      29.271  30.323  21.369  1.00  0.00     0.026 A 
ATOM     91  C   UNL A   1      28.157  31.781  23.398  1.00  0.00     0.111 A 
ATOM     92  C   UNL A   1      28.266  31.265  21.171  1.00  0.00     0.111 A 
ATOM     93  N   UNL A   1      27.705  32.003  22.152  1.00  0.00    -0.265 NA
ENDBRANCH  84  88
ENDBRANCH  72  74
ENDBRANCH  71  72
ENDBRANCH  70  71
ENDBRANCH   1  70
TORSDOF 15
ENDMDL
