MODEL 1
REMARK VINA RESULT:     -11.3      0.000      0.000
REMARK SMILES CCC[C@H](CNC(=O)N1C[C@H]2CCC[N@H+]2C[C@@H]1C)C(=O)OCCOC(=O)c1ccc(-c2c3nc(c(-c4cc(S(=O)(=O)[O-])ccc4F)c4ccc([nH]4)c(-c4cc(S(=O)(=O)[O-])ccc4F)c4nc(c(-c5cc(S(=O)(=O)[O-])ccc5F)c5ccc2[nH]5)C=C4)C=C3)cc1
REMARK SMILES IDX 22 1 21 2 19 3 20 4 4 5 3 6 2 7 1 8 5 9 6 10 7 11 8 13 9 14
REMARK SMILES IDX 10 15 17 16 11 17 16 18 18 19 12 20 15 21 13 22 14 23 23 25
REMARK SMILES IDX 24 26 25 27 26 28 27 29 28 30 89 31 29 32 88 33 30 34 31 35
REMARK SMILES IDX 32 36 82 37 33 38 87 39 81 40 83 41 34 42 86 43 80 44 79 45
REMARK SMILES IDX 35 47 67 48 47 49 66 50 48 51 51 52 65 53 84 54 49 55 50 56
REMARK SMILES IDX 64 58 85 59 52 60 36 61 37 62 45 63 38 64 44 65 46 66 43 67
REMARK SMILES IDX 39 68 40 69 41 70 42 71 68 72 69 73 77 74 70 75 76 76 78 77
REMARK SMILES IDX 75 78 71 79 72 80 73 81 74 82 53 83 54 84 62 85 55 86 61 87
REMARK SMILES IDX 63 88 60 89 56 90 57 91 58 92 59 93
REMARK H PARENT 6 12 15 24 83 46 51 57
REMARK Flexibility Score: inf
ROOT
ATOM      1  C   UNL A   1      35.143  21.119  24.742  1.00  0.00     0.274 C 
ENDROOT
BRANCH   1   2
ATOM      2  O   UNL A   1      35.210  22.556  24.682  1.00  0.00    -0.462 OA
BRANCH   2   3
ATOM      3  C   UNL A   1      34.577  23.233  25.675  1.00  0.00     0.310 C 
ATOM      4  O   UNL A   1      34.666  22.965  26.867  1.00  0.00    -0.252 OA
BRANCH   3   5
ATOM      5  C   UNL A   1      33.707  24.368  25.150  1.00  0.00     0.118 C 
BRANCH   5   6
ATOM      6  C   UNL A   1      32.885  24.999  26.284  1.00  0.00     0.017 C 
BRANCH   6   7
ATOM      7  C   UNL A   1      31.447  25.430  25.987  1.00  0.00    -0.002 C 
ATOM      8  C   UNL A   1      31.063  26.803  26.510  1.00  0.00     0.004 C 
ENDBRANCH   6   7
ENDBRANCH   5   6
BRANCH   5   9
ATOM      9  C   UNL A   1      32.939  23.977  23.883  1.00  0.00     0.133 C 
BRANCH   9  10
ATOM     10  N   UNL A   1      33.514  24.534  22.674  1.00  0.00    -0.337 N 
ATOM     11  C   UNL A   1      33.091  25.642  22.008  1.00  0.00     0.318 C 
ATOM     12  H   UNL A   1      34.290  24.061  22.296  1.00  0.00     0.165 HD
ATOM     13  O   UNL A   1      33.209  25.626  20.784  1.00  0.00    -0.249 OA
BRANCH  11  14
ATOM     14  N   UNL A   1      32.530  26.682  22.704  1.00  0.00    -0.311 N 
ATOM     15  C   UNL A   1      31.068  26.828  22.666  1.00  0.00     0.186 C 
ATOM     16  C   UNL A   1      33.272  27.783  23.368  1.00  0.00     0.139 C 
ATOM     17  C   UNL A   1      30.587  28.277  22.441  1.00  0.00     0.204 C 
ATOM     18  C   UNL A   1      32.327  28.782  24.089  1.00  0.00     0.287 C 
ATOM     19  C   UNL A   1      34.174  28.512  22.364  1.00  0.00     0.037 C 
ATOM     20  C   UNL A   1      29.108  28.444  22.790  1.00  0.00     0.073 C 
ATOM     21  N   UNL A   1      31.299  29.339  23.205  1.00  0.00    -0.329 N 
ATOM     22  C   UNL A   1      29.001  29.901  23.187  1.00  0.00     0.068 C 
ATOM     23  C   UNL A   1      30.301  30.130  23.934  1.00  0.00     0.262 C 
ATOM     24  H   UNL A   1      31.801  29.948  22.559  1.00  0.00     0.348 HD
ENDBRANCH  11  14
ENDBRANCH   9  10
ENDBRANCH   5   9
ENDBRANCH   3   5
ENDBRANCH   2   3
ENDBRANCH   1   2
BRANCH   1  25
ATOM     25  C   UNL A   1      36.528  20.540  25.026  1.00  0.00     0.275 C 
BRANCH  25  26
ATOM     26  O   UNL A   1      37.483  21.601  25.214  1.00  0.00    -0.458 OA
BRANCH  26  27
ATOM     27  C   UNL A   1      38.639  21.236  25.817  1.00  0.00     0.338 C 
ATOM     28  O   UNL A   1      39.145  20.129  25.832  1.00  0.00    -0.246 OA
BRANCH  27  29
ATOM     29  C   UNL A   1      39.257  22.420  26.430  1.00  0.00     0.060 A 
ATOM     30  C   UNL A   1      38.783  23.688  26.090  1.00  0.00     0.016 A 
ATOM     31  C   UNL A   1      40.369  22.276  27.261  1.00  0.00     0.016 A 
ATOM     32  C   UNL A   1      39.426  24.828  26.571  1.00  0.00     0.010 A 
ATOM     33  C   UNL A   1      41.004  23.418  27.754  1.00  0.00     0.010 A 
ATOM     34  C   UNL A   1      40.548  24.701  27.399  1.00  0.00    -0.014 A 
BRANCH  34  35
ATOM     35  C   UNL A   1      41.310  25.904  27.817  1.00  0.00     0.031 A 
ATOM     36  C   UNL A   1      40.617  26.964  28.627  1.00  0.00     0.074 A 
ATOM     37  C   UNL A   1      42.603  26.048  27.474  1.00  0.00     0.049 A 
ATOM     38  N   UNL A   1      41.034  28.153  28.972  1.00  0.00    -0.248 NA
ATOM     39  C   UNL A   1      39.261  26.639  29.095  1.00  0.00     0.031 C 
ATOM     40  C   UNL A   1      43.394  25.061  26.738  1.00  0.00     0.029 A 
ATOM     41  N   UNL A   1      43.475  27.084  27.689  1.00  0.00    -0.354 N 
ATOM     42  C   UNL A   1      39.985  28.732  29.681  1.00  0.00     0.074 A 
ATOM     43  C   UNL A   1      38.904  27.768  29.687  1.00  0.00     0.031 C 
ATOM     44  C   UNL A   1      44.634  25.545  26.556  1.00  0.00     0.029 A 
ATOM     45  C   UNL A   1      44.710  26.893  27.114  1.00  0.00     0.049 A 
ATOM     46  H   UNL A   1      43.240  27.889  28.206  1.00  0.00     0.167 HD
ATOM     47  C   UNL A   1      39.936  29.953  30.269  1.00  0.00     0.034 A 
ATOM     48  C   UNL A   1      45.766  27.725  27.018  1.00  0.00     0.034 A 
ATOM     49  C   UNL A   1      41.030  30.894  30.256  1.00  0.00     0.049 A 
ATOM     50  C   UNL A   1      45.667  29.102  27.626  1.00  0.00     0.074 A 
ATOM     51  C   UNL A   1      41.092  32.157  30.819  1.00  0.00     0.029 A 
ATOM     52  N   UNL A   1      42.260  30.673  29.647  1.00  0.00    -0.354 N 
ATOM     53  N   UNL A   1      44.658  29.654  28.262  1.00  0.00    -0.248 NA
ATOM     54  C   UNL A   1      46.847  29.967  27.505  1.00  0.00     0.031 C 
ATOM     55  C   UNL A   1      42.334  32.721  30.501  1.00  0.00     0.029 A 
ATOM     56  C   UNL A   1      43.075  31.785  29.799  1.00  0.00     0.049 A 
ATOM     57  H   UNL A   1      42.515  29.847  29.176  1.00  0.00     0.167 HD
ATOM     58  C   UNL A   1      45.095  30.921  28.638  1.00  0.00     0.074 A 
ATOM     59  C   UNL A   1      46.460  31.046  28.168  1.00  0.00     0.031 C 
ATOM     60  C   UNL A   1      44.431  31.894  29.314  1.00  0.00     0.034 A 
BRANCH  47  61
ATOM     61  C   UNL A   1      38.631  30.354  30.916  1.00  0.00     0.023 A 
ATOM     62  C   UNL A   1      37.605  30.988  30.193  1.00  0.00     0.031 A 
ATOM     63  C   UNL A   1      38.431  30.139  32.292  1.00  0.00     0.131 A 
ATOM     64  C   UNL A   1      36.463  31.454  30.863  1.00  0.00     0.055 A 
ATOM     65  C   UNL A   1      37.257  30.531  32.936  1.00  0.00     0.041 A 
ATOM     66  F   UNL A   1      39.384  29.561  33.039  1.00  0.00    -0.206 F 
ATOM     67  C   UNL A   1      36.270  31.208  32.224  1.00  0.00     0.022 A 
BRANCH  64  68
ATOM     68  S   UNL A   1      35.304  32.520  29.963  1.00  0.00     0.124 S 
ATOM     69  O   UNL A   1      36.176  33.616  29.545  1.00  0.00    -0.237 OA
ATOM     70  O   UNL A   1      34.823  31.641  28.903  1.00  0.00    -0.237 OA
ATOM     71  O   UNL A   1      34.311  32.877  30.975  1.00  0.00    -0.744 OA
ENDBRANCH  64  68
ENDBRANCH  47  61
BRANCH  48  72
ATOM     72  C   UNL A   1      46.990  27.309  26.274  1.00  0.00     0.023 A 
ATOM     73  C   UNL A   1      47.188  27.678  24.935  1.00  0.00     0.031 A 
ATOM     74  C   UNL A   1      47.958  26.490  26.884  1.00  0.00     0.131 A 
ATOM     75  C   UNL A   1      48.307  27.198  24.236  1.00  0.00     0.055 A 
ATOM     76  C   UNL A   1      49.094  26.057  26.200  1.00  0.00     0.041 A 
ATOM     77  F   UNL A   1      47.815  26.106  28.163  1.00  0.00    -0.206 F 
ATOM     78  C   UNL A   1      49.267  26.400  24.863  1.00  0.00     0.022 A 
BRANCH  75  79
ATOM     79  S   UNL A   1      48.451  27.565  22.465  1.00  0.00     0.124 S 
ATOM     80  O   UNL A   1      48.541  26.228  21.889  1.00  0.00    -0.237 OA
ATOM     81  O   UNL A   1      47.215  28.295  22.206  1.00  0.00    -0.237 OA
ATOM     82  O   UNL A   1      49.672  28.364  22.382  1.00  0.00    -0.744 OA
ENDBRANCH  75  79
ENDBRANCH  48  72
BRANCH  60  83
ATOM     83  C   UNL A   1      45.200  33.154  29.623  1.00  0.00     0.023 A 
ATOM     84  C   UNL A   1      45.945  33.297  30.806  1.00  0.00     0.031 A 
ATOM     85  C   UNL A   1      45.170  34.235  28.723  1.00  0.00     0.131 A 
ATOM     86  C   UNL A   1      46.589  34.513  31.083  1.00  0.00     0.055 A 
ATOM     87  C   UNL A   1      45.855  35.422  28.979  1.00  0.00     0.041 A 
ATOM     88  F   UNL A   1      44.472  34.151  27.578  1.00  0.00    -0.206 F 
ATOM     89  C   UNL A   1      46.560  35.571  30.171  1.00  0.00     0.022 A 
BRANCH  86  90
ATOM     90  S   UNL A   1      47.399  34.725  32.692  1.00  0.00     0.124 S 
ATOM     91  O   UNL A   1      46.305  35.217  33.522  1.00  0.00    -0.237 OA
ATOM     92  O   UNL A   1      47.866  33.374  32.988  1.00  0.00    -0.237 OA
ATOM     93  O   UNL A   1      48.456  35.698  32.419  1.00  0.00    -0.744 OA
ENDBRANCH  86  90
ENDBRANCH  60  83
ENDBRANCH  34  35
ENDBRANCH  27  29
ENDBRANCH  26  27
ENDBRANCH  25  26
ENDBRANCH   1  25
TORSDOF 19
ENDMDL
MODEL 2
REMARK VINA RESULT:     -11.2      1.809      2.680
REMARK SMILES CCC[C@H](CNC(=O)N1C[C@H]2CCC[N@H+]2C[C@@H]1C)C(=O)OCCOC(=O)c1ccc(-c2c3nc(c(-c4cc(S(=O)(=O)[O-])ccc4F)c4ccc([nH]4)c(-c4cc(S(=O)(=O)[O-])ccc4F)c4nc(c(-c5cc(S(=O)(=O)[O-])ccc5F)c5ccc2[nH]5)C=C4)C=C3)cc1
REMARK SMILES IDX 22 1 21 2 19 3 20 4 4 5 3 6 2 7 1 8 5 9 6 10 7 11 8 13 9 14
REMARK SMILES IDX 10 15 17 16 11 17 16 18 18 19 12 20 15 21 13 22 14 23 23 25
REMARK SMILES IDX 24 26 25 27 26 28 27 29 28 30 89 31 29 32 88 33 30 34 31 35
REMARK SMILES IDX 32 36 82 37 33 38 87 39 81 40 83 41 34 42 86 43 80 44 79 45
REMARK SMILES IDX 35 47 67 48 47 49 66 50 48 51 51 52 65 53 84 54 49 55 50 56
REMARK SMILES IDX 64 58 85 59 52 60 36 61 37 62 45 63 38 64 44 65 46 66 43 67
REMARK SMILES IDX 39 68 40 69 41 70 42 71 68 72 69 73 77 74 70 75 76 76 78 77
REMARK SMILES IDX 75 78 71 79 72 80 73 81 74 82 53 83 54 84 62 85 55 86 61 87
REMARK SMILES IDX 63 88 60 89 56 90 57 91 58 92 59 93
REMARK H PARENT 6 12 15 24 83 46 51 57
REMARK Flexibility Score: inf
ROOT
ATOM      1  C   UNL A   1      35.696  20.275  24.998  1.00  0.00     0.274 C 
ENDROOT
BRANCH   1   2
ATOM      2  O   UNL A   1      34.923  21.456  25.282  1.00  0.00    -0.462 OA
BRANCH   2   3
ATOM      3  C   UNL A   1      34.160  21.939  24.267  1.00  0.00     0.310 C 
ATOM      4  O   UNL A   1      34.584  22.616  23.339  1.00  0.00    -0.252 OA
BRANCH   3   5
ATOM      5  C   UNL A   1      32.690  21.567  24.409  1.00  0.00     0.118 C 
BRANCH   5   6
ATOM      6  C   UNL A   1      32.339  20.366  23.518  1.00  0.00     0.017 C 
BRANCH   6   7
ATOM      7  C   UNL A   1      32.487  18.959  24.102  1.00  0.00    -0.002 C 
ATOM      8  C   UNL A   1      32.854  17.878  23.100  1.00  0.00     0.004 C 
ENDBRANCH   6   7
ENDBRANCH   5   6
BRANCH   5   9
ATOM      9  C   UNL A   1      31.767  22.786  24.309  1.00  0.00     0.133 C 
BRANCH   9  10
ATOM     10  N   UNL A   1      30.769  22.832  25.360  1.00  0.00    -0.337 N 
ATOM     11  C   UNL A   1      30.590  23.828  26.269  1.00  0.00     0.318 C 
ATOM     12  H   UNL A   1      30.158  22.062  25.421  1.00  0.00     0.165 HD
ATOM     13  O   UNL A   1      30.211  23.488  27.389  1.00  0.00    -0.249 OA
BRANCH  11  14
ATOM     14  N   UNL A   1      30.870  25.124  25.923  1.00  0.00    -0.311 N 
ATOM     15  C   UNL A   1      30.036  25.758  24.892  1.00  0.00     0.186 C 
ATOM     16  C   UNL A   1      32.046  25.908  26.376  1.00  0.00     0.139 C 
ATOM     17  C   UNL A   1      30.836  26.554  23.839  1.00  0.00     0.204 C 
ATOM     18  C   UNL A   1      32.042  27.357  25.814  1.00  0.00     0.287 C 
ATOM     19  C   UNL A   1      33.351  25.187  26.015  1.00  0.00     0.037 C 
ATOM     20  C   UNL A   1      29.937  27.495  23.037  1.00  0.00     0.073 C 
ATOM     21  N   UNL A   1      31.946  27.405  24.352  1.00  0.00    -0.329 N 
ATOM     22  C   UNL A   1      30.874  28.609  22.621  1.00  0.00     0.068 C 
ATOM     23  C   UNL A   1      31.752  28.769  23.847  1.00  0.00     0.262 C 
ATOM     24  H   UNL A   1      32.838  27.046  24.012  1.00  0.00     0.348 HD
ENDBRANCH  11  14
ENDBRANCH   9  10
ENDBRANCH   5   9
ENDBRANCH   3   5
ENDBRANCH   2   3
ENDBRANCH   1   2
BRANCH   1  25
ATOM     25  C   UNL A   1      37.144  20.655  24.696  1.00  0.00     0.275 C 
BRANCH  25  26
ATOM     26  O   UNL A   1      37.674  21.481  25.750  1.00  0.00    -0.458 OA
BRANCH  26  27
ATOM     27  C   UNL A   1      38.971  21.254  26.065  1.00  0.00     0.338 C 
ATOM     28  O   UNL A   1      39.606  20.232  25.879  1.00  0.00    -0.246 OA
BRANCH  27  29
ATOM     29  C   UNL A   1      39.551  22.478  26.633  1.00  0.00     0.060 A 
ATOM     30  C   UNL A   1      39.114  23.719  26.164  1.00  0.00     0.016 A 
ATOM     31  C   UNL A   1      40.596  22.395  27.554  1.00  0.00     0.016 A 
ATOM     32  C   UNL A   1      39.728  24.890  26.606  1.00  0.00     0.010 A 
ATOM     33  C   UNL A   1      41.202  23.569  28.006  1.00  0.00     0.010 A 
ATOM     34  C   UNL A   1      40.784  24.823  27.523  1.00  0.00    -0.014 A 
BRANCH  34  35
ATOM     35  C   UNL A   1      41.522  26.052  27.906  1.00  0.00     0.031 A 
ATOM     36  C   UNL A   1      40.814  27.112  28.703  1.00  0.00     0.074 A 
ATOM     37  C   UNL A   1      42.806  26.219  27.543  1.00  0.00     0.049 A 
ATOM     38  N   UNL A   1      41.208  28.317  29.019  1.00  0.00    -0.248 NA
ATOM     39  C   UNL A   1      39.472  26.765  29.196  1.00  0.00     0.031 C 
ATOM     40  C   UNL A   1      43.612  25.237  26.817  1.00  0.00     0.029 A 
ATOM     41  N   UNL A   1      43.656  27.281  27.724  1.00  0.00    -0.354 N 
ATOM     42  C   UNL A   1      40.154  28.886  29.729  1.00  0.00     0.074 A 
ATOM     43  C   UNL A   1      39.097  27.897  29.770  1.00  0.00     0.031 C 
ATOM     44  C   UNL A   1      44.837  25.746  26.608  1.00  0.00     0.029 A 
ATOM     45  C   UNL A   1      44.888  27.106  27.137  1.00  0.00     0.049 A 
ATOM     46  H   UNL A   1      43.409  28.090  28.228  1.00  0.00     0.167 HD
ATOM     47  C   UNL A   1      40.083  30.118  30.293  1.00  0.00     0.034 A 
ATOM     48  C   UNL A   1      45.922  27.961  27.010  1.00  0.00     0.034 A 
ATOM     49  C   UNL A   1      41.154  31.084  30.246  1.00  0.00     0.049 A 
ATOM     50  C   UNL A   1      45.799  29.348  27.592  1.00  0.00     0.074 A 
ATOM     51  C   UNL A   1      41.193  32.359  30.782  1.00  0.00     0.029 A 
ATOM     52  N   UNL A   1      42.381  30.880  29.625  1.00  0.00    -0.354 N 
ATOM     53  N   UNL A   1      44.785  29.889  28.230  1.00  0.00    -0.248 NA
ATOM     54  C   UNL A   1      46.956  30.238  27.436  1.00  0.00     0.031 C 
ATOM     55  C   UNL A   1      42.417  32.946  30.436  1.00  0.00     0.029 A 
ATOM     56  C   UNL A   1      43.171  32.013  29.744  1.00  0.00     0.049 A 
ATOM     57  H   UNL A   1      42.649  30.050  29.167  1.00  0.00     0.167 HD
ATOM     58  C   UNL A   1      45.196  31.174  28.574  1.00  0.00     0.074 A 
ATOM     59  C   UNL A   1      46.552  31.321  28.083  1.00  0.00     0.031 C 
ATOM     60  C   UNL A   1      44.517  32.144  29.238  1.00  0.00     0.034 A 
BRANCH  47  61
ATOM     61  C   UNL A   1      38.777  30.500  30.949  1.00  0.00     0.023 A 
ATOM     62  C   UNL A   1      37.752  31.152  30.241  1.00  0.00     0.031 A 
ATOM     63  C   UNL A   1      38.577  30.250  32.318  1.00  0.00     0.131 A 
ATOM     64  C   UNL A   1      36.609  31.600  30.922  1.00  0.00     0.055 A 
ATOM     65  C   UNL A   1      37.401  30.625  32.971  1.00  0.00     0.041 A 
ATOM     66  F   UNL A   1      39.529  29.653  33.051  1.00  0.00    -0.206 F 
ATOM     67  C   UNL A   1      36.415  31.319  32.276  1.00  0.00     0.022 A 
BRANCH  64  68
ATOM     68  S   UNL A   1      35.450  32.689  30.050  1.00  0.00     0.124 S 
ATOM     69  O   UNL A   1      35.400  32.067  28.729  1.00  0.00    -0.237 OA
ATOM     70  O   UNL A   1      34.242  32.577  30.859  1.00  0.00    -0.237 OA
ATOM     71  O   UNL A   1      36.108  33.993  30.090  1.00  0.00    -0.744 OA
ENDBRANCH  64  68
ENDBRANCH  47  61
BRANCH  48  72
ATOM     72  C   UNL A   1      47.146  27.559  26.259  1.00  0.00     0.023 A 
ATOM     73  C   UNL A   1      47.280  27.829  24.888  1.00  0.00     0.031 A 
ATOM     74  C   UNL A   1      48.181  26.852  26.897  1.00  0.00     0.131 A 
ATOM     75  C   UNL A   1      48.405  27.359  24.190  1.00  0.00     0.055 A 
ATOM     76  C   UNL A   1      49.321  26.432  26.210  1.00  0.00     0.041 A 
ATOM     77  F   UNL A   1      48.102  26.567  28.207  1.00  0.00    -0.206 F 
ATOM     78  C   UNL A   1      49.431  26.675  24.844  1.00  0.00     0.022 A 
BRANCH  75  79
ATOM     79  S   UNL A   1      48.471  27.588  22.391  1.00  0.00     0.124 S 
ATOM     80  O   UNL A   1      47.232  28.315  22.137  1.00  0.00    -0.237 OA
ATOM     81  O   UNL A   1      49.706  28.348  22.228  1.00  0.00    -0.237 OA
ATOM     82  O   UNL A   1      48.511  26.221  21.876  1.00  0.00    -0.744 OA
ENDBRANCH  75  79
ENDBRANCH  48  72
BRANCH  60  83
ATOM     83  C   UNL A   1      45.260  33.428  29.511  1.00  0.00     0.023 A 
ATOM     84  C   UNL A   1      45.286  34.482  28.582  1.00  0.00     0.031 A 
ATOM     85  C   UNL A   1      45.966  33.590  30.717  1.00  0.00     0.131 A 
ATOM     86  C   UNL A   1      46.046  35.631  28.849  1.00  0.00     0.055 A 
ATOM     87  C   UNL A   1      46.677  34.756  31.001  1.00  0.00     0.041 A 
ATOM     88  F   UNL A   1      45.974  32.614  31.640  1.00  0.00    -0.206 F 
ATOM     89  C   UNL A   1      46.731  35.780  30.059  1.00  0.00     0.022 A 
BRANCH  86  90
ATOM     90  S   UNL A   1      46.198  36.897  27.560  1.00  0.00     0.124 S 
ATOM     91  O   UNL A   1      46.143  36.099  26.340  1.00  0.00    -0.237 OA
ATOM     92  O   UNL A   1      45.041  37.748  27.818  1.00  0.00    -0.237 OA
ATOM     93  O   UNL A   1      47.494  37.516  27.837  1.00  0.00    -0.744 OA
ENDBRANCH  86  90
ENDBRANCH  60  83
ENDBRANCH  34  35
ENDBRANCH  27  29
ENDBRANCH  26  27
ENDBRANCH  25  26
ENDBRANCH   1  25
TORSDOF 19
ENDMDL
MODEL 3
REMARK VINA RESULT:     -11.2      1.743      2.344
REMARK SMILES CCC[C@H](CNC(=O)N1C[C@H]2CCC[N@H+]2C[C@@H]1C)C(=O)OCCOC(=O)c1ccc(-c2c3nc(c(-c4cc(S(=O)(=O)[O-])ccc4F)c4ccc([nH]4)c(-c4cc(S(=O)(=O)[O-])ccc4F)c4nc(c(-c5cc(S(=O)(=O)[O-])ccc5F)c5ccc2[nH]5)C=C4)C=C3)cc1
REMARK SMILES IDX 22 1 21 2 19 3 20 4 4 5 3 6 2 7 1 8 5 9 6 10 7 11 8 13 9 14
REMARK SMILES IDX 10 15 17 16 11 17 16 18 18 19 12 20 15 21 13 22 14 23 23 25
REMARK SMILES IDX 24 26 25 27 26 28 27 29 28 30 89 31 29 32 88 33 30 34 31 35
REMARK SMILES IDX 32 36 82 37 33 38 87 39 81 40 83 41 34 42 86 43 80 44 79 45
REMARK SMILES IDX 35 47 67 48 47 49 66 50 48 51 51 52 65 53 84 54 49 55 50 56
REMARK SMILES IDX 64 58 85 59 52 60 36 61 37 62 45 63 38 64 44 65 46 66 43 67
REMARK SMILES IDX 39 68 40 69 41 70 42 71 68 72 69 73 77 74 70 75 76 76 78 77
REMARK SMILES IDX 75 78 71 79 72 80 73 81 74 82 53 83 54 84 62 85 55 86 61 87
REMARK SMILES IDX 63 88 60 89 56 90 57 91 58 92 59 93
REMARK H PARENT 6 12 15 24 83 46 51 57
REMARK Flexibility Score: inf
ROOT
ATOM      1  C   UNL A   1      34.798  21.419  26.106  1.00  0.00     0.274 C 
ENDROOT
BRANCH   1   2
ATOM      2  O   UNL A   1      33.946  22.300  25.351  1.00  0.00    -0.462 OA
BRANCH   2   3
ATOM      3  C   UNL A   1      32.950  21.712  24.637  1.00  0.00     0.310 C 
ATOM      4  O   UNL A   1      32.489  20.602  24.869  1.00  0.00    -0.252 OA
BRANCH   3   5
ATOM      5  C   UNL A   1      32.466  22.579  23.482  1.00  0.00     0.118 C 
BRANCH   5   6
ATOM      6  C   UNL A   1      33.632  23.356  22.853  1.00  0.00     0.017 C 
BRANCH   6   7
ATOM      7  C   UNL A   1      33.458  24.858  22.611  1.00  0.00    -0.002 C 
ATOM      8  C   UNL A   1      32.820  25.228  21.283  1.00  0.00     0.004 C 
ENDBRANCH   6   7
ENDBRANCH   5   6
BRANCH   5   9
ATOM      9  C   UNL A   1      31.218  23.391  23.844  1.00  0.00     0.133 C 
BRANCH   9  10
ATOM     10  N   UNL A   1      30.798  23.206  25.220  1.00  0.00    -0.337 N 
ATOM     11  C   UNL A   1      30.953  24.090  26.243  1.00  0.00     0.318 C 
ATOM     12  H   UNL A   1      30.357  22.353  25.436  1.00  0.00     0.165 HD
ATOM     13  O   UNL A   1      31.152  23.610  27.358  1.00  0.00    -0.249 OA
BRANCH  11  14
ATOM     14  N   UNL A   1      30.921  25.437  25.989  1.00  0.00    -0.311 N 
ATOM     15  C   UNL A   1      29.874  25.946  25.093  1.00  0.00     0.186 C 
ATOM     16  C   UNL A   1      31.949  26.422  26.408  1.00  0.00     0.139 C 
ATOM     17  C   UNL A   1      30.382  26.964  24.050  1.00  0.00     0.204 C 
ATOM     18  C   UNL A   1      31.589  27.871  25.978  1.00  0.00     0.287 C 
ATOM     19  C   UNL A   1      33.332  26.024  25.877  1.00  0.00     0.037 C 
ATOM     20  C   UNL A   1      29.231  27.743  23.412  1.00  0.00     0.073 C 
ATOM     21  N   UNL A   1      31.337  27.996  24.540  1.00  0.00    -0.329 N 
ATOM     22  C   UNL A   1      29.870  29.058  23.018  1.00  0.00     0.068 C 
ATOM     23  C   UNL A   1      30.815  29.318  24.175  1.00  0.00     0.262 C 
ATOM     24  H   UNL A   1      32.245  27.861  24.096  1.00  0.00     0.348 HD
ENDBRANCH  11  14
ENDBRANCH   9  10
ENDBRANCH   5   9
ENDBRANCH   3   5
ENDBRANCH   2   3
ENDBRANCH   1   2
BRANCH   1  25
ATOM     25  C   UNL A   1      35.904  20.863  25.211  1.00  0.00     0.275 C 
BRANCH  25  26
ATOM     26  O   UNL A   1      36.991  21.802  25.119  1.00  0.00    -0.458 OA
BRANCH  26  27
ATOM     27  C   UNL A   1      38.171  21.370  25.623  1.00  0.00     0.338 C 
ATOM     28  O   UNL A   1      38.648  20.253  25.530  1.00  0.00    -0.246 OA
BRANCH  27  29
ATOM     29  C   UNL A   1      38.857  22.493  26.277  1.00  0.00     0.060 A 
ATOM     30  C   UNL A   1      38.397  23.793  26.054  1.00  0.00     0.016 A 
ATOM     31  C   UNL A   1      40.011  22.266  27.025  1.00  0.00     0.016 A 
ATOM     32  C   UNL A   1      39.098  24.881  26.572  1.00  0.00     0.010 A 
ATOM     33  C   UNL A   1      40.706  23.356  27.556  1.00  0.00     0.010 A 
ATOM     34  C   UNL A   1      40.264  24.671  27.318  1.00  0.00    -0.014 A 
BRANCH  34  35
ATOM     35  C   UNL A   1      41.081  25.825  27.770  1.00  0.00     0.031 A 
ATOM     36  C   UNL A   1      40.435  26.898  28.601  1.00  0.00     0.074 A 
ATOM     37  C   UNL A   1      42.382  25.912  27.438  1.00  0.00     0.049 A 
ATOM     38  N   UNL A   1      40.909  28.056  28.978  1.00  0.00    -0.248 NA
ATOM     39  C   UNL A   1      39.062  26.630  29.052  1.00  0.00     0.031 C 
ATOM     40  C   UNL A   1      43.129  24.905  26.684  1.00  0.00     0.029 A 
ATOM     41  N   UNL A   1      43.303  26.898  27.683  1.00  0.00    -0.354 N 
ATOM     42  C   UNL A   1      39.885  28.669  29.694  1.00  0.00     0.074 A 
ATOM     43  C   UNL A   1      38.757  27.761  29.670  1.00  0.00     0.031 C 
ATOM     44  C   UNL A   1      44.393  25.331  26.520  1.00  0.00     0.029 A 
ATOM     45  C   UNL A   1      44.531  26.659  27.112  1.00  0.00     0.049 A 
ATOM     46  H   UNL A   1      43.104  27.701  28.218  1.00  0.00     0.167 HD
ATOM     47  C   UNL A   1      39.892  29.877  30.311  1.00  0.00     0.034 A 
ATOM     48  C   UNL A   1      45.628  27.440  27.042  1.00  0.00     0.034 A 
ATOM     49  C   UNL A   1      41.032  30.762  30.328  1.00  0.00     0.049 A 
ATOM     50  C   UNL A   1      45.593  28.806  27.683  1.00  0.00     0.074 A 
ATOM     51  C   UNL A   1      41.152  32.007  30.922  1.00  0.00     0.029 A 
ATOM     52  N   UNL A   1      42.253  30.495  29.720  1.00  0.00    -0.354 N 
ATOM     53  N   UNL A   1      44.608  29.392  28.326  1.00  0.00    -0.248 NA
ATOM     54  C   UNL A   1      46.815  29.613  27.590  1.00  0.00     0.031 C 
ATOM     55  C   UNL A   1      42.422  32.516  30.625  1.00  0.00     0.029 A 
ATOM     56  C   UNL A   1      43.121  31.561  29.905  1.00  0.00     0.049 A 
ATOM     57  H   UNL A   1      42.470  29.669  29.231  1.00  0.00     0.167 HD
ATOM     58  C   UNL A   1      45.104  30.626  28.736  1.00  0.00     0.074 A 
ATOM     59  C   UNL A   1      46.478  30.694  28.277  1.00  0.00     0.031 C 
ATOM     60  C   UNL A   1      44.484  31.614  29.431  1.00  0.00     0.034 A 
BRANCH  47  61
ATOM     61  C   UNL A   1      38.604  30.326  30.959  1.00  0.00     0.023 A 
ATOM     62  C   UNL A   1      37.620  31.036  30.248  1.00  0.00     0.031 A 
ATOM     63  C   UNL A   1      38.379  30.080  32.326  1.00  0.00     0.131 A 
ATOM     64  C   UNL A   1      36.498  31.541  30.924  1.00  0.00     0.055 A 
ATOM     65  C   UNL A   1      37.221  30.514  32.973  1.00  0.00     0.041 A 
ATOM     66  F   UNL A   1      39.293  29.429  33.063  1.00  0.00    -0.206 F 
ATOM     67  C   UNL A   1      36.279  31.264  32.275  1.00  0.00     0.022 A 
BRANCH  64  68
ATOM     68  S   UNL A   1      35.406  32.695  30.049  1.00  0.00     0.124 S 
ATOM     69  O   UNL A   1      34.255  32.749  30.947  1.00  0.00    -0.237 OA
ATOM     70  O   UNL A   1      36.218  33.904  29.973  1.00  0.00    -0.237 OA
ATOM     71  O   UNL A   1      35.157  32.030  28.771  1.00  0.00    -0.744 OA
ENDBRANCH  64  68
ENDBRANCH  47  61
BRANCH  48  72
ATOM     72  C   UNL A   1      46.835  26.982  26.296  1.00  0.00     0.023 A 
ATOM     73  C   UNL A   1      47.888  26.324  26.950  1.00  0.00     0.031 A 
ATOM     74  C   UNL A   1      46.971  27.242  24.920  1.00  0.00     0.131 A 
ATOM     75  C   UNL A   1      49.049  25.983  26.237  1.00  0.00     0.055 A 
ATOM     76  C   UNL A   1      48.106  26.856  24.206  1.00  0.00     0.041 A 
ATOM     77  F   UNL A   1      45.993  27.870  24.248  1.00  0.00    -0.206 F 
ATOM     78  C   UNL A   1      49.159  26.234  24.867  1.00  0.00     0.022 A 
BRANCH  75  79
ATOM     79  S   UNL A   1      50.453  25.277  27.145  1.00  0.00     0.124 S 
ATOM     80  O   UNL A   1      49.832  24.141  27.816  1.00  0.00    -0.237 OA
ATOM     81  O   UNL A   1      51.381  24.957  26.065  1.00  0.00    -0.237 OA
ATOM     82  O   UNL A   1      50.874  26.367  28.021  1.00  0.00    -0.744 OA
ENDBRANCH  75  79
ENDBRANCH  48  72
BRANCH  60  83
ATOM     83  C   UNL A   1      45.313  32.827  29.775  1.00  0.00     0.023 A 
ATOM     84  C   UNL A   1      46.058  32.903  30.964  1.00  0.00     0.031 A 
ATOM     85  C   UNL A   1      45.340  33.930  28.904  1.00  0.00     0.131 A 
ATOM     86  C   UNL A   1      46.760  34.078  31.275  1.00  0.00     0.055 A 
ATOM     87  C   UNL A   1      46.081  35.076  29.193  1.00  0.00     0.041 A 
ATOM     88  F   UNL A   1      44.645  33.910  27.754  1.00  0.00    -0.206 F 
ATOM     89  C   UNL A   1      46.786  35.159  30.390  1.00  0.00     0.022 A 
BRANCH  86  90
ATOM     90  S   UNL A   1      47.571  34.208  32.892  1.00  0.00     0.124 S 
ATOM     91  O   UNL A   1      46.432  34.257  33.802  1.00  0.00    -0.237 OA
ATOM     92  O   UNL A   1      48.373  32.990  32.939  1.00  0.00    -0.237 OA
ATOM     93  O   UNL A   1      48.338  35.449  32.791  1.00  0.00    -0.744 OA
ENDBRANCH  86  90
ENDBRANCH  60  83
ENDBRANCH  34  35
ENDBRANCH  27  29
ENDBRANCH  26  27
ENDBRANCH  25  26
ENDBRANCH   1  25
TORSDOF 19
ENDMDL
