MODEL 1
REMARK VINA RESULT:      -9.9      0.000      0.000
REMARK SMILES CC(C)(Br)[C@H](Br)C(=O)OCCOC(=O)c1ccc(-c2c3nc(c(-c4cc(S(=O)(=O)[O-])ccc4F)c4ccc([nH]4)c(-c4cc(S(=O)(=O)[O-])ccc4F)c4nc(c(-c5cc(S(=O)(=O)[O-])ccc5F)c5ccc2[nH]5)C=C4)C=C3)cc1
REMARK SMILES IDX 11 1 10 2 9 3 7 4 8 5 5 6 6 7 2 8 1 9 3 10 4 11 12 12 13 13
REMARK SMILES IDX 14 14 15 15 16 16 77 17 17 18 76 19 18 20 19 21 20 22 70 23
REMARK SMILES IDX 21 24 75 25 69 26 71 27 22 28 74 29 68 30 67 31 23 33 55 34
REMARK SMILES IDX 35 35 54 36 36 37 39 38 53 39 72 40 37 41 38 42 52 44 73 45
REMARK SMILES IDX 40 46 24 47 25 48 33 49 26 50 32 51 34 52 31 53 27 54 28 55
REMARK SMILES IDX 29 56 30 57 56 58 57 59 65 60 58 61 64 62 66 63 63 64 59 65
REMARK SMILES IDX 60 66 61 67 62 68 41 69 42 70 50 71 43 72 49 73 51 74 48 75
REMARK SMILES IDX 44 76 45 77 46 78 47 79
REMARK H PARENT 71 32 39 43
REMARK Flexibility Score: inf
ROOT
ATOM      1  C   UNL A   1      40.649  19.578  25.936  1.00  0.00     0.275 C 
ENDROOT
BRANCH   1   2
ATOM      2  C   UNL A   1      42.065  19.103  26.287  1.00  0.00     0.274 C 
BRANCH   2   3
ATOM      3  O   UNL A   1      43.041  20.166  26.237  1.00  0.00    -0.461 OA
BRANCH   3   4
ATOM      4  C   UNL A   1      43.966  20.061  25.249  1.00  0.00     0.321 C 
ATOM      5  O   UNL A   1      43.809  19.377  24.241  1.00  0.00    -0.251 OA
BRANCH   4   6
ATOM      6  C   UNL A   1      45.239  20.856  25.474  1.00  0.00     0.183 C 
ATOM      7  Br  UNL A   1      46.686  20.131  24.355  1.00  0.00    -0.075 Br
BRANCH   6   8
ATOM      8  C   UNL A   1      45.181  22.398  25.477  1.00  0.00     0.043 C 
ATOM      9  C   UNL A   1      46.282  23.125  24.692  1.00  0.00     0.025 C 
ATOM     10  C   UNL A   1      45.175  22.903  26.933  1.00  0.00     0.025 C 
ATOM     11  Br  UNL A   1      43.467  23.062  24.695  1.00  0.00    -0.084 Br
ENDBRANCH   6   8
ENDBRANCH   4   6
ENDBRANCH   3   4
ENDBRANCH   2   3
ENDBRANCH   1   2
BRANCH   1  12
ATOM     12  O   UNL A   1      40.143  20.538  26.884  1.00  0.00    -0.458 OA
BRANCH  12  13
ATOM     13  C   UNL A   1      39.365  21.514  26.358  1.00  0.00     0.338 C 
ATOM     14  O   UNL A   1      38.395  21.366  25.636  1.00  0.00    -0.246 OA
BRANCH  13  15
ATOM     15  C   UNL A   1      39.777  22.828  26.881  1.00  0.00     0.060 A 
ATOM     16  C   UNL A   1      39.238  23.970  26.284  1.00  0.00     0.016 A 
ATOM     17  C   UNL A   1      40.757  22.944  27.867  1.00  0.00     0.016 A 
ATOM     18  C   UNL A   1      39.669  25.237  26.670  1.00  0.00     0.010 A 
ATOM     19  C   UNL A   1      41.195  24.218  28.251  1.00  0.00     0.010 A 
ATOM     20  C   UNL A   1      40.660  25.371  27.647  1.00  0.00    -0.014 A 
BRANCH  20  21
ATOM     21  C   UNL A   1      41.182  26.721  27.980  1.00  0.00     0.031 A 
ATOM     22  C   UNL A   1      42.603  27.072  27.638  1.00  0.00     0.074 A 
ATOM     23  C   UNL A   1      40.377  27.633  28.552  1.00  0.00     0.049 A 
ATOM     24  N   UNL A   1      43.279  28.156  27.914  1.00  0.00    -0.248 NA
ATOM     25  C   UNL A   1      43.361  26.063  26.883  1.00  0.00     0.031 C 
ATOM     26  C   UNL A   1      38.965  27.426  28.875  1.00  0.00     0.029 A 
ATOM     27  N   UNL A   1      40.631  28.916  28.969  1.00  0.00    -0.354 N 
ATOM     28  C   UNL A   1      44.550  27.957  27.386  1.00  0.00     0.074 A 
ATOM     29  C   UNL A   1      44.551  26.636  26.789  1.00  0.00     0.031 C 
ATOM     30  C   UNL A   1      38.480  28.541  29.445  1.00  0.00     0.029 A 
ATOM     31  C   UNL A   1      39.555  29.521  29.573  1.00  0.00     0.049 A 
ATOM     32  H   UNL A   1      41.501  29.360  28.845  1.00  0.00     0.167 HD
ATOM     33  C   UNL A   1      45.614  28.799  27.397  1.00  0.00     0.034 A 
ATOM     34  C   UNL A   1      39.457  30.714  30.193  1.00  0.00     0.034 A 
ATOM     35  C   UNL A   1      45.595  30.111  27.999  1.00  0.00     0.049 A 
ATOM     36  C   UNL A   1      40.674  31.602  30.262  1.00  0.00     0.074 A 
ATOM     37  C   UNL A   1      46.613  31.045  28.068  1.00  0.00     0.029 A 
ATOM     38  N   UNL A   1      44.499  30.673  28.643  1.00  0.00    -0.354 N 
ATOM     39  N   UNL A   1      41.880  31.390  29.786  1.00  0.00    -0.248 NA
ATOM     40  C   UNL A   1      40.518  32.888  30.954  1.00  0.00     0.031 C 
ATOM     41  C   UNL A   1      46.153  32.145  28.803  1.00  0.00     0.029 A 
ATOM     42  C   UNL A   1      44.826  31.928  29.136  1.00  0.00     0.049 A 
ATOM     43  H   UNL A   1      43.618  30.243  28.735  1.00  0.00     0.167 HD
ATOM     44  C   UNL A   1      42.619  32.526  30.104  1.00  0.00     0.074 A 
ATOM     45  C   UNL A   1      41.720  33.424  30.800  1.00  0.00     0.031 C 
ATOM     46  C   UNL A   1      43.922  32.803  29.843  1.00  0.00     0.034 A 
BRANCH  33  47
ATOM     47  C   UNL A   1      46.902  28.289  26.797  1.00  0.00     0.023 A 
ATOM     48  C   UNL A   1      47.116  28.267  25.408  1.00  0.00     0.031 A 
ATOM     49  C   UNL A   1      47.915  27.781  27.629  1.00  0.00     0.131 A 
ATOM     50  C   UNL A   1      48.286  27.686  24.891  1.00  0.00     0.055 A 
ATOM     51  C   UNL A   1      49.107  27.272  27.112  1.00  0.00     0.041 A 
ATOM     52  F   UNL A   1      47.756  27.758  28.962  1.00  0.00    -0.206 F 
ATOM     53  C   UNL A   1      49.292  27.208  25.734  1.00  0.00     0.022 A 
BRANCH  50  54
ATOM     54  S   UNL A   1      48.415  27.440  23.098  1.00  0.00     0.124 S 
ATOM     55  O   UNL A   1      48.344  25.985  22.993  1.00  0.00    -0.237 OA
ATOM     56  O   UNL A   1      47.260  28.174  22.595  1.00  0.00    -0.237 OA
ATOM     57  O   UNL A   1      49.716  28.018  22.765  1.00  0.00    -0.744 OA
ENDBRANCH  50  54
ENDBRANCH  33  47
BRANCH  34  58
ATOM     58  C   UNL A   1      38.184  31.117  30.853  1.00  0.00     0.023 A 
ATOM     59  C   UNL A   1      37.187  31.814  30.153  1.00  0.00     0.031 A 
ATOM     60  C   UNL A   1      37.965  30.843  32.216  1.00  0.00     0.131 A 
ATOM     61  C   UNL A   1      36.032  32.243  30.824  1.00  0.00     0.055 A 
ATOM     62  C   UNL A   1      36.795  31.230  32.867  1.00  0.00     0.041 A 
ATOM     63  F   UNL A   1      38.888  30.180  32.932  1.00  0.00    -0.206 F 
ATOM     64  C   UNL A   1      35.824  31.945  32.174  1.00  0.00     0.022 A 
BRANCH  61  65
ATOM     65  S   UNL A   1      34.831  33.262  29.925  1.00  0.00     0.124 S 
ATOM     66  O   UNL A   1      34.032  33.811  31.015  1.00  0.00    -0.237 OA
ATOM     67  O   UNL A   1      35.697  34.206  29.226  1.00  0.00    -0.237 OA
ATOM     68  O   UNL A   1      34.141  32.300  29.068  1.00  0.00    -0.744 OA
ENDBRANCH  61  65
ENDBRANCH  34  58
BRANCH  46  69
ATOM     69  C   UNL A   1      44.430  34.153  30.283  1.00  0.00     0.023 A 
ATOM     70  C   UNL A   1      44.301  35.291  29.469  1.00  0.00     0.031 A 
ATOM     71  C   UNL A   1      45.066  34.296  31.528  1.00  0.00     0.131 A 
ATOM     72  C   UNL A   1      44.851  36.513  29.887  1.00  0.00     0.055 A 
ATOM     73  C   UNL A   1      45.566  35.525  31.961  1.00  0.00     0.041 A 
ATOM     74  F   UNL A   1      45.216  33.239  32.343  1.00  0.00    -0.206 F 
ATOM     75  C   UNL A   1      45.469  36.640  31.133  1.00  0.00     0.022 A 
BRANCH  72  76
ATOM     76  S   UNL A   1      44.818  37.922  28.743  1.00  0.00     0.124 S 
ATOM     77  O   UNL A   1      46.230  38.076  28.409  1.00  0.00    -0.237 OA
ATOM     78  O   UNL A   1      43.959  37.433  27.669  1.00  0.00    -0.237 OA
ATOM     79  O   UNL A   1      44.250  39.003  29.546  1.00  0.00    -0.744 OA
ENDBRANCH  72  76
ENDBRANCH  46  69
ENDBRANCH  20  21
ENDBRANCH  13  15
ENDBRANCH  12  13
ENDBRANCH   1  12
TORSDOF 15
ENDMDL
MODEL 2
REMARK VINA RESULT:      -9.6      1.997      2.310
REMARK SMILES CC(C)(Br)[C@H](Br)C(=O)OCCOC(=O)c1ccc(-c2c3nc(c(-c4cc(S(=O)(=O)[O-])ccc4F)c4ccc([nH]4)c(-c4cc(S(=O)(=O)[O-])ccc4F)c4nc(c(-c5cc(S(=O)(=O)[O-])ccc5F)c5ccc2[nH]5)C=C4)C=C3)cc1
REMARK SMILES IDX 11 1 10 2 9 3 7 4 8 5 5 6 6 7 2 8 1 9 3 10 4 11 12 12 13 13
REMARK SMILES IDX 14 14 15 15 16 16 77 17 17 18 76 19 18 20 19 21 20 22 70 23
REMARK SMILES IDX 21 24 75 25 69 26 71 27 22 28 74 29 68 30 67 31 23 33 55 34
REMARK SMILES IDX 35 35 54 36 36 37 39 38 53 39 72 40 37 41 38 42 52 44 73 45
REMARK SMILES IDX 40 46 24 47 25 48 33 49 26 50 32 51 34 52 31 53 27 54 28 55
REMARK SMILES IDX 29 56 30 57 56 58 57 59 65 60 58 61 64 62 66 63 63 64 59 65
REMARK SMILES IDX 60 66 61 67 62 68 41 69 42 70 50 71 43 72 49 73 51 74 48 75
REMARK SMILES IDX 44 76 45 77 46 78 47 79
REMARK H PARENT 71 32 39 43
REMARK Flexibility Score: inf
ROOT
ATOM      1  C   UNL A   1      40.364  19.776  25.958  1.00  0.00     0.275 C 
ENDROOT
BRANCH   1   2
ATOM      2  C   UNL A   1      41.689  19.087  26.313  1.00  0.00     0.274 C 
BRANCH   2   3
ATOM      3  O   UNL A   1      42.791  20.014  26.416  1.00  0.00    -0.461 OA
BRANCH   3   4
ATOM      4  C   UNL A   1      43.746  19.893  25.459  1.00  0.00     0.321 C 
ATOM      5  O   UNL A   1      43.656  19.126  24.503  1.00  0.00    -0.251 OA
BRANCH   4   6
ATOM      6  C   UNL A   1      44.961  20.782  25.646  1.00  0.00     0.183 C 
ATOM      7  Br  UNL A   1      46.419  20.178  24.472  1.00  0.00    -0.075 Br
BRANCH   6   8
ATOM      8  C   UNL A   1      44.785  22.316  25.665  1.00  0.00     0.043 C 
ATOM      9  C   UNL A   1      44.792  22.988  27.045  1.00  0.00     0.025 C 
ATOM     10  C   UNL A   1      43.485  22.686  24.924  1.00  0.00     0.025 C 
ATOM     11  Br  UNL A   1      46.238  23.226  24.641  1.00  0.00    -0.084 Br
ENDBRANCH   6   8
ENDBRANCH   4   6
ENDBRANCH   3   4
ENDBRANCH   2   3
ENDBRANCH   1   2
BRANCH   1  12
ATOM     12  O   UNL A   1      39.989  20.772  26.929  1.00  0.00    -0.458 OA
BRANCH  12  13
ATOM     13  C   UNL A   1      39.230  21.788  26.451  1.00  0.00     0.338 C 
ATOM     14  O   UNL A   1      38.176  21.691  25.849  1.00  0.00    -0.246 OA
BRANCH  13  15
ATOM     15  C   UNL A   1      39.796  23.083  26.866  1.00  0.00     0.060 A 
ATOM     16  C   UNL A   1      39.369  24.231  26.193  1.00  0.00     0.016 A 
ATOM     17  C   UNL A   1      40.807  23.162  27.823  1.00  0.00     0.016 A 
ATOM     18  C   UNL A   1      39.945  25.467  26.475  1.00  0.00     0.010 A 
ATOM     19  C   UNL A   1      41.390  24.404  28.103  1.00  0.00     0.010 A 
ATOM     20  C   UNL A   1      40.969  25.562  27.423  1.00  0.00    -0.014 A 
BRANCH  20  21
ATOM     21  C   UNL A   1      41.643  26.866  27.644  1.00  0.00     0.031 A 
ATOM     22  C   UNL A   1      43.004  27.108  27.053  1.00  0.00     0.074 A 
ATOM     23  C   UNL A   1      41.024  27.836  28.340  1.00  0.00     0.049 A 
ATOM     24  N   UNL A   1      43.799  28.135  27.195  1.00  0.00    -0.248 NA
ATOM     25  C   UNL A   1      43.537  26.046  26.187  1.00  0.00     0.031 C 
ATOM     26  C   UNL A   1      39.680  27.737  28.909  1.00  0.00     0.029 A 
ATOM     27  N   UNL A   1      41.445  29.094  28.691  1.00  0.00    -0.354 N 
ATOM     28  C   UNL A   1      44.937  27.841  26.452  1.00  0.00     0.074 A 
ATOM     29  C   UNL A   1      44.732  26.525  25.879  1.00  0.00     0.031 C 
ATOM     30  C   UNL A   1      39.389  28.885  29.543  1.00  0.00     0.029 A 
ATOM     31  C   UNL A   1      40.542  29.779  29.469  1.00  0.00     0.049 A 
ATOM     32  H   UNL A   1      42.310  29.471  28.412  1.00  0.00     0.167 HD
ATOM     33  C   UNL A   1      46.048  28.598  26.267  1.00  0.00     0.034 A 
ATOM     34  C   UNL A   1      40.646  30.974  30.084  1.00  0.00     0.034 A 
ATOM     35  C   UNL A   1      46.236  29.906  26.849  1.00  0.00     0.049 A 
ATOM     36  C   UNL A   1      41.920  31.765  29.928  1.00  0.00     0.074 A 
ATOM     37  C   UNL A   1      47.318  30.759  26.728  1.00  0.00     0.029 A 
ATOM     38  N   UNL A   1      45.317  30.549  27.670  1.00  0.00    -0.354 N 
ATOM     39  N   UNL A   1      43.003  31.462  29.249  1.00  0.00    -0.248 NA
ATOM     40  C   UNL A   1      41.987  33.057  30.623  1.00  0.00     0.031 C 
ATOM     41  C   UNL A   1      47.081  31.889  27.521  1.00  0.00     0.029 A 
ATOM     42  C   UNL A   1      45.821  31.773  28.084  1.00  0.00     0.049 A 
ATOM     43  H   UNL A   1      44.436  30.188  27.921  1.00  0.00     0.167 HD
ATOM     44  C   UNL A   1      43.871  32.537  29.420  1.00  0.00     0.074 A 
ATOM     45  C   UNL A   1      43.180  33.499  30.254  1.00  0.00     0.031 C 
ATOM     46  C   UNL A   1      45.125  32.713  28.930  1.00  0.00     0.034 A 
BRANCH  33  47
ATOM     47  C   UNL A   1      47.167  27.992  25.454  1.00  0.00     0.023 A 
ATOM     48  C   UNL A   1      47.318  28.260  24.083  1.00  0.00     0.031 A 
ATOM     49  C   UNL A   1      48.073  27.102  26.057  1.00  0.00     0.131 A 
ATOM     50  C   UNL A   1      48.309  27.592  23.346  1.00  0.00     0.055 A 
ATOM     51  C   UNL A   1      49.101  26.496  25.334  1.00  0.00     0.041 A 
ATOM     52  F   UNL A   1      47.964  26.793  27.358  1.00  0.00    -0.206 F 
ATOM     53  C   UNL A   1      49.215  26.728  23.966  1.00  0.00     0.022 A 
BRANCH  50  54
ATOM     54  S   UNL A   1      48.312  27.762  21.540  1.00  0.00     0.124 S 
ATOM     55  O   UNL A   1      49.349  28.771  21.339  1.00  0.00    -0.237 OA
ATOM     56  O   UNL A   1      48.639  26.413  21.096  1.00  0.00    -0.237 OA
ATOM     57  O   UNL A   1      46.953  28.208  21.235  1.00  0.00    -0.744 OA
ENDBRANCH  50  54
ENDBRANCH  33  47
BRANCH  34  58
ATOM     58  C   UNL A   1      39.544  31.471  30.954  1.00  0.00     0.023 A 
ATOM     59  C   UNL A   1      39.616  31.373  32.352  1.00  0.00     0.031 A 
ATOM     60  C   UNL A   1      38.377  32.019  30.389  1.00  0.00     0.131 A 
ATOM     61  C   UNL A   1      38.529  31.784  33.138  1.00  0.00     0.055 A 
ATOM     62  C   UNL A   1      37.318  32.469  31.177  1.00  0.00     0.041 A 
ATOM     63  F   UNL A   1      38.257  32.133  29.056  1.00  0.00    -0.206 F 
ATOM     64  C   UNL A   1      37.385  32.343  32.560  1.00  0.00     0.022 A 
BRANCH  61  65
ATOM     65  S   UNL A   1      38.598  31.513  34.930  1.00  0.00     0.124 S 
ATOM     66  O   UNL A   1      38.882  30.084  35.005  1.00  0.00    -0.237 OA
ATOM     67  O   UNL A   1      39.684  32.404  35.329  1.00  0.00    -0.237 OA
ATOM     68  O   UNL A   1      37.268  31.911  35.387  1.00  0.00    -0.744 OA
ENDBRANCH  61  65
ENDBRANCH  34  58
BRANCH  46  69
ATOM     69  C   UNL A   1      45.804  34.019  29.260  1.00  0.00     0.023 A 
ATOM     70  C   UNL A   1      45.689  35.143  28.423  1.00  0.00     0.031 A 
ATOM     71  C   UNL A   1      46.592  34.132  30.418  1.00  0.00     0.131 A 
ATOM     72  C   UNL A   1      46.395  36.316  28.730  1.00  0.00     0.055 A 
ATOM     73  C   UNL A   1      47.250  35.318  30.746  1.00  0.00     0.041 A 
ATOM     74  F   UNL A   1      46.735  33.088  31.251  1.00  0.00    -0.206 F 
ATOM     75  C   UNL A   1      47.163  36.415  29.893  1.00  0.00     0.022 A 
BRANCH  72  76
ATOM     76  S   UNL A   1      46.361  37.690  27.546  1.00  0.00     0.124 S 
ATOM     77  O   UNL A   1      47.418  37.314  26.612  1.00  0.00    -0.237 OA
ATOM     78  O   UNL A   1      44.999  37.624  27.027  1.00  0.00    -0.237 OA
ATOM     79  O   UNL A   1      46.652  38.861  28.370  1.00  0.00    -0.744 OA
ENDBRANCH  72  76
ENDBRANCH  46  69
ENDBRANCH  20  21
ENDBRANCH  13  15
ENDBRANCH  12  13
ENDBRANCH   1  12
TORSDOF 15
ENDMDL
MODEL 3
REMARK VINA RESULT:      -9.5      6.589      9.909
REMARK SMILES CC(C)(Br)[C@H](Br)C(=O)OCCOC(=O)c1ccc(-c2c3nc(c(-c4cc(S(=O)(=O)[O-])ccc4F)c4ccc([nH]4)c(-c4cc(S(=O)(=O)[O-])ccc4F)c4nc(c(-c5cc(S(=O)(=O)[O-])ccc5F)c5ccc2[nH]5)C=C4)C=C3)cc1
REMARK SMILES IDX 11 1 10 2 9 3 7 4 8 5 5 6 6 7 2 8 1 9 3 10 4 11 12 12 13 13
REMARK SMILES IDX 14 14 15 15 16 16 77 17 17 18 76 19 18 20 19 21 20 22 70 23
REMARK SMILES IDX 21 24 75 25 69 26 71 27 22 28 74 29 68 30 67 31 23 33 55 34
REMARK SMILES IDX 35 35 54 36 36 37 39 38 53 39 72 40 37 41 38 42 52 44 73 45
REMARK SMILES IDX 40 46 24 47 25 48 33 49 26 50 32 51 34 52 31 53 27 54 28 55
REMARK SMILES IDX 29 56 30 57 56 58 57 59 65 60 58 61 64 62 66 63 63 64 59 65
REMARK SMILES IDX 60 66 61 67 62 68 41 69 42 70 50 71 43 72 49 73 51 74 48 75
REMARK SMILES IDX 44 76 45 77 46 78 47 79
REMARK H PARENT 71 32 39 43
REMARK Flexibility Score: inf
ROOT
ATOM      1  C   UNL A   1      31.837  30.478  25.776  1.00  0.00     0.275 C 
ENDROOT
BRANCH   1   2
ATOM      2  C   UNL A   1      32.392  29.265  25.016  1.00  0.00     0.274 C 
BRANCH   2   3
ATOM      3  O   UNL A   1      31.357  28.471  24.397  1.00  0.00    -0.461 OA
BRANCH   3   4
ATOM      4  C   UNL A   1      31.009  28.846  23.139  1.00  0.00     0.321 C 
ATOM      5  O   UNL A   1      31.797  29.336  22.334  1.00  0.00    -0.251 OA
BRANCH   4   6
ATOM      6  C   UNL A   1      29.552  28.620  22.781  1.00  0.00     0.183 C 
ATOM      7  Br  UNL A   1      28.883  27.007  23.687  1.00  0.00    -0.075 Br
BRANCH   6   8
ATOM      8  C   UNL A   1      28.564  29.806  22.833  1.00  0.00     0.043 C 
ATOM      9  C   UNL A   1      28.899  30.932  23.820  1.00  0.00     0.025 C 
ATOM     10  C   UNL A   1      27.148  29.273  23.127  1.00  0.00     0.025 C 
ATOM     11  Br  UNL A   1      28.416  30.705  21.055  1.00  0.00    -0.084 Br
ENDBRANCH   6   8
ENDBRANCH   4   6
ENDBRANCH   3   4
ENDBRANCH   2   3
ENDBRANCH   1   2
BRANCH   1  12
ATOM     12  O   UNL A   1      32.400  30.600  27.096  1.00  0.00    -0.458 OA
BRANCH  12  13
ATOM     13  C   UNL A   1      33.135  31.718  27.309  1.00  0.00     0.338 C 
ATOM     14  O   UNL A   1      32.772  32.871  27.156  1.00  0.00    -0.246 OA
BRANCH  13  15
ATOM     15  C   UNL A   1      34.442  31.363  27.887  1.00  0.00     0.060 A 
ATOM     16  C   UNL A   1      34.635  30.047  28.315  1.00  0.00     0.016 A 
ATOM     17  C   UNL A   1      35.426  32.327  28.107  1.00  0.00     0.016 A 
ATOM     18  C   UNL A   1      35.813  29.682  28.960  1.00  0.00     0.010 A 
ATOM     19  C   UNL A   1      36.609  31.962  28.762  1.00  0.00     0.010 A 
ATOM     20  C   UNL A   1      36.805  30.640  29.201  1.00  0.00    -0.014 A 
BRANCH  20  21
ATOM     21  C   UNL A   1      38.013  30.262  29.977  1.00  0.00     0.031 A 
ATOM     22  C   UNL A   1      39.013  29.314  29.379  1.00  0.00     0.074 A 
ATOM     23  C   UNL A   1      38.226  30.794  31.194  1.00  0.00     0.049 A 
ATOM     24  N   UNL A   1      40.085  28.791  29.916  1.00  0.00    -0.248 NA
ATOM     25  C   UNL A   1      38.771  28.900  27.989  1.00  0.00     0.031 C 
ATOM     26  C   UNL A   1      37.356  31.770  31.850  1.00  0.00     0.029 A 
ATOM     27  N   UNL A   1      39.237  30.586  32.098  1.00  0.00    -0.354 N 
ATOM     28  C   UNL A   1      40.638  27.970  28.939  1.00  0.00     0.074 A 
ATOM     29  C   UNL A   1      39.767  28.053  27.783  1.00  0.00     0.031 C 
ATOM     30  C   UNL A   1      37.868  32.071  33.055  1.00  0.00     0.029 A 
ATOM     31  C   UNL A   1      39.072  31.274  33.276  1.00  0.00     0.049 A 
ATOM     32  H   UNL A   1      40.007  30.000  31.920  1.00  0.00     0.167 HD
ATOM     33  C   UNL A   1      41.767  27.220  29.002  1.00  0.00     0.034 A 
ATOM     34  C   UNL A   1      39.788  31.238  34.418  1.00  0.00     0.034 A 
ATOM     35  C   UNL A   1      42.620  27.148  30.164  1.00  0.00     0.049 A 
ATOM     36  C   UNL A   1      40.995  30.338  34.493  1.00  0.00     0.074 A 
ATOM     37  C   UNL A   1      43.785  26.422  30.338  1.00  0.00     0.029 A 
ATOM     38  N   UNL A   1      42.397  27.825  31.357  1.00  0.00    -0.354 N 
ATOM     39  N   UNL A   1      41.491  29.542  33.574  1.00  0.00    -0.248 NA
ATOM     40  C   UNL A   1      41.737  30.330  35.761  1.00  0.00     0.031 C 
ATOM     41  C   UNL A   1      44.233  26.612  31.651  1.00  0.00     0.029 A 
ATOM     42  C   UNL A   1      43.385  27.511  32.278  1.00  0.00     0.049 A 
ATOM     43  H   UNL A   1      41.646  28.439  31.524  1.00  0.00     0.167 HD
ATOM     44  C   UNL A   1      42.615  28.954  34.147  1.00  0.00     0.074 A 
ATOM     45  C   UNL A   1      42.731  29.498  35.484  1.00  0.00     0.031 C 
ATOM     46  C   UNL A   1      43.475  28.049  33.615  1.00  0.00     0.034 A 
BRANCH  33  47
ATOM     47  C   UNL A   1      42.096  26.369  27.800  1.00  0.00     0.023 A 
ATOM     48  C   UNL A   1      41.675  25.032  27.698  1.00  0.00     0.031 A 
ATOM     49  C   UNL A   1      42.877  26.896  26.756  1.00  0.00     0.131 A 
ATOM     50  C   UNL A   1      42.094  24.248  26.611  1.00  0.00     0.055 A 
ATOM     51  C   UNL A   1      43.230  26.132  25.642  1.00  0.00     0.041 A 
ATOM     52  F   UNL A   1      43.325  28.160  26.809  1.00  0.00    -0.206 F 
ATOM     53  C   UNL A   1      42.850  24.795  25.572  1.00  0.00     0.022 A 
BRANCH  50  54
ATOM     54  S   UNL A   1      41.751  22.466  26.641  1.00  0.00     0.124 S 
ATOM     55  O   UNL A   1      40.294  22.447  26.738  1.00  0.00    -0.237 OA
ATOM     56  O   UNL A   1      42.314  22.015  25.374  1.00  0.00    -0.237 OA
ATOM     57  O   UNL A   1      42.454  22.002  27.837  1.00  0.00    -0.744 OA
ENDBRANCH  50  54
ENDBRANCH  33  47
BRANCH  34  58
ATOM     58  C   UNL A   1      39.353  32.028  35.604  1.00  0.00     0.023 A 
ATOM     59  C   UNL A   1      38.587  31.448  36.626  1.00  0.00     0.031 A 
ATOM     60  C   UNL A   1      39.668  33.396  35.709  1.00  0.00     0.131 A 
ATOM     61  C   UNL A   1      38.132  32.238  37.693  1.00  0.00     0.055 A 
ATOM     62  C   UNL A   1      39.252  34.167  36.794  1.00  0.00     0.041 A 
ATOM     63  F   UNL A   1      40.397  34.000  34.756  1.00  0.00    -0.206 F 
ATOM     64  C   UNL A   1      38.470  33.591  37.789  1.00  0.00     0.022 A 
BRANCH  61  65
ATOM     65  S   UNL A   1      37.028  31.490  38.922  1.00  0.00     0.124 S 
ATOM     66  O   UNL A   1      36.853  30.145  38.386  1.00  0.00    -0.237 OA
ATOM     67  O   UNL A   1      37.819  31.596  40.144  1.00  0.00    -0.237 OA
ATOM     68  O   UNL A   1      35.840  32.340  38.875  1.00  0.00    -0.744 OA
ENDBRANCH  61  65
ENDBRANCH  34  58
BRANCH  46  69
ATOM     69  C   UNL A   1      44.637  27.627  34.480  1.00  0.00     0.023 A 
ATOM     70  C   UNL A   1      44.581  26.473  35.280  1.00  0.00     0.031 A 
ATOM     71  C   UNL A   1      45.808  28.403  34.515  1.00  0.00     0.131 A 
ATOM     72  C   UNL A   1      45.657  26.156  36.123  1.00  0.00     0.055 A 
ATOM     73  C   UNL A   1      46.896  28.055  35.317  1.00  0.00     0.041 A 
ATOM     74  F   UNL A   1      45.913  29.516  33.770  1.00  0.00    -0.206 F 
ATOM     75  C   UNL A   1      46.819  26.931  36.135  1.00  0.00     0.022 A 
BRANCH  72  76
ATOM     76  S   UNL A   1      45.488  24.757  37.266  1.00  0.00     0.124 S 
ATOM     77  O   UNL A   1      46.853  24.246  37.326  1.00  0.00    -0.237 OA
ATOM     78  O   UNL A   1      44.994  25.401  38.478  1.00  0.00    -0.237 OA
ATOM     79  O   UNL A   1      44.528  23.881  36.596  1.00  0.00    -0.744 OA
ENDBRANCH  72  76
ENDBRANCH  46  69
ENDBRANCH  20  21
ENDBRANCH  13  15
ENDBRANCH  12  13
ENDBRANCH   1  12
TORSDOF 15
ENDMDL
