MODEL 1
REMARK VINA RESULT:     -11.3      0.000      0.000
REMARK SMILES C[C@H](Oc1ccc(C(=O)NCc2ccccc2)cc1)C(=O)OCCOC(=O)c1ccc(-c2c3nc(c(-c4cc(S(=O)(=O)[O-])ccc4F)c4ccc([nH]4)c(-c4cc(S(=O)(=O)[O-])ccc4F)c4nc(c(-c5cc(S(=O)(=O)[O-])ccc5F)c5ccc2[nH]5)C=C4)C=C3)cc1
REMARK SMILES IDX 23 1 22 2 20 3 21 4 2 5 1 6 3 7 4 8 5 9 19 10 6 11 18 12
REMARK SMILES IDX 7 13 8 14 9 15 10 16 11 18 12 19 13 20 17 21 14 22 16 23
REMARK SMILES IDX 15 24 24 25 25 26 26 27 27 28 28 29 29 30 90 31 30 32 89 33
REMARK SMILES IDX 31 34 32 35 33 36 83 37 34 38 88 39 82 40 84 41 35 42 87 43
REMARK SMILES IDX 81 44 80 45 36 47 68 48 48 49 67 50 49 51 52 52 66 53 85 54
REMARK SMILES IDX 50 55 51 56 65 58 86 59 53 60 37 61 38 62 46 63 39 64 45 65
REMARK SMILES IDX 47 66 44 67 40 68 41 69 42 70 43 71 69 72 70 73 78 74 71 75
REMARK SMILES IDX 77 76 79 77 76 78 72 79 73 80 74 81 75 82 54 83 55 84 63 85
REMARK SMILES IDX 56 86 62 87 64 88 61 89 57 90 58 91 59 92 60 93
REMARK H PARENT 10 17 84 46 52 57
REMARK Flexibility Score: inf
ROOT
ATOM      1  C   UNL A   1      31.131  29.453  24.240  1.00  0.00     0.274 C 
ENDROOT
BRANCH   1   2
ATOM      2  O   UNL A   1      31.986  28.762  23.314  1.00  0.00    -0.459 OA
BRANCH   2   3
ATOM      3  C   UNL A   1      31.515  27.594  22.785  1.00  0.00     0.347 C 
ATOM      4  O   UNL A   1      30.635  27.521  21.936  1.00  0.00    -0.248 OA
BRANCH   3   5
ATOM      5  C   UNL A   1      32.141  26.371  23.462  1.00  0.00     0.279 C 
ATOM      6  C   UNL A   1      33.651  26.620  23.504  1.00  0.00     0.066 C 
BRANCH   5   7
ATOM      7  O   UNL A   1      31.767  25.211  22.717  1.00  0.00    -0.479 OA
BRANCH   7   8
ATOM      8  C   UNL A   1      31.753  23.989  23.322  1.00  0.00     0.120 A 
ATOM      9  C   UNL A   1      31.090  23.651  24.495  1.00  0.00     0.047 A 
ATOM     10  C   UNL A   1      32.554  23.035  22.696  1.00  0.00     0.047 A 
ATOM     11  C   UNL A   1      31.342  22.415  25.104  1.00  0.00     0.017 A 
ATOM     12  C   UNL A   1      32.804  21.799  23.300  1.00  0.00     0.017 A 
ATOM     13  C   UNL A   1      32.229  21.486  24.532  1.00  0.00     0.040 A 
BRANCH  13  14
ATOM     14  C   UNL A   1      32.611  20.316  25.374  1.00  0.00     0.251 C 
ATOM     15  O   UNL A   1      32.174  19.204  25.067  1.00  0.00    -0.269 OA
ATOM     16  N   UNL A   1      33.382  20.386  26.500  1.00  0.00    -0.348 N 
ATOM     17  H   UNL A   1      33.412  19.542  27.006  1.00  0.00     0.164 HD
BRANCH  16  18
ATOM     18  C   UNL A   1      34.164  21.443  27.103  1.00  0.00     0.152 C 
BRANCH  18  19
ATOM     19  C   UNL A   1      35.084  22.106  26.102  1.00  0.00    -0.029 A 
ATOM     20  C   UNL A   1      35.978  21.327  25.351  1.00  0.00     0.005 A 
ATOM     21  C   UNL A   1      35.044  23.489  25.861  1.00  0.00     0.005 A 
ATOM     22  C   UNL A   1      36.813  21.916  24.397  1.00  0.00     0.000 A 
ATOM     23  C   UNL A   1      35.868  24.075  24.897  1.00  0.00     0.000 A 
ATOM     24  C   UNL A   1      36.755  23.289  24.168  1.00  0.00     0.000 A 
ENDBRANCH  18  19
ENDBRANCH  16  18
ENDBRANCH  13  14
ENDBRANCH   7   8
ENDBRANCH   5   7
ENDBRANCH   3   5
ENDBRANCH   2   3
ENDBRANCH   1   2
BRANCH   1  25
ATOM     25  C   UNL A   1      31.738  29.506  25.643  1.00  0.00     0.275 C 
BRANCH  25  26
ATOM     26  O   UNL A   1      32.973  30.244  25.652  1.00  0.00    -0.458 OA
BRANCH  26  27
ATOM     27  C   UNL A   1      33.078  31.169  26.635  1.00  0.00     0.338 C 
ATOM     28  O   UNL A   1      32.286  32.071  26.879  1.00  0.00    -0.246 OA
BRANCH  27  29
ATOM     29  C   UNL A   1      34.231  30.853  27.493  1.00  0.00     0.060 A 
ATOM     30  C   UNL A   1      35.102  31.896  27.824  1.00  0.00     0.016 A 
ATOM     31  C   UNL A   1      34.483  29.551  27.934  1.00  0.00     0.016 A 
ATOM     32  C   UNL A   1      36.228  31.640  28.603  1.00  0.00     0.010 A 
ATOM     33  C   UNL A   1      35.620  29.295  28.709  1.00  0.00     0.010 A 
ATOM     34  C   UNL A   1      36.503  30.336  29.041  1.00  0.00    -0.014 A 
BRANCH  34  35
ATOM     35  C   UNL A   1      37.750  30.073  29.802  1.00  0.00     0.031 A 
ATOM     36  C   UNL A   1      38.824  29.214  29.198  1.00  0.00     0.074 A 
ATOM     37  C   UNL A   1      37.931  30.642  31.009  1.00  0.00     0.049 A 
ATOM     38  N   UNL A   1      39.983  28.864  29.695  1.00  0.00    -0.248 NA
ATOM     39  C   UNL A   1      38.558  28.678  27.855  1.00  0.00     0.031 C 
ATOM     40  C   UNL A   1      36.969  31.520  31.677  1.00  0.00     0.029 A 
ATOM     41  N   UNL A   1      38.986  30.574  31.882  1.00  0.00    -0.354 N 
ATOM     42  C   UNL A   1      40.590  28.075  28.725  1.00  0.00     0.074 A 
ATOM     43  C   UNL A   1      39.653  27.966  27.626  1.00  0.00     0.031 C 
ATOM     44  C   UNL A   1      37.480  31.909  32.857  1.00  0.00     0.029 A 
ATOM     45  C   UNL A   1      38.787  31.284  33.044  1.00  0.00     0.049 A 
ATOM     46  H   UNL A   1      39.808  30.066  31.696  1.00  0.00     0.167 HD
ATOM     47  C   UNL A   1      41.820  27.502  28.747  1.00  0.00     0.034 A 
ATOM     48  C   UNL A   1      39.561  31.398  34.142  1.00  0.00     0.034 A 
ATOM     49  C   UNL A   1      42.737  27.603  29.858  1.00  0.00     0.049 A 
ATOM     50  C   UNL A   1      40.897  30.694  34.167  1.00  0.00     0.074 A 
ATOM     51  C   UNL A   1      44.001  27.053  29.986  1.00  0.00     0.029 A 
ATOM     52  N   UNL A   1      42.487  28.296  31.036  1.00  0.00    -0.354 N 
ATOM     53  N   UNL A   1      41.457  29.949  33.241  1.00  0.00    -0.248 NA
ATOM     54  C   UNL A   1      41.707  30.856  35.381  1.00  0.00     0.031 C 
ATOM     55  C   UNL A   1      44.489  27.363  31.262  1.00  0.00     0.029 A 
ATOM     56  C   UNL A   1      43.561  28.166  31.904  1.00  0.00     0.049 A 
ATOM     57  H   UNL A   1      41.666  28.805  31.226  1.00  0.00     0.167 HD
ATOM     58  C   UNL A   1      42.694  29.572  33.757  1.00  0.00     0.074 A 
ATOM     59  C   UNL A   1      42.808  30.196  35.059  1.00  0.00     0.031 C 
ATOM     60  C   UNL A   1      43.650  28.778  33.209  1.00  0.00     0.034 A 
BRANCH  47  61
ATOM     61  C   UNL A   1      42.221  26.678  27.548  1.00  0.00     0.023 A 
ATOM     62  C   UNL A   1      41.992  25.292  27.495  1.00  0.00     0.031 A 
ATOM     63  C   UNL A   1      42.850  27.286  26.447  1.00  0.00     0.131 A 
ATOM     64  C   UNL A   1      42.439  24.551  26.389  1.00  0.00     0.055 A 
ATOM     65  C   UNL A   1      43.230  26.555  25.320  1.00  0.00     0.041 A 
ATOM     66  F   UNL A   1      43.113  28.602  26.452  1.00  0.00    -0.206 F 
ATOM     67  C   UNL A   1      43.034  25.176  25.291  1.00  0.00     0.022 A 
BRANCH  64  68
ATOM     68  S   UNL A   1      42.328  22.741  26.450  1.00  0.00     0.124 S 
ATOM     69  O   UNL A   1      42.949  22.364  25.183  1.00  0.00    -0.237 OA
ATOM     70  O   UNL A   1      43.084  22.417  27.653  1.00  0.00    -0.237 OA
ATOM     71  O   UNL A   1      40.890  22.488  26.531  1.00  0.00    -0.744 OA
ENDBRANCH  64  68
ENDBRANCH  47  61
BRANCH  48  72
ATOM     72  C   UNL A   1      39.089  32.166  35.330  1.00  0.00     0.023 A 
ATOM     73  C   UNL A   1      38.504  31.522  36.431  1.00  0.00     0.031 A 
ATOM     74  C   UNL A   1      39.149  33.572  35.345  1.00  0.00     0.131 A 
ATOM     75  C   UNL A   1      37.953  32.282  37.474  1.00  0.00     0.055 A 
ATOM     76  C   UNL A   1      38.651  34.321  36.412  1.00  0.00     0.041 A 
ATOM     77  F   UNL A   1      39.695  34.239  34.316  1.00  0.00    -0.206 F 
ATOM     78  C   UNL A   1      38.033  33.676  37.478  1.00  0.00     0.022 A 
BRANCH  75  79
ATOM     79  S   UNL A   1      37.029  31.424  38.780  1.00  0.00     0.124 S 
ATOM     80  O   UNL A   1      35.820  32.233  38.871  1.00  0.00    -0.237 OA
ATOM     81  O   UNL A   1      36.869  30.091  38.211  1.00  0.00    -0.237 OA
ATOM     82  O   UNL A   1      37.921  31.503  39.935  1.00  0.00    -0.744 OA
ENDBRANCH  75  79
ENDBRANCH  48  72
BRANCH  60  83
ATOM     83  C   UNL A   1      44.909  28.576  34.018  1.00  0.00     0.023 A 
ATOM     84  C   UNL A   1      45.033  27.515  34.933  1.00  0.00     0.031 A 
ATOM     85  C   UNL A   1      45.980  29.479  33.903  1.00  0.00     0.131 A 
ATOM     86  C   UNL A   1      46.173  27.424  35.747  1.00  0.00     0.055 A 
ATOM     87  C   UNL A   1      47.137  29.349  34.673  1.00  0.00     0.041 A 
ATOM     88  F   UNL A   1      45.915  30.511  33.047  1.00  0.00    -0.206 F 
ATOM     89  C   UNL A   1      47.231  28.326  35.614  1.00  0.00     0.022 A 
BRANCH  86  90
ATOM     90  S   UNL A   1      46.204  26.175  37.063  1.00  0.00     0.124 S 
ATOM     91  O   UNL A   1      44.827  25.690  37.055  1.00  0.00    -0.237 OA
ATOM     92  O   UNL A   1      47.212  25.238  36.578  1.00  0.00    -0.237 OA
ATOM     93  O   UNL A   1      46.587  26.937  38.249  1.00  0.00    -0.744 OA
ENDBRANCH  86  90
ENDBRANCH  60  83
ENDBRANCH  34  35
ENDBRANCH  27  29
ENDBRANCH  26  27
ENDBRANCH  25  26
ENDBRANCH   1  25
TORSDOF 19
ENDMDL
MODEL 2
REMARK VINA RESULT:     -11.3      4.928      7.469
REMARK SMILES C[C@H](Oc1ccc(C(=O)NCc2ccccc2)cc1)C(=O)OCCOC(=O)c1ccc(-c2c3nc(c(-c4cc(S(=O)(=O)[O-])ccc4F)c4ccc([nH]4)c(-c4cc(S(=O)(=O)[O-])ccc4F)c4nc(c(-c5cc(S(=O)(=O)[O-])ccc5F)c5ccc2[nH]5)C=C4)C=C3)cc1
REMARK SMILES IDX 23 1 22 2 20 3 21 4 2 5 1 6 3 7 4 8 5 9 19 10 6 11 18 12
REMARK SMILES IDX 7 13 8 14 9 15 10 16 11 18 12 19 13 20 17 21 14 22 16 23
REMARK SMILES IDX 15 24 24 25 25 26 26 27 27 28 28 29 29 30 90 31 30 32 89 33
REMARK SMILES IDX 31 34 32 35 33 36 83 37 34 38 88 39 82 40 84 41 35 42 87 43
REMARK SMILES IDX 81 44 80 45 36 47 68 48 48 49 67 50 49 51 52 52 66 53 85 54
REMARK SMILES IDX 50 55 51 56 65 58 86 59 53 60 37 61 38 62 46 63 39 64 45 65
REMARK SMILES IDX 47 66 44 67 40 68 41 69 42 70 43 71 69 72 70 73 78 74 71 75
REMARK SMILES IDX 77 76 79 77 76 78 72 79 73 80 74 81 75 82 54 83 55 84 63 85
REMARK SMILES IDX 56 86 62 87 64 88 61 89 57 90 58 91 59 92 60 93
REMARK H PARENT 10 17 84 46 52 57
REMARK Flexibility Score: inf
ROOT
ATOM      1  C   UNL A   1      35.803  20.423  25.000  1.00  0.00     0.274 C 
ENDROOT
BRANCH   1   2
ATOM      2  O   UNL A   1      35.178  21.636  24.549  1.00  0.00    -0.459 OA
BRANCH   2   3
ATOM      3  C   UNL A   1      34.367  22.284  25.437  1.00  0.00     0.347 C 
ATOM      4  O   UNL A   1      34.666  22.533  26.599  1.00  0.00    -0.248 OA
BRANCH   3   5
ATOM      5  C   UNL A   1      32.984  22.567  24.841  1.00  0.00     0.279 C 
ATOM      6  C   UNL A   1      32.167  21.282  25.001  1.00  0.00     0.066 C 
BRANCH   5   7
ATOM      7  O   UNL A   1      33.161  22.973  23.483  1.00  0.00    -0.479 OA
BRANCH   7   8
ATOM      8  C   UNL A   1      32.546  24.099  23.023  1.00  0.00     0.120 A 
ATOM      9  C   UNL A   1      32.870  24.813  21.877  1.00  0.00     0.047 A 
ATOM     10  C   UNL A   1      31.539  24.579  23.861  1.00  0.00     0.047 A 
ATOM     11  C   UNL A   1      32.284  26.066  21.649  1.00  0.00     0.017 A 
ATOM     12  C   UNL A   1      30.951  25.828  23.634  1.00  0.00     0.017 A 
ATOM     13  C   UNL A   1      31.342  26.605  22.543  1.00  0.00     0.040 A 
BRANCH  13  14
ATOM     14  C   UNL A   1      30.967  28.034  22.342  1.00  0.00     0.251 C 
ATOM     15  O   UNL A   1      29.826  28.292  21.952  1.00  0.00    -0.269 OA
ATOM     16  N   UNL A   1      31.814  29.093  22.515  1.00  0.00    -0.348 N 
ATOM     17  H   UNL A   1      31.439  29.948  22.200  1.00  0.00     0.164 HD
BRANCH  16  18
ATOM     18  C   UNL A   1      33.145  29.220  23.065  1.00  0.00     0.152 C 
BRANCH  18  19
ATOM     19  C   UNL A   1      33.169  28.945  24.552  1.00  0.00    -0.029 A 
ATOM     20  C   UNL A   1      32.560  29.845  25.440  1.00  0.00     0.005 A 
ATOM     21  C   UNL A   1      33.751  27.782  25.082  1.00  0.00     0.005 A 
ATOM     22  C   UNL A   1      32.542  29.593  26.814  1.00  0.00     0.000 A 
ATOM     23  C   UNL A   1      33.720  27.522  26.454  1.00  0.00     0.000 A 
ATOM     24  C   UNL A   1      33.118  28.430  27.321  1.00  0.00     0.000 A 
ENDBRANCH  18  19
ENDBRANCH  16  18
ENDBRANCH  13  14
ENDBRANCH   7   8
ENDBRANCH   5   7
ENDBRANCH   3   5
ENDBRANCH   2   3
ENDBRANCH   1   2
BRANCH   1  25
ATOM     25  C   UNL A   1      37.327  20.492  24.884  1.00  0.00     0.275 C 
BRANCH  25  26
ATOM     26  O   UNL A   1      37.859  21.604  25.624  1.00  0.00    -0.458 OA
BRANCH  26  27
ATOM     27  C   UNL A   1      39.090  21.404  26.149  1.00  0.00     0.338 C 
ATOM     28  O   UNL A   1      39.749  20.373  26.098  1.00  0.00    -0.246 OA
BRANCH  27  29
ATOM     29  C   UNL A   1      39.616  22.673  26.680  1.00  0.00     0.060 A 
ATOM     30  C   UNL A   1      39.126  23.862  26.129  1.00  0.00     0.016 A 
ATOM     31  C   UNL A   1      40.600  22.702  27.671  1.00  0.00     0.016 A 
ATOM     32  C   UNL A   1      39.619  25.087  26.573  1.00  0.00     0.010 A 
ATOM     33  C   UNL A   1      41.100  23.934  28.108  1.00  0.00     0.010 A 
ATOM     34  C   UNL A   1      40.618  25.133  27.556  1.00  0.00    -0.014 A 
BRANCH  34  35
ATOM     35  C   UNL A   1      41.185  26.446  27.955  1.00  0.00     0.031 A 
ATOM     36  C   UNL A   1      42.612  26.775  27.619  1.00  0.00     0.074 A 
ATOM     37  C   UNL A   1      40.405  27.351  28.574  1.00  0.00     0.049 A 
ATOM     38  N   UNL A   1      43.295  27.861  27.876  1.00  0.00    -0.248 NA
ATOM     39  C   UNL A   1      43.370  25.743  26.896  1.00  0.00     0.031 C 
ATOM     40  C   UNL A   1      38.996  27.151  28.920  1.00  0.00     0.029 A 
ATOM     41  N   UNL A   1      40.681  28.620  29.015  1.00  0.00    -0.354 N 
ATOM     42  C   UNL A   1      44.560  27.650  27.341  1.00  0.00     0.074 A 
ATOM     43  C   UNL A   1      44.560  26.315  26.779  1.00  0.00     0.031 C 
ATOM     44  C   UNL A   1      38.533  28.260  29.521  1.00  0.00     0.029 A 
ATOM     45  C   UNL A   1      39.616  29.234  29.632  1.00  0.00     0.049 A 
ATOM     46  H   UNL A   1      41.559  29.051  28.901  1.00  0.00     0.167 HD
ATOM     47  C   UNL A   1      45.620  28.496  27.313  1.00  0.00     0.034 A 
ATOM     48  C   UNL A   1      39.530  30.437  30.236  1.00  0.00     0.034 A 
ATOM     49  C   UNL A   1      45.611  29.818  27.895  1.00  0.00     0.049 A 
ATOM     50  C   UNL A   1      40.746  31.332  30.251  1.00  0.00     0.074 A 
ATOM     51  C   UNL A   1      46.633  30.752  27.932  1.00  0.00     0.029 A 
ATOM     52  N   UNL A   1      44.528  30.394  28.548  1.00  0.00    -0.354 N 
ATOM     53  N   UNL A   1      41.938  31.117  29.741  1.00  0.00    -0.248 NA
ATOM     54  C   UNL A   1      40.600  32.635  30.914  1.00  0.00     0.031 C 
ATOM     55  C   UNL A   1      46.188  31.865  28.657  1.00  0.00     0.029 A 
ATOM     56  C   UNL A   1      44.866  31.657  29.012  1.00  0.00     0.049 A 
ATOM     57  H   UNL A   1      43.649  29.967  28.664  1.00  0.00     0.167 HD
ATOM     58  C   UNL A   1      42.675  32.269  30.006  1.00  0.00     0.074 A 
ATOM     59  C   UNL A   1      41.784  33.183  30.692  1.00  0.00     0.031 C 
ATOM     60  C   UNL A   1      43.972  32.548  29.714  1.00  0.00     0.034 A 
BRANCH  47  61
ATOM     61  C   UNL A   1      46.889  27.995  26.671  1.00  0.00     0.023 A 
ATOM     62  C   UNL A   1      47.104  28.090  25.285  1.00  0.00     0.031 A 
ATOM     63  C   UNL A   1      47.896  27.404  27.456  1.00  0.00     0.131 A 
ATOM     64  C   UNL A   1      48.271  27.553  24.719  1.00  0.00     0.055 A 
ATOM     65  C   UNL A   1      49.085  26.933  26.895  1.00  0.00     0.041 A 
ATOM     66  F   UNL A   1      47.736  27.267  28.781  1.00  0.00    -0.206 F 
ATOM     67  C   UNL A   1      49.274  26.997  25.517  1.00  0.00     0.022 A 
BRANCH  64  68
ATOM     68  S   UNL A   1      48.416  27.494  22.912  1.00  0.00     0.124 S 
ATOM     69  O   UNL A   1      47.226  28.231  22.495  1.00  0.00    -0.237 OA
ATOM     70  O   UNL A   1      49.693  28.156  22.674  1.00  0.00    -0.237 OA
ATOM     71  O   UNL A   1      48.392  26.063  22.612  1.00  0.00    -0.744 OA
ENDBRANCH  64  68
ENDBRANCH  47  61
BRANCH  48  72
ATOM     72  C   UNL A   1      38.273  30.857  30.920  1.00  0.00     0.023 A 
ATOM     73  C   UNL A   1      37.262  31.545  30.230  1.00  0.00     0.031 A 
ATOM     74  C   UNL A   1      38.100  30.640  32.298  1.00  0.00     0.131 A 
ATOM     75  C   UNL A   1      36.151  32.040  30.931  1.00  0.00     0.055 A 
ATOM     76  C   UNL A   1      36.965  31.083  32.980  1.00  0.00     0.041 A 
ATOM     77  F   UNL A   1      39.037  29.990  33.007  1.00  0.00    -0.206 F 
ATOM     78  C   UNL A   1      35.990  31.803  32.298  1.00  0.00     0.022 A 
BRANCH  75  79
ATOM     79  S   UNL A   1      34.967  33.095  30.048  1.00  0.00     0.124 S 
ATOM     80  O   UNL A   1      35.840  34.116  29.483  1.00  0.00    -0.237 OA
ATOM     81  O   UNL A   1      34.375  32.157  29.100  1.00  0.00    -0.237 OA
ATOM     82  O   UNL A   1      34.069  33.557  31.105  1.00  0.00    -0.744 OA
ENDBRANCH  75  79
ENDBRANCH  48  72
BRANCH  60  83
ATOM     83  C   UNL A   1      44.479  33.912  30.116  1.00  0.00     0.023 A 
ATOM     84  C   UNL A   1      44.358  35.023  29.263  1.00  0.00     0.031 A 
ATOM     85  C   UNL A   1      45.129  34.092  31.350  1.00  0.00     0.131 A 
ATOM     86  C   UNL A   1      44.941  36.248  29.624  1.00  0.00     0.055 A 
ATOM     87  C   UNL A   1      45.653  35.329  31.730  1.00  0.00     0.041 A 
ATOM     88  F   UNL A   1      45.273  33.066  32.204  1.00  0.00    -0.206 F 
ATOM     89  C   UNL A   1      45.575  36.412  30.858  1.00  0.00     0.022 A 
BRANCH  86  90
ATOM     90  S   UNL A   1      44.955  37.595  28.409  1.00  0.00     0.124 S 
ATOM     91  O   UNL A   1      45.633  38.660  29.142  1.00  0.00    -0.237 OA
ATOM     92  O   UNL A   1      45.702  37.008  27.302  1.00  0.00    -0.237 OA
ATOM     93  O   UNL A   1      43.538  37.832  28.143  1.00  0.00    -0.744 OA
ENDBRANCH  86  90
ENDBRANCH  60  83
ENDBRANCH  34  35
ENDBRANCH  27  29
ENDBRANCH  26  27
ENDBRANCH  25  26
ENDBRANCH   1  25
TORSDOF 19
ENDMDL
MODEL 3
REMARK VINA RESULT:     -11.3      4.995     10.026
REMARK SMILES C[C@H](Oc1ccc(C(=O)NCc2ccccc2)cc1)C(=O)OCCOC(=O)c1ccc(-c2c3nc(c(-c4cc(S(=O)(=O)[O-])ccc4F)c4ccc([nH]4)c(-c4cc(S(=O)(=O)[O-])ccc4F)c4nc(c(-c5cc(S(=O)(=O)[O-])ccc5F)c5ccc2[nH]5)C=C4)C=C3)cc1
REMARK SMILES IDX 23 1 22 2 20 3 21 4 2 5 1 6 3 7 4 8 5 9 19 10 6 11 18 12
REMARK SMILES IDX 7 13 8 14 9 15 10 16 11 18 12 19 13 20 17 21 14 22 16 23
REMARK SMILES IDX 15 24 24 25 25 26 26 27 27 28 28 29 29 30 90 31 30 32 89 33
REMARK SMILES IDX 31 34 32 35 33 36 83 37 34 38 88 39 82 40 84 41 35 42 87 43
REMARK SMILES IDX 81 44 80 45 36 47 68 48 48 49 67 50 49 51 52 52 66 53 85 54
REMARK SMILES IDX 50 55 51 56 65 58 86 59 53 60 37 61 38 62 46 63 39 64 45 65
REMARK SMILES IDX 47 66 44 67 40 68 41 69 42 70 43 71 69 72 70 73 78 74 71 75
REMARK SMILES IDX 77 76 79 77 76 78 72 79 73 80 74 81 75 82 54 83 55 84 63 85
REMARK SMILES IDX 56 86 62 87 64 88 61 89 57 90 58 91 59 92 60 93
REMARK H PARENT 10 17 84 46 52 57
REMARK Flexibility Score: inf
ROOT
ATOM      1  C   UNL A   1      35.295  20.441  24.830  1.00  0.00     0.274 C 
ENDROOT
BRANCH   1   2
ATOM      2  O   UNL A   1      34.571  20.987  25.945  1.00  0.00    -0.459 OA
BRANCH   2   3
ATOM      3  C   UNL A   1      33.215  21.093  25.814  1.00  0.00     0.347 C 
ATOM      4  O   UNL A   1      32.515  20.310  25.183  1.00  0.00    -0.248 OA
BRANCH   3   5
ATOM      5  C   UNL A   1      32.680  22.375  26.460  1.00  0.00     0.279 C 
ATOM      6  C   UNL A   1      32.962  22.259  27.960  1.00  0.00     0.066 C 
BRANCH   5   7
ATOM      7  O   UNL A   1      31.293  22.489  26.139  1.00  0.00    -0.479 OA
BRANCH   7   8
ATOM      8  C   UNL A   1      30.836  23.588  25.476  1.00  0.00     0.120 A 
ATOM      9  C   UNL A   1      30.690  23.728  24.101  1.00  0.00     0.047 A 
ATOM     10  C   UNL A   1      30.565  24.679  26.302  1.00  0.00     0.047 A 
ATOM     11  C   UNL A   1      30.409  24.987  23.556  1.00  0.00     0.017 A 
ATOM     12  C   UNL A   1      30.282  25.937  25.759  1.00  0.00     0.017 A 
ATOM     13  C   UNL A   1      30.236  26.116  24.377  1.00  0.00     0.040 A 
BRANCH  13  14
ATOM     14  C   UNL A   1      30.185  27.441  23.694  1.00  0.00     0.251 C 
ATOM     15  O   UNL A   1      29.134  27.778  23.143  1.00  0.00    -0.269 OA
ATOM     16  N   UNL A   1      31.239  28.304  23.591  1.00  0.00    -0.348 N 
ATOM     17  H   UNL A   1      31.065  29.062  22.986  1.00  0.00     0.164 HD
BRANCH  16  18
ATOM     18  C   UNL A   1      32.557  28.337  24.186  1.00  0.00     0.152 C 
BRANCH  18  19
ATOM     19  C   UNL A   1      33.273  27.012  24.043  1.00  0.00    -0.029 A 
ATOM     20  C   UNL A   1      33.783  26.365  25.179  1.00  0.00     0.005 A 
ATOM     21  C   UNL A   1      33.411  26.374  22.799  1.00  0.00     0.005 A 
ATOM     22  C   UNL A   1      34.418  25.125  25.072  1.00  0.00     0.000 A 
ATOM     23  C   UNL A   1      34.032  25.128  22.694  1.00  0.00     0.000 A 
ATOM     24  C   UNL A   1      34.539  24.505  23.831  1.00  0.00     0.000 A 
ENDBRANCH  18  19
ENDBRANCH  16  18
ENDBRANCH  13  14
ENDBRANCH   7   8
ENDBRANCH   5   7
ENDBRANCH   3   5
ENDBRANCH   2   3
ENDBRANCH   1   2
BRANCH   1  25
ATOM     25  C   UNL A   1      36.659  21.110  24.656  1.00  0.00     0.275 C 
BRANCH  25  26
ATOM     26  O   UNL A   1      37.226  21.481  25.925  1.00  0.00    -0.458 OA
BRANCH  26  27
ATOM     27  C   UNL A   1      38.547  21.217  26.059  1.00  0.00     0.338 C 
ATOM     28  O   UNL A   1      39.118  20.172  25.772  1.00  0.00    -0.246 OA
BRANCH  27  29
ATOM     29  C   UNL A   1      39.258  22.439  26.471  1.00  0.00     0.060 A 
ATOM     30  C   UNL A   1      38.703  23.670  26.105  1.00  0.00     0.016 A 
ATOM     31  C   UNL A   1      40.469  22.384  27.166  1.00  0.00     0.016 A 
ATOM     32  C   UNL A   1      39.358  24.853  26.439  1.00  0.00     0.010 A 
ATOM     33  C   UNL A   1      41.129  23.574  27.492  1.00  0.00     0.010 A 
ATOM     34  C   UNL A   1      40.581  24.815  27.124  1.00  0.00    -0.014 A 
BRANCH  34  35
ATOM     35  C   UNL A   1      41.300  26.084  27.399  1.00  0.00     0.031 A 
ATOM     36  C   UNL A   1      40.637  27.153  28.220  1.00  0.00     0.074 A 
ATOM     37  C   UNL A   1      42.559  26.252  26.951  1.00  0.00     0.049 A 
ATOM     38  N   UNL A   1      41.091  28.329  28.573  1.00  0.00    -0.248 NA
ATOM     39  C   UNL A   1      39.281  26.859  28.709  1.00  0.00     0.031 C 
ATOM     40  C   UNL A   1      43.312  25.267  26.172  1.00  0.00     0.029 A 
ATOM     41  N   UNL A   1      43.427  27.304  27.091  1.00  0.00    -0.354 N 
ATOM     42  C   UNL A   1      40.084  28.913  29.333  1.00  0.00     0.074 A 
ATOM     43  C   UNL A   1      38.979  27.976  29.355  1.00  0.00     0.031 C 
ATOM     44  C   UNL A   1      44.531  25.764  25.904  1.00  0.00     0.029 A 
ATOM     45  C   UNL A   1      44.634  27.111  26.461  1.00  0.00     0.049 A 
ATOM     46  H   UNL A   1      43.208  28.120  27.595  1.00  0.00     0.167 HD
ATOM     47  C   UNL A   1      40.086  30.116  29.960  1.00  0.00     0.034 A 
ATOM     48  C   UNL A   1      45.694  27.935  26.329  1.00  0.00     0.034 A 
ATOM     49  C   UNL A   1      41.188  31.048  29.913  1.00  0.00     0.049 A 
ATOM     50  C   UNL A   1      45.642  29.296  26.981  1.00  0.00     0.074 A 
ATOM     51  C   UNL A   1      41.288  32.296  30.504  1.00  0.00     0.029 A 
ATOM     52  N   UNL A   1      42.380  30.838  29.232  1.00  0.00    -0.354 N 
ATOM     53  N   UNL A   1      44.680  29.835  27.696  1.00  0.00    -0.248 NA
ATOM     54  C   UNL A   1      46.823  30.153  26.816  1.00  0.00     0.031 C 
ATOM     55  C   UNL A   1      42.513  32.863  30.132  1.00  0.00     0.029 A 
ATOM     56  C   UNL A   1      43.209  31.942  29.367  1.00  0.00     0.049 A 
ATOM     57  H   UNL A   1      42.604  30.023  28.726  1.00  0.00     0.167 HD
ATOM     58  C   UNL A   1      45.153  31.087  28.080  1.00  0.00     0.074 A 
ATOM     59  C   UNL A   1      46.493  31.207  27.545  1.00  0.00     0.031 C 
ATOM     60  C   UNL A   1      44.536  32.055  28.808  1.00  0.00     0.034 A 
BRANCH  47  61
ATOM     61  C   UNL A   1      38.837  30.506  30.712  1.00  0.00     0.023 A 
ATOM     62  C   UNL A   1      37.755  31.133  30.072  1.00  0.00     0.031 A 
ATOM     63  C   UNL A   1      38.733  30.255  32.092  1.00  0.00     0.131 A 
ATOM     64  C   UNL A   1      36.638  31.538  30.820  1.00  0.00     0.055 A 
ATOM     65  C   UNL A   1      37.591  30.599  32.818  1.00  0.00     0.041 A 
ATOM     66  F   UNL A   1      39.744  29.679  32.760  1.00  0.00    -0.206 F 
ATOM     67  C   UNL A   1      36.539  31.254  32.184  1.00  0.00     0.022 A 
BRANCH  64  68
ATOM     68  S   UNL A   1      35.361  32.539  30.008  1.00  0.00     0.124 S 
ATOM     69  O   UNL A   1      34.386  32.702  31.083  1.00  0.00    -0.237 OA
ATOM     70  O   UNL A   1      36.094  33.739  29.624  1.00  0.00    -0.237 OA
ATOM     71  O   UNL A   1      34.920  31.697  28.898  1.00  0.00    -0.744 OA
ENDBRANCH  64  68
ENDBRANCH  47  61
BRANCH  48  72
ATOM     72  C   UNL A   1      46.876  27.530  25.515  1.00  0.00     0.023 A 
ATOM     73  C   UNL A   1      47.018  27.938  24.180  1.00  0.00     0.031 A 
ATOM     74  C   UNL A   1      47.848  26.662  26.045  1.00  0.00     0.131 A 
ATOM     75  C   UNL A   1      48.073  27.436  23.403  1.00  0.00     0.055 A 
ATOM     76  C   UNL A   1      48.928  26.211  25.286  1.00  0.00     0.041 A 
ATOM     77  F   UNL A   1      47.760  26.238  27.316  1.00  0.00    -0.206 F 
ATOM     78  C   UNL A   1      49.036  26.585  23.950  1.00  0.00     0.022 A 
BRANCH  75  79
ATOM     79  S   UNL A   1      48.110  27.825  21.631  1.00  0.00     0.124 S 
ATOM     80  O   UNL A   1      46.767  28.349  21.412  1.00  0.00    -0.237 OA
ATOM     81  O   UNL A   1      49.198  28.794  21.557  1.00  0.00    -0.237 OA
ATOM     82  O   UNL A   1      48.386  26.533  21.005  1.00  0.00    -0.744 OA
ENDBRANCH  75  79
ENDBRANCH  48  72
BRANCH  60  83
ATOM     83  C   UNL A   1      45.331  33.308  29.082  1.00  0.00     0.023 A 
ATOM     84  C   UNL A   1      45.263  34.425  28.229  1.00  0.00     0.031 A 
ATOM     85  C   UNL A   1      46.201  33.371  30.185  1.00  0.00     0.131 A 
ATOM     86  C   UNL A   1      46.100  35.528  28.453  1.00  0.00     0.055 A 
ATOM     87  C   UNL A   1      46.987  34.496  30.438  1.00  0.00     0.041 A 
ATOM     88  F   UNL A   1      46.308  32.334  31.031  1.00  0.00    -0.206 F 
ATOM     89  C   UNL A   1      46.952  35.577  29.560  1.00  0.00     0.022 A 
BRANCH  86  90
ATOM     90  S   UNL A   1      46.142  36.854  27.216  1.00  0.00     0.124 S 
ATOM     91  O   UNL A   1      46.962  37.863  27.878  1.00  0.00    -0.237 OA
ATOM     92  O   UNL A   1      46.752  36.189  26.069  1.00  0.00    -0.237 OA
ATOM     93  O   UNL A   1      44.735  37.211  27.048  1.00  0.00    -0.744 OA
ENDBRANCH  86  90
ENDBRANCH  60  83
ENDBRANCH  34  35
ENDBRANCH  27  29
ENDBRANCH  26  27
ENDBRANCH  25  26
ENDBRANCH   1  25
TORSDOF 19
ENDMDL
