MODEL 1
REMARK VINA RESULT:     -11.5      0.000      0.000
REMARK SMILES CCc1noc(C[N@@H+]2CC[C@H](Cc3cccc(C(=O)OCCOC(=O)c4ccc(-c5c6nc(c(-c7cc(S(=O)(=O)[O-])ccc7F)c7ccc([nH]7)c(-c7cc(S(=O)(=O)[O-])ccc7F)c7nc(c(-c8cc(S(=O)(=O)[O-])ccc8F)c8ccc5[nH]8)C=C7)C=C6)cc4)c3)C2)n1
REMARK SMILES IDX 21 1 20 2 18 3 19 4 17 5 13 6 14 7 89 8 15 9 16 10 12 11
REMARK SMILES IDX 11 12 8 13 9 14 90 15 10 17 7 18 6 19 3 20 4 21 91 22 5 23
REMARK SMILES IDX 2 24 1 25 22 26 23 27 24 28 25 29 26 30 27 31 88 32 28 33
REMARK SMILES IDX 87 34 29 35 30 36 31 37 81 38 32 39 86 40 80 41 82 42 33 43
REMARK SMILES IDX 85 44 79 45 78 46 34 48 66 49 46 50 65 51 47 52 50 53 64 54
REMARK SMILES IDX 83 55 48 56 49 57 63 59 84 60 51 61 35 62 36 63 44 64 37 65
REMARK SMILES IDX 43 66 45 67 42 68 38 69 39 70 40 71 41 72 67 73 68 74 76 75
REMARK SMILES IDX 69 76 75 77 77 78 74 79 70 80 71 81 72 82 73 83 52 84 53 85
REMARK SMILES IDX 61 86 54 87 60 88 62 89 59 90 55 91 56 92 57 93 58 94
REMARK H PARENT 8 16 82 47 50 58
REMARK Flexibility Score: inf
ROOT
ATOM      1  C   UNL A   1      35.344  21.771  26.070  1.00  0.00     0.275 C 
ENDROOT
BRANCH   1   2
ATOM      2  O   UNL A   1      34.936  22.825  25.177  1.00  0.00    -0.458 OA
BRANCH   2   3
ATOM      3  C   UNL A   1      33.788  22.602  24.487  1.00  0.00     0.338 C 
ATOM      4  O   UNL A   1      33.683  22.010  23.426  1.00  0.00    -0.246 OA
BRANCH   3   5
ATOM      5  C   UNL A   1      32.620  23.117  25.244  1.00  0.00     0.060 A 
ATOM      6  C   UNL A   1      31.318  24.941  26.159  1.00  0.00    -0.047 A 
ATOM      7  C   UNL A   1      30.351  24.025  26.598  1.00  0.00     0.004 A 
ATOM      8  C   UNL A   1      32.488  24.474  25.544  1.00  0.00     0.019 A 
ATOM      9  C   UNL A   1      30.494  22.669  26.324  1.00  0.00     0.001 A 
ATOM     10  C   UNL A   1      31.600  22.225  25.604  1.00  0.00     0.016 A 
BRANCH   6  11
ATOM     11  C   UNL A   1      31.006  26.416  26.179  1.00  0.00     0.045 C 
BRANCH  11  12
ATOM     12  C   UNL A   1      32.007  27.192  27.057  1.00  0.00     0.054 C 
ATOM     13  N   UNL A   1      32.651  29.489  27.447  1.00  0.00    -0.327 N 
ATOM     14  C   UNL A   1      33.851  28.689  27.178  1.00  0.00     0.263 C 
ATOM     15  C   UNL A   1      31.495  28.574  27.467  1.00  0.00     0.266 C 
ATOM     16  H   UNL A   1      32.744  29.944  28.355  1.00  0.00     0.348 HD
ATOM     17  C   UNL A   1      33.361  27.483  26.407  1.00  0.00     0.071 C 
BRANCH  13  18
ATOM     18  C   UNL A   1      32.479  30.615  26.503  1.00  0.00     0.364 C 
BRANCH  18  19
ATOM     19  C   UNL A   1      31.494  30.451  25.390  1.00  0.00     0.281 A 
ATOM     20  C   UNL A   1      30.249  29.891  23.801  1.00  0.00     0.171 A 
ATOM     21  N   UNL A   1      29.671  31.005  24.266  1.00  0.00    -0.062 NA
ATOM     22  N   UNL A   1      31.387  29.510  24.475  1.00  0.00    -0.191 NA
ATOM     23  O   UNL A   1      30.501  31.386  25.317  1.00  0.00    -0.333 OA
BRANCH  20  24
ATOM     24  C   UNL A   1      29.658  29.056  22.720  1.00  0.00     0.078 C 
ATOM     25  C   UNL A   1      28.515  28.158  23.167  1.00  0.00     0.012 C 
ENDBRANCH  20  24
ENDBRANCH  18  19
ENDBRANCH  13  18
ENDBRANCH  11  12
ENDBRANCH   6  11
ENDBRANCH   3   5
ENDBRANCH   2   3
ENDBRANCH   1   2
BRANCH   1  26
ATOM     26  C   UNL A   1      36.213  20.758  25.330  1.00  0.00     0.275 C 
BRANCH  26  27
ATOM     27  O   UNL A   1      37.443  21.388  24.934  1.00  0.00    -0.458 OA
BRANCH  27  28
ATOM     28  C   UNL A   1      38.558  20.985  25.583  1.00  0.00     0.338 C 
ATOM     29  O   UNL A   1      38.981  19.844  25.694  1.00  0.00    -0.246 OA
BRANCH  28  30
ATOM     30  C   UNL A   1      39.225  22.164  26.159  1.00  0.00     0.060 A 
ATOM     31  C   UNL A   1      38.690  23.427  25.924  1.00  0.00     0.016 A 
ATOM     32  C   UNL A   1      40.423  22.032  26.856  1.00  0.00     0.016 A 
ATOM     33  C   UNL A   1      39.370  24.573  26.331  1.00  0.00     0.010 A 
ATOM     34  C   UNL A   1      41.068  23.180  27.333  1.00  0.00     0.010 A 
ATOM     35  C   UNL A   1      40.564  24.465  27.052  1.00  0.00    -0.014 A 
BRANCH  35  36
ATOM     36  C   UNL A   1      41.323  25.687  27.447  1.00  0.00     0.031 A 
ATOM     37  C   UNL A   1      40.674  26.708  28.344  1.00  0.00     0.074 A 
ATOM     38  C   UNL A   1      42.589  25.883  27.027  1.00  0.00     0.049 A 
ATOM     39  N   UNL A   1      41.067  27.917  28.652  1.00  0.00    -0.248 NA
ATOM     40  C   UNL A   1      39.398  26.316  28.962  1.00  0.00     0.031 C 
ATOM     41  C   UNL A   1      43.366  24.950  26.208  1.00  0.00     0.029 A 
ATOM     42  N   UNL A   1      43.449  26.934  27.235  1.00  0.00    -0.354 N 
ATOM     43  C   UNL A   1      40.061  28.453  29.451  1.00  0.00     0.074 A 
ATOM     44  C   UNL A   1      39.035  27.436  29.567  1.00  0.00     0.031 C 
ATOM     45  C   UNL A   1      44.593  25.455  26.010  1.00  0.00     0.029 A 
ATOM     46  C   UNL A   1      44.666  26.784  26.609  1.00  0.00     0.049 A 
ATOM     47  H   UNL A   1      43.218  27.719  27.780  1.00  0.00     0.167 HD
ATOM     48  C   UNL A   1      40.000  29.679  30.028  1.00  0.00     0.034 A 
ATOM     49  C   UNL A   1      45.704  27.634  26.489  1.00  0.00     0.034 A 
ATOM     50  C   UNL A   1      41.051  30.664  29.938  1.00  0.00     0.049 A 
ATOM     51  C   UNL A   1      45.599  29.008  27.100  1.00  0.00     0.074 A 
ATOM     52  C   UNL A   1      41.098  31.933  30.492  1.00  0.00     0.029 A 
ATOM     53  N   UNL A   1      42.250  30.488  29.258  1.00  0.00    -0.354 N 
ATOM     54  N   UNL A   1      44.609  29.533  27.783  1.00  0.00    -0.248 NA
ATOM     55  C   UNL A   1      46.744  29.907  26.907  1.00  0.00     0.031 C 
ATOM     56  C   UNL A   1      42.298  32.541  30.103  1.00  0.00     0.029 A 
ATOM     57  C   UNL A   1      43.031  31.630  29.360  1.00  0.00     0.049 A 
ATOM     58  H   UNL A   1      42.507  29.671  28.773  1.00  0.00     0.167 HD
ATOM     59  C   UNL A   1      45.016  30.823  28.109  1.00  0.00     0.074 A 
ATOM     60  C   UNL A   1      46.350  30.987  27.566  1.00  0.00     0.031 C 
ATOM     61  C   UNL A   1      44.350  31.786  28.794  1.00  0.00     0.034 A 
BRANCH  48  62
ATOM     62  C   UNL A   1      38.720  30.040  30.746  1.00  0.00     0.023 A 
ATOM     63  C   UNL A   1      37.672  30.728  30.109  1.00  0.00     0.031 A 
ATOM     64  C   UNL A   1      38.571  29.732  32.110  1.00  0.00     0.131 A 
ATOM     65  C   UNL A   1      36.561  31.156  30.855  1.00  0.00     0.055 A 
ATOM     66  C   UNL A   1      37.428  30.089  32.827  1.00  0.00     0.041 A 
ATOM     67  F   UNL A   1      39.546  29.095  32.778  1.00  0.00    -0.206 F 
ATOM     68  C   UNL A   1      36.421  30.820  32.203  1.00  0.00     0.022 A 
BRANCH  65  69
ATOM     69  S   UNL A   1      35.378  32.289  30.075  1.00  0.00     0.124 S 
ATOM     70  O   UNL A   1      34.435  32.528  31.165  1.00  0.00    -0.237 OA
ATOM     71  O   UNL A   1      36.223  33.418  29.702  1.00  0.00    -0.237 OA
ATOM     72  O   UNL A   1      34.844  31.513  28.958  1.00  0.00    -0.744 OA
ENDBRANCH  65  69
ENDBRANCH  48  62
BRANCH  49  73
ATOM     73  C   UNL A   1      46.907  27.245  25.698  1.00  0.00     0.023 A 
ATOM     74  C   UNL A   1      47.087  27.695  24.380  1.00  0.00     0.031 A 
ATOM     75  C   UNL A   1      47.883  26.391  26.243  1.00  0.00     0.131 A 
ATOM     76  C   UNL A   1      48.202  27.265  23.642  1.00  0.00     0.055 A 
ATOM     77  C   UNL A   1      49.014  26.008  25.523  1.00  0.00     0.041 A 
ATOM     78  F   UNL A   1      47.756  25.929  27.498  1.00  0.00    -0.206 F 
ATOM     79  C   UNL A   1      49.174  26.439  24.209  1.00  0.00     0.022 A 
BRANCH  76  80
ATOM     80  S   UNL A   1      48.334  27.756  21.901  1.00  0.00     0.124 S 
ATOM     81  O   UNL A   1      48.647  26.487  21.255  1.00  0.00    -0.237 OA
ATOM     82  O   UNL A   1      47.007  28.302  21.636  1.00  0.00    -0.237 OA
ATOM     83  O   UNL A   1      49.419  28.738  21.906  1.00  0.00    -0.744 OA
ENDBRANCH  76  80
ENDBRANCH  49  73
BRANCH  61  84
ATOM     84  C   UNL A   1      45.077  33.088  29.017  1.00  0.00     0.023 A 
ATOM     85  C   UNL A   1      45.895  33.292  30.144  1.00  0.00     0.031 A 
ATOM     86  C   UNL A   1      44.931  34.144  28.102  1.00  0.00     0.131 A 
ATOM     87  C   UNL A   1      46.493  34.543  30.353  1.00  0.00     0.055 A 
ATOM     88  C   UNL A   1      45.571  35.371  28.290  1.00  0.00     0.041 A 
ATOM     89  F   UNL A   1      44.161  34.003  27.012  1.00  0.00    -0.206 F 
ATOM     90  C   UNL A   1      46.347  35.579  29.426  1.00  0.00     0.022 A 
BRANCH  87  91
ATOM     91  S   UNL A   1      47.402  34.829  31.897  1.00  0.00     0.124 S 
ATOM     92  O   UNL A   1      47.673  36.261  31.830  1.00  0.00    -0.237 OA
ATOM     93  O   UNL A   1      46.439  34.408  32.909  1.00  0.00    -0.237 OA
ATOM     94  O   UNL A   1      48.578  33.968  31.766  1.00  0.00    -0.744 OA
ENDBRANCH  87  91
ENDBRANCH  61  84
ENDBRANCH  35  36
ENDBRANCH  28  30
ENDBRANCH  27  28
ENDBRANCH  26  27
ENDBRANCH   1  26
TORSDOF 19
ENDMDL
MODEL 2
REMARK VINA RESULT:     -11.4      1.531      2.572
REMARK SMILES CCc1noc(C[N@@H+]2CC[C@H](Cc3cccc(C(=O)OCCOC(=O)c4ccc(-c5c6nc(c(-c7cc(S(=O)(=O)[O-])ccc7F)c7ccc([nH]7)c(-c7cc(S(=O)(=O)[O-])ccc7F)c7nc(c(-c8cc(S(=O)(=O)[O-])ccc8F)c8ccc5[nH]8)C=C7)C=C6)cc4)c3)C2)n1
REMARK SMILES IDX 21 1 20 2 18 3 19 4 17 5 13 6 14 7 89 8 15 9 16 10 12 11
REMARK SMILES IDX 11 12 8 13 9 14 90 15 10 17 7 18 6 19 3 20 4 21 91 22 5 23
REMARK SMILES IDX 2 24 1 25 22 26 23 27 24 28 25 29 26 30 27 31 88 32 28 33
REMARK SMILES IDX 87 34 29 35 30 36 31 37 81 38 32 39 86 40 80 41 82 42 33 43
REMARK SMILES IDX 85 44 79 45 78 46 34 48 66 49 46 50 65 51 47 52 50 53 64 54
REMARK SMILES IDX 83 55 48 56 49 57 63 59 84 60 51 61 35 62 36 63 44 64 37 65
REMARK SMILES IDX 43 66 45 67 42 68 38 69 39 70 40 71 41 72 67 73 68 74 76 75
REMARK SMILES IDX 69 76 75 77 77 78 74 79 70 80 71 81 72 82 73 83 52 84 53 85
REMARK SMILES IDX 61 86 54 87 60 88 62 89 59 90 55 91 56 92 57 93 58 94
REMARK H PARENT 8 16 82 47 50 58
REMARK Flexibility Score: inf
ROOT
ATOM      1  C   UNL A   1      35.111  22.321  24.244  1.00  0.00     0.275 C 
ENDROOT
BRANCH   1   2
ATOM      2  O   UNL A   1      33.748  21.895  24.438  1.00  0.00    -0.458 OA
BRANCH   2   3
ATOM      3  C   UNL A   1      32.825  22.493  23.642  1.00  0.00     0.338 C 
ATOM      4  O   UNL A   1      32.576  22.209  22.482  1.00  0.00    -0.246 OA
BRANCH   3   5
ATOM      5  C   UNL A   1      32.073  23.521  24.403  1.00  0.00     0.060 A 
ATOM      6  C   UNL A   1      30.499  25.356  24.509  1.00  0.00    -0.047 A 
ATOM      7  C   UNL A   1      30.615  25.370  25.907  1.00  0.00     0.004 A 
ATOM      8  C   UNL A   1      31.286  24.474  23.755  1.00  0.00     0.019 A 
ATOM      9  C   UNL A   1      31.420  24.438  26.553  1.00  0.00     0.001 A 
ATOM     10  C   UNL A   1      32.105  23.484  25.804  1.00  0.00     0.016 A 
BRANCH   6  11
ATOM     11  C   UNL A   1      29.399  26.148  23.848  1.00  0.00     0.045 C 
BRANCH  11  12
ATOM     12  C   UNL A   1      29.956  27.384  23.115  1.00  0.00     0.054 C 
ATOM     13  N   UNL A   1      31.185  29.393  23.660  1.00  0.00    -0.327 N 
ATOM     14  C   UNL A   1      29.993  29.750  22.882  1.00  0.00     0.263 C 
ATOM     15  C   UNL A   1      31.241  27.923  23.748  1.00  0.00     0.266 C 
ATOM     16  H   UNL A   1      32.017  29.740  23.183  1.00  0.00     0.348 HD
ATOM     17  C   UNL A   1      29.030  28.600  23.079  1.00  0.00     0.071 C 
BRANCH  13  18
ATOM     18  C   UNL A   1      31.234  30.053  24.983  1.00  0.00     0.364 C 
BRANCH  18  19
ATOM     19  C   UNL A   1      32.313  29.639  25.932  1.00  0.00     0.281 A 
ATOM     20  C   UNL A   1      33.916  29.407  27.261  1.00  0.00     0.171 A 
ATOM     21  N   UNL A   1      33.244  28.256  27.385  1.00  0.00    -0.062 NA
ATOM     22  N   UNL A   1      33.368  30.298  26.367  1.00  0.00    -0.191 NA
ATOM     23  O   UNL A   1      32.183  28.402  26.495  1.00  0.00    -0.333 OA
BRANCH  20  24
ATOM     24  C   UNL A   1      35.093  29.758  28.100  1.00  0.00     0.078 C 
ATOM     25  C   UNL A   1      36.419  29.782  27.354  1.00  0.00     0.012 C 
ENDBRANCH  20  24
ENDBRANCH  18  19
ENDBRANCH  13  18
ENDBRANCH  11  12
ENDBRANCH   6  11
ENDBRANCH   3   5
ENDBRANCH   2   3
ENDBRANCH   1   2
BRANCH   1  26
ATOM     26  C   UNL A   1      36.074  21.295  24.836  1.00  0.00     0.275 C 
BRANCH  26  27
ATOM     27  O   UNL A   1      37.425  21.750  24.650  1.00  0.00    -0.458 OA
BRANCH  27  28
ATOM     28  C   UNL A   1      38.339  21.289  25.532  1.00  0.00     0.338 C 
ATOM     29  O   UNL A   1      38.569  20.124  25.822  1.00  0.00    -0.246 OA
BRANCH  28  30
ATOM     30  C   UNL A   1      39.054  22.434  26.118  1.00  0.00     0.060 A 
ATOM     31  C   UNL A   1      38.526  23.713  25.965  1.00  0.00     0.016 A 
ATOM     32  C   UNL A   1      40.287  22.258  26.740  1.00  0.00     0.016 A 
ATOM     33  C   UNL A   1      39.244  24.832  26.380  1.00  0.00     0.010 A 
ATOM     34  C   UNL A   1      40.975  23.377  27.227  1.00  0.00     0.010 A 
ATOM     35  C   UNL A   1      40.475  24.679  27.027  1.00  0.00    -0.014 A 
BRANCH  35  36
ATOM     36  C   UNL A   1      41.273  25.874  27.429  1.00  0.00     0.031 A 
ATOM     37  C   UNL A   1      40.664  26.899  28.349  1.00  0.00     0.074 A 
ATOM     38  C   UNL A   1      42.538  26.041  26.995  1.00  0.00     0.049 A 
ATOM     39  N   UNL A   1      41.095  28.093  28.668  1.00  0.00    -0.248 NA
ATOM     40  C   UNL A   1      39.386  26.534  28.978  1.00  0.00     0.031 C 
ATOM     41  C   UNL A   1      43.278  25.099  26.152  1.00  0.00     0.029 A 
ATOM     42  N   UNL A   1      43.430  27.064  27.205  1.00  0.00    -0.354 N 
ATOM     43  C   UNL A   1      40.115  28.645  29.488  1.00  0.00     0.074 A 
ATOM     44  C   UNL A   1      39.063  27.655  29.604  1.00  0.00     0.031 C 
ATOM     45  C   UNL A   1      44.516  25.572  25.944  1.00  0.00     0.029 A 
ATOM     46  C   UNL A   1      44.634  26.889  26.561  1.00  0.00     0.049 A 
ATOM     47  H   UNL A   1      43.228  27.848  27.765  1.00  0.00     0.167 HD
ATOM     48  C   UNL A   1      40.095  29.864  30.083  1.00  0.00     0.034 A 
ATOM     49  C   UNL A   1      45.694  27.712  26.438  1.00  0.00     0.034 A 
ATOM     50  C   UNL A   1      41.172  30.821  29.993  1.00  0.00     0.049 A 
ATOM     51  C   UNL A   1      45.634  29.079  27.070  1.00  0.00     0.074 A 
ATOM     52  C   UNL A   1      41.262  32.079  30.564  1.00  0.00     0.029 A 
ATOM     53  N   UNL A   1      42.357  30.621  29.293  1.00  0.00    -0.354 N 
ATOM     54  N   UNL A   1      44.669  29.622  27.773  1.00  0.00    -0.248 NA
ATOM     55  C   UNL A   1      46.801  29.949  26.874  1.00  0.00     0.031 C 
ATOM     56  C   UNL A   1      42.473  32.660  30.167  1.00  0.00     0.029 A 
ATOM     57  C   UNL A   1      43.171  31.739  29.401  1.00  0.00     0.049 A 
ATOM     58  H   UNL A   1      42.585  29.804  28.794  1.00  0.00     0.167 HD
ATOM     59  C   UNL A   1      45.116  30.896  28.112  1.00  0.00     0.074 A 
ATOM     60  C   UNL A   1      46.446  31.030  27.553  1.00  0.00     0.031 C 
ATOM     61  C   UNL A   1      44.486  31.867  28.819  1.00  0.00     0.034 A 
BRANCH  48  62
ATOM     62  C   UNL A   1      38.836  30.250  30.823  1.00  0.00     0.023 A 
ATOM     63  C   UNL A   1      37.884  31.127  30.275  1.00  0.00     0.031 A 
ATOM     64  C   UNL A   1      38.613  29.767  32.125  1.00  0.00     0.131 A 
ATOM     65  C   UNL A   1      36.798  31.556  31.055  1.00  0.00     0.055 A 
ATOM     66  C   UNL A   1      37.488  30.135  32.867  1.00  0.00     0.041 A 
ATOM     67  F   UNL A   1      39.497  28.943  32.710  1.00  0.00    -0.206 F 
ATOM     68  C   UNL A   1      36.581  31.048  32.338  1.00  0.00     0.022 A 
BRANCH  65  69
ATOM     69  S   UNL A   1      35.760  32.906  30.428  1.00  0.00     0.124 S 
ATOM     70  O   UNL A   1      36.288  33.082  29.078  1.00  0.00    -0.237 OA
ATOM     71  O   UNL A   1      34.419  32.341  30.522  1.00  0.00    -0.237 OA
ATOM     72  O   UNL A   1      36.039  34.008  31.347  1.00  0.00    -0.744 OA
ENDBRANCH  65  69
ENDBRANCH  48  62
BRANCH  49  73
ATOM     73  C   UNL A   1      46.875  27.302  25.625  1.00  0.00     0.023 A 
ATOM     74  C   UNL A   1      47.036  27.745  24.303  1.00  0.00     0.031 A 
ATOM     75  C   UNL A   1      47.847  26.433  26.155  1.00  0.00     0.131 A 
ATOM     76  C   UNL A   1      48.129  27.295  23.545  1.00  0.00     0.055 A 
ATOM     77  C   UNL A   1      48.957  26.030  25.414  1.00  0.00     0.041 A 
ATOM     78  F   UNL A   1      47.737  25.978  27.413  1.00  0.00    -0.206 F 
ATOM     79  C   UNL A   1      49.099  26.454  24.096  1.00  0.00     0.022 A 
BRANCH  76  80
ATOM     80  S   UNL A   1      48.237  27.779  21.800  1.00  0.00     0.124 S 
ATOM     81  O   UNL A   1      48.449  26.493  21.146  1.00  0.00    -0.237 OA
ATOM     82  O   UNL A   1      46.938  28.405  21.577  1.00  0.00    -0.237 OA
ATOM     83  O   UNL A   1      49.379  28.691  21.769  1.00  0.00    -0.744 OA
ENDBRANCH  76  80
ENDBRANCH  49  73
BRANCH  61  84
ATOM     84  C   UNL A   1      45.252  33.145  29.051  1.00  0.00     0.023 A 
ATOM     85  C   UNL A   1      45.155  34.234  28.165  1.00  0.00     0.031 A 
ATOM     86  C   UNL A   1      46.108  33.264  30.159  1.00  0.00     0.131 A 
ATOM     87  C   UNL A   1      45.943  35.376  28.375  1.00  0.00     0.055 A 
ATOM     88  C   UNL A   1      46.852  34.423  30.390  1.00  0.00     0.041 A 
ATOM     89  F   UNL A   1      46.239  32.253  31.032  1.00  0.00    -0.206 F 
ATOM     90  C   UNL A   1      46.780  35.481  29.490  1.00  0.00     0.022 A 
BRANCH  87  91
ATOM     91  S   UNL A   1      45.922  36.692  27.128  1.00  0.00     0.124 S 
ATOM     92  O   UNL A   1      46.716  37.733  27.771  1.00  0.00    -0.237 OA
ATOM     93  O   UNL A   1      46.538  36.041  25.976  1.00  0.00    -0.237 OA
ATOM     94  O   UNL A   1      44.500  37.000  26.978  1.00  0.00    -0.744 OA
ENDBRANCH  87  91
ENDBRANCH  61  84
ENDBRANCH  35  36
ENDBRANCH  28  30
ENDBRANCH  27  28
ENDBRANCH  26  27
ENDBRANCH   1  26
TORSDOF 19
ENDMDL
MODEL 3
REMARK VINA RESULT:     -11.3      3.784      9.464
REMARK SMILES CCc1noc(C[N@@H+]2CC[C@H](Cc3cccc(C(=O)OCCOC(=O)c4ccc(-c5c6nc(c(-c7cc(S(=O)(=O)[O-])ccc7F)c7ccc([nH]7)c(-c7cc(S(=O)(=O)[O-])ccc7F)c7nc(c(-c8cc(S(=O)(=O)[O-])ccc8F)c8ccc5[nH]8)C=C7)C=C6)cc4)c3)C2)n1
REMARK SMILES IDX 21 1 20 2 18 3 19 4 17 5 13 6 14 7 89 8 15 9 16 10 12 11
REMARK SMILES IDX 11 12 8 13 9 14 90 15 10 17 7 18 6 19 3 20 4 21 91 22 5 23
REMARK SMILES IDX 2 24 1 25 22 26 23 27 24 28 25 29 26 30 27 31 88 32 28 33
REMARK SMILES IDX 87 34 29 35 30 36 31 37 81 38 32 39 86 40 80 41 82 42 33 43
REMARK SMILES IDX 85 44 79 45 78 46 34 48 66 49 46 50 65 51 47 52 50 53 64 54
REMARK SMILES IDX 83 55 48 56 49 57 63 59 84 60 51 61 35 62 36 63 44 64 37 65
REMARK SMILES IDX 43 66 45 67 42 68 38 69 39 70 40 71 41 72 67 73 68 74 76 75
REMARK SMILES IDX 69 76 75 77 77 78 74 79 70 80 71 81 72 82 73 83 52 84 53 85
REMARK SMILES IDX 61 86 54 87 60 88 62 89 59 90 55 91 56 92 57 93 58 94
REMARK H PARENT 8 16 82 47 50 58
REMARK Flexibility Score: inf
ROOT
ATOM      1  C   UNL A   1      41.887  19.242  26.507  1.00  0.00     0.275 C 
ENDROOT
BRANCH   1   2
ATOM      2  O   UNL A   1      41.582  20.554  25.995  1.00  0.00    -0.458 OA
BRANCH   2   3
ATOM      3  C   UNL A   1      41.437  21.531  26.925  1.00  0.00     0.338 C 
ATOM      4  O   UNL A   1      42.214  21.793  27.829  1.00  0.00    -0.246 OA
BRANCH   3   5
ATOM      5  C   UNL A   1      40.213  22.326  26.655  1.00  0.00     0.060 A 
ATOM      6  C   UNL A   1      37.933  22.513  25.864  1.00  0.00    -0.047 A 
ATOM      7  C   UNL A   1      37.911  23.858  26.262  1.00  0.00     0.004 A 
ATOM      8  C   UNL A   1      39.114  21.770  25.998  1.00  0.00     0.019 A 
ATOM      9  C   UNL A   1      39.014  24.422  26.892  1.00  0.00     0.001 A 
ATOM     10  C   UNL A   1      40.142  23.642  27.134  1.00  0.00     0.016 A 
BRANCH   6  11
ATOM     11  C   UNL A   1      36.645  21.831  25.477  1.00  0.00     0.045 C 
BRANCH  11  12
ATOM     12  C   UNL A   1      35.620  22.838  24.920  1.00  0.00     0.054 C 
ATOM     13  N   UNL A   1      33.229  23.191  24.986  1.00  0.00    -0.327 N 
ATOM     14  C   UNL A   1      33.686  23.228  23.592  1.00  0.00     0.263 C 
ATOM     15  C   UNL A   1      34.418  23.039  25.845  1.00  0.00     0.266 C 
ATOM     16  H   UNL A   1      32.754  24.064  25.210  1.00  0.00     0.348 HD
ATOM     17  C   UNL A   1      34.989  22.459  23.579  1.00  0.00     0.071 C 
BRANCH  13  18
ATOM     18  C   UNL A   1      32.202  22.156  25.233  1.00  0.00     0.364 C 
BRANCH  18  19
ATOM     19  C   UNL A   1      32.524  20.745  24.855  1.00  0.00     0.281 A 
ATOM     20  C   UNL A   1      32.884  18.870  23.993  1.00  0.00     0.171 A 
ATOM     21  N   UNL A   1      33.479  18.778  25.188  1.00  0.00    -0.062 NA
ATOM     22  N   UNL A   1      32.279  20.081  23.744  1.00  0.00    -0.191 NA
ATOM     23  O   UNL A   1      33.235  20.020  25.769  1.00  0.00    -0.333 OA
BRANCH  20  24
ATOM     24  C   UNL A   1      32.961  17.802  22.960  1.00  0.00     0.078 C 
ATOM     25  C   UNL A   1      34.013  16.736  23.228  1.00  0.00     0.012 C 
ENDBRANCH  20  24
ENDBRANCH  18  19
ENDBRANCH  13  18
ENDBRANCH  11  12
ENDBRANCH   6  11
ENDBRANCH   3   5
ENDBRANCH   2   3
ENDBRANCH   1   2
BRANCH   1  26
ATOM     26  C   UNL A   1      43.096  18.659  25.780  1.00  0.00     0.275 C 
BRANCH  26  27
ATOM     27  O   UNL A   1      43.400  19.475  24.637  1.00  0.00    -0.458 OA
BRANCH  27  28
ATOM     28  C   UNL A   1      44.711  19.681  24.381  1.00  0.00     0.338 C 
ATOM     29  O   UNL A   1      45.524  18.868  23.967  1.00  0.00    -0.246 OA
BRANCH  28  30
ATOM     30  C   UNL A   1      45.038  21.085  24.677  1.00  0.00     0.060 A 
ATOM     31  C   UNL A   1      45.594  21.405  25.913  1.00  0.00     0.016 A 
ATOM     32  C   UNL A   1      44.718  22.094  23.773  1.00  0.00     0.016 A 
ATOM     33  C   UNL A   1      45.784  22.735  26.282  1.00  0.00     0.010 A 
ATOM     34  C   UNL A   1      44.981  23.428  24.113  1.00  0.00     0.010 A 
ATOM     35  C   UNL A   1      45.490  23.765  25.383  1.00  0.00    -0.014 A 
BRANCH  35  36
ATOM     36  C   UNL A   1      45.644  25.192  25.790  1.00  0.00     0.031 A 
ATOM     37  C   UNL A   1      46.988  25.861  25.664  1.00  0.00     0.074 A 
ATOM     38  C   UNL A   1      44.593  25.898  26.253  1.00  0.00     0.049 A 
ATOM     39  N   UNL A   1      47.391  27.014  26.133  1.00  0.00    -0.248 NA
ATOM     40  C   UNL A   1      48.020  25.117  24.927  1.00  0.00     0.031 C 
ATOM     41  C   UNL A   1      43.221  25.400  26.369  1.00  0.00     0.029 A 
ATOM     42  N   UNL A   1      44.514  27.191  26.711  1.00  0.00    -0.354 N 
ATOM     43  C   UNL A   1      48.739  27.110  25.797  1.00  0.00     0.074 A 
ATOM     44  C   UNL A   1      49.082  25.889  25.097  1.00  0.00     0.031 C 
ATOM     45  C   UNL A   1      42.433  26.382  26.834  1.00  0.00     0.029 A 
ATOM     46  C   UNL A   1      43.255  27.550  27.135  1.00  0.00     0.049 A 
ATOM     47  H   UNL A   1      45.284  27.802  26.733  1.00  0.00     0.167 HD
ATOM     48  C   UNL A   1      49.607  28.120  26.055  1.00  0.00     0.034 A 
ATOM     49  C   UNL A   1      42.817  28.672  27.741  1.00  0.00     0.034 A 
ATOM     50  C   UNL A   1      49.238  29.350  26.716  1.00  0.00     0.049 A 
ATOM     51  C   UNL A   1      43.805  29.764  28.058  1.00  0.00     0.074 A 
ATOM     52  C   UNL A   1      50.033  30.443  27.018  1.00  0.00     0.029 A 
ATOM     53  N   UNL A   1      47.960  29.656  27.169  1.00  0.00    -0.354 N 
ATOM     54  N   UNL A   1      45.093  29.809  27.811  1.00  0.00    -0.248 NA
ATOM     55  C   UNL A   1      43.282  30.948  28.752  1.00  0.00     0.031 C 
ATOM     56  C   UNL A   1      49.250  31.384  27.699  1.00  0.00     0.029 A 
ATOM     57  C   UNL A   1      47.951  30.908  27.765  1.00  0.00     0.049 A 
ATOM     58  H   UNL A   1      47.175  29.069  27.080  1.00  0.00     0.167 HD
ATOM     59  C   UNL A   1      45.533  31.031  28.312  1.00  0.00     0.074 A 
ATOM     60  C   UNL A   1      44.368  31.700  28.855  1.00  0.00     0.031 C 
ATOM     61  C   UNL A   1      46.785  31.553  28.323  1.00  0.00     0.034 A 
BRANCH  48  62
ATOM     62  C   UNL A   1      51.054  27.899  25.681  1.00  0.00     0.023 A 
ATOM     63  C   UNL A   1      51.525  28.082  24.369  1.00  0.00     0.031 A 
ATOM     64  C   UNL A   1      51.967  27.447  26.650  1.00  0.00     0.131 A 
ATOM     65  C   UNL A   1      52.847  27.737  24.046  1.00  0.00     0.055 A 
ATOM     66  C   UNL A   1      53.302  27.181  26.340  1.00  0.00     0.041 A 
ATOM     67  F   UNL A   1      51.572  27.233  27.915  1.00  0.00    -0.206 F 
ATOM     68  C   UNL A   1      53.745  27.310  25.027  1.00  0.00     0.022 A 
BRANCH  65  69
ATOM     69  S   UNL A   1      53.333  27.704  22.298  1.00  0.00     0.124 S 
ATOM     70  O   UNL A   1      52.180  28.335  21.659  1.00  0.00    -0.237 OA
ATOM     71  O   UNL A   1      54.567  28.480  22.299  1.00  0.00    -0.237 OA
ATOM     72  O   UNL A   1      53.491  26.279  22.013  1.00  0.00    -0.744 OA
ENDBRANCH  65  69
ENDBRANCH  48  62
BRANCH  49  73
ATOM     73  C   UNL A   1      41.390  28.794  28.158  1.00  0.00     0.023 A 
ATOM     74  C   UNL A   1      41.011  28.654  29.503  1.00  0.00     0.031 A 
ATOM     75  C   UNL A   1      40.379  29.024  27.207  1.00  0.00     0.131 A 
ATOM     76  C   UNL A   1      39.654  28.718  29.855  1.00  0.00     0.055 A 
ATOM     77  C   UNL A   1      39.037  29.137  27.570  1.00  0.00     0.041 A 
ATOM     78  F   UNL A   1      40.688  29.161  25.908  1.00  0.00    -0.206 F 
ATOM     79  C   UNL A   1      38.666  28.974  28.901  1.00  0.00     0.022 A 
BRANCH  76  80
ATOM     80  S   UNL A   1      39.186  28.400  31.579  1.00  0.00     0.124 S 
ATOM     81  O   UNL A   1      38.448  27.148  31.463  1.00  0.00    -0.237 OA
ATOM     82  O   UNL A   1      40.486  28.321  32.237  1.00  0.00    -0.237 OA
ATOM     83  O   UNL A   1      38.382  29.568  31.934  1.00  0.00    -0.744 OA
ENDBRANCH  76  80
ENDBRANCH  49  73
BRANCH  61  84
ATOM     84  C   UNL A   1      46.941  32.930  28.916  1.00  0.00     0.023 A 
ATOM     85  C   UNL A   1      46.864  34.088  28.121  1.00  0.00     0.031 A 
ATOM     86  C   UNL A   1      47.194  33.083  30.290  1.00  0.00     0.131 A 
ATOM     87  C   UNL A   1      47.090  35.347  28.698  1.00  0.00     0.055 A 
ATOM     88  C   UNL A   1      47.368  34.342  30.868  1.00  0.00     0.041 A 
ATOM     89  F   UNL A   1      47.281  32.011  31.092  1.00  0.00    -0.206 F 
ATOM     90  C   UNL A   1      47.328  35.481  30.069  1.00  0.00     0.022 A 
BRANCH  87  91
ATOM     91  S   UNL A   1      47.151  36.804  27.620  1.00  0.00     0.124 S 
ATOM     92  O   UNL A   1      45.737  37.036  27.344  1.00  0.00    -0.237 OA
ATOM     93  O   UNL A   1      47.806  37.794  28.468  1.00  0.00    -0.237 OA
ATOM     94  O   UNL A   1      47.940  36.350  26.475  1.00  0.00    -0.744 OA
ENDBRANCH  87  91
ENDBRANCH  61  84
ENDBRANCH  35  36
ENDBRANCH  28  30
ENDBRANCH  27  28
ENDBRANCH  26  27
ENDBRANCH   1  26
TORSDOF 19
ENDMDL
