MODEL 1
REMARK VINA RESULT:     -12.0      0.000      0.000
REMARK SMILES CCOc1c(Br)cc(CNc2cccc(C(=O)OCCOC(=O)c3ccc(-c4c5nc(c(-c6cc(S(=O)(=O)[O-])ccc6F)c6ccc([nH]6)c(-c6cc(S(=O)(=O)[O-])ccc6F)c6nc(c(-c7cc(S(=O)(=O)[O-])ccc7F)c7ccc4[nH]7)C=C6)C=C5)cc3)c2C)cc1OC
REMARK SMILES IDX 19 1 18 2 16 3 17 4 15 5 11 6 12 7 87 8 13 9 88 10 14 11
REMARK SMILES IDX 10 12 9 14 8 15 4 16 5 17 90 18 6 19 7 20 89 21 3 22 2 23
REMARK SMILES IDX 1 24 91 25 92 26 20 27 21 28 22 29 23 30 24 31 25 32 86 33
REMARK SMILES IDX 26 34 85 35 27 36 28 37 29 38 79 39 30 40 84 41 78 42 80 43
REMARK SMILES IDX 31 44 83 45 77 46 76 47 32 49 64 50 44 51 63 52 45 53 48 54
REMARK SMILES IDX 62 55 81 56 46 57 47 58 61 60 82 61 49 62 33 63 34 64 42 65
REMARK SMILES IDX 35 66 41 67 43 68 40 69 36 70 37 71 38 72 39 73 65 74 66 75
REMARK SMILES IDX 74 76 67 77 73 78 75 79 72 80 68 81 69 82 70 83 71 84 50 85
REMARK SMILES IDX 51 86 59 87 52 88 58 89 60 90 57 91 53 92 54 93 55 94 56 95
REMARK H PARENT 10 13 80 48 48 59
REMARK Flexibility Score: inf
ROOT
ATOM      1  C   UNL A   1      32.190  29.740  25.037  1.00  0.00     0.275 C 
ENDROOT
BRANCH   1   2
ATOM      2  O   UNL A   1      31.015  28.948  25.271  1.00  0.00    -0.458 OA
BRANCH   2   3
ATOM      3  C   UNL A   1      30.286  28.455  24.246  1.00  0.00     0.338 C 
ATOM      4  O   UNL A   1      29.699  29.102  23.398  1.00  0.00    -0.246 OA
BRANCH   3   5
ATOM      5  C   UNL A   1      30.485  26.973  24.215  1.00  0.00     0.065 A 
ATOM      6  C   UNL A   1      31.274  24.839  23.272  1.00  0.00     0.038 A 
ATOM      7  C   UNL A   1      30.892  24.224  24.475  1.00  0.00     0.026 A 
ATOM      8  C   UNL A   1      31.102  26.248  23.159  1.00  0.00    -0.013 A 
ATOM      9  C   UNL A   1      30.292  24.942  25.511  1.00  0.00     0.003 A 
ATOM     10  C   UNL A   1      31.564  26.924  21.894  1.00  0.00     0.047 C 
ATOM     11  C   UNL A   1      30.069  26.303  25.373  1.00  0.00     0.016 A 
BRANCH   6  12
ATOM     12  N   UNL A   1      31.774  24.103  22.204  1.00  0.00    -0.381 N 
ATOM     13  H   UNL A   1      31.164  23.949  21.446  1.00  0.00     0.160 HD
BRANCH  12  14
ATOM     14  C   UNL A   1      33.107  23.540  22.097  1.00  0.00     0.149 C 
BRANCH  14  15
ATOM     15  C   UNL A   1      33.249  22.319  22.981  1.00  0.00    -0.024 A 
ATOM     16  C   UNL A   1      33.702  19.957  24.498  1.00  0.00     0.175 A 
ATOM     17  C   UNL A   1      34.528  21.086  24.639  1.00  0.00     0.064 A 
ATOM     18  C   UNL A   1      32.679  19.988  23.534  1.00  0.00     0.162 A 
ATOM     19  Br  UNL A   1      36.161  21.032  25.612  1.00  0.00    -0.047 Br
ATOM     20  C   UNL A   1      34.267  22.270  23.936  1.00  0.00     0.025 A 
ATOM     21  C   UNL A   1      32.462  21.172  22.795  1.00  0.00     0.056 A 
BRANCH  16  22
ATOM     22  O   UNL A   1      34.013  18.821  25.201  1.00  0.00    -0.489 OA
BRANCH  22  23
ATOM     23  C   UNL A   1      32.888  18.240  25.877  1.00  0.00     0.226 C 
ATOM     24  C   UNL A   1      32.765  16.747  25.625  1.00  0.00     0.049 C 
ENDBRANCH  22  23
ENDBRANCH  16  22
BRANCH  18  25
ATOM     25  O   UNL A   1      31.835  18.981  23.138  1.00  0.00    -0.493 OA
ATOM     26  C   UNL A   1      32.231  18.119  22.083  1.00  0.00     0.278 C 
ENDBRANCH  18  25
ENDBRANCH  14  15
ENDBRANCH  12  14
ENDBRANCH   6  12
ENDBRANCH   3   5
ENDBRANCH   2   3
ENDBRANCH   1   2
BRANCH   1  27
ATOM     27  C   UNL A   1      33.100  30.215  26.194  1.00  0.00     0.275 C 
BRANCH  27  28
ATOM     28  O   UNL A   1      32.680  31.024  27.319  1.00  0.00    -0.458 OA
BRANCH  28  29
ATOM     29  C   UNL A   1      33.184  32.231  27.645  1.00  0.00     0.338 C 
ATOM     30  O   UNL A   1      32.515  33.260  27.641  1.00  0.00    -0.246 OA
BRANCH  29  31
ATOM     31  C   UNL A   1      34.566  32.179  28.126  1.00  0.00     0.060 A 
ATOM     32  C   UNL A   1      35.408  33.272  27.862  1.00  0.00     0.016 A 
ATOM     33  C   UNL A   1      34.923  31.171  29.016  1.00  0.00     0.016 A 
ATOM     34  C   UNL A   1      36.585  33.424  28.560  1.00  0.00     0.010 A 
ATOM     35  C   UNL A   1      36.011  31.381  29.812  1.00  0.00     0.010 A 
ATOM     36  C   UNL A   1      36.860  32.460  29.521  1.00  0.00    -0.014 A 
BRANCH  36  37
ATOM     37  C   UNL A   1      38.200  32.250  30.007  1.00  0.00     0.031 A 
ATOM     38  C   UNL A   1      38.910  31.041  29.570  1.00  0.00     0.074 A 
ATOM     39  C   UNL A   1      38.590  33.310  30.757  1.00  0.00     0.049 A 
ATOM     40  N   UNL A   1      39.690  30.332  30.305  1.00  0.00    -0.248 NA
ATOM     41  C   UNL A   1      38.696  30.427  28.247  1.00  0.00     0.031 C 
ATOM     42  C   UNL A   1      39.879  33.753  31.244  1.00  0.00     0.029 A 
ATOM     43  N   UNL A   1      37.750  34.282  31.312  1.00  0.00    -0.354 N 
ATOM     44  C   UNL A   1      40.438  29.582  29.419  1.00  0.00     0.074 A 
ATOM     45  C   UNL A   1      39.631  29.465  28.233  1.00  0.00     0.031 C 
ATOM     46  C   UNL A   1      39.676  34.610  32.272  1.00  0.00     0.029 A 
ATOM     47  C   UNL A   1      38.243  34.647  32.547  1.00  0.00     0.049 A 
ATOM     48  H   UNL A   1      36.938  34.644  30.890  1.00  0.00     0.167 HD
ATOM     49  C   UNL A   1      41.782  29.471  29.632  1.00  0.00     0.034 A 
ATOM     50  C   UNL A   1      37.624  34.197  33.682  1.00  0.00     0.034 A 
ATOM     51  C   UNL A   1      42.148  30.280  30.794  1.00  0.00     0.049 A 
ATOM     52  C   UNL A   1      38.524  33.181  34.356  1.00  0.00     0.074 A 
ATOM     53  C   UNL A   1      42.663  31.563  30.889  1.00  0.00     0.029 A 
ATOM     54  N   UNL A   1      41.613  29.974  32.036  1.00  0.00    -0.354 N 
ATOM     55  N   UNL A   1      39.305  32.350  33.715  1.00  0.00    -0.248 NA
ATOM     56  C   UNL A   1      38.708  33.144  35.799  1.00  0.00     0.031 C 
ATOM     57  C   UNL A   1      42.396  32.039  32.199  1.00  0.00     0.029 A 
ATOM     58  C   UNL A   1      41.687  31.063  32.878  1.00  0.00     0.049 A 
ATOM     59  H   UNL A   1      41.233  29.100  32.282  1.00  0.00     0.167 HD
ATOM     60  C   UNL A   1      40.170  31.771  34.609  1.00  0.00     0.074 A 
ATOM     61  C   UNL A   1      39.740  32.291  35.901  1.00  0.00     0.031 C 
ATOM     62  C   UNL A   1      41.208  30.955  34.244  1.00  0.00     0.034 A 
BRANCH  49  63
ATOM     63  C   UNL A   1      42.803  29.002  28.624  1.00  0.00     0.023 A 
ATOM     64  C   UNL A   1      43.675  29.953  28.053  1.00  0.00     0.031 A 
ATOM     65  C   UNL A   1      43.000  27.673  28.209  1.00  0.00     0.131 A 
ATOM     66  C   UNL A   1      44.633  29.604  27.090  1.00  0.00     0.055 A 
ATOM     67  C   UNL A   1      43.944  27.320  27.229  1.00  0.00     0.041 A 
ATOM     68  F   UNL A   1      42.319  26.658  28.761  1.00  0.00    -0.206 F 
ATOM     69  C   UNL A   1      44.765  28.289  26.660  1.00  0.00     0.022 A 
BRANCH  66  70
ATOM     70  S   UNL A   1      45.714  30.903  26.430  1.00  0.00     0.124 S 
ATOM     71  O   UNL A   1      44.750  31.888  25.949  1.00  0.00    -0.237 OA
ATOM     72  O   UNL A   1      46.494  31.284  27.602  1.00  0.00    -0.237 OA
ATOM     73  O   UNL A   1      46.470  30.216  25.383  1.00  0.00    -0.744 OA
ENDBRANCH  66  70
ENDBRANCH  49  63
BRANCH  50  74
ATOM     74  C   UNL A   1      36.122  34.127  33.612  1.00  0.00     0.023 A 
ATOM     75  C   UNL A   1      35.406  35.344  33.593  1.00  0.00     0.031 A 
ATOM     76  C   UNL A   1      35.407  32.973  33.268  1.00  0.00     0.131 A 
ATOM     77  C   UNL A   1      34.099  35.410  33.083  1.00  0.00     0.055 A 
ATOM     78  C   UNL A   1      34.068  33.027  32.840  1.00  0.00     0.041 A 
ATOM     79  F   UNL A   1      36.016  31.783  33.239  1.00  0.00    -0.206 F 
ATOM     80  C   UNL A   1      33.418  34.255  32.703  1.00  0.00     0.022 A 
BRANCH  77  81
ATOM     81  S   UNL A   1      33.442  37.059  32.678  1.00  0.00     0.124 S 
ATOM     82  O   UNL A   1      32.031  36.917  33.016  1.00  0.00    -0.237 OA
ATOM     83  O   UNL A   1      34.231  37.915  33.562  1.00  0.00    -0.237 OA
ATOM     84  O   UNL A   1      33.731  37.216  31.259  1.00  0.00    -0.744 OA
ENDBRANCH  77  81
ENDBRANCH  50  74
BRANCH  62  85
ATOM     85  C   UNL A   1      41.960  30.034  35.175  1.00  0.00     0.023 A 
ATOM     86  C   UNL A   1      41.596  28.699  35.349  1.00  0.00     0.031 A 
ATOM     87  C   UNL A   1      43.135  30.441  35.860  1.00  0.00     0.131 A 
ATOM     88  C   UNL A   1      42.263  27.880  36.266  1.00  0.00     0.055 A 
ATOM     89  C   UNL A   1      43.882  29.581  36.666  1.00  0.00     0.041 A 
ATOM     90  F   UNL A   1      43.625  31.686  35.774  1.00  0.00    -0.206 F 
ATOM     91  C   UNL A   1      43.427  28.296  36.902  1.00  0.00     0.022 A 
BRANCH  88  92
ATOM     92  S   UNL A   1      41.474  26.313  36.690  1.00  0.00     0.124 S 
ATOM     93  O   UNL A   1      40.467  26.743  37.659  1.00  0.00    -0.237 OA
ATOM     94  O   UNL A   1      40.957  25.860  35.404  1.00  0.00    -0.237 OA
ATOM     95  O   UNL A   1      42.568  25.518  37.242  1.00  0.00    -0.744 OA
ENDBRANCH  88  92
ENDBRANCH  62  85
ENDBRANCH  36  37
ENDBRANCH  29  31
ENDBRANCH  28  29
ENDBRANCH  27  28
ENDBRANCH   1  27
TORSDOF 20
ENDMDL
MODEL 2
REMARK VINA RESULT:     -11.8      3.741      9.726
REMARK SMILES CCOc1c(Br)cc(CNc2cccc(C(=O)OCCOC(=O)c3ccc(-c4c5nc(c(-c6cc(S(=O)(=O)[O-])ccc6F)c6ccc([nH]6)c(-c6cc(S(=O)(=O)[O-])ccc6F)c6nc(c(-c7cc(S(=O)(=O)[O-])ccc7F)c7ccc4[nH]7)C=C6)C=C5)cc3)c2C)cc1OC
REMARK SMILES IDX 19 1 18 2 16 3 17 4 15 5 11 6 12 7 87 8 13 9 88 10 14 11
REMARK SMILES IDX 10 12 9 14 8 15 4 16 5 17 90 18 6 19 7 20 89 21 3 22 2 23
REMARK SMILES IDX 1 24 91 25 92 26 20 27 21 28 22 29 23 30 24 31 25 32 86 33
REMARK SMILES IDX 26 34 85 35 27 36 28 37 29 38 79 39 30 40 84 41 78 42 80 43
REMARK SMILES IDX 31 44 83 45 77 46 76 47 32 49 64 50 44 51 63 52 45 53 48 54
REMARK SMILES IDX 62 55 81 56 46 57 47 58 61 60 82 61 49 62 33 63 34 64 42 65
REMARK SMILES IDX 35 66 41 67 43 68 40 69 36 70 37 71 38 72 39 73 65 74 66 75
REMARK SMILES IDX 74 76 67 77 73 78 75 79 72 80 68 81 69 82 70 83 71 84 50 85
REMARK SMILES IDX 51 86 59 87 52 88 58 89 60 90 57 91 53 92 54 93 55 94 56 95
REMARK H PARENT 10 13 80 48 48 59
REMARK Flexibility Score: inf
ROOT
ATOM      1  C   UNL A   1      38.101  21.925  25.462  1.00  0.00     0.275 C 
ENDROOT
BRANCH   1   2
ATOM      2  O   UNL A   1      36.975  21.362  24.772  1.00  0.00    -0.458 OA
BRANCH   2   3
ATOM      3  C   UNL A   1      36.083  22.147  24.128  1.00  0.00     0.338 C 
ATOM      4  O   UNL A   1      36.303  22.844  23.154  1.00  0.00    -0.246 OA
BRANCH   3   5
ATOM      5  C   UNL A   1      34.730  21.861  24.696  1.00  0.00     0.065 A 
ATOM      6  C   UNL A   1      32.663  22.384  25.930  1.00  0.00     0.038 A 
ATOM      7  C   UNL A   1      32.152  21.150  25.496  1.00  0.00     0.026 A 
ATOM      8  C   UNL A   1      33.963  22.761  25.485  1.00  0.00    -0.013 A 
ATOM      9  C   UNL A   1      32.907  20.273  24.716  1.00  0.00     0.003 A 
ATOM     10  C   UNL A   1      34.495  24.109  25.898  1.00  0.00     0.047 C 
ATOM     11  C   UNL A   1      34.196  20.615  24.338  1.00  0.00     0.016 A 
BRANCH   6  12
ATOM     12  N   UNL A   1      31.948  23.207  26.793  1.00  0.00    -0.381 N 
ATOM     13  H   UNL A   1      32.352  23.386  27.673  1.00  0.00     0.160 HD
BRANCH  12  14
ATOM     14  C   UNL A   1      30.664  23.826  26.523  1.00  0.00     0.149 C 
BRANCH  14  15
ATOM     15  C   UNL A   1      30.842  25.135  25.783  1.00  0.00    -0.024 A 
ATOM     16  C   UNL A   1      31.413  27.533  24.366  1.00  0.00     0.175 A 
ATOM     17  C   UNL A   1      31.271  26.305  23.696  1.00  0.00     0.064 A 
ATOM     18  C   UNL A   1      31.339  27.547  25.770  1.00  0.00     0.162 A 
ATOM     19  Br  UNL A   1      31.730  26.090  21.863  1.00  0.00    -0.047 Br
ATOM     20  C   UNL A   1      30.928  25.136  24.388  1.00  0.00     0.025 A 
ATOM     21  C   UNL A   1      31.046  26.349  26.457  1.00  0.00     0.056 A 
BRANCH  16  22
ATOM     22  O   UNL A   1      31.763  28.643  23.640  1.00  0.00    -0.489 OA
BRANCH  22  23
ATOM     23  C   UNL A   1      30.703  29.604  23.518  1.00  0.00     0.226 C 
ATOM     24  C   UNL A   1      29.897  29.423  22.244  1.00  0.00     0.049 C 
ENDBRANCH  22  23
ENDBRANCH  16  22
BRANCH  18  25
ATOM     25  O   UNL A   1      31.562  28.588  26.636  1.00  0.00    -0.493 OA
ATOM     26  C   UNL A   1      32.820  29.244  26.622  1.00  0.00     0.278 C 
ENDBRANCH  18  25
ENDBRANCH  14  15
ENDBRANCH  12  14
ENDBRANCH   6  12
ENDBRANCH   3   5
ENDBRANCH   2   3
ENDBRANCH   1   2
BRANCH   1  27
ATOM     27  C   UNL A   1      38.086  23.372  26.010  1.00  0.00     0.275 C 
BRANCH  27  28
ATOM     28  O   UNL A   1      38.833  23.847  27.156  1.00  0.00    -0.458 OA
BRANCH  28  29
ATOM     29  C   UNL A   1      40.070  24.382  27.115  1.00  0.00     0.338 C 
ATOM     30  O   UNL A   1      41.016  23.841  26.549  1.00  0.00    -0.246 OA
BRANCH  29  31
ATOM     31  C   UNL A   1      40.149  25.723  27.697  1.00  0.00     0.060 A 
ATOM     32  C   UNL A   1      40.337  26.816  26.836  1.00  0.00     0.016 A 
ATOM     33  C   UNL A   1      39.801  25.889  29.034  1.00  0.00     0.016 A 
ATOM     34  C   UNL A   1      40.088  28.096  27.277  1.00  0.00     0.010 A 
ATOM     35  C   UNL A   1      39.416  27.132  29.442  1.00  0.00     0.010 A 
ATOM     36  C   UNL A   1      39.636  28.220  28.584  1.00  0.00    -0.014 A 
BRANCH  36  37
ATOM     37  C   UNL A   1      39.743  29.468  29.297  1.00  0.00     0.031 A 
ATOM     38  C   UNL A   1      38.668  30.453  29.126  1.00  0.00     0.074 A 
ATOM     39  C   UNL A   1      40.846  29.455  30.086  1.00  0.00     0.049 A 
ATOM     40  N   UNL A   1      38.831  31.726  29.050  1.00  0.00    -0.248 NA
ATOM     41  C   UNL A   1      37.265  30.067  28.893  1.00  0.00     0.031 C 
ATOM     42  C   UNL A   1      41.282  30.290  31.185  1.00  0.00     0.029 A 
ATOM     43  N   UNL A   1      41.927  28.574  29.979  1.00  0.00    -0.354 N 
ATOM     44  C   UNL A   1      37.589  32.267  29.315  1.00  0.00     0.074 A 
ATOM     45  C   UNL A   1      36.638  31.252  28.943  1.00  0.00     0.031 C 
ATOM     46  C   UNL A   1      42.615  30.119  31.349  1.00  0.00     0.029 A 
ATOM     47  C   UNL A   1      43.090  29.253  30.274  1.00  0.00     0.049 A 
ATOM     48  H   UNL A   1      41.867  27.622  29.731  1.00  0.00     0.167 HD
ATOM     49  C   UNL A   1      37.510  33.336  30.160  1.00  0.00     0.034 A 
ATOM     50  C   UNL A   1      43.940  29.610  29.261  1.00  0.00     0.034 A 
ATOM     51  C   UNL A   1      38.847  33.639  30.670  1.00  0.00     0.049 A 
ATOM     52  C   UNL A   1      43.883  31.114  29.087  1.00  0.00     0.074 A 
ATOM     53  C   UNL A   1      39.476  33.285  31.852  1.00  0.00     0.029 A 
ATOM     54  N   UNL A   1      39.846  34.017  29.786  1.00  0.00    -0.354 N 
ATOM     55  N   UNL A   1      42.805  31.835  29.264  1.00  0.00    -0.248 NA
ATOM     56  C   UNL A   1      45.076  31.913  28.847  1.00  0.00     0.031 C 
ATOM     57  C   UNL A   1      40.876  33.420  31.653  1.00  0.00     0.029 A 
ATOM     58  C   UNL A   1      41.091  33.815  30.344  1.00  0.00     0.049 A 
ATOM     59  H   UNL A   1      39.689  34.380  28.885  1.00  0.00     0.167 HD
ATOM     60  C   UNL A   1      43.157  33.162  29.294  1.00  0.00     0.074 A 
ATOM     61  C   UNL A   1      44.586  33.152  29.012  1.00  0.00     0.031 C 
ATOM     62  C   UNL A   1      42.284  34.173  29.600  1.00  0.00     0.034 A 
BRANCH  49  63
ATOM     63  C   UNL A   1      36.258  33.843  30.833  1.00  0.00     0.023 A 
ATOM     64  C   UNL A   1      35.299  34.524  30.053  1.00  0.00     0.031 A 
ATOM     65  C   UNL A   1      35.926  33.673  32.189  1.00  0.00     0.131 A 
ATOM     66  C   UNL A   1      34.123  35.049  30.608  1.00  0.00     0.055 A 
ATOM     67  C   UNL A   1      34.758  34.215  32.754  1.00  0.00     0.041 A 
ATOM     68  F   UNL A   1      36.694  32.944  33.012  1.00  0.00    -0.206 F 
ATOM     69  C   UNL A   1      33.850  34.912  31.963  1.00  0.00     0.022 A 
BRANCH  66  70
ATOM     70  S   UNL A   1      32.950  35.895  29.512  1.00  0.00     0.124 S 
ATOM     71  O   UNL A   1      33.784  36.931  28.913  1.00  0.00    -0.237 OA
ATOM     72  O   UNL A   1      32.521  34.819  28.625  1.00  0.00    -0.237 OA
ATOM     73  O   UNL A   1      31.921  36.383  30.429  1.00  0.00    -0.744 OA
ENDBRANCH  66  70
ENDBRANCH  49  63
BRANCH  50  74
ATOM     74  C   UNL A   1      44.076  28.603  28.151  1.00  0.00     0.023 A 
ATOM     75  C   UNL A   1      44.454  27.287  28.498  1.00  0.00     0.031 A 
ATOM     76  C   UNL A   1      43.576  28.792  26.857  1.00  0.00     0.131 A 
ATOM     77  C   UNL A   1      44.172  26.203  27.649  1.00  0.00     0.055 A 
ATOM     78  C   UNL A   1      43.375  27.716  25.972  1.00  0.00     0.041 A 
ATOM     79  F   UNL A   1      43.175  30.002  26.456  1.00  0.00    -0.206 F 
ATOM     80  C   UNL A   1      43.633  26.406  26.381  1.00  0.00     0.022 A 
BRANCH  77  81
ATOM     81  S   UNL A   1      44.275  24.534  28.366  1.00  0.00     0.124 S 
ATOM     82  O   UNL A   1      44.305  23.691  27.176  1.00  0.00    -0.237 OA
ATOM     83  O   UNL A   1      45.521  24.614  29.127  1.00  0.00    -0.237 OA
ATOM     84  O   UNL A   1      43.070  24.423  29.179  1.00  0.00    -0.744 OA
ENDBRANCH  77  81
ENDBRANCH  50  74
BRANCH  62  85
ATOM     85  C   UNL A   1      42.517  35.638  29.319  1.00  0.00     0.023 A 
ATOM     86  C   UNL A   1      43.374  36.414  30.098  1.00  0.00     0.031 A 
ATOM     87  C   UNL A   1      41.951  36.295  28.195  1.00  0.00     0.131 A 
ATOM     88  C   UNL A   1      43.525  37.784  29.865  1.00  0.00     0.055 A 
ATOM     89  C   UNL A   1      42.215  37.629  27.882  1.00  0.00     0.041 A 
ATOM     90  F   UNL A   1      41.126  35.677  27.338  1.00  0.00    -0.206 F 
ATOM     91  C   UNL A   1      42.982  38.396  28.741  1.00  0.00     0.022 A 
BRANCH  88  92
ATOM     92  S   UNL A   1      44.340  38.750  31.154  1.00  0.00     0.124 S 
ATOM     93  O   UNL A   1      45.498  39.281  30.438  1.00  0.00    -0.237 OA
ATOM     94  O   UNL A   1      43.319  39.728  31.511  1.00  0.00    -0.237 OA
ATOM     95  O   UNL A   1      44.644  37.759  32.183  1.00  0.00    -0.744 OA
ENDBRANCH  88  92
ENDBRANCH  62  85
ENDBRANCH  36  37
ENDBRANCH  29  31
ENDBRANCH  28  29
ENDBRANCH  27  28
ENDBRANCH   1  27
TORSDOF 20
ENDMDL
MODEL 3
REMARK VINA RESULT:     -11.7      4.662     11.229
REMARK SMILES CCOc1c(Br)cc(CNc2cccc(C(=O)OCCOC(=O)c3ccc(-c4c5nc(c(-c6cc(S(=O)(=O)[O-])ccc6F)c6ccc([nH]6)c(-c6cc(S(=O)(=O)[O-])ccc6F)c6nc(c(-c7cc(S(=O)(=O)[O-])ccc7F)c7ccc4[nH]7)C=C6)C=C5)cc3)c2C)cc1OC
REMARK SMILES IDX 19 1 18 2 16 3 17 4 15 5 11 6 12 7 87 8 13 9 88 10 14 11
REMARK SMILES IDX 10 12 9 14 8 15 4 16 5 17 90 18 6 19 7 20 89 21 3 22 2 23
REMARK SMILES IDX 1 24 91 25 92 26 20 27 21 28 22 29 23 30 24 31 25 32 86 33
REMARK SMILES IDX 26 34 85 35 27 36 28 37 29 38 79 39 30 40 84 41 78 42 80 43
REMARK SMILES IDX 31 44 83 45 77 46 76 47 32 49 64 50 44 51 63 52 45 53 48 54
REMARK SMILES IDX 62 55 81 56 46 57 47 58 61 60 82 61 49 62 33 63 34 64 42 65
REMARK SMILES IDX 35 66 41 67 43 68 40 69 36 70 37 71 38 72 39 73 65 74 66 75
REMARK SMILES IDX 74 76 67 77 73 78 75 79 72 80 68 81 69 82 70 83 71 84 50 85
REMARK SMILES IDX 51 86 59 87 52 88 58 89 60 90 57 91 53 92 54 93 55 94 56 95
REMARK H PARENT 10 13 80 48 48 59
REMARK Flexibility Score: inf
ROOT
ATOM      1  C   UNL A   1      42.431  19.507  26.072  1.00  0.00     0.275 C 
ENDROOT
BRANCH   1   2
ATOM      2  O   UNL A   1      41.433  20.528  26.234  1.00  0.00    -0.458 OA
BRANCH   2   3
ATOM      3  C   UNL A   1      40.141  20.306  25.909  1.00  0.00     0.338 C 
ATOM      4  O   UNL A   1      39.626  19.224  25.691  1.00  0.00    -0.246 OA
BRANCH   3   5
ATOM      5  C   UNL A   1      39.405  21.599  26.054  1.00  0.00     0.065 A 
ATOM      6  C   UNL A   1      37.508  23.141  25.753  1.00  0.00     0.038 A 
ATOM      7  C   UNL A   1      38.165  24.036  26.613  1.00  0.00     0.026 A 
ATOM      8  C   UNL A   1      38.125  21.882  25.503  1.00  0.00    -0.013 A 
ATOM      9  C   UNL A   1      39.419  23.750  27.157  1.00  0.00     0.003 A 
ATOM     10  C   UNL A   1      37.399  20.893  24.627  1.00  0.00     0.047 C 
ATOM     11  C   UNL A   1      40.045  22.549  26.860  1.00  0.00     0.016 A 
BRANCH   6  12
ATOM     12  N   UNL A   1      36.310  23.474  25.131  1.00  0.00    -0.381 N 
ATOM     13  H   UNL A   1      36.350  23.674  24.167  1.00  0.00     0.160 HD
BRANCH  12  14
ATOM     14  C   UNL A   1      35.007  23.556  25.764  1.00  0.00     0.149 C 
BRANCH  14  15
ATOM     15  C   UNL A   1      34.180  24.667  25.152  1.00  0.00    -0.024 A 
ATOM     16  C   UNL A   1      32.828  26.822  23.883  1.00  0.00     0.175 A 
ATOM     17  C   UNL A   1      33.116  25.632  23.192  1.00  0.00     0.064 A 
ATOM     18  C   UNL A   1      33.286  26.961  25.206  1.00  0.00     0.162 A 
ATOM     19  Br  UNL A   1      32.899  25.475  21.309  1.00  0.00    -0.047 Br
ATOM     20  C   UNL A   1      33.727  24.548  23.836  1.00  0.00     0.025 A 
ATOM     21  C   UNL A   1      33.948  25.877  25.824  1.00  0.00     0.056 A 
BRANCH  16  22
ATOM     22  O   UNL A   1      32.241  27.856  23.199  1.00  0.00    -0.489 OA
BRANCH  22  23
ATOM     23  C   UNL A   1      30.838  27.998  23.469  1.00  0.00     0.226 C 
ATOM     24  C   UNL A   1      30.507  29.310  24.159  1.00  0.00     0.049 C 
ENDBRANCH  22  23
ENDBRANCH  16  22
BRANCH  18  25
ATOM     25  O   UNL A   1      33.230  28.057  26.028  1.00  0.00    -0.493 OA
ATOM     26  C   UNL A   1      34.419  28.784  26.296  1.00  0.00     0.278 C 
ENDBRANCH  18  25
ENDBRANCH  14  15
ENDBRANCH  12  14
ENDBRANCH   6  12
ENDBRANCH   3   5
ENDBRANCH   2   3
ENDBRANCH   1   2
BRANCH   1  27
ATOM     27  C   UNL A   1      43.683  19.719  25.189  1.00  0.00     0.275 C 
BRANCH  27  28
ATOM     28  O   UNL A   1      44.617  20.820  25.302  1.00  0.00    -0.458 OA
BRANCH  28  29
ATOM     29  C   UNL A   1      44.523  21.996  24.650  1.00  0.00     0.338 C 
ATOM     30  O   UNL A   1      44.572  22.091  23.428  1.00  0.00    -0.246 OA
BRANCH  29  31
ATOM     31  C   UNL A   1      44.229  23.131  25.528  1.00  0.00     0.060 A 
ATOM     32  C   UNL A   1      44.011  22.881  26.893  1.00  0.00     0.016 A 
ATOM     33  C   UNL A   1      44.409  24.418  25.034  1.00  0.00     0.016 A 
ATOM     34  C   UNL A   1      44.063  23.913  27.803  1.00  0.00     0.010 A 
ATOM     35  C   UNL A   1      44.603  25.425  25.934  1.00  0.00     0.010 A 
ATOM     36  C   UNL A   1      44.354  25.171  27.291  1.00  0.00    -0.014 A 
BRANCH  36  37
ATOM     37  C   UNL A   1      44.028  26.369  28.023  1.00  0.00     0.031 A 
ATOM     38  C   UNL A   1      42.765  27.047  27.705  1.00  0.00     0.074 A 
ATOM     39  C   UNL A   1      44.974  26.606  28.965  1.00  0.00     0.049 A 
ATOM     40  N   UNL A   1      42.595  28.320  27.665  1.00  0.00    -0.248 NA
ATOM     41  C   UNL A   1      41.560  26.321  27.264  1.00  0.00     0.031 C 
ATOM     42  C   UNL A   1      45.016  27.472  30.124  1.00  0.00     0.029 A 
ATOM     43  N   UNL A   1      46.253  26.042  29.010  1.00  0.00    -0.354 N 
ATOM     44  C   UNL A   1      41.229  28.506  27.750  1.00  0.00     0.074 A 
ATOM     45  C   UNL A   1      40.642  27.298  27.233  1.00  0.00     0.031 C 
ATOM     46  C   UNL A   1      46.310  27.646  30.480  1.00  0.00     0.029 A 
ATOM     47  C   UNL A   1      47.142  26.985  29.479  1.00  0.00     0.049 A 
ATOM     48  H   UNL A   1      46.482  25.120  28.748  1.00  0.00     0.167 HD
ATOM     49  C   UNL A   1      40.754  29.477  28.583  1.00  0.00     0.034 A 
ATOM     50  C   UNL A   1      48.000  27.599  28.606  1.00  0.00     0.034 A 
ATOM     51  C   UNL A   1      41.878  30.093  29.287  1.00  0.00     0.049 A 
ATOM     52  C   UNL A   1      47.572  29.042  28.438  1.00  0.00     0.074 A 
ATOM     53  C   UNL A   1      42.408  29.859  30.545  1.00  0.00     0.029 A 
ATOM     54  N   UNL A   1      42.855  30.759  28.563  1.00  0.00    -0.354 N 
ATOM     55  N   UNL A   1      46.329  29.449  28.462  1.00  0.00    -0.248 NA
ATOM     56  C   UNL A   1      48.533  30.135  28.384  1.00  0.00     0.031 C 
ATOM     57  C   UNL A   1      43.736  30.363  30.556  1.00  0.00     0.029 A 
ATOM     58  C   UNL A   1      44.019  30.862  29.296  1.00  0.00     0.049 A 
ATOM     59  H   UNL A   1      42.735  31.111  27.652  1.00  0.00     0.167 HD
ATOM     60  C   UNL A   1      46.310  30.819  28.555  1.00  0.00     0.074 A 
ATOM     61  C   UNL A   1      47.716  31.195  28.485  1.00  0.00     0.031 C 
ATOM     62  C   UNL A   1      45.167  31.552  28.738  1.00  0.00     0.034 A 
BRANCH  49  63
ATOM     63  C   UNL A   1      39.331  29.608  29.070  1.00  0.00     0.023 A 
ATOM     64  C   UNL A   1      39.095  29.664  30.460  1.00  0.00     0.031 A 
ATOM     65  C   UNL A   1      38.190  29.716  28.257  1.00  0.00     0.131 A 
ATOM     66  C   UNL A   1      37.802  29.758  30.994  1.00  0.00     0.055 A 
ATOM     67  C   UNL A   1      36.889  29.789  28.787  1.00  0.00     0.041 A 
ATOM     68  F   UNL A   1      38.285  29.794  26.921  1.00  0.00    -0.206 F 
ATOM     69  C   UNL A   1      36.689  29.807  30.163  1.00  0.00     0.022 A 
BRANCH  66  70
ATOM     70  S   UNL A   1      37.611  29.838  32.797  1.00  0.00     0.124 S 
ATOM     71  O   UNL A   1      38.927  30.302  33.223  1.00  0.00    -0.237 OA
ATOM     72  O   UNL A   1      36.512  30.785  32.952  1.00  0.00    -0.237 OA
ATOM     73  O   UNL A   1      37.293  28.460  33.165  1.00  0.00    -0.744 OA
ENDBRANCH  66  70
ENDBRANCH  49  63
BRANCH  50  74
ATOM     74  C   UNL A   1      48.551  26.716  27.518  1.00  0.00     0.023 A 
ATOM     75  C   UNL A   1      48.125  26.960  26.194  1.00  0.00     0.031 A 
ATOM     76  C   UNL A   1      49.662  25.880  27.676  1.00  0.00     0.131 A 
ATOM     77  C   UNL A   1      48.887  26.529  25.095  1.00  0.00     0.055 A 
ATOM     78  C   UNL A   1      50.377  25.375  26.574  1.00  0.00     0.041 A 
ATOM     79  F   UNL A   1      50.143  25.616  28.895  1.00  0.00    -0.206 F 
ATOM     80  C   UNL A   1      50.017  25.734  25.273  1.00  0.00     0.022 A 
BRANCH  77  81
ATOM     81  S   UNL A   1      48.512  27.272  23.476  1.00  0.00     0.124 S 
ATOM     82  O   UNL A   1      49.706  28.070  23.222  1.00  0.00    -0.237 OA
ATOM     83  O   UNL A   1      48.343  26.086  22.639  1.00  0.00    -0.237 OA
ATOM     84  O   UNL A   1      47.291  28.033  23.711  1.00  0.00    -0.744 OA
ENDBRANCH  77  81
ENDBRANCH  50  74
BRANCH  62  85
ATOM     85  C   UNL A   1      45.041  33.039  28.508  1.00  0.00     0.023 A 
ATOM     86  C   UNL A   1      44.923  33.944  29.562  1.00  0.00     0.031 A 
ATOM     87  C   UNL A   1      45.124  33.617  27.214  1.00  0.00     0.131 A 
ATOM     88  C   UNL A   1      44.740  35.311  29.327  1.00  0.00     0.055 A 
ATOM     89  C   UNL A   1      45.083  34.994  26.992  1.00  0.00     0.041 A 
ATOM     90  F   UNL A   1      45.263  32.880  26.103  1.00  0.00    -0.206 F 
ATOM     91  C   UNL A   1      44.853  35.852  28.053  1.00  0.00     0.022 A 
BRANCH  88  92
ATOM     92  S   UNL A   1      44.214  36.319  30.729  1.00  0.00     0.124 S 
ATOM     93  O   UNL A   1      45.371  36.216  31.617  1.00  0.00    -0.237 OA
ATOM     94  O   UNL A   1      44.004  37.627  30.118  1.00  0.00    -0.237 OA
ATOM     95  O   UNL A   1      43.006  35.646  31.200  1.00  0.00    -0.744 OA
ENDBRANCH  88  92
ENDBRANCH  62  85
ENDBRANCH  36  37
ENDBRANCH  29  31
ENDBRANCH  28  29
ENDBRANCH  27  28
ENDBRANCH   1  27
TORSDOF 20
ENDMDL
