MODEL 1
REMARK VINA RESULT:     -12.2      0.000      0.000
REMARK SMILES O=C(OCCOC(=O)[C@@]1(Cc2ccnc3ccccc23)C[C@H]2CC[C@@H]1O2)c1ccc(-c2c3nc(c(-c4cc(S(=O)(=O)[O-])ccc4F)c4ccc([nH]4)c(-c4cc(S(=O)(=O)[O-])ccc4F)c4nc(c(-c5cc(S(=O)(=O)[O-])ccc5F)c5ccc2[nH]5)C=C4)C=C3)cc1
REMARK SMILES IDX 4 1 3 2 2 3 1 4 27 5 28 6 89 7 29 8 88 9 30 10 31 11 32 12
REMARK SMILES IDX 82 13 33 14 87 15 81 16 83 17 34 18 86 19 80 20 79 21 35 23
REMARK SMILES IDX 67 24 47 25 66 26 48 27 51 28 65 29 84 30 49 31 50 32 64 34
REMARK SMILES IDX 85 35 52 36 36 37 37 38 45 39 38 40 44 41 46 42 43 43 39 44
REMARK SMILES IDX 40 45 41 46 42 47 68 48 69 49 77 50 70 51 76 52 78 53 75 54
REMARK SMILES IDX 71 55 72 56 73 57 74 58 53 59 54 60 62 61 55 62 61 63 63 64
REMARK SMILES IDX 60 65 56 66 57 67 58 68 59 69 5 70 6 71 7 72 8 73 9 74 21 75
REMARK SMILES IDX 25 76 22 77 24 78 26 79 23 80 10 81 11 82 12 83 20 84 13 85
REMARK SMILES IDX 15 86 19 87 14 88 16 89 18 90 17 91
REMARK H PARENT 83 22 51 33
REMARK Flexibility Score: inf
ROOT
ATOM      1  C   UNL A   1      32.408  30.749  26.244  1.00  0.00     0.275 C 
ENDROOT
BRANCH   1   2
ATOM      2  O   UNL A   1      33.166  30.824  27.452  1.00  0.00    -0.458 OA
BRANCH   2   3
ATOM      3  C   UNL A   1      34.430  31.266  27.633  1.00  0.00     0.338 C 
ATOM      4  O   UNL A   1      34.638  32.465  27.444  1.00  0.00    -0.246 OA
BRANCH   3   5
ATOM      5  C   UNL A   1      35.616  30.379  27.919  1.00  0.00     0.060 A 
ATOM      6  C   UNL A   1      36.850  30.326  27.251  1.00  0.00     0.016 A 
ATOM      7  C   UNL A   1      35.491  29.597  29.070  1.00  0.00     0.016 A 
ATOM      8  C   UNL A   1      37.966  29.650  27.780  1.00  0.00     0.010 A 
ATOM      9  C   UNL A   1      36.602  28.953  29.613  1.00  0.00     0.010 A 
ATOM     10  C   UNL A   1      37.872  28.994  28.996  1.00  0.00    -0.014 A 
BRANCH  10  11
ATOM     11  C   UNL A   1      39.002  28.240  29.624  1.00  0.00     0.031 A 
ATOM     12  C   UNL A   1      39.609  28.862  30.847  1.00  0.00     0.074 A 
ATOM     13  C   UNL A   1      39.599  27.162  29.068  1.00  0.00     0.049 A 
ATOM     14  N   UNL A   1      40.782  28.675  31.385  1.00  0.00    -0.248 NA
ATOM     15  C   UNL A   1      38.805  29.921  31.480  1.00  0.00     0.031 C 
ATOM     16  C   UNL A   1      39.126  26.417  27.905  1.00  0.00     0.029 A 
ATOM     17  N   UNL A   1      40.795  26.544  29.370  1.00  0.00    -0.354 N 
ATOM     18  C   UNL A   1      40.852  29.623  32.394  1.00  0.00     0.074 A 
ATOM     19  C   UNL A   1      39.725  30.509  32.221  1.00  0.00     0.031 C 
ATOM     20  C   UNL A   1      40.067  25.537  27.513  1.00  0.00     0.029 A 
ATOM     21  C   UNL A   1      41.195  25.610  28.433  1.00  0.00     0.049 A 
ATOM     22  H   UNL A   1      41.315  26.750  30.179  1.00  0.00     0.167 HD
ATOM     23  C   UNL A   1      41.695  29.678  33.452  1.00  0.00     0.034 A 
ATOM     24  C   UNL A   1      42.336  24.892  28.335  1.00  0.00     0.034 A 
ATOM     25  C   UNL A   1      42.762  28.737  33.640  1.00  0.00     0.049 A 
ATOM     26  C   UNL A   1      43.338  24.997  29.460  1.00  0.00     0.074 A 
ATOM     27  C   UNL A   1      43.632  28.613  34.704  1.00  0.00     0.029 A 
ATOM     28  N   UNL A   1      43.098  27.748  32.723  1.00  0.00    -0.354 N 
ATOM     29  N   UNL A   1      43.333  25.813  30.490  1.00  0.00    -0.248 NA
ATOM     30  C   UNL A   1      44.456  24.043  29.454  1.00  0.00     0.031 C 
ATOM     31  C   UNL A   1      44.532  27.585  34.404  1.00  0.00     0.029 A 
ATOM     32  C   UNL A   1      44.177  27.021  33.186  1.00  0.00     0.049 A 
ATOM     33  H   UNL A   1      42.636  27.590  31.869  1.00  0.00     0.167 HD
ATOM     34  C   UNL A   1      44.398  25.417  31.294  1.00  0.00     0.074 A 
ATOM     35  C   UNL A   1      45.043  24.312  30.613  1.00  0.00     0.031 C 
ATOM     36  C   UNL A   1      44.783  25.901  32.502  1.00  0.00     0.034 A 
BRANCH  23  37
ATOM     37  C   UNL A   1      41.430  30.775  34.455  1.00  0.00     0.023 A 
ATOM     38  C   UNL A   1      40.430  30.623  35.439  1.00  0.00     0.031 A 
ATOM     39  C   UNL A   1      42.031  32.033  34.320  1.00  0.00     0.131 A 
ATOM     40  C   UNL A   1      39.926  31.750  36.100  1.00  0.00     0.055 A 
ATOM     41  C   UNL A   1      41.617  33.125  35.087  1.00  0.00     0.041 A 
ATOM     42  F   UNL A   1      42.985  32.242  33.399  1.00  0.00    -0.206 F 
ATOM     43  C   UNL A   1      40.532  32.997  35.953  1.00  0.00     0.022 A 
BRANCH  40  44
ATOM     44  S   UNL A   1      38.309  31.606  36.916  1.00  0.00     0.124 S 
ATOM     45  O   UNL A   1      38.000  30.190  36.710  1.00  0.00    -0.237 OA
ATOM     46  O   UNL A   1      38.609  31.996  38.288  1.00  0.00    -0.237 OA
ATOM     47  O   UNL A   1      37.465  32.536  36.169  1.00  0.00    -0.744 OA
ENDBRANCH  40  44
ENDBRANCH  23  37
BRANCH  24  48
ATOM     48  C   UNL A   1      42.584  23.980  27.176  1.00  0.00     0.023 A 
ATOM     49  C   UNL A   1      42.118  22.653  27.168  1.00  0.00     0.031 A 
ATOM     50  C   UNL A   1      43.337  24.413  26.069  1.00  0.00     0.131 A 
ATOM     51  C   UNL A   1      42.443  21.797  26.100  1.00  0.00     0.055 A 
ATOM     52  C   UNL A   1      43.635  23.565  24.997  1.00  0.00     0.041 A 
ATOM     53  F   UNL A   1      43.802  25.671  26.019  1.00  0.00    -0.206 F 
ATOM     54  C   UNL A   1      43.195  22.245  25.012  1.00  0.00     0.022 A 
BRANCH  51  55
ATOM     55  S   UNL A   1      41.907  20.062  26.175  1.00  0.00     0.124 S 
ATOM     56  O   UNL A   1      42.305  19.684  27.526  1.00  0.00    -0.237 OA
ATOM     57  O   UNL A   1      40.472  20.181  25.938  1.00  0.00    -0.237 OA
ATOM     58  O   UNL A   1      42.662  19.423  25.099  1.00  0.00    -0.744 OA
ENDBRANCH  51  55
ENDBRANCH  24  48
BRANCH  36  59
ATOM     59  C   UNL A   1      45.891  25.184  33.227  1.00  0.00     0.023 A 
ATOM     60  C   UNL A   1      45.654  24.054  34.023  1.00  0.00     0.031 A 
ATOM     61  C   UNL A   1      47.221  25.602  33.037  1.00  0.00     0.131 A 
ATOM     62  C   UNL A   1      46.736  23.383  34.612  1.00  0.00     0.055 A 
ATOM     63  C   UNL A   1      48.295  24.898  33.578  1.00  0.00     0.041 A 
ATOM     64  F   UNL A   1      47.498  26.681  32.286  1.00  0.00    -0.206 F 
ATOM     65  C   UNL A   1      48.055  23.783  34.373  1.00  0.00     0.022 A 
BRANCH  62  66
ATOM     66  S   UNL A   1      46.400  21.996  35.727  1.00  0.00     0.124 S 
ATOM     67  O   UNL A   1      47.662  21.878  36.451  1.00  0.00    -0.237 OA
ATOM     68  O   UNL A   1      45.263  22.484  36.502  1.00  0.00    -0.237 OA
ATOM     69  O   UNL A   1      46.099  20.890  34.820  1.00  0.00    -0.744 OA
ENDBRANCH  62  66
ENDBRANCH  36  59
ENDBRANCH  10  11
ENDBRANCH   3   5
ENDBRANCH   2   3
ENDBRANCH   1   2
BRANCH   1  70
ATOM     70  C   UNL A   1      32.903  29.671  25.271  1.00  0.00     0.274 C 
BRANCH  70  71
ATOM     71  O   UNL A   1      32.903  28.318  25.782  1.00  0.00    -0.462 OA
BRANCH  71  72
ATOM     72  C   UNL A   1      32.141  27.408  25.111  1.00  0.00     0.315 C 
ATOM     73  O   UNL A   1      30.928  27.529  24.953  1.00  0.00    -0.251 OA
BRANCH  72  74
ATOM     74  C   UNL A   1      32.925  26.198  24.593  1.00  0.00     0.101 C 
ATOM     75  C   UNL A   1      32.079  25.052  24.010  1.00  0.00     0.054 C 
ATOM     76  C   UNL A   1      33.678  26.633  23.323  1.00  0.00     0.136 C 
ATOM     77  C   UNL A   1      32.640  24.881  22.595  1.00  0.00     0.120 C 
ATOM     78  C   UNL A   1      32.773  27.205  22.220  1.00  0.00     0.036 C 
ATOM     79  O   UNL A   1      33.995  25.354  22.733  1.00  0.00    -0.374 OA
ATOM     80  C   UNL A   1      32.077  25.956  21.680  1.00  0.00     0.035 C 
BRANCH  74  81
ATOM     81  C   UNL A   1      33.853  25.689  25.744  1.00  0.00     0.058 C 
BRANCH  81  82
ATOM     82  C   UNL A   1      33.966  24.207  26.100  1.00  0.00    -0.036 A 
ATOM     83  C   UNL A   1      32.977  23.605  26.894  1.00  0.00     0.024 A 
ATOM     84  C   UNL A   1      35.014  23.374  25.655  1.00  0.00     0.003 A 
ATOM     85  C   UNL A   1      33.049  22.263  27.218  1.00  0.00     0.112 A 
ATOM     86  C   UNL A   1      34.933  21.988  25.948  1.00  0.00     0.070 A 
ATOM     87  C   UNL A   1      36.115  23.838  24.910  1.00  0.00     0.010 A 
ATOM     88  N   UNL A   1      34.005  21.449  26.747  1.00  0.00    -0.256 NA
ATOM     89  C   UNL A   1      35.844  21.125  25.365  1.00  0.00     0.029 A 
ATOM     90  C   UNL A   1      37.009  22.951  24.320  1.00  0.00     0.001 A 
ATOM     91  C   UNL A   1      36.855  21.589  24.523  1.00  0.00     0.002 A 
ENDBRANCH  81  82
ENDBRANCH  74  81
ENDBRANCH  72  74
ENDBRANCH  71  72
ENDBRANCH  70  71
ENDBRANCH   1  70
TORSDOF 16
ENDMDL
MODEL 2
REMARK VINA RESULT:     -12.2      5.004     10.348
REMARK SMILES O=C(OCCOC(=O)[C@@]1(Cc2ccnc3ccccc23)C[C@H]2CC[C@@H]1O2)c1ccc(-c2c3nc(c(-c4cc(S(=O)(=O)[O-])ccc4F)c4ccc([nH]4)c(-c4cc(S(=O)(=O)[O-])ccc4F)c4nc(c(-c5cc(S(=O)(=O)[O-])ccc5F)c5ccc2[nH]5)C=C4)C=C3)cc1
REMARK SMILES IDX 4 1 3 2 2 3 1 4 27 5 28 6 89 7 29 8 88 9 30 10 31 11 32 12
REMARK SMILES IDX 82 13 33 14 87 15 81 16 83 17 34 18 86 19 80 20 79 21 35 23
REMARK SMILES IDX 67 24 47 25 66 26 48 27 51 28 65 29 84 30 49 31 50 32 64 34
REMARK SMILES IDX 85 35 52 36 36 37 37 38 45 39 38 40 44 41 46 42 43 43 39 44
REMARK SMILES IDX 40 45 41 46 42 47 68 48 69 49 77 50 70 51 76 52 78 53 75 54
REMARK SMILES IDX 71 55 72 56 73 57 74 58 53 59 54 60 62 61 55 62 61 63 63 64
REMARK SMILES IDX 60 65 56 66 57 67 58 68 59 69 5 70 6 71 7 72 8 73 9 74 21 75
REMARK SMILES IDX 25 76 22 77 24 78 26 79 23 80 10 81 11 82 12 83 20 84 13 85
REMARK SMILES IDX 15 86 19 87 14 88 16 89 18 90 17 91
REMARK H PARENT 83 22 51 33
REMARK Flexibility Score: inf
ROOT
ATOM      1  C   UNL A   1      37.419  22.091  25.269  1.00  0.00     0.275 C 
ENDROOT
BRANCH   1   2
ATOM      2  O   UNL A   1      38.515  21.624  26.057  1.00  0.00    -0.458 OA
BRANCH   2   3
ATOM      3  C   UNL A   1      39.592  22.309  26.502  1.00  0.00     0.338 C 
ATOM      4  O   UNL A   1      40.623  21.666  26.704  1.00  0.00    -0.246 OA
BRANCH   3   5
ATOM      5  C   UNL A   1      39.579  23.766  26.890  1.00  0.00     0.060 A 
ATOM      6  C   UNL A   1      39.253  24.339  28.130  1.00  0.00     0.016 A 
ATOM      7  C   UNL A   1      40.068  24.632  25.908  1.00  0.00     0.016 A 
ATOM      8  C   UNL A   1      39.540  25.682  28.441  1.00  0.00     0.010 A 
ATOM      9  C   UNL A   1      40.382  25.954  26.222  1.00  0.00     0.010 A 
ATOM     10  C   UNL A   1      40.156  26.497  27.506  1.00  0.00    -0.014 A 
BRANCH  10  11
ATOM     11  C   UNL A   1      40.484  27.938  27.746  1.00  0.00     0.031 A 
ATOM     12  C   UNL A   1      41.941  28.294  27.719  1.00  0.00     0.074 A 
ATOM     13  C   UNL A   1      39.586  28.866  28.147  1.00  0.00     0.049 A 
ATOM     14  N   UNL A   1      42.560  29.320  28.233  1.00  0.00    -0.248 NA
ATOM     15  C   UNL A   1      42.825  27.285  27.113  1.00  0.00     0.031 C 
ATOM     16  C   UNL A   1      38.137  28.699  28.200  1.00  0.00     0.029 A 
ATOM     17  N   UNL A   1      39.775  30.129  28.667  1.00  0.00    -0.354 N 
ATOM     18  C   UNL A   1      43.904  29.046  28.033  1.00  0.00     0.074 A 
ATOM     19  C   UNL A   1      43.994  27.677  27.582  1.00  0.00     0.031 C 
ATOM     20  C   UNL A   1      37.580  29.748  28.833  1.00  0.00     0.029 A 
ATOM     21  C   UNL A   1      38.626  30.699  29.184  1.00  0.00     0.049 A 
ATOM     22  H   UNL A   1      40.648  30.583  28.669  1.00  0.00     0.167 HD
ATOM     23  C   UNL A   1      44.961  29.890  28.086  1.00  0.00     0.034 A 
ATOM     24  C   UNL A   1      38.442  31.857  29.856  1.00  0.00     0.034 A 
ATOM     25  C   UNL A   1      44.832  31.268  28.465  1.00  0.00     0.049 A 
ATOM     26  C   UNL A   1      39.625  32.785  30.008  1.00  0.00     0.074 A 
ATOM     27  C   UNL A   1      45.792  32.259  28.475  1.00  0.00     0.029 A 
ATOM     28  N   UNL A   1      43.647  31.846  28.904  1.00  0.00    -0.354 N 
ATOM     29  N   UNL A   1      40.882  32.568  29.695  1.00  0.00    -0.248 NA
ATOM     30  C   UNL A   1      39.358  34.132  30.530  1.00  0.00     0.031 C 
ATOM     31  C   UNL A   1      45.201  33.424  28.975  1.00  0.00     0.029 A 
ATOM     32  C   UNL A   1      43.854  33.178  29.209  1.00  0.00     0.049 A 
ATOM     33  H   UNL A   1      42.786  31.376  28.987  1.00  0.00     0.167 HD
ATOM     34  C   UNL A   1      41.540  33.776  29.907  1.00  0.00     0.074 A 
ATOM     35  C   UNL A   1      40.547  34.707  30.406  1.00  0.00     0.031 C 
ATOM     36  C   UNL A   1      42.839  34.095  29.675  1.00  0.00     0.034 A 
BRANCH  23  37
ATOM     37  C   UNL A   1      46.296  29.307  27.687  1.00  0.00     0.023 A 
ATOM     38  C   UNL A   1      46.634  29.151  26.327  1.00  0.00     0.031 A 
ATOM     39  C   UNL A   1      47.146  28.739  28.645  1.00  0.00     0.131 A 
ATOM     40  C   UNL A   1      47.668  28.280  25.962  1.00  0.00     0.055 A 
ATOM     41  C   UNL A   1      48.262  27.985  28.272  1.00  0.00     0.041 A 
ATOM     42  F   UNL A   1      46.875  28.849  29.954  1.00  0.00    -0.206 F 
ATOM     43  C   UNL A   1      48.505  27.718  26.926  1.00  0.00     0.022 A 
BRANCH  40  44
ATOM     44  S   UNL A   1      47.710  27.680  24.248  1.00  0.00     0.124 S 
ATOM     45  O   UNL A   1      47.258  26.298  24.407  1.00  0.00    -0.237 OA
ATOM     46  O   UNL A   1      46.780  28.577  23.573  1.00  0.00    -0.237 OA
ATOM     47  O   UNL A   1      49.113  27.829  23.867  1.00  0.00    -0.744 OA
ENDBRANCH  40  44
ENDBRANCH  23  37
BRANCH  24  48
ATOM     48  C   UNL A   1      37.100  32.240  30.393  1.00  0.00     0.023 A 
ATOM     49  C   UNL A   1      36.175  32.964  29.619  1.00  0.00     0.031 A 
ATOM     50  C   UNL A   1      36.737  31.925  31.715  1.00  0.00     0.131 A 
ATOM     51  C   UNL A   1      34.956  33.383  30.184  1.00  0.00     0.055 A 
ATOM     52  C   UNL A   1      35.512  32.319  32.264  1.00  0.00     0.041 A 
ATOM     53  F   UNL A   1      37.577  31.229  32.497  1.00  0.00    -0.206 F 
ATOM     54  C   UNL A   1      34.617  33.062  31.499  1.00  0.00     0.022 A 
BRANCH  51  55
ATOM     55  S   UNL A   1      33.833  34.402  29.183  1.00  0.00     0.124 S 
ATOM     56  O   UNL A   1      33.275  33.418  28.262  1.00  0.00    -0.237 OA
ATOM     57  O   UNL A   1      32.920  34.925  30.195  1.00  0.00    -0.237 OA
ATOM     58  O   UNL A   1      34.719  35.394  28.576  1.00  0.00    -0.744 OA
ENDBRANCH  51  55
ENDBRANCH  24  48
BRANCH  36  59
ATOM     59  C   UNL A   1      43.255  35.530  29.855  1.00  0.00     0.023 A 
ATOM     60  C   UNL A   1      43.070  36.493  28.853  1.00  0.00     0.031 A 
ATOM     61  C   UNL A   1      43.768  35.947  31.098  1.00  0.00     0.131 A 
ATOM     62  C   UNL A   1      43.407  37.831  29.109  1.00  0.00     0.055 A 
ATOM     63  C   UNL A   1      44.048  37.286  31.364  1.00  0.00     0.041 A 
ATOM     64  F   UNL A   1      43.967  35.060  32.088  1.00  0.00    -0.206 F 
ATOM     65  C   UNL A   1      43.871  38.236  30.365  1.00  0.00     0.022 A 
BRANCH  62  66
ATOM     66  S   UNL A   1      43.268  39.038  27.764  1.00  0.00     0.124 S 
ATOM     67  O   UNL A   1      41.844  38.976  27.450  1.00  0.00    -0.237 OA
ATOM     68  O   UNL A   1      43.728  40.270  28.399  1.00  0.00    -0.237 OA
ATOM     69  O   UNL A   1      44.156  38.506  26.733  1.00  0.00    -0.744 OA
ENDBRANCH  62  66
ENDBRANCH  36  59
ENDBRANCH  10  11
ENDBRANCH   3   5
ENDBRANCH   2   3
ENDBRANCH   1   2
BRANCH   1  70
ATOM     70  C   UNL A   1      36.117  22.260  26.062  1.00  0.00     0.274 C 
BRANCH  70  71
ATOM     71  O   UNL A   1      35.408  23.501  25.845  1.00  0.00    -0.462 OA
BRANCH  71  72
ATOM     72  C   UNL A   1      34.103  23.540  26.235  1.00  0.00     0.315 C 
ATOM     73  O   UNL A   1      33.684  22.983  27.247  1.00  0.00    -0.251 OA
BRANCH  72  74
ATOM     74  C   UNL A   1      33.189  24.319  25.282  1.00  0.00     0.101 C 
ATOM     75  C   UNL A   1      33.886  24.986  24.084  1.00  0.00     0.054 C 
ATOM     76  C   UNL A   1      32.310  23.300  24.535  1.00  0.00     0.136 C 
ATOM     77  C   UNL A   1      33.143  24.409  22.875  1.00  0.00     0.120 C 
ATOM     78  C   UNL A   1      33.102  22.228  23.770  1.00  0.00     0.036 C 
ATOM     79  O   UNL A   1      31.846  24.094  23.422  1.00  0.00    -0.374 OA
ATOM     80  C   UNL A   1      33.650  23.008  22.575  1.00  0.00     0.035 C 
BRANCH  74  81
ATOM     81  C   UNL A   1      32.384  25.363  26.123  1.00  0.00     0.058 C 
BRANCH  81  82
ATOM     82  C   UNL A   1      32.337  26.844  25.749  1.00  0.00    -0.036 A 
ATOM     83  C   UNL A   1      33.355  27.705  26.187  1.00  0.00     0.024 A 
ATOM     84  C   UNL A   1      31.324  27.417  24.951  1.00  0.00     0.003 A 
ATOM     85  C   UNL A   1      33.344  29.046  25.850  1.00  0.00     0.112 A 
ATOM     86  C   UNL A   1      31.466  28.776  24.568  1.00  0.00     0.070 A 
ATOM     87  C   UNL A   1      30.201  26.705  24.490  1.00  0.00     0.010 A 
ATOM     88  N   UNL A   1      32.421  29.585  25.040  1.00  0.00    -0.256 NA
ATOM     89  C   UNL A   1      30.591  29.305  23.637  1.00  0.00     0.029 A 
ATOM     90  C   UNL A   1      29.342  27.252  23.542  1.00  0.00     0.001 A 
ATOM     91  C   UNL A   1      29.556  28.545  23.092  1.00  0.00     0.002 A 
ENDBRANCH  81  82
ENDBRANCH  74  81
ENDBRANCH  72  74
ENDBRANCH  71  72
ENDBRANCH  70  71
ENDBRANCH   1  70
TORSDOF 16
ENDMDL
MODEL 3
REMARK VINA RESULT:     -12.0      5.039      7.745
REMARK SMILES O=C(OCCOC(=O)[C@@]1(Cc2ccnc3ccccc23)C[C@H]2CC[C@@H]1O2)c1ccc(-c2c3nc(c(-c4cc(S(=O)(=O)[O-])ccc4F)c4ccc([nH]4)c(-c4cc(S(=O)(=O)[O-])ccc4F)c4nc(c(-c5cc(S(=O)(=O)[O-])ccc5F)c5ccc2[nH]5)C=C4)C=C3)cc1
REMARK SMILES IDX 4 1 3 2 2 3 1 4 27 5 28 6 89 7 29 8 88 9 30 10 31 11 32 12
REMARK SMILES IDX 82 13 33 14 87 15 81 16 83 17 34 18 86 19 80 20 79 21 35 23
REMARK SMILES IDX 67 24 47 25 66 26 48 27 51 28 65 29 84 30 49 31 50 32 64 34
REMARK SMILES IDX 85 35 52 36 36 37 37 38 45 39 38 40 44 41 46 42 43 43 39 44
REMARK SMILES IDX 40 45 41 46 42 47 68 48 69 49 77 50 70 51 76 52 78 53 75 54
REMARK SMILES IDX 71 55 72 56 73 57 74 58 53 59 54 60 62 61 55 62 61 63 63 64
REMARK SMILES IDX 60 65 56 66 57 67 58 68 59 69 5 70 6 71 7 72 8 73 9 74 21 75
REMARK SMILES IDX 25 76 22 77 24 78 26 79 23 80 10 81 11 82 12 83 20 84 13 85
REMARK SMILES IDX 15 86 19 87 14 88 16 89 18 90 17 91
REMARK H PARENT 83 22 51 33
REMARK Flexibility Score: inf
ROOT
ATOM      1  C   UNL A   1      35.486  21.022  25.545  1.00  0.00     0.275 C 
ENDROOT
BRANCH   1   2
ATOM      2  O   UNL A   1      36.713  21.517  25.007  1.00  0.00    -0.458 OA
BRANCH   2   3
ATOM      3  C   UNL A   1      37.978  21.266  25.411  1.00  0.00     0.338 C 
ATOM      4  O   UNL A   1      38.416  20.132  25.216  1.00  0.00    -0.246 OA
BRANCH   3   5
ATOM      5  C   UNL A   1      38.834  22.229  26.195  1.00  0.00     0.060 A 
ATOM      6  C   UNL A   1      40.010  21.968  26.916  1.00  0.00     0.016 A 
ATOM      7  C   UNL A   1      38.451  23.569  26.082  1.00  0.00     0.016 A 
ATOM      8  C   UNL A   1      40.857  22.993  27.377  1.00  0.00     0.010 A 
ATOM      9  C   UNL A   1      39.303  24.587  26.508  1.00  0.00     0.010 A 
ATOM     10  C   UNL A   1      40.541  24.320  27.135  1.00  0.00    -0.014 A 
BRANCH  10  11
ATOM     11  C   UNL A   1      41.376  25.472  27.600  1.00  0.00     0.031 A 
ATOM     12  C   UNL A   1      40.640  26.578  28.296  1.00  0.00     0.074 A 
ATOM     13  C   UNL A   1      42.678  25.646  27.281  1.00  0.00     0.049 A 
ATOM     14  N   UNL A   1      40.980  27.824  28.478  1.00  0.00    -0.248 NA
ATOM     15  C   UNL A   1      39.281  26.241  28.752  1.00  0.00     0.031 C 
ATOM     16  C   UNL A   1      43.548  24.666  26.638  1.00  0.00     0.029 A 
ATOM     17  N   UNL A   1      43.487  26.758  27.390  1.00  0.00    -0.354 N 
ATOM     18  C   UNL A   1      39.856  28.409  29.040  1.00  0.00     0.074 A 
ATOM     19  C   UNL A   1      38.783  27.449  28.934  1.00  0.00     0.031 C 
ATOM     20  C   UNL A   1      44.713  25.246  26.294  1.00  0.00     0.029 A 
ATOM     21  C   UNL A   1      44.703  26.632  26.745  1.00  0.00     0.049 A 
ATOM     22  H   UNL A   1      43.222  27.567  27.883  1.00  0.00     0.167 HD
ATOM     23  C   UNL A   1      39.752  29.583  29.706  1.00  0.00     0.034 A 
ATOM     24  C   UNL A   1      45.693  27.529  26.547  1.00  0.00     0.034 A 
ATOM     25  C   UNL A   1      40.856  30.485  29.860  1.00  0.00     0.049 A 
ATOM     26  C   UNL A   1      45.567  28.882  27.207  1.00  0.00     0.074 A 
ATOM     27  C   UNL A   1      40.924  31.659  30.583  1.00  0.00     0.029 A 
ATOM     28  N   UNL A   1      42.101  30.299  29.270  1.00  0.00    -0.354 N 
ATOM     29  N   UNL A   1      44.540  29.386  27.854  1.00  0.00    -0.248 NA
ATOM     30  C   UNL A   1      46.747  29.756  27.178  1.00  0.00     0.031 C 
ATOM     31  C   UNL A   1      42.193  32.213  30.384  1.00  0.00     0.029 A 
ATOM     32  C   UNL A   1      42.940  31.348  29.595  1.00  0.00     0.049 A 
ATOM     33  H   UNL A   1      42.349  29.534  28.703  1.00  0.00     0.167 HD
ATOM     34  C   UNL A   1      44.979  30.600  28.377  1.00  0.00     0.074 A 
ATOM     35  C   UNL A   1      46.351  30.767  27.941  1.00  0.00     0.031 C 
ATOM     36  C   UNL A   1      44.317  31.476  29.173  1.00  0.00     0.034 A 
BRANCH  23  37
ATOM     37  C   UNL A   1      38.402  29.882  30.315  1.00  0.00     0.023 A 
ATOM     38  C   UNL A   1      37.455  30.657  29.615  1.00  0.00     0.031 A 
ATOM     39  C   UNL A   1      38.131  29.562  31.651  1.00  0.00     0.131 A 
ATOM     40  C   UNL A   1      36.392  31.250  30.308  1.00  0.00     0.055 A 
ATOM     41  C   UNL A   1      36.990  30.044  32.298  1.00  0.00     0.041 A 
ATOM     42  F   UNL A   1      38.997  28.832  32.372  1.00  0.00    -0.206 F 
ATOM     43  C   UNL A   1      36.135  30.926  31.639  1.00  0.00     0.022 A 
BRANCH  40  44
ATOM     44  S   UNL A   1      35.542  32.652  29.525  1.00  0.00     0.124 S 
ATOM     45  O   UNL A   1      35.337  32.151  28.165  1.00  0.00    -0.237 OA
ATOM     46  O   UNL A   1      34.340  32.790  30.338  1.00  0.00    -0.237 OA
ATOM     47  O   UNL A   1      36.506  33.745  29.639  1.00  0.00    -0.744 OA
ENDBRANCH  40  44
ENDBRANCH  23  37
BRANCH  24  48
ATOM     48  C   UNL A   1      46.906  27.185  25.742  1.00  0.00     0.023 A 
ATOM     49  C   UNL A   1      47.057  27.620  24.413  1.00  0.00     0.031 A 
ATOM     50  C   UNL A   1      47.918  26.369  26.279  1.00  0.00     0.131 A 
ATOM     51  C   UNL A   1      48.169  27.206  23.656  1.00  0.00     0.055 A 
ATOM     52  C   UNL A   1      49.036  25.982  25.532  1.00  0.00     0.041 A 
ATOM     53  F   UNL A   1      47.831  25.930  27.545  1.00  0.00    -0.206 F 
ATOM     54  C   UNL A   1      49.161  26.393  24.208  1.00  0.00     0.022 A 
BRANCH  51  55
ATOM     55  S   UNL A   1      48.276  27.708  21.913  1.00  0.00     0.124 S 
ATOM     56  O   UNL A   1      49.475  28.538  21.914  1.00  0.00    -0.237 OA
ATOM     57  O   UNL A   1      48.386  26.420  21.236  1.00  0.00    -0.237 OA
ATOM     58  O   UNL A   1      47.021  28.422  21.685  1.00  0.00    -0.744 OA
ENDBRANCH  51  55
ENDBRANCH  24  48
BRANCH  36  59
ATOM     59  C   UNL A   1      45.085  32.650  29.720  1.00  0.00     0.023 A 
ATOM     60  C   UNL A   1      45.099  33.897  29.080  1.00  0.00     0.031 A 
ATOM     61  C   UNL A   1      45.745  32.524  30.957  1.00  0.00     0.131 A 
ATOM     62  C   UNL A   1      45.771  34.974  29.678  1.00  0.00     0.055 A 
ATOM     63  C   UNL A   1      46.363  33.611  31.572  1.00  0.00     0.041 A 
ATOM     64  F   UNL A   1      45.764  31.348  31.606  1.00  0.00    -0.206 F 
ATOM     65  C   UNL A   1      46.380  34.845  30.930  1.00  0.00     0.022 A 
BRANCH  62  66
ATOM     66  S   UNL A   1      45.872  36.545  28.781  1.00  0.00     0.124 S 
ATOM     67  O   UNL A   1      46.824  36.227  27.722  1.00  0.00    -0.237 OA
ATOM     68  O   UNL A   1      44.491  36.755  28.357  1.00  0.00    -0.237 OA
ATOM     69  O   UNL A   1      46.358  37.485  29.790  1.00  0.00    -0.744 OA
ENDBRANCH  62  66
ENDBRANCH  36  59
ENDBRANCH  10  11
ENDBRANCH   3   5
ENDBRANCH   2   3
ENDBRANCH   1   2
BRANCH   1  70
ATOM     70  C   UNL A   1      34.985  21.809  26.762  1.00  0.00     0.274 C 
BRANCH  70  71
ATOM     71  O   UNL A   1      34.391  23.096  26.475  1.00  0.00    -0.462 OA
BRANCH  71  72
ATOM     72  C   UNL A   1      33.061  23.232  26.741  1.00  0.00     0.315 C 
ATOM     73  O   UNL A   1      32.519  22.756  27.736  1.00  0.00    -0.251 OA
BRANCH  72  74
ATOM     74  C   UNL A   1      32.287  24.010  25.671  1.00  0.00     0.101 C 
ATOM     75  C   UNL A   1      33.113  24.492  24.466  1.00  0.00     0.054 C 
ATOM     76  C   UNL A   1      31.345  23.022  24.959  1.00  0.00     0.136 C 
ATOM     77  C   UNL A   1      32.379  23.885  23.266  1.00  0.00     0.120 C 
ATOM     78  C   UNL A   1      32.059  21.810  24.338  1.00  0.00     0.036 C 
ATOM     79  O   UNL A   1      31.029  23.755  23.756  1.00  0.00    -0.374 OA
ATOM     80  C   UNL A   1      32.749  22.419  23.118  1.00  0.00     0.035 C 
BRANCH  74  81
ATOM     81  C   UNL A   1      31.554  25.202  26.368  1.00  0.00     0.058 C 
BRANCH  81  82
ATOM     82  C   UNL A   1      31.721  26.645  25.896  1.00  0.00    -0.036 A 
ATOM     83  C   UNL A   1      32.813  27.403  26.347  1.00  0.00     0.024 A 
ATOM     84  C   UNL A   1      30.840  27.280  24.995  1.00  0.00     0.003 A 
ATOM     85  C   UNL A   1      32.995  28.707  25.923  1.00  0.00     0.112 A 
ATOM     86  C   UNL A   1      31.179  28.579  24.535  1.00  0.00     0.070 A 
ATOM     87  C   UNL A   1      29.664  26.681  24.505  1.00  0.00     0.010 A 
ATOM     88  N   UNL A   1      32.200  29.296  25.019  1.00  0.00    -0.256 NA
ATOM     89  C   UNL A   1      30.437  29.143  23.514  1.00  0.00     0.029 A 
ATOM     90  C   UNL A   1      28.942  27.260  23.467  1.00  0.00     0.001 A 
ATOM     91  C   UNL A   1      29.347  28.481  22.949  1.00  0.00     0.002 A 
ENDBRANCH  81  82
ENDBRANCH  74  81
ENDBRANCH  72  74
ENDBRANCH  71  72
ENDBRANCH  70  71
ENDBRANCH   1  70
TORSDOF 16
ENDMDL
