MODEL 1
REMARK VINA RESULT:     -13.9      0.000      0.000
REMARK SMILES CC(=O)O[C@@H]1CC[C@@]23C(=O)O[C@]4(CC[C@]2(O)C1)[C@H]3CC[C@]1(C)[C@H](C(=O)OCCOC(=O)c2ccc(-c3c5nc(c(-c6cc(S(=O)(=O)[O-])ccc6F)c6ccc([nH]6)c(-c6cc(S(=O)(=O)[O-])ccc6F)c6nc(c(-c7cc(S(=O)(=O)[O-])ccc7F)c7ccc3[nH]7)C=C6)C=C5)cc2)CC[C@@H]14
REMARK SMILES IDX 28 1 27 2 26 3 24 4 25 5 23 6 5 7 6 8 17 9 7 10 15 11 8 12
REMARK SMILES IDX 14 13 9 14 18 15 13 16 10 17 11 18 12 19 19 20 97 21 20 22
REMARK SMILES IDX 21 23 96 24 22 25 95 26 4 27 2 28 1 29 3 30 16 31 29 33
REMARK SMILES IDX 30 34 31 35 32 36 33 37 94 38 34 39 93 40 35 41 36 42 37 43
REMARK SMILES IDX 87 44 38 45 92 46 86 47 88 48 39 49 91 50 85 51 84 52 40 54
REMARK SMILES IDX 72 55 52 56 71 57 53 58 56 59 70 60 89 61 54 62 55 63 69 65
REMARK SMILES IDX 90 66 57 67 41 68 42 69 50 70 43 71 49 72 51 73 48 74 44 75
REMARK SMILES IDX 45 76 46 77 47 78 73 79 74 80 82 81 75 82 81 83 83 84 80 85
REMARK SMILES IDX 76 86 77 87 78 88 79 89 58 90 59 91 67 92 60 93 66 94 68 95
REMARK SMILES IDX 65 96 61 97 62 98 63 99 64 100
REMARK H PARENT 16 32 88 53 56 64
REMARK Flexibility Score: inf
ROOT
ATOM      1  C   UNL A   1      36.279  21.082  25.725  1.00  0.00     0.275 C 
ENDROOT
BRANCH   1   2
ATOM      2  C   UNL A   1      35.472  20.076  24.911  1.00  0.00     0.274 C 
BRANCH   2   3
ATOM      3  O   UNL A   1      34.111  20.078  25.372  1.00  0.00    -0.462 OA
BRANCH   3   4
ATOM      4  C   UNL A   1      33.291  20.974  24.772  1.00  0.00     0.309 C 
ATOM      5  O   UNL A   1      33.028  20.968  23.573  1.00  0.00    -0.252 OA
BRANCH   4   6
ATOM      6  C   UNL A   1      32.585  21.898  25.751  1.00  0.00     0.105 C 
ATOM      7  C   UNL A   1      30.757  29.076  22.697  1.00  0.00     0.179 C 
ATOM      8  C   UNL A   1      30.701  27.662  22.168  1.00  0.00     0.047 C 
ATOM      9  C   UNL A   1      32.120  29.313  23.358  1.00  0.00     0.081 C 
ATOM     10  C   UNL A   1      31.102  26.657  23.226  1.00  0.00     0.026 C 
ATOM     11  C   UNL A   1      32.597  28.257  24.384  1.00  0.00     0.085 C 
ATOM     12  C   UNL A   1      32.662  26.860  23.877  1.00  0.00     0.103 C 
ATOM     13  C   UNL A   1      31.630  28.110  25.651  1.00  0.00     0.041 C 
ATOM     14  C   UNL A   1      33.019  25.556  23.350  1.00  0.00     0.316 C 
ATOM     15  C   UNL A   1      33.339  26.156  25.366  1.00  0.00     0.054 C 
ATOM     16  C   UNL A   1      31.193  26.582  26.065  1.00  0.00     0.052 C 
ATOM     17  O   UNL A   1      33.601  25.225  22.342  1.00  0.00    -0.251 OA
ATOM     18  O   UNL A   1      32.212  24.769  24.204  1.00  0.00    -0.458 OA
ATOM     19  C   UNL A   1      32.128  25.374  25.555  1.00  0.00     0.120 C 
ATOM     20  C   UNL A   1      34.624  25.289  25.478  1.00  0.00     0.009 C 
ATOM     21  C   UNL A   1      32.036  24.186  26.480  1.00  0.00     0.040 C 
ATOM     22  C   UNL A   1      34.420  23.760  25.484  1.00  0.00     0.008 C 
ATOM     23  C   UNL A   1      33.234  23.199  26.330  1.00  0.00    -0.013 C 
ATOM     24  C   UNL A   1      30.765  23.387  26.103  1.00  0.00     0.009 C 
ATOM     25  C   UNL A   1      33.730  22.893  27.766  1.00  0.00     0.013 C 
ATOM     26  C   UNL A   1      31.241  22.308  25.154  1.00  0.00     0.016 C 
BRANCH   7  27
ATOM     27  O   UNL A   1      29.712  29.556  23.587  1.00  0.00    -0.462 OA
BRANCH  27  28
ATOM     28  C   UNL A   1      28.459  29.947  23.235  1.00  0.00     0.302 C 
ATOM     29  C   UNL A   1      28.277  31.402  23.554  1.00  0.00     0.139 C 
ATOM     30  O   UNL A   1      27.572  29.250  22.772  1.00  0.00    -0.253 OA
ENDBRANCH  27  28
ENDBRANCH   7  27
BRANCH  11  31
ATOM     31  O   UNL A   1      33.906  28.691  24.778  1.00  0.00    -0.389 OA
ATOM     32  H   UNL A   1      34.531  28.533  24.053  1.00  0.00     0.211 HD
ENDBRANCH  11  31
ENDBRANCH   4   6
ENDBRANCH   3   4
ENDBRANCH   2   3
ENDBRANCH   1   2
BRANCH   1  33
ATOM     33  O   UNL A   1      37.481  21.450  25.019  1.00  0.00    -0.458 OA
BRANCH  33  34
ATOM     34  C   UNL A   1      38.628  21.127  25.659  1.00  0.00     0.338 C 
ATOM     35  O   UNL A   1      39.154  20.028  25.720  1.00  0.00    -0.246 OA
BRANCH  34  36
ATOM     36  C   UNL A   1      39.212  22.306  26.315  1.00  0.00     0.060 A 
ATOM     37  C   UNL A   1      38.672  23.572  26.095  1.00  0.00     0.016 A 
ATOM     38  C   UNL A   1      40.415  22.169  27.002  1.00  0.00     0.016 A 
ATOM     39  C   UNL A   1      39.406  24.707  26.426  1.00  0.00     0.010 A 
ATOM     40  C   UNL A   1      41.073  23.310  27.468  1.00  0.00     0.010 A 
ATOM     41  C   UNL A   1      40.601  24.596  27.150  1.00  0.00    -0.014 A 
BRANCH  41  42
ATOM     42  C   UNL A   1      41.351  25.810  27.583  1.00  0.00     0.031 A 
ATOM     43  C   UNL A   1      40.682  26.852  28.443  1.00  0.00     0.074 A 
ATOM     44  C   UNL A   1      42.625  25.991  27.180  1.00  0.00     0.049 A 
ATOM     45  N   UNL A   1      41.081  28.061  28.744  1.00  0.00    -0.248 NA
ATOM     46  C   UNL A   1      39.379  26.490  29.022  1.00  0.00     0.031 C 
ATOM     47  C   UNL A   1      43.407  25.045  26.380  1.00  0.00     0.029 A 
ATOM     48  N   UNL A   1      43.489  27.040  27.380  1.00  0.00    -0.354 N 
ATOM     49  C   UNL A   1      40.061  28.622  29.507  1.00  0.00     0.074 A 
ATOM     50  C   UNL A   1      39.015  27.625  29.600  1.00  0.00     0.031 C 
ATOM     51  C   UNL A   1      44.636  25.539  26.182  1.00  0.00     0.029 A 
ATOM     52  C   UNL A   1      44.701  26.880  26.745  1.00  0.00     0.049 A 
ATOM     53  H   UNL A   1      43.265  27.829  27.923  1.00  0.00     0.167 HD
ATOM     54  C   UNL A   1      40.007  29.854  30.075  1.00  0.00     0.034 A 
ATOM     55  C   UNL A   1      45.729  27.734  26.580  1.00  0.00     0.034 A 
ATOM     56  C   UNL A   1      41.074  30.825  29.986  1.00  0.00     0.049 A 
ATOM     57  C   UNL A   1      45.622  29.117  27.164  1.00  0.00     0.074 A 
ATOM     58  C   UNL A   1      41.133  32.096  30.532  1.00  0.00     0.029 A 
ATOM     59  N   UNL A   1      42.274  30.632  29.310  1.00  0.00    -0.354 N 
ATOM     60  N   UNL A   1      44.634  29.651  27.844  1.00  0.00    -0.248 NA
ATOM     61  C   UNL A   1      46.765  30.011  26.954  1.00  0.00     0.031 C 
ATOM     62  C   UNL A   1      42.333  32.694  30.131  1.00  0.00     0.029 A 
ATOM     63  C   UNL A   1      43.064  31.768  29.402  1.00  0.00     0.049 A 
ATOM     64  H   UNL A   1      42.526  29.807  28.835  1.00  0.00     0.167 HD
ATOM     65  C   UNL A   1      45.049  30.940  28.162  1.00  0.00     0.074 A 
ATOM     66  C   UNL A   1      46.384  31.091  27.618  1.00  0.00     0.031 C 
ATOM     67  C   UNL A   1      44.388  31.911  28.843  1.00  0.00     0.034 A 
BRANCH  54  68
ATOM     68  C   UNL A   1      38.730  30.239  30.788  1.00  0.00     0.023 A 
ATOM     69  C   UNL A   1      37.672  30.890  30.129  1.00  0.00     0.031 A 
ATOM     70  C   UNL A   1      38.581  29.976  32.163  1.00  0.00     0.131 A 
ATOM     71  C   UNL A   1      36.551  31.321  30.856  1.00  0.00     0.055 A 
ATOM     72  C   UNL A   1      37.427  30.333  32.863  1.00  0.00     0.041 A 
ATOM     73  F   UNL A   1      39.563  29.376  32.853  1.00  0.00    -0.206 F 
ATOM     74  C   UNL A   1      36.410  31.025  32.213  1.00  0.00     0.022 A 
BRANCH  71  75
ATOM     75  S   UNL A   1      35.348  32.403  30.036  1.00  0.00     0.124 S 
ATOM     76  O   UNL A   1      36.182  33.542  29.658  1.00  0.00    -0.237 OA
ATOM     77  O   UNL A   1      34.871  31.571  28.938  1.00  0.00    -0.237 OA
ATOM     78  O   UNL A   1      34.365  32.680  31.082  1.00  0.00    -0.744 OA
ENDBRANCH  71  75
ENDBRANCH  54  68
BRANCH  55  79
ATOM     79  C   UNL A   1      46.919  27.330  25.775  1.00  0.00     0.023 A 
ATOM     80  C   UNL A   1      47.078  27.765  24.450  1.00  0.00     0.031 A 
ATOM     81  C   UNL A   1      47.900  26.476  26.312  1.00  0.00     0.131 A 
ATOM     82  C   UNL A   1      48.170  27.312  23.694  1.00  0.00     0.055 A 
ATOM     83  C   UNL A   1      49.017  26.078  25.575  1.00  0.00     0.041 A 
ATOM     84  F   UNL A   1      47.798  26.030  27.573  1.00  0.00    -0.206 F 
ATOM     85  C   UNL A   1      49.149  26.486  24.252  1.00  0.00     0.022 A 
BRANCH  82  86
ATOM     86  S   UNL A   1      48.246  27.748  21.936  1.00  0.00     0.124 S 
ATOM     87  O   UNL A   1      49.391  28.652  21.904  1.00  0.00    -0.237 OA
ATOM     88  O   UNL A   1      48.440  26.446  21.308  1.00  0.00    -0.237 OA
ATOM     89  O   UNL A   1      46.950  28.374  21.683  1.00  0.00    -0.744 OA
ENDBRANCH  82  86
ENDBRANCH  55  79
BRANCH  67  90
ATOM     90  C   UNL A   1      45.133  33.203  29.074  1.00  0.00     0.023 A 
ATOM     91  C   UNL A   1      44.992  34.305  28.212  1.00  0.00     0.031 A 
ATOM     92  C   UNL A   1      46.022  33.319  30.157  1.00  0.00     0.131 A 
ATOM     93  C   UNL A   1      45.777  35.451  28.409  1.00  0.00     0.055 A 
ATOM     94  C   UNL A   1      46.753  34.486  30.385  1.00  0.00     0.041 A 
ATOM     95  F   UNL A   1      46.201  32.297  31.010  1.00  0.00    -0.206 F 
ATOM     96  C   UNL A   1      46.644  35.554  29.500  1.00  0.00     0.022 A 
BRANCH  93  97
ATOM     97  S   UNL A   1      45.731  36.763  27.158  1.00  0.00     0.124 S 
ATOM     98  O   UNL A   1      46.516  36.179  26.075  1.00  0.00    -0.237 OA
ATOM     99  O   UNL A   1      44.301  36.904  26.906  1.00  0.00    -0.237 OA
ATOM    100  O   UNL A   1      46.356  37.901  27.831  1.00  0.00    -0.744 OA
ENDBRANCH  93  97
ENDBRANCH  67  90
ENDBRANCH  41  42
ENDBRANCH  34  36
ENDBRANCH  33  34
ENDBRANCH   1  33
TORSDOF 17
ENDMDL
MODEL 2
REMARK VINA RESULT:     -13.7      4.834     10.148
REMARK SMILES CC(=O)O[C@@H]1CC[C@@]23C(=O)O[C@]4(CC[C@]2(O)C1)[C@H]3CC[C@]1(C)[C@H](C(=O)OCCOC(=O)c2ccc(-c3c5nc(c(-c6cc(S(=O)(=O)[O-])ccc6F)c6ccc([nH]6)c(-c6cc(S(=O)(=O)[O-])ccc6F)c6nc(c(-c7cc(S(=O)(=O)[O-])ccc7F)c7ccc3[nH]7)C=C6)C=C5)cc2)CC[C@@H]14
REMARK SMILES IDX 28 1 27 2 26 3 24 4 25 5 23 6 5 7 6 8 17 9 7 10 15 11 8 12
REMARK SMILES IDX 14 13 9 14 18 15 13 16 10 17 11 18 12 19 19 20 97 21 20 22
REMARK SMILES IDX 21 23 96 24 22 25 95 26 4 27 2 28 1 29 3 30 16 31 29 33
REMARK SMILES IDX 30 34 31 35 32 36 33 37 94 38 34 39 93 40 35 41 36 42 37 43
REMARK SMILES IDX 87 44 38 45 92 46 86 47 88 48 39 49 91 50 85 51 84 52 40 54
REMARK SMILES IDX 72 55 52 56 71 57 53 58 56 59 70 60 89 61 54 62 55 63 69 65
REMARK SMILES IDX 90 66 57 67 41 68 42 69 50 70 43 71 49 72 51 73 48 74 44 75
REMARK SMILES IDX 45 76 46 77 47 78 73 79 74 80 82 81 75 82 81 83 83 84 80 85
REMARK SMILES IDX 76 86 77 87 78 88 79 89 58 90 59 91 67 92 60 93 66 94 68 95
REMARK SMILES IDX 65 96 61 97 62 98 63 99 64 100
REMARK H PARENT 16 32 88 53 56 64
REMARK Flexibility Score: inf
ROOT
ATOM      1  C   UNL A   1      32.456  30.090  25.441  1.00  0.00     0.275 C 
ENDROOT
BRANCH   1   2
ATOM      2  C   UNL A   1      31.021  29.826  24.997  1.00  0.00     0.274 C 
BRANCH   2   3
ATOM      3  O   UNL A   1      31.024  29.384  23.629  1.00  0.00    -0.462 OA
BRANCH   3   4
ATOM      4  C   UNL A   1      30.789  28.064  23.441  1.00  0.00     0.309 C 
ATOM      5  O   UNL A   1      29.725  27.511  23.703  1.00  0.00    -0.252 OA
BRANCH   4   6
ATOM      6  C   UNL A   1      31.916  27.347  22.715  1.00  0.00     0.105 C 
ATOM      7  C   UNL A   1      33.283  19.913  25.372  1.00  0.00     0.179 C 
ATOM      8  C   UNL A   1      32.036  20.721  25.099  1.00  0.00     0.047 C 
ATOM      9  C   UNL A   1      34.265  20.763  26.188  1.00  0.00     0.081 C 
ATOM     10  C   UNL A   1      32.369  22.079  24.519  1.00  0.00     0.026 C 
ATOM     11  C   UNL A   1      34.562  22.190  25.666  1.00  0.00     0.085 C 
ATOM     12  C   UNL A   1      33.370  23.062  25.483  1.00  0.00     0.103 C 
ATOM     13  C   UNL A   1      35.225  22.216  24.209  1.00  0.00     0.041 C 
ATOM     14  C   UNL A   1      32.288  24.025  25.571  1.00  0.00     0.316 C 
ATOM     15  C   UNL A   1      34.279  24.517  25.006  1.00  0.00     0.054 C 
ATOM     16  C   UNL A   1      34.551  23.239  23.116  1.00  0.00     0.052 C 
ATOM     17  O   UNL A   1      31.454  24.225  26.424  1.00  0.00    -0.251 OA
ATOM     18  O   UNL A   1      32.297  24.458  24.224  1.00  0.00    -0.458 OA
ATOM     19  C   UNL A   1      33.677  24.468  23.683  1.00  0.00     0.120 C 
ATOM     20  C   UNL A   1      34.173  25.926  25.650  1.00  0.00     0.009 C 
ATOM     21  C   UNL A   1      33.682  25.629  22.720  1.00  0.00     0.040 C 
ATOM     22  C   UNL A   1      33.238  26.932  24.948  1.00  0.00     0.008 C 
ATOM     23  C   UNL A   1      33.280  26.980  23.388  1.00  0.00    -0.013 C 
ATOM     24  C   UNL A   1      32.615  25.348  21.634  1.00  0.00     0.009 C 
ATOM     25  C   UNL A   1      34.336  28.021  22.937  1.00  0.00     0.013 C 
ATOM     26  C   UNL A   1      31.366  26.058  22.110  1.00  0.00     0.016 C 
BRANCH   7  27
ATOM     27  O   UNL A   1      34.001  19.296  24.268  1.00  0.00    -0.462 OA
BRANCH  27  28
ATOM     28  C   UNL A   1      34.262  17.972  24.106  1.00  0.00     0.302 C 
ATOM     29  C   UNL A   1      33.239  17.365  23.191  1.00  0.00     0.139 C 
ATOM     30  O   UNL A   1      35.149  17.325  24.636  1.00  0.00    -0.253 OA
ENDBRANCH  27  28
ENDBRANCH   7  27
BRANCH  11  31
ATOM     31  O   UNL A   1      35.437  22.766  26.646  1.00  0.00    -0.389 OA
ATOM     32  H   UNL A   1      35.344  22.288  27.484  1.00  0.00     0.211 HD
ENDBRANCH  11  31
ENDBRANCH   4   6
ENDBRANCH   3   4
ENDBRANCH   2   3
ENDBRANCH   1   2
BRANCH   1  33
ATOM     33  O   UNL A   1      32.512  30.281  26.869  1.00  0.00    -0.458 OA
BRANCH  33  34
ATOM     34  C   UNL A   1      33.170  31.397  27.260  1.00  0.00     0.338 C 
ATOM     35  O   UNL A   1      32.744  32.540  27.265  1.00  0.00    -0.246 OA
BRANCH  34  36
ATOM     36  C   UNL A   1      34.534  31.073  27.705  1.00  0.00     0.060 A 
ATOM     37  C   UNL A   1      34.881  29.757  28.005  1.00  0.00     0.016 A 
ATOM     38  C   UNL A   1      35.411  32.112  28.000  1.00  0.00     0.016 A 
ATOM     39  C   UNL A   1      36.035  29.493  28.735  1.00  0.00     0.010 A 
ATOM     40  C   UNL A   1      36.641  31.824  28.598  1.00  0.00     0.010 A 
ATOM     41  C   UNL A   1      36.951  30.516  29.013  1.00  0.00    -0.014 A 
BRANCH  41  42
ATOM     42  C   UNL A   1      38.231  30.228  29.722  1.00  0.00     0.031 A 
ATOM     43  C   UNL A   1      39.233  29.272  29.126  1.00  0.00     0.074 A 
ATOM     44  C   UNL A   1      38.482  30.803  30.916  1.00  0.00     0.049 A 
ATOM     45  N   UNL A   1      40.290  28.730  29.674  1.00  0.00    -0.248 NA
ATOM     46  C   UNL A   1      39.000  28.856  27.735  1.00  0.00     0.031 C 
ATOM     47  C   UNL A   1      37.618  31.778  31.588  1.00  0.00     0.029 A 
ATOM     48  N   UNL A   1      39.534  30.646  31.785  1.00  0.00    -0.354 N 
ATOM     49  C   UNL A   1      40.822  27.872  28.714  1.00  0.00     0.074 A 
ATOM     50  C   UNL A   1      39.953  27.953  27.559  1.00  0.00     0.031 C 
ATOM     51  C   UNL A   1      38.185  32.151  32.743  1.00  0.00     0.029 A 
ATOM     52  C   UNL A   1      39.395  31.368  32.949  1.00  0.00     0.049 A 
ATOM     53  H   UNL A   1      40.311  30.074  31.595  1.00  0.00     0.167 HD
ATOM     54  C   UNL A   1      41.931  27.094  28.794  1.00  0.00     0.034 A 
ATOM     55  C   UNL A   1      40.122  31.362  34.084  1.00  0.00     0.034 A 
ATOM     56  C   UNL A   1      42.796  27.048  29.952  1.00  0.00     0.049 A 
ATOM     57  C   UNL A   1      41.311  30.444  34.174  1.00  0.00     0.074 A 
ATOM     58  C   UNL A   1      43.951  26.307  30.138  1.00  0.00     0.029 A 
ATOM     59  N   UNL A   1      42.603  27.775  31.121  1.00  0.00    -0.354 N 
ATOM     60  N   UNL A   1      41.777  29.605  33.278  1.00  0.00    -0.248 NA
ATOM     61  C   UNL A   1      42.069  30.470  35.430  1.00  0.00     0.031 C 
ATOM     62  C   UNL A   1      44.416  26.534  31.438  1.00  0.00     0.029 A 
ATOM     63  C   UNL A   1      43.600  27.479  32.039  1.00  0.00     0.049 A 
ATOM     64  H   UNL A   1      41.865  28.408  31.275  1.00  0.00     0.167 HD
ATOM     65  C   UNL A   1      42.898  29.020  33.856  1.00  0.00     0.074 A 
ATOM     66  C   UNL A   1      43.048  29.619  35.167  1.00  0.00     0.031 C 
ATOM     67  C   UNL A   1      43.730  28.073  33.350  1.00  0.00     0.034 A 
BRANCH  54  68
ATOM     68  C   UNL A   1      42.235  26.188  27.622  1.00  0.00     0.023 A 
ATOM     69  C   UNL A   1      41.778  24.860  27.566  1.00  0.00     0.031 A 
ATOM     70  C   UNL A   1      43.023  26.655  26.553  1.00  0.00     0.131 A 
ATOM     71  C   UNL A   1      42.173  24.026  26.507  1.00  0.00     0.055 A 
ATOM     72  C   UNL A   1      43.344  25.845  25.462  1.00  0.00     0.041 A 
ATOM     73  F   UNL A   1      43.507  27.907  26.558  1.00  0.00    -0.206 F 
ATOM     74  C   UNL A   1      42.932  24.517  25.442  1.00  0.00     0.022 A 
BRANCH  71  75
ATOM     75  S   UNL A   1      41.806  22.252  26.615  1.00  0.00     0.124 S 
ATOM     76  O   UNL A   1      42.284  21.771  25.321  1.00  0.00    -0.237 OA
ATOM     77  O   UNL A   1      42.585  21.839  27.776  1.00  0.00    -0.237 OA
ATOM     78  O   UNL A   1      40.356  22.211  26.790  1.00  0.00    -0.744 OA
ENDBRANCH  71  75
ENDBRANCH  54  68
BRANCH  55  79
ATOM     79  C   UNL A   1      39.709  32.201  35.245  1.00  0.00     0.023 A 
ATOM     80  C   UNL A   1      38.919  31.672  36.277  1.00  0.00     0.031 A 
ATOM     81  C   UNL A   1      40.075  33.558  35.324  1.00  0.00     0.131 A 
ATOM     82  C   UNL A   1      38.486  32.503  37.321  1.00  0.00     0.055 A 
ATOM     83  C   UNL A   1      39.693  34.365  36.398  1.00  0.00     0.041 A 
ATOM     84  F   UNL A   1      40.830  34.116  34.365  1.00  0.00    -0.206 F 
ATOM     85  C   UNL A   1      38.881  33.841  37.398  1.00  0.00     0.022 A 
BRANCH  82  86
ATOM     86  S   UNL A   1      37.320  31.831  38.537  1.00  0.00     0.124 S 
ATOM     87  O   UNL A   1      36.174  32.718  38.370  1.00  0.00    -0.237 OA
ATOM     88  O   UNL A   1      37.146  30.461  38.065  1.00  0.00    -0.237 OA
ATOM     89  O   UNL A   1      38.034  31.966  39.804  1.00  0.00    -0.744 OA
ENDBRANCH  82  86
ENDBRANCH  55  79
BRANCH  67  90
ATOM     90  C   UNL A   1      44.903  27.672  34.210  1.00  0.00     0.023 A 
ATOM     91  C   UNL A   1      44.831  26.592  35.106  1.00  0.00     0.031 A 
ATOM     92  C   UNL A   1      46.102  28.406  34.153  1.00  0.00     0.131 A 
ATOM     93  C   UNL A   1      45.912  26.315  35.956  1.00  0.00     0.055 A 
ATOM     94  C   UNL A   1      47.197  28.086  34.956  1.00  0.00     0.041 A 
ATOM     95  F   UNL A   1      46.226  29.451  33.319  1.00  0.00    -0.206 F 
ATOM     96  C   UNL A   1      47.101  27.045  35.875  1.00  0.00     0.022 A 
BRANCH  93  97
ATOM     97  S   UNL A   1      45.706  25.058  37.247  1.00  0.00     0.124 S 
ATOM     98  O   UNL A   1      47.075  24.590  37.438  1.00  0.00    -0.237 OA
ATOM     99  O   UNL A   1      45.135  25.830  38.346  1.00  0.00    -0.237 OA
ATOM    100  O   UNL A   1      44.799  24.086  36.638  1.00  0.00    -0.744 OA
ENDBRANCH  93  97
ENDBRANCH  67  90
ENDBRANCH  41  42
ENDBRANCH  34  36
ENDBRANCH  33  34
ENDBRANCH   1  33
TORSDOF 17
ENDMDL
MODEL 3
REMARK VINA RESULT:     -13.7      1.405      1.631
REMARK SMILES CC(=O)O[C@@H]1CC[C@@]23C(=O)O[C@]4(CC[C@]2(O)C1)[C@H]3CC[C@]1(C)[C@H](C(=O)OCCOC(=O)c2ccc(-c3c5nc(c(-c6cc(S(=O)(=O)[O-])ccc6F)c6ccc([nH]6)c(-c6cc(S(=O)(=O)[O-])ccc6F)c6nc(c(-c7cc(S(=O)(=O)[O-])ccc7F)c7ccc3[nH]7)C=C6)C=C5)cc2)CC[C@@H]14
REMARK SMILES IDX 28 1 27 2 26 3 24 4 25 5 23 6 5 7 6 8 17 9 7 10 15 11 8 12
REMARK SMILES IDX 14 13 9 14 18 15 13 16 10 17 11 18 12 19 19 20 97 21 20 22
REMARK SMILES IDX 21 23 96 24 22 25 95 26 4 27 2 28 1 29 3 30 16 31 29 33
REMARK SMILES IDX 30 34 31 35 32 36 33 37 94 38 34 39 93 40 35 41 36 42 37 43
REMARK SMILES IDX 87 44 38 45 92 46 86 47 88 48 39 49 91 50 85 51 84 52 40 54
REMARK SMILES IDX 72 55 52 56 71 57 53 58 56 59 70 60 89 61 54 62 55 63 69 65
REMARK SMILES IDX 90 66 57 67 41 68 42 69 50 70 43 71 49 72 51 73 48 74 44 75
REMARK SMILES IDX 45 76 46 77 47 78 73 79 74 80 82 81 75 82 81 83 83 84 80 85
REMARK SMILES IDX 76 86 77 87 78 88 79 89 58 90 59 91 67 92 60 93 66 94 68 95
REMARK SMILES IDX 65 96 61 97 62 98 63 99 64 100
REMARK H PARENT 16 32 88 53 56 64
REMARK Flexibility Score: inf
ROOT
ATOM      1  C   UNL A   1      36.611  20.070  25.043  1.00  0.00     0.275 C 
ENDROOT
BRANCH   1   2
ATOM      2  C   UNL A   1      35.262  20.443  24.438  1.00  0.00     0.274 C 
BRANCH   2   3
ATOM      3  O   UNL A   1      34.253  20.385  25.460  1.00  0.00    -0.462 OA
BRANCH   3   4
ATOM      4  C   UNL A   1      33.038  20.870  25.111  1.00  0.00     0.309 C 
ATOM      5  O   UNL A   1      32.372  20.444  24.171  1.00  0.00    -0.252 OA
BRANCH   4   6
ATOM      6  C   UNL A   1      32.488  21.890  26.094  1.00  0.00     0.105 C 
ATOM      7  C   UNL A   1      30.783  28.990  22.797  1.00  0.00     0.179 C 
ATOM      8  C   UNL A   1      30.592  27.556  22.364  1.00  0.00     0.047 C 
ATOM      9  C   UNL A   1      32.216  29.177  23.308  1.00  0.00     0.081 C 
ATOM     10  C   UNL A   1      31.038  26.587  23.438  1.00  0.00     0.026 C 
ATOM     11  C   UNL A   1      32.732  28.150  24.346  1.00  0.00     0.085 C 
ATOM     12  C   UNL A   1      32.665  26.726  23.921  1.00  0.00     0.103 C 
ATOM     13  C   UNL A   1      31.890  28.136  25.707  1.00  0.00     0.041 C 
ATOM     14  C   UNL A   1      32.891  25.375  23.443  1.00  0.00     0.316 C 
ATOM     15  C   UNL A   1      33.446  26.064  25.378  1.00  0.00     0.054 C 
ATOM     16  C   UNL A   1      31.409  26.664  26.254  1.00  0.00     0.052 C 
ATOM     17  O   UNL A   1      33.348  24.952  22.406  1.00  0.00    -0.251 OA
ATOM     18  O   UNL A   1      32.129  24.689  24.418  1.00  0.00    -0.458 OA
ATOM     19  C   UNL A   1      32.216  25.372  25.731  1.00  0.00     0.120 C 
ATOM     20  C   UNL A   1      34.683  25.125  25.419  1.00  0.00     0.009 C 
ATOM     21  C   UNL A   1      32.149  24.245  26.732  1.00  0.00     0.040 C 
ATOM     22  C   UNL A   1      34.393  23.614  25.538  1.00  0.00     0.008 C 
ATOM     23  C   UNL A   1      33.267  23.177  26.527  1.00  0.00    -0.013 C 
ATOM     24  C   UNL A   1      30.803  23.510  26.528  1.00  0.00     0.009 C 
ATOM     25  C   UNL A   1      33.886  22.920  27.925  1.00  0.00     0.013 C 
ATOM     26  C   UNL A   1      31.118  22.351  25.606  1.00  0.00     0.016 C 
BRANCH   7  27
ATOM     27  O   UNL A   1      29.862  29.585  23.754  1.00  0.00    -0.462 OA
BRANCH  27  28
ATOM     28  C   UNL A   1      28.955  30.566  23.508  1.00  0.00     0.302 C 
ATOM     29  C   UNL A   1      27.741  29.977  22.849  1.00  0.00     0.139 C 
ATOM     30  O   UNL A   1      29.080  31.759  23.728  1.00  0.00    -0.253 OA
ENDBRANCH  27  28
ENDBRANCH   7  27
BRANCH  11  31
ATOM     31  O   UNL A   1      34.097  28.521  24.583  1.00  0.00    -0.389 OA
ATOM     32  H   UNL A   1      34.225  29.453  24.349  1.00  0.00     0.211 HD
ENDBRANCH  11  31
ENDBRANCH   4   6
ENDBRANCH   3   4
ENDBRANCH   2   3
ENDBRANCH   1   2
BRANCH   1  33
ATOM     33  O   UNL A   1      37.316  21.255  25.465  1.00  0.00    -0.458 OA
BRANCH  33  34
ATOM     34  C   UNL A   1      38.602  21.042  25.829  1.00  0.00     0.338 C 
ATOM     35  O   UNL A   1      39.253  20.023  25.673  1.00  0.00    -0.246 OA
BRANCH  34  36
ATOM     36  C   UNL A   1      39.169  22.236  26.472  1.00  0.00     0.060 A 
ATOM     37  C   UNL A   1      38.689  23.504  26.148  1.00  0.00     0.016 A 
ATOM     38  C   UNL A   1      40.309  22.100  27.260  1.00  0.00     0.016 A 
ATOM     39  C   UNL A   1      39.430  24.634  26.483  1.00  0.00     0.010 A 
ATOM     40  C   UNL A   1      40.964  23.244  27.722  1.00  0.00     0.010 A 
ATOM     41  C   UNL A   1      40.560  24.525  27.305  1.00  0.00    -0.014 A 
BRANCH  41  42
ATOM     42  C   UNL A   1      41.311  25.738  27.738  1.00  0.00     0.031 A 
ATOM     43  C   UNL A   1      40.627  26.810  28.548  1.00  0.00     0.074 A 
ATOM     44  C   UNL A   1      42.603  25.892  27.379  1.00  0.00     0.049 A 
ATOM     45  N   UNL A   1      41.033  28.019  28.836  1.00  0.00    -0.248 NA
ATOM     46  C   UNL A   1      39.298  26.480  29.086  1.00  0.00     0.031 C 
ATOM     47  C   UNL A   1      43.399  24.916  26.631  1.00  0.00     0.029 A 
ATOM     48  N   UNL A   1      43.475  26.933  27.587  1.00  0.00    -0.354 N 
ATOM     49  C   UNL A   1      39.994  28.613  29.548  1.00  0.00     0.074 A 
ATOM     50  C   UNL A   1      38.930  27.633  29.624  1.00  0.00     0.031 C 
ATOM     51  C   UNL A   1      44.642  25.388  26.468  1.00  0.00     0.029 A 
ATOM     52  C   UNL A   1      44.706  26.741  27.002  1.00  0.00     0.049 A 
ATOM     53  H   UNL A   1      43.242  27.738  28.103  1.00  0.00     0.167 HD
ATOM     54  C   UNL A   1      39.937  29.859  30.085  1.00  0.00     0.034 A 
ATOM     55  C   UNL A   1      45.753  27.576  26.856  1.00  0.00     0.034 A 
ATOM     56  C   UNL A   1      41.022  30.811  30.014  1.00  0.00     0.049 A 
ATOM     57  C   UNL A   1      45.645  28.973  27.404  1.00  0.00     0.074 A 
ATOM     58  C   UNL A   1      41.079  32.095  30.532  1.00  0.00     0.029 A 
ATOM     59  N   UNL A   1      42.243  30.586  29.388  1.00  0.00    -0.354 N 
ATOM     60  N   UNL A   1      44.640  29.537  28.034  1.00  0.00    -0.248 NA
ATOM     61  C   UNL A   1      46.809  29.846  27.217  1.00  0.00     0.031 C 
ATOM     62  C   UNL A   1      42.302  32.665  30.163  1.00  0.00     0.029 A 
ATOM     63  C   UNL A   1      43.046  31.713  29.484  1.00  0.00     0.049 A 
ATOM     64  H   UNL A   1      42.500  29.747  28.942  1.00  0.00     0.167 HD
ATOM     65  C   UNL A   1      45.063  30.827  28.338  1.00  0.00     0.074 A 
ATOM     66  C   UNL A   1      46.420  30.946  27.842  1.00  0.00     0.031 C 
ATOM     67  C   UNL A   1      44.392  31.823  28.972  1.00  0.00     0.034 A 
BRANCH  54  68
ATOM     68  C   UNL A   1      38.640  30.278  30.740  1.00  0.00     0.023 A 
ATOM     69  C   UNL A   1      37.614  30.919  30.024  1.00  0.00     0.031 A 
ATOM     70  C   UNL A   1      38.441  30.060  32.117  1.00  0.00     0.131 A 
ATOM     71  C   UNL A   1      36.472  31.383  30.698  1.00  0.00     0.055 A 
ATOM     72  C   UNL A   1      37.268  30.451  32.765  1.00  0.00     0.041 A 
ATOM     73  F   UNL A   1      39.392  29.473  32.860  1.00  0.00    -0.206 F 
ATOM     74  C   UNL A   1      36.282  31.131  32.059  1.00  0.00     0.022 A 
BRANCH  71  75
ATOM     75  S   UNL A   1      35.310  32.451  29.803  1.00  0.00     0.124 S 
ATOM     76  O   UNL A   1      36.179  33.549  29.384  1.00  0.00    -0.237 OA
ATOM     77  O   UNL A   1      34.831  31.575  28.740  1.00  0.00    -0.237 OA
ATOM     78  O   UNL A   1      34.318  32.803  30.816  1.00  0.00    -0.744 OA
ENDBRANCH  71  75
ENDBRANCH  54  68
BRANCH  55  79
ATOM     79  C   UNL A   1      46.966  27.136  26.106  1.00  0.00     0.023 A 
ATOM     80  C   UNL A   1      48.026  26.489  26.759  1.00  0.00     0.031 A 
ATOM     81  C   UNL A   1      47.094  27.386  24.727  1.00  0.00     0.131 A 
ATOM     82  C   UNL A   1      49.184  26.151  26.043  1.00  0.00     0.055 A 
ATOM     83  C   UNL A   1      48.222  26.992  24.007  1.00  0.00     0.041 A 
ATOM     84  F   UNL A   1      46.110  28.002  24.053  1.00  0.00    -0.206 F 
ATOM     85  C   UNL A   1      49.283  26.382  24.668  1.00  0.00     0.022 A 
BRANCH  82  86
ATOM     86  S   UNL A   1      50.602  25.481  26.954  1.00  0.00     0.124 S 
ATOM     87  O   UNL A   1      50.976  26.613  27.794  1.00  0.00    -0.237 OA
ATOM     88  O   UNL A   1      50.008  24.340  27.642  1.00  0.00    -0.237 OA
ATOM     89  O   UNL A   1      51.556  25.144  25.900  1.00  0.00    -0.744 OA
ENDBRANCH  82  86
ENDBRANCH  55  79
BRANCH  67  90
ATOM     90  C   UNL A   1      45.147  33.109  29.201  1.00  0.00     0.023 A 
ATOM     91  C   UNL A   1      45.099  34.172  28.282  1.00  0.00     0.031 A 
ATOM     92  C   UNL A   1      45.954  33.259  30.343  1.00  0.00     0.131 A 
ATOM     93  C   UNL A   1      45.893  35.310  28.486  1.00  0.00     0.055 A 
ATOM     94  C   UNL A   1      46.693  34.420  30.574  1.00  0.00     0.041 A 
ATOM     95  F   UNL A   1      46.043  32.275  31.252  1.00  0.00    -0.206 F 
ATOM     96  C   UNL A   1      46.677  35.448  29.635  1.00  0.00     0.022 A 
BRANCH  93  97
ATOM     97  S   UNL A   1      45.974  36.563  27.177  1.00  0.00     0.124 S 
ATOM     98  O   UNL A   1      44.577  36.968  27.058  1.00  0.00    -0.237 OA
ATOM     99  O   UNL A   1      46.880  37.554  27.750  1.00  0.00    -0.237 OA
ATOM    100  O   UNL A   1      46.506  35.828  26.031  1.00  0.00    -0.744 OA
ENDBRANCH  93  97
ENDBRANCH  67  90
ENDBRANCH  41  42
ENDBRANCH  34  36
ENDBRANCH  33  34
ENDBRANCH   1  33
TORSDOF 17
ENDMDL
