MODEL 1
REMARK VINA RESULT:     -13.9      0.000      0.000
REMARK SMILES Cc1cccc(-n2c(C)cc(/C=N\c3ccc(O)c(C(=O)OCCOC(=O)c4ccc(-c5c6nc(c(-c7cc(S(=O)(=O)[O-])ccc7F)c7ccc([nH]7)c(-c7cc(S(=O)(=O)[O-])ccc7F)c7nc(c(-c8cc(S(=O)(=O)[O-])ccc8F)c8ccc5[nH]8)C=C7)C=C6)cc4)c3)c2C)c1
REMARK SMILES IDX 23 1 22 2 20 3 21 4 19 5 14 6 15 7 91 8 16 9 17 10 13 11
REMARK SMILES IDX 12 12 11 13 7 14 8 15 92 16 9 17 10 18 93 19 6 20 1 21 2 22
REMARK SMILES IDX 3 23 94 24 4 25 5 26 18 27 24 29 25 30 26 31 27 32 28 33
REMARK SMILES IDX 29 34 90 35 30 36 89 37 31 38 32 39 33 40 83 41 34 42 88 43
REMARK SMILES IDX 82 44 84 45 35 46 87 47 81 48 80 49 36 51 68 52 48 53 67 54
REMARK SMILES IDX 49 55 52 56 66 57 85 58 50 59 51 60 65 62 86 63 53 64 37 65
REMARK SMILES IDX 38 66 46 67 39 68 45 69 47 70 44 71 40 72 41 73 42 74 43 75
REMARK SMILES IDX 69 76 70 77 78 78 71 79 77 80 79 81 76 82 72 83 73 84 74 85
REMARK SMILES IDX 75 86 54 87 55 88 63 89 56 90 62 91 64 92 61 93 57 94 58 95
REMARK SMILES IDX 59 96 60 97
REMARK H PARENT 18 28 84 50 52 61
REMARK Flexibility Score: inf
ROOT
ATOM      1  C   UNL A   1      33.125  30.856  27.639  1.00  0.00     0.275 C 
ENDROOT
BRANCH   1   2
ATOM      2  O   UNL A   1      32.507  30.797  26.338  1.00  0.00    -0.458 OA
BRANCH   2   3
ATOM      3  C   UNL A   1      32.772  29.553  25.533  1.00  0.00     0.342 C 
ATOM      4  O   UNL A   1      34.019  29.680  25.382  1.00  0.00    -0.246 OA
BRANCH   3   5
ATOM      5  C   UNL A   1      31.352  28.052  24.913  1.00  0.00     0.103 A 
ATOM      6  C   UNL A   1      29.822  25.824  25.574  1.00  0.00     0.064 A 
ATOM      7  C   UNL A   1      28.945  26.008  24.550  1.00  0.00     0.032 A 
ATOM      8  C   UNL A   1      30.864  26.788  25.742  1.00  0.00     0.048 A 
ATOM      9  C   UNL A   1      29.274  26.964  23.605  1.00  0.00     0.049 A 
ATOM     10  C   UNL A   1      30.418  27.851  23.700  1.00  0.00     0.130 A 
BRANCH   6  11
ATOM     11  N   UNL A   1      29.681  24.793  26.509  1.00  0.00    -0.256 NA
ATOM     12  C   UNL A   1      30.502  23.797  26.680  1.00  0.00     0.121 C 
BRANCH  12  13
ATOM     13  C   UNL A   1      31.742  23.392  26.009  1.00  0.00     0.014 A 
ATOM     14  N   UNL A   1      33.843  22.760  25.456  1.00  0.00    -0.318 N 
ATOM     15  C   UNL A   1      33.218  23.097  24.274  1.00  0.00     0.021 A 
ATOM     16  C   UNL A   1      32.926  22.848  26.497  1.00  0.00     0.029 A 
ATOM     17  C   UNL A   1      33.890  22.988  22.951  1.00  0.00     0.065 C 
ATOM     18  C   UNL A   1      31.919  23.451  24.586  1.00  0.00     0.033 A 
ATOM     19  C   UNL A   1      33.317  22.480  27.878  1.00  0.00     0.065 C 
BRANCH  14  20
ATOM     20  C   UNL A   1      35.230  22.527  25.646  1.00  0.00     0.046 A 
ATOM     21  C   UNL A   1      37.707  19.751  24.882  1.00  0.00     0.044 C 
ATOM     22  C   UNL A   1      37.119  21.091  25.197  1.00  0.00    -0.049 A 
ATOM     23  C   UNL A   1      37.962  22.210  25.291  1.00  0.00     0.003 A 
ATOM     24  C   UNL A   1      35.739  21.254  25.371  1.00  0.00     0.030 A 
ATOM     25  C   UNL A   1      37.450  23.462  25.624  1.00  0.00     0.002 A 
ATOM     26  C   UNL A   1      36.085  23.618  25.831  1.00  0.00     0.026 A 
ENDBRANCH  14  20
ENDBRANCH  12  13
ENDBRANCH   6  11
BRANCH  10  27
ATOM     27  O   UNL A   1      30.408  28.436  22.422  1.00  0.00    -0.507 OA
ATOM     28  H   UNL A   1      31.092  29.025  22.170  1.00  0.00     0.293 HD
ENDBRANCH  10  27
ENDBRANCH   3   5
ENDBRANCH   2   3
ENDBRANCH   1   2
BRANCH   1  29
ATOM     29  C   UNL A   1      33.685  32.270  27.848  1.00  0.00     0.275 C 
BRANCH  29  30
ATOM     30  O   UNL A   1      34.344  32.528  29.121  1.00  0.00    -0.458 OA
BRANCH  30  31
ATOM     31  C   UNL A   1      35.670  32.296  29.291  1.00  0.00     0.338 C 
ATOM     32  O   UNL A   1      36.551  33.129  29.399  1.00  0.00    -0.246 OA
BRANCH  31  33
ATOM     33  C   UNL A   1      35.962  30.852  29.254  1.00  0.00     0.060 A 
ATOM     34  C   UNL A   1      36.592  30.116  30.784  1.00  0.00     0.016 A 
ATOM     35  C   UNL A   1      36.612  30.322  27.661  1.00  0.00     0.016 A 
ATOM     36  C   UNL A   1      37.964  28.871  30.708  1.00  0.00     0.010 A 
ATOM     37  C   UNL A   1      37.976  29.088  27.603  1.00  0.00     0.010 A 
ATOM     38  C   UNL A   1      38.655  28.398  29.122  1.00  0.00    -0.014 A 
BRANCH  38  39
ATOM     39  C   UNL A   1      40.086  28.123  28.973  1.00  0.00     0.031 A 
ATOM     40  C   UNL A   1      40.439  26.737  28.635  1.00  0.00     0.074 A 
ATOM     41  C   UNL A   1      40.968  29.158  28.970  1.00  0.00     0.049 A 
ATOM     42  N   UNL A   1      41.574  26.216  28.905  1.00  0.00    -0.248 NA
ATOM     43  C   UNL A   1      39.518  25.763  28.044  1.00  0.00     0.031 C 
ATOM     44  C   UNL A   1      42.366  29.236  28.544  1.00  0.00     0.029 A 
ATOM     45  N   UNL A   1      40.771  30.414  29.519  1.00  0.00    -0.354 N 
ATOM     46  C   UNL A   1      41.656  25.021  28.228  1.00  0.00     0.074 A 
ATOM     47  C   UNL A   1      40.319  24.722  27.811  1.00  0.00     0.031 C 
ATOM     48  C   UNL A   1      42.936  30.339  29.077  1.00  0.00     0.029 A 
ATOM     49  C   UNL A   1      41.964  30.984  29.943  1.00  0.00     0.049 A 
ATOM     50  H   UNL A   1      39.892  30.850  29.598  1.00  0.00     0.167 HD
ATOM     51  C   UNL A   1      42.892  24.523  27.971  1.00  0.00     0.034 A 
ATOM     52  C   UNL A   1      42.105  31.226  31.283  1.00  0.00     0.034 A 
ATOM     53  C   UNL A   1      43.900  25.435  28.517  1.00  0.00     0.049 A 
ATOM     54  C   UNL A   1      42.915  30.102  31.936  1.00  0.00     0.074 A 
ATOM     55  C   UNL A   1      44.648  26.470  27.985  1.00  0.00     0.029 A 
ATOM     56  N   UNL A   1      43.908  25.630  29.881  1.00  0.00    -0.354 N 
ATOM     57  N   UNL A   1      43.352  29.050  31.288  1.00  0.00    -0.248 NA
ATOM     58  C   UNL A   1      43.289  30.054  33.346  1.00  0.00     0.031 C 
ATOM     59  C   UNL A   1      45.065  27.308  29.071  1.00  0.00     0.029 A 
ATOM     60  C   UNL A   1      44.596  26.759  30.252  1.00  0.00     0.049 A 
ATOM     61  H   UNL A   1      43.467  25.025  30.520  1.00  0.00     0.167 HD
ATOM     62  C   UNL A   1      44.044  28.214  32.119  1.00  0.00     0.074 A 
ATOM     63  C   UNL A   1      43.922  28.866  33.419  1.00  0.00     0.031 C 
ATOM     64  C   UNL A   1      44.661  27.068  31.675  1.00  0.00     0.034 A 
BRANCH  51  65
ATOM     65  C   UNL A   1      43.218  23.390  27.040  1.00  0.00     0.023 A 
ATOM     66  C   UNL A   1      42.503  22.194  27.222  1.00  0.00     0.031 A 
ATOM     67  C   UNL A   1      44.168  23.376  25.999  1.00  0.00     0.131 A 
ATOM     68  C   UNL A   1      42.769  21.049  26.460  1.00  0.00     0.055 A 
ATOM     69  C   UNL A   1      44.459  22.221  25.254  1.00  0.00     0.041 A 
ATOM     70  F   UNL A   1      44.825  24.478  25.616  1.00  0.00    -0.206 F 
ATOM     71  C   UNL A   1      43.760  21.045  25.486  1.00  0.00     0.022 A 
BRANCH  68  72
ATOM     72  S   UNL A   1      41.774  19.574  26.779  1.00  0.00     0.124 S 
ATOM     73  O   UNL A   1      41.282  19.246  25.444  1.00  0.00    -0.237 OA
ATOM     74  O   UNL A   1      42.756  18.658  27.349  1.00  0.00    -0.237 OA
ATOM     75  O   UNL A   1      40.756  20.051  27.714  1.00  0.00    -0.744 OA
ENDBRANCH  68  72
ENDBRANCH  51  65
BRANCH  52  76
ATOM     76  C   UNL A   1      40.912  31.975  31.829  1.00  0.00     0.023 A 
ATOM     77  C   UNL A   1      40.046  31.243  32.690  1.00  0.00     0.031 A 
ATOM     78  C   UNL A   1      40.821  33.372  31.885  1.00  0.00     0.131 A 
ATOM     79  C   UNL A   1      39.300  31.886  33.691  1.00  0.00     0.055 A 
ATOM     80  C   UNL A   1      40.011  34.017  32.841  1.00  0.00     0.041 A 
ATOM     81  F   UNL A   1      41.637  34.142  31.151  1.00  0.00    -0.206 F 
ATOM     82  C   UNL A   1      39.281  33.276  33.773  1.00  0.00     0.022 A 
BRANCH  79  83
ATOM     83  S   UNL A   1      38.593  30.892  35.050  1.00  0.00     0.124 S 
ATOM     84  O   UNL A   1      38.174  29.683  34.345  1.00  0.00    -0.237 OA
ATOM     85  O   UNL A   1      39.717  30.724  35.967  1.00  0.00    -0.237 OA
ATOM     86  O   UNL A   1      37.500  31.723  35.549  1.00  0.00    -0.744 OA
ENDBRANCH  79  83
ENDBRANCH  52  76
BRANCH  64  87
ATOM     87  C   UNL A   1      45.386  26.091  32.577  1.00  0.00     0.023 A 
ATOM     88  C   UNL A   1      44.674  25.252  33.429  1.00  0.00     0.031 A 
ATOM     89  C   UNL A   1      46.801  25.980  32.654  1.00  0.00     0.131 A 
ATOM     90  C   UNL A   1      45.326  24.240  34.145  1.00  0.00     0.055 A 
ATOM     91  C   UNL A   1      47.455  25.054  33.465  1.00  0.00     0.041 A 
ATOM     92  F   UNL A   1      47.639  26.721  31.920  1.00  0.00    -0.206 F 
ATOM     93  C   UNL A   1      46.713  24.142  34.187  1.00  0.00     0.022 A 
BRANCH  90  94
ATOM     94  S   UNL A   1      44.295  22.973  34.909  1.00  0.00     0.124 S 
ATOM     95  O   UNL A   1      43.009  23.174  34.251  1.00  0.00    -0.237 OA
ATOM     96  O   UNL A   1      45.012  21.755  34.540  1.00  0.00    -0.237 OA
ATOM     97  O   UNL A   1      44.334  23.313  36.329  1.00  0.00    -0.744 OA
ENDBRANCH  90  94
ENDBRANCH  64  87
ENDBRANCH  38  39
ENDBRANCH  31  33
ENDBRANCH  30  31
ENDBRANCH  29  30
ENDBRANCH   1  29
TORSDOF 18
ENDMDL
MODEL 2
REMARK VINA RESULT:     -13.8      4.181     10.166
REMARK SMILES Cc1cccc(-n2c(C)cc(/C=N\c3ccc(O)c(C(=O)OCCOC(=O)c4ccc(-c5c6nc(c(-c7cc(S(=O)(=O)[O-])ccc7F)c7ccc([nH]7)c(-c7cc(S(=O)(=O)[O-])ccc7F)c7nc(c(-c8cc(S(=O)(=O)[O-])ccc8F)c8ccc5[nH]8)C=C7)C=C6)cc4)c3)c2C)c1
REMARK SMILES IDX 23 1 22 2 20 3 21 4 19 5 14 6 15 7 91 8 16 9 17 10 13 11
REMARK SMILES IDX 12 12 11 13 7 14 8 15 92 16 9 17 10 18 93 19 6 20 1 21 2 22
REMARK SMILES IDX 3 23 94 24 4 25 5 26 18 27 24 29 25 30 26 31 27 32 28 33
REMARK SMILES IDX 29 34 90 35 30 36 89 37 31 38 32 39 33 40 83 41 34 42 88 43
REMARK SMILES IDX 82 44 84 45 35 46 87 47 81 48 80 49 36 51 68 52 48 53 67 54
REMARK SMILES IDX 49 55 52 56 66 57 85 58 50 59 51 60 65 62 86 63 53 64 37 65
REMARK SMILES IDX 38 66 46 67 39 68 45 69 47 70 44 71 40 72 41 73 42 74 43 75
REMARK SMILES IDX 69 76 70 77 78 78 71 79 77 80 79 81 76 82 72 83 73 84 74 85
REMARK SMILES IDX 75 86 54 87 55 88 63 89 56 90 62 91 64 92 61 93 57 94 58 95
REMARK SMILES IDX 59 96 60 97
REMARK H PARENT 18 28 84 50 52 61
REMARK Flexibility Score: inf
ROOT
ATOM      1  C   UNL A   1      38.845  21.268  25.758  1.00  0.00     0.275 C 
ENDROOT
BRANCH   1   2
ATOM      2  O   UNL A   1      38.330  22.457  25.127  1.00  0.00    -0.458 OA
BRANCH   2   3
ATOM      3  C   UNL A   1      36.958  22.897  25.563  1.00  0.00     0.342 C 
ATOM      4  O   UNL A   1      37.274  23.495  26.629  1.00  0.00    -0.246 OA
BRANCH   3   5
ATOM      5  C   UNL A   1      35.081  22.571  24.549  1.00  0.00     0.103 A 
ATOM      6  C   UNL A   1      33.435  23.127  22.377  1.00  0.00     0.064 A 
ATOM      7  C   UNL A   1      32.694  21.996  22.531  1.00  0.00     0.032 A 
ATOM      8  C   UNL A   1      34.533  23.333  23.268  1.00  0.00     0.048 A 
ATOM      9  C   UNL A   1      32.900  21.263  23.686  1.00  0.00     0.049 A 
ATOM     10  C   UNL A   1      33.924  21.555  24.671  1.00  0.00     0.130 A 
BRANCH   6  11
ATOM     11  N   UNL A   1      33.220  24.030  21.330  1.00  0.00    -0.256 NA
ATOM     12  C   UNL A   1      32.819  25.263  21.453  1.00  0.00     0.121 C 
BRANCH  12  13
ATOM     13  C   UNL A   1      32.444  26.086  22.608  1.00  0.00     0.014 A 
ATOM     14  N   UNL A   1      32.300  27.611  24.274  1.00  0.00    -0.318 N 
ATOM     15  C   UNL A   1      31.357  26.645  24.553  1.00  0.00     0.021 A 
ATOM     16  C   UNL A   1      32.894  27.325  23.050  1.00  0.00     0.029 A 
ATOM     17  C   UNL A   1      30.453  26.721  25.733  1.00  0.00     0.065 C 
ATOM     18  C   UNL A   1      31.403  25.720  23.526  1.00  0.00     0.033 A 
ATOM     19  C   UNL A   1      33.909  28.240  22.474  1.00  0.00     0.065 C 
BRANCH  14  20
ATOM     20  C   UNL A   1      32.741  28.642  25.143  1.00  0.00     0.046 A 
ATOM     21  C   UNL A   1      31.321  31.860  26.577  1.00  0.00     0.044 C 
ATOM     22  C   UNL A   1      32.158  30.635  26.376  1.00  0.00    -0.049 A 
ATOM     23  C   UNL A   1      33.151  30.315  27.316  1.00  0.00     0.003 A 
ATOM     24  C   UNL A   1      31.949  29.786  25.282  1.00  0.00     0.030 A 
ATOM     25  C   UNL A   1      33.973  29.205  27.135  1.00  0.00     0.002 A 
ATOM     26  C   UNL A   1      33.789  28.381  26.031  1.00  0.00     0.026 A 
ENDBRANCH  14  20
ENDBRANCH  12  13
ENDBRANCH   6  11
BRANCH  10  27
ATOM     27  O   UNL A   1      33.558  20.676  25.705  1.00  0.00    -0.507 OA
ATOM     28  H   UNL A   1      32.869  20.055  25.571  1.00  0.00     0.293 HD
ENDBRANCH  10  27
ENDBRANCH   3   5
ENDBRANCH   2   3
ENDBRANCH   1   2
BRANCH   1  29
ATOM     29  C   UNL A   1      39.976  21.676  26.714  1.00  0.00     0.275 C 
BRANCH  29  30
ATOM     30  O   UNL A   1      41.029  22.513  26.157  1.00  0.00    -0.458 OA
BRANCH  30  31
ATOM     31  C   UNL A   1      41.470  23.620  26.806  1.00  0.00     0.338 C 
ATOM     32  O   UNL A   1      42.457  23.709  27.515  1.00  0.00    -0.246 OA
BRANCH  31  33
ATOM     33  C   UNL A   1      40.540  24.748  26.618  1.00  0.00     0.060 A 
ATOM     34  C   UNL A   1      41.216  26.227  25.823  1.00  0.00     0.016 A 
ATOM     35  C   UNL A   1      39.367  24.907  27.974  1.00  0.00     0.016 A 
ATOM     36  C   UNL A   1      40.757  27.906  26.461  1.00  0.00     0.010 A 
ATOM     37  C   UNL A   1      38.924  26.580  28.599  1.00  0.00     0.010 A 
ATOM     38  C   UNL A   1      39.641  28.057  27.857  1.00  0.00    -0.014 A 
BRANCH  38  39
ATOM     39  C   UNL A   1      39.826  29.105  28.864  1.00  0.00     0.031 A 
ATOM     40  C   UNL A   1      38.774  30.129  28.921  1.00  0.00     0.074 A 
ATOM     41  C   UNL A   1      40.823  28.981  29.781  1.00  0.00     0.049 A 
ATOM     42  N   UNL A   1      38.967  31.308  29.373  1.00  0.00    -0.248 NA
ATOM     43  C   UNL A   1      37.421  29.964  28.387  1.00  0.00     0.031 C 
ATOM     44  C   UNL A   1      41.059  29.668  31.051  1.00  0.00     0.029 A 
ATOM     45  N   UNL A   1      41.975  28.223  29.653  1.00  0.00    -0.354 N 
ATOM     46  C   UNL A   1      37.736  31.904  29.524  1.00  0.00     0.074 A 
ATOM     47  C   UNL A   1      36.820  31.086  28.787  1.00  0.00     0.031 C 
ATOM     48  C   UNL A   1      42.349  29.501  31.419  1.00  0.00     0.029 A 
ATOM     49  C   UNL A   1      43.034  28.770  30.366  1.00  0.00     0.049 A 
ATOM     50  H   UNL A   1      42.035  27.396  29.122  1.00  0.00     0.167 HD
ATOM     51  C   UNL A   1      37.634  32.935  30.401  1.00  0.00     0.034 A 
ATOM     52  C   UNL A   1      44.117  29.203  29.651  1.00  0.00     0.034 A 
ATOM     53  C   UNL A   1      38.944  33.181  31.006  1.00  0.00     0.049 A 
ATOM     54  C   UNL A   1      44.040  30.719  29.448  1.00  0.00     0.074 A 
ATOM     55  C   UNL A   1      39.553  32.772  32.180  1.00  0.00     0.029 A 
ATOM     56  N   UNL A   1      39.968  33.568  30.169  1.00  0.00    -0.354 N 
ATOM     57  N   UNL A   1      43.042  31.459  29.867  1.00  0.00    -0.248 NA
ATOM     58  C   UNL A   1      45.048  31.522  28.762  1.00  0.00     0.031 C 
ATOM     59  C   UNL A   1      40.970  32.890  31.999  1.00  0.00     0.029 A 
ATOM     60  C   UNL A   1      41.210  33.398  30.734  1.00  0.00     0.049 A 
ATOM     61  H   UNL A   1      39.826  33.928  29.265  1.00  0.00     0.167 HD
ATOM     62  C   UNL A   1      43.239  32.773  29.549  1.00  0.00     0.074 A 
ATOM     63  C   UNL A   1      44.491  32.749  28.800  1.00  0.00     0.031 C 
ATOM     64  C   UNL A   1      42.368  33.768  29.931  1.00  0.00     0.034 A 
BRANCH  51  65
ATOM     65  C   UNL A   1      36.361  33.550  30.906  1.00  0.00     0.023 A 
ATOM     66  C   UNL A   1      35.541  34.183  29.955  1.00  0.00     0.031 A 
ATOM     67  C   UNL A   1      35.883  33.578  32.231  1.00  0.00     0.131 A 
ATOM     68  C   UNL A   1      34.365  34.851  30.318  1.00  0.00     0.055 A 
ATOM     69  C   UNL A   1      34.721  34.273  32.604  1.00  0.00     0.041 A 
ATOM     70  F   UNL A   1      36.480  32.902  33.221  1.00  0.00    -0.206 F 
ATOM     71  C   UNL A   1      33.955  34.920  31.644  1.00  0.00     0.022 A 
BRANCH  68  72
ATOM     72  S   UNL A   1      33.388  35.616  29.003  1.00  0.00     0.124 S 
ATOM     73  O   UNL A   1      32.619  36.615  29.737  1.00  0.00    -0.237 OA
ATOM     74  O   UNL A   1      34.423  36.125  28.109  1.00  0.00    -0.237 OA
ATOM     75  O   UNL A   1      32.608  34.499  28.472  1.00  0.00    -0.744 OA
ENDBRANCH  68  72
ENDBRANCH  51  65
BRANCH  52  76
ATOM     76  C   UNL A   1      44.593  28.141  28.687  1.00  0.00     0.023 A 
ATOM     77  C   UNL A   1      44.973  28.589  27.390  1.00  0.00     0.031 A 
ATOM     78  C   UNL A   1      45.055  26.878  29.077  1.00  0.00     0.131 A 
ATOM     79  C   UNL A   1      45.935  27.899  26.635  1.00  0.00     0.055 A 
ATOM     80  C   UNL A   1      45.962  26.150  28.281  1.00  0.00     0.041 A 
ATOM     81  F   UNL A   1      44.793  26.400  30.302  1.00  0.00    -0.206 F 
ATOM     82  C   UNL A   1      46.437  26.678  27.078  1.00  0.00     0.022 A 
BRANCH  79  83
ATOM     83  S   UNL A   1      46.731  28.743  25.224  1.00  0.00     0.124 S 
ATOM     84  O   UNL A   1      48.141  28.445  25.457  1.00  0.00    -0.237 OA
ATOM     85  O   UNL A   1      46.136  28.090  24.060  1.00  0.00    -0.237 OA
ATOM     86  O   UNL A   1      46.359  30.144  25.410  1.00  0.00    -0.744 OA
ENDBRANCH  79  83
ENDBRANCH  52  76
BRANCH  64  87
ATOM     87  C   UNL A   1      42.526  35.225  29.548  1.00  0.00     0.023 A 
ATOM     88  C   UNL A   1      43.304  36.080  30.322  1.00  0.00     0.031 A 
ATOM     89  C   UNL A   1      41.887  35.826  28.429  1.00  0.00     0.131 A 
ATOM     90  C   UNL A   1      43.583  37.382  29.888  1.00  0.00     0.055 A 
ATOM     91  C   UNL A   1      42.067  37.160  28.069  1.00  0.00     0.041 A 
ATOM     92  F   UNL A   1      41.091  35.157  27.588  1.00  0.00    -0.206 F 
ATOM     93  C   UNL A   1      42.959  37.940  28.777  1.00  0.00     0.022 A 
BRANCH  90  94
ATOM     94  S   UNL A   1      44.894  38.275  30.746  1.00  0.00     0.124 S 
ATOM     95  O   UNL A   1      45.117  37.450  31.928  1.00  0.00    -0.237 OA
ATOM     96  O   UNL A   1      45.960  38.253  29.747  1.00  0.00    -0.237 OA
ATOM     97  O   UNL A   1      44.304  39.587  30.998  1.00  0.00    -0.744 OA
ENDBRANCH  90  94
ENDBRANCH  64  87
ENDBRANCH  38  39
ENDBRANCH  31  33
ENDBRANCH  30  31
ENDBRANCH  29  30
ENDBRANCH   1  29
TORSDOF 18
ENDMDL
MODEL 3
REMARK VINA RESULT:     -13.6      4.049     10.252
REMARK SMILES Cc1cccc(-n2c(C)cc(/C=N\c3ccc(O)c(C(=O)OCCOC(=O)c4ccc(-c5c6nc(c(-c7cc(S(=O)(=O)[O-])ccc7F)c7ccc([nH]7)c(-c7cc(S(=O)(=O)[O-])ccc7F)c7nc(c(-c8cc(S(=O)(=O)[O-])ccc8F)c8ccc5[nH]8)C=C7)C=C6)cc4)c3)c2C)c1
REMARK SMILES IDX 23 1 22 2 20 3 21 4 19 5 14 6 15 7 91 8 16 9 17 10 13 11
REMARK SMILES IDX 12 12 11 13 7 14 8 15 92 16 9 17 10 18 93 19 6 20 1 21 2 22
REMARK SMILES IDX 3 23 94 24 4 25 5 26 18 27 24 29 25 30 26 31 27 32 28 33
REMARK SMILES IDX 29 34 90 35 30 36 89 37 31 38 32 39 33 40 83 41 34 42 88 43
REMARK SMILES IDX 82 44 84 45 35 46 87 47 81 48 80 49 36 51 68 52 48 53 67 54
REMARK SMILES IDX 49 55 52 56 66 57 85 58 50 59 51 60 65 62 86 63 53 64 37 65
REMARK SMILES IDX 38 66 46 67 39 68 45 69 47 70 44 71 40 72 41 73 42 74 43 75
REMARK SMILES IDX 69 76 70 77 78 78 71 79 77 80 79 81 76 82 72 83 73 84 74 85
REMARK SMILES IDX 75 86 54 87 55 88 63 89 56 90 62 91 64 92 61 93 57 94 58 95
REMARK SMILES IDX 59 96 60 97
REMARK H PARENT 18 28 84 50 52 61
REMARK Flexibility Score: inf
ROOT
ATOM      1  C   UNL A   1      41.064  20.809  26.451  1.00  0.00     0.275 C 
ENDROOT
BRANCH   1   2
ATOM      2  O   UNL A   1      40.016  20.998  25.480  1.00  0.00    -0.458 OA
BRANCH   2   3
ATOM      3  C   UNL A   1      38.796  21.741  25.957  1.00  0.00     0.342 C 
ATOM      4  O   UNL A   1      39.210  22.084  27.099  1.00  0.00    -0.246 OA
BRANCH   3   5
ATOM      5  C   UNL A   1      36.953  22.080  24.888  1.00  0.00     0.103 A 
ATOM      6  C   UNL A   1      34.171  22.080  24.905  1.00  0.00     0.064 A 
ATOM      7  C   UNL A   1      34.073  22.925  23.843  1.00  0.00     0.032 A 
ATOM      8  C   UNL A   1      35.479  21.759  25.383  1.00  0.00     0.048 A 
ATOM      9  C   UNL A   1      35.239  23.207  23.154  1.00  0.00     0.049 A 
ATOM     10  C   UNL A   1      36.559  22.758  23.558  1.00  0.00     0.130 A 
BRANCH   6  11
ATOM     11  N   UNL A   1      33.050  21.602  25.592  1.00  0.00    -0.256 NA
ATOM     12  C   UNL A   1      31.985  22.291  25.891  1.00  0.00     0.121 C 
BRANCH  12  13
ATOM     13  C   UNL A   1      31.602  23.690  25.677  1.00  0.00     0.014 A 
ATOM     14  N   UNL A   1      30.962  25.698  24.853  1.00  0.00    -0.318 N 
ATOM     15  C   UNL A   1      31.402  25.931  26.139  1.00  0.00     0.021 A 
ATOM     16  C   UNL A   1      30.993  24.331  24.603  1.00  0.00     0.029 A 
ATOM     17  C   UNL A   1      31.378  27.281  26.765  1.00  0.00     0.065 C 
ATOM     18  C   UNL A   1      31.764  24.709  26.675  1.00  0.00     0.033 A 
ATOM     19  C   UNL A   1      30.513  23.792  23.308  1.00  0.00     0.065 C 
BRANCH  14  20
ATOM     20  C   UNL A   1      30.681  26.675  23.863  1.00  0.00     0.046 A 
ATOM     21  C   UNL A   1      27.745  28.885  22.899  1.00  0.00     0.044 C 
ATOM     22  C   UNL A   1      29.131  28.336  23.044  1.00  0.00    -0.049 A 
ATOM     23  C   UNL A   1      30.215  29.045  22.500  1.00  0.00     0.003 A 
ATOM     24  C   UNL A   1      29.369  27.142  23.736  1.00  0.00     0.030 A 
ATOM     25  C   UNL A   1      31.510  28.538  22.581  1.00  0.00     0.002 A 
ATOM     26  C   UNL A   1      31.743  27.336  23.239  1.00  0.00     0.026 A 
ENDBRANCH  14  20
ENDBRANCH  12  13
ENDBRANCH   6  11
BRANCH  10  27
ATOM     27  O   UNL A   1      37.318  23.117  22.430  1.00  0.00    -0.507 OA
ATOM     28  H   UNL A   1      37.690  22.452  21.885  1.00  0.00     0.293 HD
ENDBRANCH  10  27
ENDBRANCH   3   5
ENDBRANCH   2   3
ENDBRANCH   1   2
BRANCH   1  29
ATOM     29  C   UNL A   1      42.307  21.579  25.980  1.00  0.00     0.275 C 
BRANCH  29  30
ATOM     30  O   UNL A   1      42.127  22.996  25.700  1.00  0.00    -0.458 OA
BRANCH  30  31
ATOM     31  C   UNL A   1      42.237  23.931  26.677  1.00  0.00     0.338 C 
ATOM     32  O   UNL A   1      43.089  23.984  27.546  1.00  0.00    -0.246 OA
BRANCH  31  33
ATOM     33  C   UNL A   1      41.117  24.886  26.624  1.00  0.00     0.060 A 
ATOM     34  C   UNL A   1      41.423  26.442  25.752  1.00  0.00     0.016 A 
ATOM     35  C   UNL A   1      40.128  24.872  28.128  1.00  0.00     0.016 A 
ATOM     36  C   UNL A   1      40.781  28.033  26.456  1.00  0.00     0.010 A 
ATOM     37  C   UNL A   1      39.501  26.459  28.817  1.00  0.00     0.010 A 
ATOM     38  C   UNL A   1      39.856  28.021  27.993  1.00  0.00    -0.014 A 
BRANCH  38  39
ATOM     39  C   UNL A   1      39.998  29.103  28.970  1.00  0.00     0.031 A 
ATOM     40  C   UNL A   1      38.920  30.100  28.982  1.00  0.00     0.074 A 
ATOM     41  C   UNL A   1      40.984  29.032  29.904  1.00  0.00     0.049 A 
ATOM     42  N   UNL A   1      39.075  31.297  29.402  1.00  0.00    -0.248 NA
ATOM     43  C   UNL A   1      37.579  29.884  28.434  1.00  0.00     0.031 C 
ATOM     44  C   UNL A   1      41.183  29.762  31.157  1.00  0.00     0.029 A 
ATOM     45  N   UNL A   1      42.157  28.301  29.816  1.00  0.00    -0.354 N 
ATOM     46  C   UNL A   1      37.827  31.864  29.518  1.00  0.00     0.074 A 
ATOM     47  C   UNL A   1      36.943  31.001  28.792  1.00  0.00     0.031 C 
ATOM     48  C   UNL A   1      42.471  29.639  31.548  1.00  0.00     0.029 A 
ATOM     49  C   UNL A   1      43.191  28.896  30.527  1.00  0.00     0.049 A 
ATOM     50  H   UNL A   1      42.247  27.461  29.310  1.00  0.00     0.167 HD
ATOM     51  C   UNL A   1      37.685  32.917  30.362  1.00  0.00     0.034 A 
ATOM     52  C   UNL A   1      44.273  29.337  29.815  1.00  0.00     0.034 A 
ATOM     53  C   UNL A   1      38.980  33.215  30.978  1.00  0.00     0.049 A 
ATOM     54  C   UNL A   1      44.159  30.843  29.567  1.00  0.00     0.074 A 
ATOM     55  C   UNL A   1      39.581  32.857  32.172  1.00  0.00     0.029 A 
ATOM     56  N   UNL A   1      40.006  33.605  30.145  1.00  0.00    -0.354 N 
ATOM     57  N   UNL A   1      43.137  31.569  29.949  1.00  0.00    -0.248 NA
ATOM     58  C   UNL A   1      45.157  31.652  28.872  1.00  0.00     0.031 C 
ATOM     59  C   UNL A   1      40.997  33.006  32.008  1.00  0.00     0.029 A 
ATOM     60  C   UNL A   1      41.242  33.483  30.732  1.00  0.00     0.049 A 
ATOM     61  H   UNL A   1      39.868  33.934  29.228  1.00  0.00     0.167 HD
ATOM     62  C   UNL A   1      43.304  32.878  29.596  1.00  0.00     0.074 A 
ATOM     63  C   UNL A   1      44.568  32.865  28.866  1.00  0.00     0.031 C 
ATOM     64  C   UNL A   1      42.402  33.860  29.936  1.00  0.00     0.034 A 
BRANCH  51  65
ATOM     65  C   UNL A   1      36.389  33.513  30.830  1.00  0.00     0.023 A 
ATOM     66  C   UNL A   1      35.562  34.085  29.848  1.00  0.00     0.031 A 
ATOM     67  C   UNL A   1      35.896  33.577  32.149  1.00  0.00     0.131 A 
ATOM     68  C   UNL A   1      34.363  34.732  30.174  1.00  0.00     0.055 A 
ATOM     69  C   UNL A   1      34.710  34.251  32.483  1.00  0.00     0.041 A 
ATOM     70  F   UNL A   1      36.501  32.957  33.169  1.00  0.00    -0.206 F 
ATOM     71  C   UNL A   1      33.936  34.838  31.492  1.00  0.00     0.022 A 
BRANCH  68  72
ATOM     72  S   UNL A   1      33.379  35.417  28.820  1.00  0.00     0.124 S 
ATOM     73  O   UNL A   1      34.388  36.130  28.043  1.00  0.00    -0.237 OA
ATOM     74  O   UNL A   1      32.821  34.216  28.208  1.00  0.00    -0.237 OA
ATOM     75  O   UNL A   1      32.410  36.269  29.507  1.00  0.00    -0.744 OA
ENDBRANCH  68  72
ENDBRANCH  51  65
BRANCH  52  76
ATOM     76  C   UNL A   1      44.791  28.260  28.890  1.00  0.00     0.023 A 
ATOM     77  C   UNL A   1      45.059  28.654  27.549  1.00  0.00     0.031 A 
ATOM     78  C   UNL A   1      45.385  27.069  29.327  1.00  0.00     0.131 A 
ATOM     79  C   UNL A   1      46.038  28.003  26.781  1.00  0.00     0.055 A 
ATOM     80  C   UNL A   1      46.310  26.373  28.524  1.00  0.00     0.041 A 
ATOM     81  F   UNL A   1      45.234  26.651  30.591  1.00  0.00    -0.206 F 
ATOM     82  C   UNL A   1      46.670  26.861  27.265  1.00  0.00     0.022 A 
BRANCH  79  83
ATOM     83  S   UNL A   1      46.677  28.820  25.278  1.00  0.00     0.124 S 
ATOM     84  O   UNL A   1      45.947  28.118  24.225  1.00  0.00    -0.237 OA
ATOM     85  O   UNL A   1      46.306  30.220  25.469  1.00  0.00    -0.237 OA
ATOM     86  O   UNL A   1      48.111  28.544  25.322  1.00  0.00    -0.744 OA
ENDBRANCH  79  83
ENDBRANCH  52  76
BRANCH  64  87
ATOM     87  C   UNL A   1      42.528  35.309  29.512  1.00  0.00     0.023 A 
ATOM     88  C   UNL A   1      43.270  36.207  30.273  1.00  0.00     0.031 A 
ATOM     89  C   UNL A   1      41.893  35.860  28.366  1.00  0.00     0.131 A 
ATOM     90  C   UNL A   1      43.523  37.503  29.805  1.00  0.00     0.055 A 
ATOM     91  C   UNL A   1      42.044  37.187  27.969  1.00  0.00     0.041 A 
ATOM     92  F   UNL A   1      41.129  35.145  27.532  1.00  0.00    -0.206 F 
ATOM     93  C   UNL A   1      42.903  38.011  28.667  1.00  0.00     0.022 A 
BRANCH  90  94
ATOM     94  S   UNL A   1      44.795  38.455  30.657  1.00  0.00     0.124 S 
ATOM     95  O   UNL A   1      44.030  39.553  31.240  1.00  0.00    -0.237 OA
ATOM     96  O   UNL A   1      45.310  37.469  31.603  1.00  0.00    -0.237 OA
ATOM     97  O   UNL A   1      45.715  38.830  29.586  1.00  0.00    -0.744 OA
ENDBRANCH  90  94
ENDBRANCH  64  87
ENDBRANCH  38  39
ENDBRANCH  31  33
ENDBRANCH  30  31
ENDBRANCH  29  30
ENDBRANCH   1  29
TORSDOF 18
ENDMDL
