MODEL 1
REMARK VINA RESULT:     -10.2      0.000      0.000
REMARK SMILES CCCCCCNC(=O)Oc1cccc(-c2ccc([C@@H](C)C(=O)OCCOC(=O)c3ccc(-c4c5nc(c(-c6cc(S(=O)(=O)[O-])ccc6F)c6ccc([nH]6)c(-c6cc(S(=O)(=O)[O-])ccc6F)c6nc(c(-c7cc(S(=O)(=O)[O-])ccc7F)c7ccc4[nH]7)C=C6)C=C5)cc3)cc2N)c1
REMARK SMILES IDX 20 1 21 2 19 3 16 4 17 5 94 6 18 7 93 8 15 9 11 10 12 11
REMARK SMILES IDX 96 12 13 13 14 14 10 15 8 16 7 17 9 19 6 20 5 21 4 22 3 23
REMARK SMILES IDX 2 24 1 25 95 26 22 29 23 30 24 31 25 32 26 33 27 34 28 35
REMARK SMILES IDX 29 36 30 37 31 38 92 39 32 40 91 41 33 42 34 43 35 44 85 45
REMARK SMILES IDX 36 46 90 47 84 48 86 49 37 50 89 51 83 52 82 53 38 55 70 56
REMARK SMILES IDX 50 57 69 58 51 59 54 60 68 61 87 62 52 63 53 64 67 66 88 67
REMARK SMILES IDX 55 68 39 69 40 70 48 71 41 72 47 73 49 74 46 75 42 76 43 77
REMARK SMILES IDX 44 78 45 79 71 80 72 81 80 82 73 83 79 84 81 85 78 86 74 87
REMARK SMILES IDX 75 88 76 89 77 90 56 91 57 92 65 93 58 94 64 95 66 96 63 97
REMARK SMILES IDX 59 98 60 99 61 100 62 101
REMARK H PARENT 7 18 95 27 95 28 86 54 54 65
REMARK Flexibility Score: inf
ROOT
ATOM      1  C   UNL A   1      34.191  32.585  28.813  1.00  0.00     0.126 C 
ATOM      2  C   UNL A   1      35.624  32.849  29.272  1.00  0.00     0.025 C 
ENDROOT
BRANCH   1   3
ATOM      3  C   UNL A   1      34.087  31.356  27.923  1.00  0.00    -0.032 A 
ATOM      4  C   UNL A   1      33.784  29.037  26.299  1.00  0.00     0.005 A 
ATOM      5  C   UNL A   1      34.966  29.281  27.027  1.00  0.00     0.011 A 
ATOM      6  C   UNL A   1      32.749  29.996  26.363  1.00  0.00     0.040 A 
ATOM      7  C   UNL A   1      35.113  30.413  27.831  1.00  0.00     0.005 A 
ATOM      8  C   UNL A   1      32.911  31.125  27.186  1.00  0.00     0.030 A 
BRANCH   4   9
ATOM      9  C   UNL A   1      33.675  27.782  25.523  1.00  0.00    -0.013 A 
ATOM     10  C   UNL A   1      33.473  25.369  25.384  1.00  0.00     0.133 A 
ATOM     11  C   UNL A   1      33.548  25.414  23.993  1.00  0.00     0.047 A 
ATOM     12  C   UNL A   1      33.530  26.533  26.152  1.00  0.00     0.056 A 
ATOM     13  C   UNL A   1      33.663  26.645  23.357  1.00  0.00     0.004 A 
ATOM     14  C   UNL A   1      33.732  27.816  24.117  1.00  0.00     0.009 A 
BRANCH  10  15
ATOM     15  O   UNL A   1      33.503  24.089  25.967  1.00  0.00    -0.410 OA
BRANCH  15  16
ATOM     16  C   UNL A   1      32.317  23.470  26.329  1.00  0.00     0.412 C 
ATOM     17  N   UNL A   1      32.036  22.370  25.565  1.00  0.00    -0.321 N 
ATOM     18  H   UNL A   1      31.210  21.879  25.785  1.00  0.00     0.167 HD
ATOM     19  O   UNL A   1      31.550  23.843  27.208  1.00  0.00    -0.224 OA
BRANCH  17  20
ATOM     20  C   UNL A   1      32.825  21.850  24.464  1.00  0.00     0.119 C 
BRANCH  20  21
ATOM     21  C   UNL A   1      33.927  20.899  24.929  1.00  0.00     0.021 C 
BRANCH  21  22
ATOM     22  C   UNL A   1      33.481  19.452  25.167  1.00  0.00     0.002 C 
BRANCH  22  23
ATOM     23  C   UNL A   1      32.511  18.875  24.130  1.00  0.00    -0.000 C 
BRANCH  23  24
ATOM     24  C   UNL A   1      33.129  17.917  23.108  1.00  0.00    -0.003 C 
ATOM     25  C   UNL A   1      33.479  16.556  23.691  1.00  0.00     0.004 C 
ENDBRANCH  23  24
ENDBRANCH  22  23
ENDBRANCH  21  22
ENDBRANCH  20  21
ENDBRANCH  17  20
ENDBRANCH  15  16
ENDBRANCH  10  15
ENDBRANCH   4   9
BRANCH   6  26
ATOM     26  N   UNL A   1      31.496  29.788  25.784  1.00  0.00    -0.398 N 
ATOM     27  H   UNL A   1      31.052  30.518  25.296  1.00  0.00     0.156 HD
ATOM     28  H   UNL A   1      31.057  28.910  25.864  1.00  0.00     0.156 HD
ENDBRANCH   6  26
ENDBRANCH   1   3
BRANCH   1  29
ATOM     29  C   UNL A   1      33.580  33.869  28.264  1.00  0.00     0.313 C 
ATOM     30  O   UNL A   1      32.507  33.877  27.669  1.00  0.00    -0.252 OA
BRANCH  29  31
ATOM     31  O   UNL A   1      34.301  34.985  28.546  1.00  0.00    -0.462 OA
BRANCH  31  32
ATOM     32  C   UNL A   1      33.557  36.183  28.836  1.00  0.00     0.274 C 
BRANCH  32  33
ATOM     33  C   UNL A   1      33.038  36.174  30.274  1.00  0.00     0.275 C 
BRANCH  33  34
ATOM     34  O   UNL A   1      34.095  35.886  31.206  1.00  0.00    -0.458 OA
BRANCH  34  35
ATOM     35  C   UNL A   1      33.810  34.927  32.117  1.00  0.00     0.338 C 
ATOM     36  O   UNL A   1      32.711  34.573  32.499  1.00  0.00    -0.246 OA
BRANCH  35  37
ATOM     37  C   UNL A   1      35.057  34.270  32.531  1.00  0.00     0.060 A 
ATOM     38  C   UNL A   1      36.268  34.915  32.278  1.00  0.00     0.016 A 
ATOM     39  C   UNL A   1      35.033  32.994  33.095  1.00  0.00     0.016 A 
ATOM     40  C   UNL A   1      37.471  34.284  32.578  1.00  0.00     0.010 A 
ATOM     41  C   UNL A   1      36.241  32.365  33.407  1.00  0.00     0.010 A 
ATOM     42  C   UNL A   1      37.467  33.001  33.140  1.00  0.00    -0.014 A 
BRANCH  42  43
ATOM     43  C   UNL A   1      38.747  32.299  33.403  1.00  0.00     0.031 A 
ATOM     44  C   UNL A   1      39.241  31.269  32.428  1.00  0.00     0.074 A 
ATOM     45  C   UNL A   1      39.455  32.586  34.510  1.00  0.00     0.049 A 
ATOM     46  N   UNL A   1      40.258  30.454  32.527  1.00  0.00    -0.248 NA
ATOM     47  C   UNL A   1      38.482  31.140  31.176  1.00  0.00     0.031 C 
ATOM     48  C   UNL A   1      39.100  33.606  35.497  1.00  0.00     0.029 A 
ATOM     49  N   UNL A   1      40.616  32.039  34.997  1.00  0.00    -0.354 N 
ATOM     50  C   UNL A   1      40.254  29.700  31.358  1.00  0.00     0.074 A 
ATOM     51  C   UNL A   1      39.116  30.142  30.579  1.00  0.00     0.031 C 
ATOM     52  C   UNL A   1      40.018  33.606  36.477  1.00  0.00     0.029 A 
ATOM     53  C   UNL A   1      40.993  32.550  36.217  1.00  0.00     0.049 A 
ATOM     54  H   UNL A   1      41.129  31.348  34.520  1.00  0.00     0.167 HD
ATOM     55  C   UNL A   1      41.121  28.728  30.976  1.00  0.00     0.034 A 
ATOM     56  C   UNL A   1      41.987  32.179  37.048  1.00  0.00     0.034 A 
ATOM     57  C   UNL A   1      42.244  28.298  31.774  1.00  0.00     0.049 A 
ATOM     58  C   UNL A   1      42.885  31.039  36.644  1.00  0.00     0.074 A 
ATOM     59  C   UNL A   1      43.186  27.325  31.488  1.00  0.00     0.029 A 
ATOM     60  N   UNL A   1      42.572  28.810  33.025  1.00  0.00    -0.354 N 
ATOM     61  N   UNL A   1      42.856  30.312  35.550  1.00  0.00    -0.248 NA
ATOM     62  C   UNL A   1      43.947  30.665  37.587  1.00  0.00     0.031 C 
ATOM     63  C   UNL A   1      44.046  27.208  32.587  1.00  0.00     0.029 A 
ATOM     64  C   UNL A   1      43.683  28.154  33.533  1.00  0.00     0.049 A 
ATOM     65  H   UNL A   1      42.086  29.533  33.482  1.00  0.00     0.167 HD
ATOM     66  C   UNL A   1      43.910  29.411  35.665  1.00  0.00     0.074 A 
ATOM     67  C   UNL A   1      44.561  29.692  36.928  1.00  0.00     0.031 C 
ATOM     68  C   UNL A   1      44.309  28.440  34.803  1.00  0.00     0.034 A 
BRANCH  55  69
ATOM     69  C   UNL A   1      40.841  28.031  29.667  1.00  0.00     0.023 A 
ATOM     70  C   UNL A   1      41.679  28.186  28.548  1.00  0.00     0.031 A 
ATOM     71  C   UNL A   1      39.695  27.229  29.525  1.00  0.00     0.131 A 
ATOM     72  C   UNL A   1      41.320  27.608  27.320  1.00  0.00     0.055 A 
ATOM     73  C   UNL A   1      39.383  26.595  28.321  1.00  0.00     0.041 A 
ATOM     74  F   UNL A   1      38.846  27.063  30.552  1.00  0.00    -0.206 F 
ATOM     75  C   UNL A   1      40.191  26.795  27.204  1.00  0.00     0.022 A 
BRANCH  72  76
ATOM     76  S   UNL A   1      42.275  28.048  25.841  1.00  0.00     0.124 S 
ATOM     77  O   UNL A   1      43.639  28.073  26.362  1.00  0.00    -0.237 OA
ATOM     78  O   UNL A   1      41.960  26.958  24.926  1.00  0.00    -0.237 OA
ATOM     79  O   UNL A   1      41.740  29.355  25.462  1.00  0.00    -0.744 OA
ENDBRANCH  72  76
ENDBRANCH  55  69
BRANCH  56  80
ATOM     80  C   UNL A   1      42.150  32.847  38.371  1.00  0.00     0.023 A 
ATOM     81  C   UNL A   1      41.382  32.461  39.480  1.00  0.00     0.031 A 
ATOM     82  C   UNL A   1      43.051  33.915  38.531  1.00  0.00     0.131 A 
ATOM     83  C   UNL A   1      41.504  33.159  40.691  1.00  0.00     0.055 A 
ATOM     84  C   UNL A   1      43.205  34.574  39.751  1.00  0.00     0.041 A 
ATOM     85  F   UNL A   1      43.808  34.325  37.500  1.00  0.00    -0.206 F 
ATOM     86  C   UNL A   1      42.419  34.205  40.838  1.00  0.00     0.022 A 
BRANCH  83  87
ATOM     87  S   UNL A   1      40.391  32.732  42.057  1.00  0.00     0.124 S 
ATOM     88  O   UNL A   1      40.261  31.288  41.896  1.00  0.00    -0.237 OA
ATOM     89  O   UNL A   1      41.149  33.182  43.219  1.00  0.00    -0.237 OA
ATOM     90  O   UNL A   1      39.184  33.503  41.767  1.00  0.00    -0.744 OA
ENDBRANCH  83  87
ENDBRANCH  56  80
BRANCH  68  91
ATOM     91  C   UNL A   1      45.533  27.650  35.188  1.00  0.00     0.023 A 
ATOM     92  C   UNL A   1      45.439  26.439  35.896  1.00  0.00     0.031 A 
ATOM     93  C   UNL A   1      46.813  28.125  34.851  1.00  0.00     0.131 A 
ATOM     94  C   UNL A   1      46.607  25.766  36.284  1.00  0.00     0.055 A 
ATOM     95  C   UNL A   1      47.969  27.427  35.197  1.00  0.00     0.041 A 
ATOM     96  F   UNL A   1      46.957  29.278  34.177  1.00  0.00    -0.206 F 
ATOM     97  C   UNL A   1      47.871  26.246  35.927  1.00  0.00     0.022 A 
BRANCH  94  98
ATOM     98  S   UNL A   1      46.460  24.289  37.327  1.00  0.00     0.124 S 
ATOM     99  O   UNL A   1      47.437  24.561  38.376  1.00  0.00    -0.237 OA
ATOM    100  O   UNL A   1      45.059  24.331  37.732  1.00  0.00    -0.237 OA
ATOM    101  O   UNL A   1      46.809  23.194  36.423  1.00  0.00    -0.744 OA
ENDBRANCH  94  98
ENDBRANCH  68  91
ENDBRANCH  42  43
ENDBRANCH  35  37
ENDBRANCH  34  35
ENDBRANCH  33  34
ENDBRANCH  32  33
ENDBRANCH  31  32
ENDBRANCH  29  31
ENDBRANCH   1  29
TORSDOF 24
ENDMDL
MODEL 2
REMARK VINA RESULT:     -10.2      2.106      8.014
REMARK SMILES CCCCCCNC(=O)Oc1cccc(-c2ccc([C@@H](C)C(=O)OCCOC(=O)c3ccc(-c4c5nc(c(-c6cc(S(=O)(=O)[O-])ccc6F)c6ccc([nH]6)c(-c6cc(S(=O)(=O)[O-])ccc6F)c6nc(c(-c7cc(S(=O)(=O)[O-])ccc7F)c7ccc4[nH]7)C=C6)C=C5)cc3)cc2N)c1
REMARK SMILES IDX 20 1 21 2 19 3 16 4 17 5 94 6 18 7 93 8 15 9 11 10 12 11
REMARK SMILES IDX 96 12 13 13 14 14 10 15 8 16 7 17 9 19 6 20 5 21 4 22 3 23
REMARK SMILES IDX 2 24 1 25 95 26 22 29 23 30 24 31 25 32 26 33 27 34 28 35
REMARK SMILES IDX 29 36 30 37 31 38 92 39 32 40 91 41 33 42 34 43 35 44 85 45
REMARK SMILES IDX 36 46 90 47 84 48 86 49 37 50 89 51 83 52 82 53 38 55 70 56
REMARK SMILES IDX 50 57 69 58 51 59 54 60 68 61 87 62 52 63 53 64 67 66 88 67
REMARK SMILES IDX 55 68 39 69 40 70 48 71 41 72 47 73 49 74 46 75 42 76 43 77
REMARK SMILES IDX 44 78 45 79 71 80 72 81 80 82 73 83 79 84 81 85 78 86 74 87
REMARK SMILES IDX 75 88 76 89 77 90 56 91 57 92 65 93 58 94 64 95 66 96 63 97
REMARK SMILES IDX 59 98 60 99 61 100 62 101
REMARK H PARENT 7 18 95 27 95 28 86 54 54 65
REMARK Flexibility Score: inf
ROOT
ATOM      1  C   UNL A   1      34.415  32.918  28.887  1.00  0.00     0.126 C 
ATOM      2  C   UNL A   1      35.880  33.233  29.182  1.00  0.00     0.025 C 
ENDROOT
BRANCH   1   3
ATOM      3  C   UNL A   1      34.256  31.701  27.989  1.00  0.00    -0.032 A 
ATOM      4  C   UNL A   1      33.847  29.414  26.342  1.00  0.00     0.005 A 
ATOM      5  C   UNL A   1      34.999  29.553  27.143  1.00  0.00     0.011 A 
ATOM      6  C   UNL A   1      32.900  30.462  26.345  1.00  0.00     0.040 A 
ATOM      7  C   UNL A   1      35.198  30.669  27.957  1.00  0.00     0.005 A 
ATOM      8  C   UNL A   1      33.113  31.574  27.180  1.00  0.00     0.030 A 
BRANCH   4   9
ATOM      9  C   UNL A   1      33.674  28.172  25.557  1.00  0.00    -0.013 A 
ATOM     10  C   UNL A   1      33.080  25.827  25.376  1.00  0.00     0.133 A 
ATOM     11  C   UNL A   1      33.436  25.813  24.028  1.00  0.00     0.047 A 
ATOM     12  C   UNL A   1      33.188  26.989  26.141  1.00  0.00     0.056 A 
ATOM     13  C   UNL A   1      33.891  26.982  23.430  1.00  0.00     0.004 A 
ATOM     14  C   UNL A   1      34.014  28.148  24.191  1.00  0.00     0.009 A 
BRANCH  10  15
ATOM     15  O   UNL A   1      32.767  24.582  25.949  1.00  0.00    -0.410 OA
BRANCH  15  16
ATOM     16  C   UNL A   1      32.077  23.636  25.206  1.00  0.00     0.412 C 
ATOM     17  N   UNL A   1      30.720  23.721  25.364  1.00  0.00    -0.321 N 
ATOM     18  H   UNL A   1      30.176  23.082  24.849  1.00  0.00     0.167 HD
ATOM     19  O   UNL A   1      32.580  22.774  24.496  1.00  0.00    -0.224 OA
BRANCH  17  20
ATOM     20  C   UNL A   1      29.999  24.653  26.210  1.00  0.00     0.119 C 
BRANCH  20  21
ATOM     21  C   UNL A   1      29.852  26.033  25.571  1.00  0.00     0.021 C 
BRANCH  21  22
ATOM     22  C   UNL A   1      29.402  26.027  24.106  1.00  0.00     0.002 C 
BRANCH  22  23
ATOM     23  C   UNL A   1      30.201  26.931  23.160  1.00  0.00    -0.000 C 
BRANCH  23  24
ATOM     24  C   UNL A   1      29.823  28.414  23.187  1.00  0.00    -0.003 C 
ATOM     25  C   UNL A   1      28.337  28.663  22.978  1.00  0.00     0.004 C 
ENDBRANCH  23  24
ENDBRANCH  22  23
ENDBRANCH  21  22
ENDBRANCH  20  21
ENDBRANCH  17  20
ENDBRANCH  15  16
ENDBRANCH  10  15
ENDBRANCH   4   9
BRANCH   6  26
ATOM     26  N   UNL A   1      31.672  30.366  25.689  1.00  0.00    -0.398 N 
ATOM     27  H   UNL A   1      31.532  29.672  25.005  1.00  0.00     0.156 HD
ATOM     28  H   UNL A   1      30.946  30.993  25.910  1.00  0.00     0.156 HD
ENDBRANCH   6  26
ENDBRANCH   1   3
BRANCH   1  29
ATOM     29  C   UNL A   1      33.695  34.185  28.440  1.00  0.00     0.313 C 
ATOM     30  O   UNL A   1      32.549  34.162  28.002  1.00  0.00    -0.252 OA
BRANCH  29  31
ATOM     31  O   UNL A   1      34.414  35.322  28.627  1.00  0.00    -0.462 OA
BRANCH  31  32
ATOM     32  C   UNL A   1      33.671  36.548  28.746  1.00  0.00     0.274 C 
BRANCH  32  33
ATOM     33  C   UNL A   1      32.617  36.450  29.850  1.00  0.00     0.275 C 
BRANCH  33  34
ATOM     34  O   UNL A   1      33.210  36.620  31.150  1.00  0.00    -0.458 OA
BRANCH  34  35
ATOM     35  C   UNL A   1      32.895  35.662  32.053  1.00  0.00     0.338 C 
ATOM     36  O   UNL A   1      31.800  35.422  32.524  1.00  0.00    -0.246 OA
BRANCH  35  37
ATOM     37  C   UNL A   1      34.087  34.850  32.329  1.00  0.00     0.060 A 
ATOM     38  C   UNL A   1      33.913  33.548  32.802  1.00  0.00     0.016 A 
ATOM     39  C   UNL A   1      35.364  35.396  32.197  1.00  0.00     0.016 A 
ATOM     40  C   UNL A   1      35.019  32.781  33.157  1.00  0.00     0.010 A 
ATOM     41  C   UNL A   1      36.475  34.621  32.543  1.00  0.00     0.010 A 
ATOM     42  C   UNL A   1      36.309  33.314  33.035  1.00  0.00    -0.014 A 
BRANCH  42  43
ATOM     43  C   UNL A   1      37.485  32.523  33.470  1.00  0.00     0.031 A 
ATOM     44  C   UNL A   1      38.184  32.880  34.751  1.00  0.00     0.074 A 
ATOM     45  C   UNL A   1      37.920  31.495  32.719  1.00  0.00     0.049 A 
ATOM     46  N   UNL A   1      39.297  32.407  35.248  1.00  0.00    -0.248 NA
ATOM     47  C   UNL A   1      37.543  33.912  35.578  1.00  0.00     0.031 C 
ATOM     48  C   UNL A   1      37.286  31.025  31.487  1.00  0.00     0.029 A 
ATOM     49  N   UNL A   1      39.002  30.667  32.876  1.00  0.00    -0.354 N 
ATOM     50  C   UNL A   1      39.502  33.096  36.439  1.00  0.00     0.074 A 
ATOM     51  C   UNL A   1      38.408  34.035  36.574  1.00  0.00     0.031 C 
ATOM     52  C   UNL A   1      37.996  29.998  30.994  1.00  0.00     0.029 A 
ATOM     53  C   UNL A   1      39.164  29.774  31.842  1.00  0.00     0.049 A 
ATOM     54  H   UNL A   1      39.606  30.709  33.652  1.00  0.00     0.167 HD
ATOM     55  C   UNL A   1      40.513  32.954  37.334  1.00  0.00     0.034 A 
ATOM     56  C   UNL A   1      40.163  28.905  31.588  1.00  0.00     0.034 A 
ATOM     57  C   UNL A   1      41.598  32.016  37.175  1.00  0.00     0.049 A 
ATOM     58  C   UNL A   1      41.319  28.826  32.550  1.00  0.00     0.074 A 
ATOM     59  C   UNL A   1      42.674  31.786  38.015  1.00  0.00     0.029 A 
ATOM     60  N   UNL A   1      41.750  31.154  36.093  1.00  0.00    -0.354 N 
ATOM     61  N   UNL A   1      41.519  29.502  33.659  1.00  0.00    -0.248 NA
ATOM     62  C   UNL A   1      42.387  27.872  32.224  1.00  0.00     0.031 C 
ATOM     63  C   UNL A   1      43.505  30.832  37.416  1.00  0.00     0.029 A 
ATOM     64  C   UNL A   1      42.916  30.415  36.232  1.00  0.00     0.049 A 
ATOM     65  H   UNL A   1      41.123  31.081  35.339  1.00  0.00     0.167 HD
ATOM     66  C   UNL A   1      42.725  29.036  34.174  1.00  0.00     0.074 A 
ATOM     67  C   UNL A   1      43.201  28.016  33.262  1.00  0.00     0.031 C 
ATOM     68  C   UNL A   1      43.380  29.412  35.303  1.00  0.00     0.034 A 
BRANCH  55  69
ATOM     69  C   UNL A   1      40.513  33.881  38.525  1.00  0.00     0.023 A 
ATOM     70  C   UNL A   1      39.718  33.635  39.658  1.00  0.00     0.031 A 
ATOM     71  C   UNL A   1      41.293  35.050  38.508  1.00  0.00     0.131 A 
ATOM     72  C   UNL A   1      39.666  34.581  40.695  1.00  0.00     0.055 A 
ATOM     73  C   UNL A   1      41.295  35.950  39.576  1.00  0.00     0.041 A 
ATOM     74  F   UNL A   1      42.054  35.349  37.444  1.00  0.00    -0.206 F 
ATOM     75  C   UNL A   1      40.466  35.725  40.672  1.00  0.00     0.022 A 
BRANCH  72  76
ATOM     76  S   UNL A   1      38.433  34.364  42.009  1.00  0.00     0.124 S 
ATOM     77  O   UNL A   1      38.458  35.671  42.660  1.00  0.00    -0.237 OA
ATOM     78  O   UNL A   1      37.225  34.046  41.259  1.00  0.00    -0.237 OA
ATOM     79  O   UNL A   1      38.976  33.269  42.812  1.00  0.00    -0.744 OA
ENDBRANCH  72  76
ENDBRANCH  55  69
BRANCH  56  80
ATOM     80  C   UNL A   1      40.147  28.086  30.342  1.00  0.00     0.023 A 
ATOM     81  C   UNL A   1      40.944  28.426  29.239  1.00  0.00     0.031 A 
ATOM     82  C   UNL A   1      39.298  26.971  30.226  1.00  0.00     0.131 A 
ATOM     83  C   UNL A   1      40.851  27.679  28.054  1.00  0.00     0.055 A 
ATOM     84  C   UNL A   1      39.245  26.202  29.063  1.00  0.00     0.041 A 
ATOM     85  F   UNL A   1      38.513  26.605  31.252  1.00  0.00    -0.206 F 
ATOM     86  C   UNL A   1      40.017  26.562  27.963  1.00  0.00     0.022 A 
BRANCH  83  87
ATOM     87  S   UNL A   1      41.783  28.235  26.601  1.00  0.00     0.124 S 
ATOM     88  O   UNL A   1      41.999  26.982  25.888  1.00  0.00    -0.237 OA
ATOM     89  O   UNL A   1      40.851  29.172  25.983  1.00  0.00    -0.237 OA
ATOM     90  O   UNL A   1      42.982  28.840  27.176  1.00  0.00    -0.744 OA
ENDBRANCH  83  87
ENDBRANCH  56  80
BRANCH  68  91
ATOM     91  C   UNL A   1      44.656  28.677  35.625  1.00  0.00     0.023 A 
ATOM     92  C   UNL A   1      45.893  29.075  35.091  1.00  0.00     0.031 A 
ATOM     93  C   UNL A   1      44.628  27.555  36.472  1.00  0.00     0.131 A 
ATOM     94  C   UNL A   1      47.047  28.328  35.372  1.00  0.00     0.055 A 
ATOM     95  C   UNL A   1      45.785  26.845  36.788  1.00  0.00     0.041 A 
ATOM     96  F   UNL A   1      43.470  27.134  37.007  1.00  0.00    -0.206 F 
ATOM     97  C   UNL A   1      47.002  27.223  36.228  1.00  0.00     0.022 A 
BRANCH  94  98
ATOM     98  S   UNL A   1      48.600  28.772  34.547  1.00  0.00     0.124 S 
ATOM     99  O   UNL A   1      48.361  28.312  33.183  1.00  0.00    -0.237 OA
ATOM    100  O   UNL A   1      48.649  30.219  34.732  1.00  0.00    -0.237 OA
ATOM    101  O   UNL A   1      49.611  28.020  35.288  1.00  0.00    -0.744 OA
ENDBRANCH  94  98
ENDBRANCH  68  91
ENDBRANCH  42  43
ENDBRANCH  35  37
ENDBRANCH  34  35
ENDBRANCH  33  34
ENDBRANCH  32  33
ENDBRANCH  31  32
ENDBRANCH  29  31
ENDBRANCH   1  29
TORSDOF 24
ENDMDL
MODEL 3
REMARK VINA RESULT:     -10.1      5.172      9.024
REMARK SMILES CCCCCCNC(=O)Oc1cccc(-c2ccc([C@@H](C)C(=O)OCCOC(=O)c3ccc(-c4c5nc(c(-c6cc(S(=O)(=O)[O-])ccc6F)c6ccc([nH]6)c(-c6cc(S(=O)(=O)[O-])ccc6F)c6nc(c(-c7cc(S(=O)(=O)[O-])ccc7F)c7ccc4[nH]7)C=C6)C=C5)cc3)cc2N)c1
REMARK SMILES IDX 20 1 21 2 19 3 16 4 17 5 94 6 18 7 93 8 15 9 11 10 12 11
REMARK SMILES IDX 96 12 13 13 14 14 10 15 8 16 7 17 9 19 6 20 5 21 4 22 3 23
REMARK SMILES IDX 2 24 1 25 95 26 22 29 23 30 24 31 25 32 26 33 27 34 28 35
REMARK SMILES IDX 29 36 30 37 31 38 92 39 32 40 91 41 33 42 34 43 35 44 85 45
REMARK SMILES IDX 36 46 90 47 84 48 86 49 37 50 89 51 83 52 82 53 38 55 70 56
REMARK SMILES IDX 50 57 69 58 51 59 54 60 68 61 87 62 52 63 53 64 67 66 88 67
REMARK SMILES IDX 55 68 39 69 40 70 48 71 41 72 47 73 49 74 46 75 42 76 43 77
REMARK SMILES IDX 44 78 45 79 71 80 72 81 80 82 73 83 79 84 81 85 78 86 74 87
REMARK SMILES IDX 75 88 76 89 77 90 56 91 57 92 65 93 58 94 64 95 66 96 63 97
REMARK SMILES IDX 59 98 60 99 61 100 62 101
REMARK H PARENT 7 18 95 27 95 28 86 54 54 65
REMARK Flexibility Score: inf
ROOT
ATOM      1  C   UNL A   1      35.376  34.153  29.219  1.00  0.00     0.126 C 
ATOM      2  C   UNL A   1      34.537  34.387  27.964  1.00  0.00     0.025 C 
ENDROOT
BRANCH   1   3
ATOM      3  C   UNL A   1      36.299  32.952  29.081  1.00  0.00    -0.032 A 
ATOM      4  C   UNL A   1      37.936  30.634  28.851  1.00  0.00     0.005 A 
ATOM      5  C   UNL A   1      38.385  31.794  29.513  1.00  0.00     0.011 A 
ATOM      6  C   UNL A   1      36.651  30.653  28.265  1.00  0.00     0.040 A 
ATOM      7  C   UNL A   1      37.581  32.929  29.634  1.00  0.00     0.005 A 
ATOM      8  C   UNL A   1      35.851  31.802  28.406  1.00  0.00     0.030 A 
BRANCH   4   9
ATOM      9  C   UNL A   1      38.818  29.446  28.823  1.00  0.00    -0.013 A 
ATOM     10  C   UNL A   1      40.778  28.262  28.024  1.00  0.00     0.133 A 
ATOM     11  C   UNL A   1      40.420  27.125  28.746  1.00  0.00     0.047 A 
ATOM     12  C   UNL A   1      39.997  29.418  28.058  1.00  0.00     0.056 A 
ATOM     13  C   UNL A   1      39.272  27.148  29.529  1.00  0.00     0.004 A 
ATOM     14  C   UNL A   1      38.476  28.297  29.561  1.00  0.00     0.009 A 
BRANCH  10  15
ATOM     15  O   UNL A   1      41.866  28.122  27.144  1.00  0.00    -0.410 OA
BRANCH  15  16
ATOM     16  C   UNL A   1      41.955  27.001  26.333  1.00  0.00     0.412 C 
ATOM     17  N   UNL A   1      43.086  26.266  26.562  1.00  0.00    -0.321 N 
ATOM     18  H   UNL A   1      43.198  25.448  26.024  1.00  0.00     0.167 HD
ATOM     19  O   UNL A   1      41.153  26.675  25.467  1.00  0.00    -0.224 OA
BRANCH  17  20
ATOM     20  C   UNL A   1      44.139  26.564  27.515  1.00  0.00     0.119 C 
BRANCH  20  21
ATOM     21  C   UNL A   1      43.953  25.834  28.844  1.00  0.00     0.021 C 
BRANCH  21  22
ATOM     22  C   UNL A   1      44.444  24.381  28.863  1.00  0.00     0.002 C 
BRANCH  22  23
ATOM     23  C   UNL A   1      45.749  24.109  28.107  1.00  0.00    -0.000 C 
BRANCH  23  24
ATOM     24  C   UNL A   1      45.631  23.179  26.897  1.00  0.00    -0.003 C 
ATOM     25  C   UNL A   1      46.064  23.827  25.591  1.00  0.00     0.004 C 
ENDBRANCH  23  24
ENDBRANCH  22  23
ENDBRANCH  21  22
ENDBRANCH  20  21
ENDBRANCH  17  20
ENDBRANCH  15  16
ENDBRANCH  10  15
ENDBRANCH   4   9
BRANCH   6  26
ATOM     26  N   UNL A   1      36.066  29.519  27.701  1.00  0.00    -0.398 N 
ATOM     27  H   UNL A   1      35.809  29.517  26.751  1.00  0.00     0.156 HD
ATOM     28  H   UNL A   1      35.909  28.719  28.254  1.00  0.00     0.156 HD
ENDBRANCH   6  26
ENDBRANCH   1   3
BRANCH   1  29
ATOM     29  C   UNL A   1      34.479  34.177  30.451  1.00  0.00     0.313 C 
ATOM     30  O   UNL A   1      33.314  34.559  30.401  1.00  0.00    -0.252 OA
BRANCH  29  31
ATOM     31  O   UNL A   1      35.070  33.686  31.571  1.00  0.00    -0.462 OA
BRANCH  31  32
ATOM     32  C   UNL A   1      34.346  33.836  32.806  1.00  0.00     0.274 C 
BRANCH  32  33
ATOM     33  C   UNL A   1      35.226  33.486  34.007  1.00  0.00     0.275 C 
BRANCH  33  34
ATOM     34  O   UNL A   1      36.266  32.563  33.637  1.00  0.00    -0.458 OA
BRANCH  34  35
ATOM     35  C   UNL A   1      37.191  32.328  34.596  1.00  0.00     0.338 C 
ATOM     36  O   UNL A   1      37.084  32.527  35.791  1.00  0.00    -0.246 OA
BRANCH  35  37
ATOM     37  C   UNL A   1      38.360  31.678  33.989  1.00  0.00     0.060 A 
ATOM     38  C   UNL A   1      39.630  32.180  34.281  1.00  0.00     0.016 A 
ATOM     39  C   UNL A   1      38.199  30.634  33.079  1.00  0.00     0.016 A 
ATOM     40  C   UNL A   1      40.752  31.645  33.657  1.00  0.00     0.010 A 
ATOM     41  C   UNL A   1      39.327  30.090  32.459  1.00  0.00     0.010 A 
ATOM     42  C   UNL A   1      40.609  30.599  32.736  1.00  0.00    -0.014 A 
BRANCH  42  43
ATOM     43  C   UNL A   1      41.795  30.069  32.021  1.00  0.00     0.031 A 
ATOM     44  C   UNL A   1      42.451  28.809  32.508  1.00  0.00     0.074 A 
ATOM     45  C   UNL A   1      42.278  30.718  30.946  1.00  0.00     0.049 A 
ATOM     46  N   UNL A   1      43.564  28.247  32.113  1.00  0.00    -0.248 NA
ATOM     47  C   UNL A   1      41.761  28.090  33.588  1.00  0.00     0.031 C 
ATOM     48  C   UNL A   1      41.688  31.919  30.352  1.00  0.00     0.029 A 
ATOM     49  N   UNL A   1      43.378  30.465  30.167  1.00  0.00    -0.354 N 
ATOM     50  C   UNL A   1      43.719  27.116  32.908  1.00  0.00     0.074 A 
ATOM     51  C   UNL A   1      42.597  27.089  33.822  1.00  0.00     0.031 C 
ATOM     52  C   UNL A   1      42.440  32.304  29.308  1.00  0.00     0.029 A 
ATOM     53  C   UNL A   1      43.591  31.413  29.193  1.00  0.00     0.049 A 
ATOM     54  H   UNL A   1      43.960  29.682  30.293  1.00  0.00     0.167 HD
ATOM     55  C   UNL A   1      44.710  26.189  32.874  1.00  0.00     0.034 A 
ATOM     56  C   UNL A   1      44.619  31.568  28.336  1.00  0.00     0.034 A 
ATOM     57  C   UNL A   1      45.825  26.241  31.958  1.00  0.00     0.049 A 
ATOM     58  C   UNL A   1      45.753  30.576  28.375  1.00  0.00     0.074 A 
ATOM     59  C   UNL A   1      46.885  25.360  31.834  1.00  0.00     0.029 A 
ATOM     60  N   UNL A   1      46.029  27.240  31.012  1.00  0.00    -0.354 N 
ATOM     61  N   UNL A   1      45.906  29.526  29.149  1.00  0.00    -0.248 NA
ATOM     62  C   UNL A   1      46.855  30.793  27.429  1.00  0.00     0.031 C 
ATOM     63  C   UNL A   1      47.757  25.854  30.857  1.00  0.00     0.029 A 
ATOM     64  C   UNL A   1      47.211  27.010  30.322  1.00  0.00     0.049 A 
ATOM     65  H   UNL A   1      45.423  27.999  30.855  1.00  0.00     0.167 HD
ATOM     66  C   UNL A   1      47.111  28.945  28.766  1.00  0.00     0.074 A 
ATOM     67  C   UNL A   1      47.638  29.753  27.686  1.00  0.00     0.031 C 
ATOM     68  C   UNL A   1      47.725  27.838  29.257  1.00  0.00     0.034 A 
BRANCH  55  69
ATOM     69  C   UNL A   1      44.655  25.083  33.900  1.00  0.00     0.023 A 
ATOM     70  C   UNL A   1      45.096  25.274  35.222  1.00  0.00     0.031 A 
ATOM     71  C   UNL A   1      44.191  23.807  33.537  1.00  0.00     0.131 A 
ATOM     72  C   UNL A   1      45.129  24.188  36.111  1.00  0.00     0.055 A 
ATOM     73  C   UNL A   1      44.156  22.749  34.448  1.00  0.00     0.041 A 
ATOM     74  F   UNL A   1      43.779  23.560  32.284  1.00  0.00    -0.206 F 
ATOM     75  C   UNL A   1      44.641  22.933  35.741  1.00  0.00     0.022 A 
BRANCH  72  76
ATOM     76  S   UNL A   1      45.950  24.403  37.715  1.00  0.00     0.124 S 
ATOM     77  O   UNL A   1      46.309  25.818  37.679  1.00  0.00    -0.237 OA
ATOM     78  O   UNL A   1      44.901  24.034  38.658  1.00  0.00    -0.237 OA
ATOM     79  O   UNL A   1      47.082  23.481  37.649  1.00  0.00    -0.744 OA
ENDBRANCH  72  76
ENDBRANCH  55  69
BRANCH  56  80
ATOM     80  C   UNL A   1      44.659  32.737  27.413  1.00  0.00     0.023 A 
ATOM     81  C   UNL A   1      45.257  33.947  27.796  1.00  0.00     0.031 A 
ATOM     82  C   UNL A   1      44.057  32.671  26.143  1.00  0.00     0.131 A 
ATOM     83  C   UNL A   1      45.211  35.053  26.933  1.00  0.00     0.055 A 
ATOM     84  C   UNL A   1      44.057  33.758  25.269  1.00  0.00     0.041 A 
ATOM     85  F   UNL A   1      43.468  31.537  25.729  1.00  0.00    -0.206 F 
ATOM     86  C   UNL A   1      44.627  34.963  25.667  1.00  0.00     0.022 A 
BRANCH  83  87
ATOM     87  S   UNL A   1      45.861  36.641  27.520  1.00  0.00     0.124 S 
ATOM     88  O   UNL A   1      44.879  37.580  26.990  1.00  0.00    -0.237 OA
ATOM     89  O   UNL A   1      45.855  36.455  28.967  1.00  0.00    -0.237 OA
ATOM     90  O   UNL A   1      47.187  36.713  26.909  1.00  0.00    -0.744 OA
ENDBRANCH  83  87
ENDBRANCH  56  80
BRANCH  68  91
ATOM     91  C   UNL A   1      49.013  27.423  28.592  1.00  0.00     0.023 A 
ATOM     92  C   UNL A   1      50.266  27.790  29.113  1.00  0.00     0.031 A 
ATOM     93  C   UNL A   1      48.982  26.660  27.412  1.00  0.00     0.131 A 
ATOM     94  C   UNL A   1      51.437  27.431  28.429  1.00  0.00     0.055 A 
ATOM     95  C   UNL A   1      50.150  26.264  26.762  1.00  0.00     0.041 A 
ATOM     96  F   UNL A   1      47.810  26.286  26.872  1.00  0.00    -0.206 F 
ATOM     97  C   UNL A   1      51.387  26.659  27.264  1.00  0.00     0.022 A 
BRANCH  94  98
ATOM     98  S   UNL A   1      53.030  28.047  29.039  1.00  0.00     0.124 S 
ATOM     99  O   UNL A   1      53.124  27.402  30.345  1.00  0.00    -0.237 OA
ATOM    100  O   UNL A   1      53.961  27.568  28.023  1.00  0.00    -0.237 OA
ATOM    101  O   UNL A   1      52.848  29.497  29.075  1.00  0.00    -0.744 OA
ENDBRANCH  94  98
ENDBRANCH  68  91
ENDBRANCH  42  43
ENDBRANCH  35  37
ENDBRANCH  34  35
ENDBRANCH  33  34
ENDBRANCH  32  33
ENDBRANCH  31  32
ENDBRANCH  29  31
ENDBRANCH   1  29
TORSDOF 24
ENDMDL
