MODEL 1
REMARK VINA RESULT:     -13.7      0.000      0.000
REMARK SMILES Cc1cc2nc(NC(=O)[C@H]3[C@@H](C(=O)OCCOC(=O)c4ccc(-c5c6nc(c(-c7cc(S(=O)(=O)[O-])ccc7F)c7ccc([nH]7)c(-c7cc(S(=O)(=O)[O-])ccc7F)c7nc(c(-c8cc(S(=O)(=O)[O-])ccc8F)c8ccc5[nH]8)C=C7)C=C6)cc4)[C@@H]4C=C[C@H]3C4)sc2cc1C
REMARK SMILES IDX 16 1 15 2 14 3 12 4 13 5 11 6 10 7 86 8 83 9 85 10 87 11
REMARK SMILES IDX 84 12 8 13 7 14 9 16 6 17 1 18 2 19 3 20 91 21 4 22 90 23
REMARK SMILES IDX 92 24 5 25 89 26 88 27 17 28 18 29 19 30 20 31 21 32 82 33
REMARK SMILES IDX 22 34 81 35 23 36 24 37 25 38 75 39 26 40 80 41 74 42 76 43
REMARK SMILES IDX 27 44 79 45 73 46 72 47 28 49 60 50 40 51 59 52 41 53 44 54
REMARK SMILES IDX 58 55 77 56 42 57 43 58 57 60 78 61 45 62 29 63 30 64 38 65
REMARK SMILES IDX 31 66 37 67 39 68 36 69 32 70 33 71 34 72 35 73 61 74 62 75
REMARK SMILES IDX 70 76 63 77 69 78 71 79 68 80 64 81 65 82 66 83 67 84 46 85
REMARK SMILES IDX 47 86 55 87 48 88 54 89 56 90 53 91 49 92 50 93 51 94 52 95
REMARK H PARENT 7 15 76 48 44 59
REMARK Flexibility Score: inf
ROOT
ATOM      1  C   UNL A   1      34.476  21.609  26.555  1.00  0.00     0.275 C 
ENDROOT
BRANCH   1   2
ATOM      2  C   UNL A   1      34.177  23.001  27.357  1.00  0.00     0.274 C 
BRANCH   2   3
ATOM      3  O   UNL A   1      32.781  23.190  27.821  1.00  0.00    -0.462 OA
BRANCH   3   4
ATOM      4  C   UNL A   1      31.695  23.324  26.940  1.00  0.00     0.310 C 
ATOM      5  O   UNL A   1      30.543  23.475  27.314  1.00  0.00    -0.252 OA
BRANCH   4   6
ATOM      6  C   UNL A   1      32.174  23.226  25.443  1.00  0.00     0.119 C 
ATOM      7  C   UNL A   1      32.447  24.615  24.871  1.00  0.00     0.100 C 
ATOM      8  C   UNL A   1      32.210  24.574  23.363  1.00  0.00     0.025 C 
ATOM      9  C   UNL A   1      31.379  22.655  24.203  1.00  0.00     0.027 C 
ATOM     10  C   UNL A   1      32.970  23.457  22.704  1.00  0.00    -0.027 C 
ATOM     11  C   UNL A   1      30.883  23.874  23.381  1.00  0.00     0.017 C 
ATOM     12  C   UNL A   1      32.443  22.303  23.158  1.00  0.00    -0.027 C 
BRANCH   7  13
ATOM     13  C   UNL A   1      31.572  25.654  25.508  1.00  0.00     0.230 C 
ATOM     14  N   UNL A   1      31.898  26.930  25.884  1.00  0.00    -0.302 N 
ATOM     15  H   UNL A   1      31.048  27.376  26.104  1.00  0.00     0.172 HD
ATOM     16  O   UNL A   1      30.372  25.329  25.544  1.00  0.00    -0.274 OA
BRANCH  14  17
ATOM     17  C   UNL A   1      32.887  27.863  26.092  1.00  0.00     0.190 A 
ATOM     18  C   UNL A   1      36.885  30.507  29.485  1.00  0.00     0.044 C 
ATOM     19  C   UNL A   1      35.753  30.444  28.509  1.00  0.00    -0.046 A 
ATOM     20  C   UNL A   1      35.687  29.312  27.670  1.00  0.00     0.033 A 
ATOM     21  C   UNL A   1      34.758  31.436  28.475  1.00  0.00    -0.047 A 
ATOM     22  C   UNL A   1      34.515  29.046  26.952  1.00  0.00     0.084 A 
ATOM     23  C   UNL A   1      33.649  31.250  27.646  1.00  0.00     0.025 A 
ATOM     24  C   UNL A   1      34.777  32.643  29.382  1.00  0.00     0.044 C 
ATOM     25  N   UNL A   1      34.164  27.826  26.335  1.00  0.00    -0.220 NA
ATOM     26  C   UNL A   1      33.542  30.040  26.943  1.00  0.00     0.057 A 
ATOM     27  S   UNL A   1      32.261  29.481  25.989  1.00  0.00    -0.097 S 
ENDBRANCH  14  17
ENDBRANCH   7  13
ENDBRANCH   4   6
ENDBRANCH   3   4
ENDBRANCH   2   3
ENDBRANCH   1   2
BRANCH   1  28
ATOM     28  O   UNL A   1      35.428  21.703  25.400  1.00  0.00    -0.458 OA
BRANCH  28  29
ATOM     29  C   UNL A   1      36.657  21.033  25.334  1.00  0.00     0.338 C 
ATOM     30  O   UNL A   1      36.810  19.902  24.977  1.00  0.00    -0.246 OA
BRANCH  29  31
ATOM     31  C   UNL A   1      37.787  22.091  25.510  1.00  0.00     0.060 A 
ATOM     32  C   UNL A   1      39.049  21.781  26.027  1.00  0.00     0.016 A 
ATOM     33  C   UNL A   1      37.420  23.446  25.535  1.00  0.00     0.016 A 
ATOM     34  C   UNL A   1      39.794  22.749  26.769  1.00  0.00     0.010 A 
ATOM     35  C   UNL A   1      38.132  24.385  26.333  1.00  0.00     0.010 A 
ATOM     36  C   UNL A   1      39.291  24.034  27.044  1.00  0.00    -0.014 A 
BRANCH  36  37
ATOM     37  C   UNL A   1      40.117  25.052  27.782  1.00  0.00     0.031 A 
ATOM     38  C   UNL A   1      41.447  25.202  27.165  1.00  0.00     0.074 A 
ATOM     39  C   UNL A   1      39.969  25.960  28.794  1.00  0.00     0.049 A 
ATOM     40  N   UNL A   1      42.538  24.687  27.615  1.00  0.00    -0.248 NA
ATOM     41  C   UNL A   1      41.573  25.950  25.914  1.00  0.00     0.031 C 
ATOM     42  C   UNL A   1      38.787  26.414  29.502  1.00  0.00     0.029 A 
ATOM     43  N   UNL A   1      40.933  26.782  29.370  1.00  0.00    -0.354 N 
ATOM     44  C   UNL A   1      43.538  25.181  26.802  1.00  0.00     0.074 A 
ATOM     45  C   UNL A   1      42.874  25.793  25.670  1.00  0.00     0.031 C 
ATOM     46  C   UNL A   1      39.014  27.565  30.174  1.00  0.00     0.029 A 
ATOM     47  C   UNL A   1      40.430  27.830  30.140  1.00  0.00     0.049 A 
ATOM     48  H   UNL A   1      41.898  26.634  29.244  1.00  0.00     0.167 HD
ATOM     49  C   UNL A   1      44.835  25.233  27.211  1.00  0.00     0.034 A 
ATOM     50  C   UNL A   1      41.083  28.841  30.765  1.00  0.00     0.034 A 
ATOM     51  C   UNL A   1      45.060  24.534  28.454  1.00  0.00     0.049 A 
ATOM     52  C   UNL A   1      42.479  28.428  30.975  1.00  0.00     0.074 A 
ATOM     53  C   UNL A   1      44.673  23.295  28.935  1.00  0.00     0.029 A 
ATOM     54  N   UNL A   1      45.476  25.234  29.563  1.00  0.00    -0.354 N 
ATOM     55  N   UNL A   1      42.862  27.607  31.905  1.00  0.00    -0.248 NA
ATOM     56  C   UNL A   1      43.472  28.746  29.970  1.00  0.00     0.031 C 
ATOM     57  C   UNL A   1      44.365  23.508  30.306  1.00  0.00     0.029 A 
ATOM     58  C   UNL A   1      44.710  24.819  30.635  1.00  0.00     0.049 A 
ATOM     59  H   UNL A   1      46.191  25.910  29.589  1.00  0.00     0.167 HD
ATOM     60  C   UNL A   1      43.989  26.993  31.417  1.00  0.00     0.074 A 
ATOM     61  C   UNL A   1      44.394  27.836  30.290  1.00  0.00     0.031 C 
ATOM     62  C   UNL A   1      44.281  25.693  31.734  1.00  0.00     0.034 A 
BRANCH  49  63
ATOM     63  C   UNL A   1      45.833  26.124  26.542  1.00  0.00     0.023 A 
ATOM     64  C   UNL A   1      46.062  27.445  26.972  1.00  0.00     0.031 A 
ATOM     65  C   UNL A   1      46.639  25.658  25.495  1.00  0.00     0.131 A 
ATOM     66  C   UNL A   1      46.924  28.297  26.279  1.00  0.00     0.055 A 
ATOM     67  C   UNL A   1      47.582  26.478  24.865  1.00  0.00     0.041 A 
ATOM     68  F   UNL A   1      46.538  24.392  25.063  1.00  0.00    -0.206 F 
ATOM     69  C   UNL A   1      47.703  27.816  25.232  1.00  0.00     0.022 A 
BRANCH  66  70
ATOM     70  S   UNL A   1      46.937  30.072  26.648  1.00  0.00     0.124 S 
ATOM     71  O   UNL A   1      46.252  30.112  27.935  1.00  0.00    -0.237 OA
ATOM     72  O   UNL A   1      48.368  30.363  26.681  1.00  0.00    -0.237 OA
ATOM     73  O   UNL A   1      46.218  30.655  25.518  1.00  0.00    -0.744 OA
ENDBRANCH  66  70
ENDBRANCH  49  63
BRANCH  50  74
ATOM     74  C   UNL A   1      40.623  30.187  31.187  1.00  0.00     0.023 A 
ATOM     75  C   UNL A   1      39.838  30.320  32.347  1.00  0.00     0.031 A 
ATOM     76  C   UNL A   1      40.687  31.299  30.324  1.00  0.00     0.131 A 
ATOM     77  C   UNL A   1      39.100  31.494  32.575  1.00  0.00     0.055 A 
ATOM     78  C   UNL A   1      39.966  32.475  30.565  1.00  0.00     0.041 A 
ATOM     79  F   UNL A   1      41.406  31.252  29.193  1.00  0.00    -0.206 F 
ATOM     80  C   UNL A   1      39.153  32.571  31.688  1.00  0.00     0.022 A 
BRANCH  77  81
ATOM     81  S   UNL A   1      38.008  31.617  34.019  1.00  0.00     0.124 S 
ATOM     82  O   UNL A   1      38.265  30.364  34.727  1.00  0.00    -0.237 OA
ATOM     83  O   UNL A   1      38.512  32.819  34.673  1.00  0.00    -0.237 OA
ATOM     84  O   UNL A   1      36.679  31.723  33.424  1.00  0.00    -0.744 OA
ENDBRANCH  77  81
ENDBRANCH  50  74
BRANCH  62  85
ATOM     85  C   UNL A   1      43.817  25.031  33.062  1.00  0.00     0.023 A 
ATOM     86  C   UNL A   1      42.972  25.804  33.898  1.00  0.00     0.031 A 
ATOM     87  C   UNL A   1      44.154  23.762  33.590  1.00  0.00     0.131 A 
ATOM     88  C   UNL A   1      42.632  25.402  35.204  1.00  0.00     0.055 A 
ATOM     89  C   UNL A   1      43.736  23.326  34.862  1.00  0.00     0.041 A 
ATOM     90  F   UNL A   1      44.956  22.885  32.976  1.00  0.00    -0.206 F 
ATOM     91  C   UNL A   1      43.002  24.157  35.691  1.00  0.00     0.022 A 
BRANCH  88  92
ATOM     92  S   UNL A   1      41.753  26.529  36.317  1.00  0.00     0.124 S 
ATOM     93  O   UNL A   1      42.833  27.088  37.128  1.00  0.00    -0.237 OA
ATOM     94  O   UNL A   1      41.137  27.459  35.373  1.00  0.00    -0.237 OA
ATOM     95  O   UNL A   1      40.831  25.657  37.038  1.00  0.00    -0.744 OA
ENDBRANCH  88  92
ENDBRANCH  62  85
ENDBRANCH  36  37
ENDBRANCH  29  31
ENDBRANCH  28  29
ENDBRANCH   1  28
TORSDOF 16
ENDMDL
MODEL 2
REMARK VINA RESULT:     -13.6      3.303      9.387
REMARK SMILES Cc1cc2nc(NC(=O)[C@H]3[C@@H](C(=O)OCCOC(=O)c4ccc(-c5c6nc(c(-c7cc(S(=O)(=O)[O-])ccc7F)c7ccc([nH]7)c(-c7cc(S(=O)(=O)[O-])ccc7F)c7nc(c(-c8cc(S(=O)(=O)[O-])ccc8F)c8ccc5[nH]8)C=C7)C=C6)cc4)[C@@H]4C=C[C@H]3C4)sc2cc1C
REMARK SMILES IDX 16 1 15 2 14 3 12 4 13 5 11 6 10 7 86 8 83 9 85 10 87 11
REMARK SMILES IDX 84 12 8 13 7 14 9 16 6 17 1 18 2 19 3 20 91 21 4 22 90 23
REMARK SMILES IDX 92 24 5 25 89 26 88 27 17 28 18 29 19 30 20 31 21 32 82 33
REMARK SMILES IDX 22 34 81 35 23 36 24 37 25 38 75 39 26 40 80 41 74 42 76 43
REMARK SMILES IDX 27 44 79 45 73 46 72 47 28 49 60 50 40 51 59 52 41 53 44 54
REMARK SMILES IDX 58 55 77 56 42 57 43 58 57 60 78 61 45 62 29 63 30 64 38 65
REMARK SMILES IDX 31 66 37 67 39 68 36 69 32 70 33 71 34 72 35 73 61 74 62 75
REMARK SMILES IDX 70 76 63 77 69 78 71 79 68 80 64 81 65 82 66 83 67 84 46 85
REMARK SMILES IDX 47 86 55 87 48 88 54 89 56 90 53 91 49 92 50 93 51 94 52 95
REMARK H PARENT 7 15 76 48 44 59
REMARK Flexibility Score: inf
ROOT
ATOM      1  C   UNL A   1      32.712  29.295  23.416  1.00  0.00     0.275 C 
ENDROOT
BRANCH   1   2
ATOM      2  C   UNL A   1      34.051  28.561  22.837  1.00  0.00     0.274 C 
BRANCH   2   3
ATOM      3  O   UNL A   1      34.190  27.122  23.166  1.00  0.00    -0.462 OA
BRANCH   3   4
ATOM      4  C   UNL A   1      33.434  26.118  22.539  1.00  0.00     0.310 C 
ATOM      5  O   UNL A   1      33.630  25.748  21.392  1.00  0.00    -0.252 OA
BRANCH   4   6
ATOM      6  C   UNL A   1      32.311  25.579  23.503  1.00  0.00     0.119 C 
ATOM      7  C   UNL A   1      32.827  24.404  24.330  1.00  0.00     0.100 C 
ATOM      8  C   UNL A   1      31.647  23.499  24.677  1.00  0.00     0.025 C 
ATOM      9  C   UNL A   1      30.916  24.950  23.115  1.00  0.00     0.027 C 
ATOM     10  C   UNL A   1      30.517  24.267  25.305  1.00  0.00    -0.027 C 
ATOM     11  C   UNL A   1      31.040  23.415  23.307  1.00  0.00     0.017 C 
ATOM     12  C   UNL A   1      30.035  25.099  24.361  1.00  0.00    -0.027 C 
BRANCH   7  13
ATOM     13  C   UNL A   1      33.876  23.628  23.587  1.00  0.00     0.230 C 
ATOM     14  N   UNL A   1      35.094  23.194  24.037  1.00  0.00    -0.302 N 
ATOM     15  H   UNL A   1      35.438  22.580  23.349  1.00  0.00     0.172 HD
ATOM     16  O   UNL A   1      33.490  23.218  22.478  1.00  0.00    -0.274 OA
BRANCH  14  17
ATOM     17  C   UNL A   1      36.051  23.239  25.024  1.00  0.00     0.190 A 
ATOM     18  C   UNL A   1      41.221  25.038  27.153  1.00  0.00     0.044 C 
ATOM     19  C   UNL A   1      40.147  24.044  26.838  1.00  0.00    -0.046 A 
ATOM     20  C   UNL A   1      38.821  24.521  26.790  1.00  0.00     0.033 A 
ATOM     21  C   UNL A   1      40.454  22.707  26.535  1.00  0.00    -0.047 A 
ATOM     22  C   UNL A   1      37.817  23.727  26.222  1.00  0.00     0.084 A 
ATOM     23  C   UNL A   1      39.427  21.861  26.106  1.00  0.00     0.025 A 
ATOM     24  C   UNL A   1      41.865  22.170  26.542  1.00  0.00     0.044 C 
ATOM     25  N   UNL A   1      36.537  24.156  25.808  1.00  0.00    -0.220 NA
ATOM     26  C   UNL A   1      38.149  22.410  25.921  1.00  0.00     0.057 A 
ATOM     27  S   UNL A   1      36.764  21.675  25.283  1.00  0.00    -0.097 S 
ENDBRANCH  14  17
ENDBRANCH   7  13
ENDBRANCH   4   6
ENDBRANCH   3   4
ENDBRANCH   2   3
ENDBRANCH   1   2
BRANCH   1  28
ATOM     28  O   UNL A   1      32.464  29.152  24.889  1.00  0.00    -0.458 OA
BRANCH  28  29
ATOM     29  C   UNL A   1      32.295  30.229  25.769  1.00  0.00     0.338 C 
ATOM     30  O   UNL A   1      31.360  30.974  25.780  1.00  0.00    -0.246 OA
BRANCH  29  31
ATOM     31  C   UNL A   1      33.365  30.097  26.894  1.00  0.00     0.060 A 
ATOM     32  C   UNL A   1      33.828  31.188  27.637  1.00  0.00     0.016 A 
ATOM     33  C   UNL A   1      34.176  28.952  26.898  1.00  0.00     0.016 A 
ATOM     34  C   UNL A   1      35.164  31.213  28.146  1.00  0.00     0.010 A 
ATOM     35  C   UNL A   1      35.526  29.010  27.344  1.00  0.00     0.010 A 
ATOM     36  C   UNL A   1      36.081  30.175  27.899  1.00  0.00    -0.014 A 
BRANCH  36  37
ATOM     37  C   UNL A   1      37.464  30.201  28.488  1.00  0.00     0.031 A 
ATOM     38  C   UNL A   1      37.430  30.623  29.900  1.00  0.00     0.074 A 
ATOM     39  C   UNL A   1      38.740  29.850  28.139  1.00  0.00     0.049 A 
ATOM     40  N   UNL A   1      37.735  31.797  30.332  1.00  0.00    -0.248 NA
ATOM     41  C   UNL A   1      36.972  29.677  30.917  1.00  0.00     0.031 C 
ATOM     42  C   UNL A   1      39.247  29.112  26.997  1.00  0.00     0.029 A 
ATOM     43  N   UNL A   1      39.918  30.036  28.857  1.00  0.00    -0.354 N 
ATOM     44  C   UNL A   1      37.677  31.706  31.708  1.00  0.00     0.074 A 
ATOM     45  C   UNL A   1      37.026  30.447  32.003  1.00  0.00     0.031 C 
ATOM     46  C   UNL A   1      40.508  28.672  27.202  1.00  0.00     0.029 A 
ATOM     47  C   UNL A   1      41.004  29.285  28.408  1.00  0.00     0.049 A 
ATOM     48  H   UNL A   1      39.979  30.650  29.622  1.00  0.00     0.167 HD
ATOM     49  C   UNL A   1      38.348  32.574  32.514  1.00  0.00     0.034 A 
ATOM     50  C   UNL A   1      42.254  29.174  28.922  1.00  0.00     0.034 A 
ATOM     51  C   UNL A   1      38.918  33.686  31.790  1.00  0.00     0.049 A 
ATOM     52  C   UNL A   1      42.518  30.358  29.754  1.00  0.00     0.074 A 
ATOM     53  C   UNL A   1      38.431  34.539  30.816  1.00  0.00     0.029 A 
ATOM     54  N   UNL A   1      40.284  33.847  31.756  1.00  0.00    -0.354 N 
ATOM     55  N   UNL A   1      42.819  31.528  29.279  1.00  0.00    -0.248 NA
ATOM     56  C   UNL A   1      42.208  30.316  31.168  1.00  0.00     0.031 C 
ATOM     57  C   UNL A   1      39.515  34.735  29.917  1.00  0.00     0.029 A 
ATOM     58  C   UNL A   1      40.645  34.115  30.450  1.00  0.00     0.049 A 
ATOM     59  H   UNL A   1      40.896  33.782  32.525  1.00  0.00     0.167 HD
ATOM     60  C   UNL A   1      42.368  32.432  30.206  1.00  0.00     0.074 A 
ATOM     61  C   UNL A   1      42.133  31.626  31.405  1.00  0.00     0.031 C 
ATOM     62  C   UNL A   1      41.893  33.661  29.826  1.00  0.00     0.034 A 
BRANCH  49  63
ATOM     63  C   UNL A   1      38.639  32.251  33.946  1.00  0.00     0.023 A 
ATOM     64  C   UNL A   1      39.846  31.645  34.344  1.00  0.00     0.031 A 
ATOM     65  C   UNL A   1      37.746  32.602  34.967  1.00  0.00     0.131 A 
ATOM     66  C   UNL A   1      40.062  31.260  35.669  1.00  0.00     0.055 A 
ATOM     67  C   UNL A   1      38.009  32.313  36.311  1.00  0.00     0.041 A 
ATOM     68  F   UNL A   1      36.601  33.243  34.688  1.00  0.00    -0.206 F 
ATOM     69  C   UNL A   1      39.156  31.607  36.664  1.00  0.00     0.022 A 
BRANCH  66  70
ATOM     70  S   UNL A   1      41.464  30.187  36.083  1.00  0.00     0.124 S 
ATOM     71  O   UNL A   1      41.952  30.798  37.313  1.00  0.00    -0.237 OA
ATOM     72  O   UNL A   1      40.815  28.887  36.233  1.00  0.00    -0.237 OA
ATOM     73  O   UNL A   1      42.334  30.307  34.916  1.00  0.00    -0.744 OA
ENDBRANCH  66  70
ENDBRANCH  49  63
BRANCH  50  74
ATOM     74  C   UNL A   1      43.271  28.100  28.794  1.00  0.00     0.023 A 
ATOM     75  C   UNL A   1      43.952  27.933  27.575  1.00  0.00     0.031 A 
ATOM     76  C   UNL A   1      43.373  27.057  29.735  1.00  0.00     0.131 A 
ATOM     77  C   UNL A   1      44.639  26.737  27.302  1.00  0.00     0.055 A 
ATOM     78  C   UNL A   1      44.075  25.875  29.468  1.00  0.00     0.041 A 
ATOM     79  F   UNL A   1      42.746  27.134  30.919  1.00  0.00    -0.206 F 
ATOM     80  C   UNL A   1      44.700  25.703  28.239  1.00  0.00     0.022 A 
BRANCH  77  81
ATOM     81  S   UNL A   1      45.427  26.487  25.687  1.00  0.00     0.124 S 
ATOM     82  O   UNL A   1      46.747  25.972  26.048  1.00  0.00    -0.237 OA
ATOM     83  O   UNL A   1      44.529  25.522  25.063  1.00  0.00    -0.237 OA
ATOM     84  O   UNL A   1      45.430  27.826  25.106  1.00  0.00    -0.744 OA
ENDBRANCH  77  81
ENDBRANCH  50  74
BRANCH  62  85
ATOM     85  C   UNL A   1      42.374  34.379  28.534  1.00  0.00     0.023 A 
ATOM     86  C   UNL A   1      43.111  33.599  27.606  1.00  0.00     0.031 A 
ATOM     87  C   UNL A   1      42.219  35.736  28.159  1.00  0.00     0.131 A 
ATOM     88  C   UNL A   1      43.760  34.166  26.494  1.00  0.00     0.055 A 
ATOM     89  C   UNL A   1      42.797  36.280  26.995  1.00  0.00     0.041 A 
ATOM     90  F   UNL A   1      41.580  36.648  28.899  1.00  0.00    -0.206 F 
ATOM     91  C   UNL A   1      43.599  35.507  26.174  1.00  0.00     0.022 A 
BRANCH  88  92
ATOM     92  S   UNL A   1      44.883  33.173  25.476  1.00  0.00     0.124 S 
ATOM     93  O   UNL A   1      44.321  33.327  24.135  1.00  0.00    -0.237 OA
ATOM     94  O   UNL A   1      46.160  33.848  25.697  1.00  0.00    -0.237 OA
ATOM     95  O   UNL A   1      44.770  31.832  26.040  1.00  0.00    -0.744 OA
ENDBRANCH  88  92
ENDBRANCH  62  85
ENDBRANCH  36  37
ENDBRANCH  29  31
ENDBRANCH  28  29
ENDBRANCH   1  28
TORSDOF 16
ENDMDL
MODEL 3
REMARK VINA RESULT:     -13.4      3.445      8.871
REMARK SMILES Cc1cc2nc(NC(=O)[C@H]3[C@@H](C(=O)OCCOC(=O)c4ccc(-c5c6nc(c(-c7cc(S(=O)(=O)[O-])ccc7F)c7ccc([nH]7)c(-c7cc(S(=O)(=O)[O-])ccc7F)c7nc(c(-c8cc(S(=O)(=O)[O-])ccc8F)c8ccc5[nH]8)C=C7)C=C6)cc4)[C@@H]4C=C[C@H]3C4)sc2cc1C
REMARK SMILES IDX 16 1 15 2 14 3 12 4 13 5 11 6 10 7 86 8 83 9 85 10 87 11
REMARK SMILES IDX 84 12 8 13 7 14 9 16 6 17 1 18 2 19 3 20 91 21 4 22 90 23
REMARK SMILES IDX 92 24 5 25 89 26 88 27 17 28 18 29 19 30 20 31 21 32 82 33
REMARK SMILES IDX 22 34 81 35 23 36 24 37 25 38 75 39 26 40 80 41 74 42 76 43
REMARK SMILES IDX 27 44 79 45 73 46 72 47 28 49 60 50 40 51 59 52 41 53 44 54
REMARK SMILES IDX 58 55 77 56 42 57 43 58 57 60 78 61 45 62 29 63 30 64 38 65
REMARK SMILES IDX 31 66 37 67 39 68 36 69 32 70 33 71 34 72 35 73 61 74 62 75
REMARK SMILES IDX 70 76 63 77 69 78 71 79 68 80 64 81 65 82 66 83 67 84 46 85
REMARK SMILES IDX 47 86 55 87 48 88 54 89 56 90 53 91 49 92 50 93 51 94 52 95
REMARK H PARENT 7 15 76 48 44 59
REMARK Flexibility Score: inf
ROOT
ATOM      1  C   UNL A   1      33.063  30.884  26.818  1.00  0.00     0.275 C 
ENDROOT
BRANCH   1   2
ATOM      2  C   UNL A   1      32.117  29.591  27.138  1.00  0.00     0.274 C 
BRANCH   2   3
ATOM      3  O   UNL A   1      31.776  28.739  25.973  1.00  0.00    -0.462 OA
BRANCH   3   4
ATOM      4  C   UNL A   1      31.712  29.232  24.659  1.00  0.00     0.310 C 
ATOM      5  O   UNL A   1      32.694  29.374  23.947  1.00  0.00    -0.252 OA
BRANCH   4   6
ATOM      6  C   UNL A   1      30.228  29.586  24.266  1.00  0.00     0.119 C 
ATOM      7  C   UNL A   1      29.606  28.464  23.439  1.00  0.00     0.100 C 
ATOM      8  C   UNL A   1      28.546  29.068  22.521  1.00  0.00     0.025 C 
ATOM      9  C   UNL A   1      29.718  30.790  23.381  1.00  0.00     0.027 C 
ATOM     10  C   UNL A   1      27.562  29.916  23.281  1.00  0.00    -0.027 C 
ATOM     11  C   UNL A   1      29.360  30.210  21.988  1.00  0.00     0.017 C 
ATOM     12  C   UNL A   1      28.243  30.979  23.753  1.00  0.00    -0.027 C 
BRANCH   7  13
ATOM     13  C   UNL A   1      30.641  27.738  22.630  1.00  0.00     0.230 C 
ATOM     14  N   UNL A   1      31.284  26.565  22.923  1.00  0.00    -0.302 N 
ATOM     15  H   UNL A   1      31.760  26.301  22.103  1.00  0.00     0.172 HD
ATOM     16  O   UNL A   1      30.795  28.213  21.491  1.00  0.00    -0.274 OA
BRANCH  14  17
ATOM     17  C   UNL A   1      31.561  25.594  23.857  1.00  0.00     0.190 A 
ATOM     18  C   UNL A   1      35.201  21.776  26.439  1.00  0.00     0.044 C 
ATOM     19  C   UNL A   1      33.921  22.226  25.807  1.00  0.00    -0.046 A 
ATOM     20  C   UNL A   1      33.582  23.588  25.938  1.00  0.00     0.033 A 
ATOM     21  C   UNL A   1      33.126  21.344  25.056  1.00  0.00    -0.047 A 
ATOM     22  C   UNL A   1      32.571  24.133  25.136  1.00  0.00     0.084 A 
ATOM     23  C   UNL A   1      32.022  21.853  24.367  1.00  0.00     0.025 A 
ATOM     24  C   UNL A   1      33.478  19.888  24.865  1.00  0.00     0.044 C 
ATOM     25  N   UNL A   1      32.324  25.504  24.907  1.00  0.00    -0.220 NA
ATOM     26  C   UNL A   1      31.805  23.239  24.394  1.00  0.00     0.057 A 
ATOM     27  S   UNL A   1      30.650  24.146  23.551  1.00  0.00    -0.097 S 
ENDBRANCH  14  17
ENDBRANCH   7  13
ENDBRANCH   4   6
ENDBRANCH   3   4
ENDBRANCH   2   3
ENDBRANCH   1   2
BRANCH   1  28
ATOM     28  O   UNL A   1      33.802  31.467  27.986  1.00  0.00    -0.458 OA
BRANCH  28  29
ATOM     29  C   UNL A   1      35.045  32.106  27.894  1.00  0.00     0.338 C 
ATOM     30  O   UNL A   1      35.227  33.208  27.467  1.00  0.00    -0.246 OA
BRANCH  29  31
ATOM     31  C   UNL A   1      36.075  31.266  28.708  1.00  0.00     0.060 A 
ATOM     32  C   UNL A   1      37.300  31.778  29.147  1.00  0.00     0.016 A 
ATOM     33  C   UNL A   1      35.967  29.867  28.658  1.00  0.00     0.016 A 
ATOM     34  C   UNL A   1      38.443  30.930  29.280  1.00  0.00     0.010 A 
ATOM     35  C   UNL A   1      37.122  29.039  28.724  1.00  0.00     0.010 A 
ATOM     36  C   UNL A   1      38.406  29.563  28.948  1.00  0.00    -0.014 A 
BRANCH  36  37
ATOM     37  C   UNL A   1      39.607  28.681  29.147  1.00  0.00     0.031 A 
ATOM     38  C   UNL A   1      39.940  28.554  30.577  1.00  0.00     0.074 A 
ATOM     39  C   UNL A   1      40.426  27.873  28.406  1.00  0.00     0.049 A 
ATOM     40  N   UNL A   1      40.891  29.182  31.178  1.00  0.00    -0.248 NA
ATOM     41  C   UNL A   1      39.119  27.692  31.427  1.00  0.00     0.031 C 
ATOM     42  C   UNL A   1      40.327  27.418  27.032  1.00  0.00     0.029 A 
ATOM     43  N   UNL A   1      41.560  27.178  28.815  1.00  0.00    -0.354 N 
ATOM     44  C   UNL A   1      40.912  28.672  32.460  1.00  0.00     0.074 A 
ATOM     45  C   UNL A   1      39.692  27.907  32.611  1.00  0.00     0.031 C 
ATOM     46  C   UNL A   1      41.131  26.359  26.793  1.00  0.00     0.029 A 
ATOM     47  C   UNL A   1      41.990  26.183  27.937  1.00  0.00     0.049 A 
ATOM     48  H   UNL A   1      42.024  27.373  29.660  1.00  0.00     0.167 HD
ATOM     49  C   UNL A   1      42.022  28.745  33.243  1.00  0.00     0.034 A 
ATOM     50  C   UNL A   1      42.998  25.286  28.067  1.00  0.00     0.034 A 
ATOM     51  C   UNL A   1      43.055  29.581  32.678  1.00  0.00     0.049 A 
ATOM     52  C   UNL A   1      43.955  25.807  29.054  1.00  0.00     0.074 A 
ATOM     53  C   UNL A   1      43.052  30.835  32.092  1.00  0.00     0.029 A 
ATOM     54  N   UNL A   1      44.264  29.025  32.328  1.00  0.00    -0.354 N 
ATOM     55  N   UNL A   1      44.821  26.741  28.805  1.00  0.00    -0.248 NA
ATOM     56  C   UNL A   1      43.799  25.452  30.450  1.00  0.00     0.031 C 
ATOM     57  C   UNL A   1      43.974  30.744  31.013  1.00  0.00     0.029 A 
ATOM     58  C   UNL A   1      44.599  29.497  31.074  1.00  0.00     0.049 A 
ATOM     59  H   UNL A   1      44.797  28.403  32.874  1.00  0.00     0.167 HD
ATOM     60  C   UNL A   1      45.042  27.372  30.003  1.00  0.00     0.074 A 
ATOM     61  C   UNL A   1      44.498  26.447  30.999  1.00  0.00     0.031 C 
ATOM     62  C   UNL A   1      45.312  28.715  30.058  1.00  0.00     0.034 A 
BRANCH  49  63
ATOM     63  C   UNL A   1      42.203  27.856  34.433  1.00  0.00     0.023 A 
ATOM     64  C   UNL A   1      42.976  26.681  34.377  1.00  0.00     0.031 A 
ATOM     65  C   UNL A   1      41.664  28.193  35.682  1.00  0.00     0.131 A 
ATOM     66  C   UNL A   1      43.056  25.811  35.466  1.00  0.00     0.055 A 
ATOM     67  C   UNL A   1      41.832  27.375  36.805  1.00  0.00     0.041 A 
ATOM     68  F   UNL A   1      40.969  29.328  35.846  1.00  0.00    -0.206 F 
ATOM     69  C   UNL A   1      42.500  26.159  36.692  1.00  0.00     0.022 A 
BRANCH  66  70
ATOM     70  S   UNL A   1      43.769  24.157  35.255  1.00  0.00     0.124 S 
ATOM     71  O   UNL A   1      42.575  23.341  35.067  1.00  0.00    -0.237 OA
ATOM     72  O   UNL A   1      44.608  24.338  34.073  1.00  0.00    -0.237 OA
ATOM     73  O   UNL A   1      44.502  23.946  36.501  1.00  0.00    -0.744 OA
ENDBRANCH  66  70
ENDBRANCH  49  63
BRANCH  50  74
ATOM     74  C   UNL A   1      43.215  23.963  27.431  1.00  0.00     0.023 A 
ATOM     75  C   UNL A   1      44.208  23.822  26.444  1.00  0.00     0.031 A 
ATOM     76  C   UNL A   1      42.281  22.915  27.556  1.00  0.00     0.131 A 
ATOM     77  C   UNL A   1      44.203  22.711  25.583  1.00  0.00     0.055 A 
ATOM     78  C   UNL A   1      42.291  21.799  26.710  1.00  0.00     0.041 A 
ATOM     79  F   UNL A   1      41.298  22.975  28.466  1.00  0.00    -0.206 F 
ATOM     80  C   UNL A   1      43.246  21.701  25.705  1.00  0.00     0.022 A 
BRANCH  77  81
ATOM     81  S   UNL A   1      45.423  22.589  24.245  1.00  0.00     0.124 S 
ATOM     82  O   UNL A   1      44.611  22.161  23.107  1.00  0.00    -0.237 OA
ATOM     83  O   UNL A   1      45.926  23.956  24.175  1.00  0.00    -0.237 OA
ATOM     84  O   UNL A   1      46.361  21.586  24.740  1.00  0.00    -0.744 OA
ENDBRANCH  77  81
ENDBRANCH  50  74
BRANCH  62  85
ATOM     85  C   UNL A   1      46.001  29.477  28.891  1.00  0.00     0.023 A 
ATOM     86  C   UNL A   1      45.318  30.610  28.379  1.00  0.00     0.031 A 
ATOM     87  C   UNL A   1      47.212  29.177  28.223  1.00  0.00     0.131 A 
ATOM     88  C   UNL A   1      45.734  31.275  27.210  1.00  0.00     0.055 A 
ATOM     89  C   UNL A   1      47.672  29.903  27.107  1.00  0.00     0.041 A 
ATOM     90  F   UNL A   1      47.999  28.140  28.530  1.00  0.00    -0.206 F 
ATOM     91  C   UNL A   1      46.919  30.934  26.573  1.00  0.00     0.022 A 
BRANCH  88  92
ATOM     92  S   UNL A   1      44.700  32.560  26.462  1.00  0.00     0.124 S 
ATOM     93  O   UNL A   1      45.650  33.287  25.620  1.00  0.00    -0.237 OA
ATOM     94  O   UNL A   1      43.711  31.764  25.740  1.00  0.00    -0.237 OA
ATOM     95  O   UNL A   1      44.194  33.310  27.607  1.00  0.00    -0.744 OA
ENDBRANCH  88  92
ENDBRANCH  62  85
ENDBRANCH  36  37
ENDBRANCH  29  31
ENDBRANCH  28  29
ENDBRANCH   1  28
TORSDOF 16
ENDMDL
