MODEL 1
REMARK VINA RESULT:     -11.3      0.000      0.000
REMARK SMILES O=C(OCCOC(=O)c1ccccc1NCc1ccccc1[N+](=O)[O-])c1ccc(-c2c3nc(c(-c4cc(S(=O)(=O)[O-])ccc4F)c4ccc([nH]4)c(-c4cc(S(=O)(=O)[O-])ccc4F)c4nc(c(-c5cc(S(=O)(=O)[O-])ccc5F)c5ccc2[nH]5)C=C4)C=C3)cc1
REMARK SMILES IDX 5 1 4 2 3 3 2 4 1 5 26 6 27 7 88 8 28 9 87 10 29 11 30 12
REMARK SMILES IDX 31 13 81 14 32 15 86 16 80 17 82 18 33 19 85 20 79 21 78 22
REMARK SMILES IDX 34 24 66 25 46 26 65 27 47 28 50 29 64 30 83 31 48 32 49 33
REMARK SMILES IDX 63 35 84 36 51 37 35 38 36 39 44 40 37 41 43 42 45 43 42 44
REMARK SMILES IDX 38 45 39 46 40 47 41 48 67 49 68 50 76 51 69 52 75 53 77 54
REMARK SMILES IDX 74 55 70 56 71 57 72 58 73 59 52 60 53 61 61 62 54 63 60 64
REMARK SMILES IDX 62 65 59 66 55 67 56 68 57 69 58 70 6 71 7 72 8 73 9 74
REMARK SMILES IDX 10 75 14 76 11 77 13 78 12 79 15 80 16 82 17 83 18 84 22 85
REMARK SMILES IDX 19 86 21 87 20 88 23 89 24 90 25 91
REMARK H PARENT 82 23 50 34 15 81
REMARK Flexibility Score: inf
ROOT
ATOM      1  C   UNL A   1      33.003  34.454  27.888  1.00  0.00     0.275 C 
ENDROOT
BRANCH   1   2
ATOM      2  C   UNL A   1      32.821  32.944  27.733  1.00  0.00     0.275 C 
BRANCH   2   3
ATOM      3  O   UNL A   1      33.962  32.162  28.137  1.00  0.00    -0.458 OA
BRANCH   3   4
ATOM      4  C   UNL A   1      34.455  30.987  27.680  1.00  0.00     0.338 C 
ATOM      5  O   UNL A   1      33.781  30.358  26.863  1.00  0.00    -0.246 OA
BRANCH   4   6
ATOM      6  C   UNL A   1      35.717  30.340  28.169  1.00  0.00     0.060 A 
ATOM      7  C   UNL A   1      35.885  29.692  29.390  1.00  0.00     0.016 A 
ATOM      8  C   UNL A   1      36.847  30.443  27.327  1.00  0.00     0.016 A 
ATOM      9  C   UNL A   1      37.118  29.135  29.745  1.00  0.00     0.010 A 
ATOM     10  C   UNL A   1      38.085  29.881  27.674  1.00  0.00     0.010 A 
ATOM     11  C   UNL A   1      38.226  29.222  28.895  1.00  0.00    -0.014 A 
BRANCH  11  12
ATOM     12  C   UNL A   1      39.539  28.774  29.419  1.00  0.00     0.031 A 
ATOM     13  C   UNL A   1      39.973  29.304  30.745  1.00  0.00     0.074 A 
ATOM     14  C   UNL A   1      40.271  27.843  28.782  1.00  0.00     0.049 A 
ATOM     15  N   UNL A   1      40.918  28.880  31.536  1.00  0.00    -0.248 NA
ATOM     16  C   UNL A   1      39.231  30.471  31.242  1.00  0.00     0.031 C 
ATOM     17  C   UNL A   1      39.938  27.304  27.476  1.00  0.00     0.029 A 
ATOM     18  N   UNL A   1      41.401  27.153  29.144  1.00  0.00    -0.354 N 
ATOM     19  C   UNL A   1      40.897  29.736  32.628  1.00  0.00     0.074 A 
ATOM     20  C   UNL A   1      39.843  30.702  32.391  1.00  0.00     0.031 C 
ATOM     21  C   UNL A   1      40.792  26.317  27.164  1.00  0.00     0.029 A 
ATOM     22  C   UNL A   1      41.731  26.141  28.263  1.00  0.00     0.049 A 
ATOM     23  H   UNL A   1      41.925  27.358  29.952  1.00  0.00     0.167 HD
ATOM     24  C   UNL A   1      41.703  29.726  33.716  1.00  0.00     0.034 A 
ATOM     25  C   UNL A   1      42.648  25.156  28.370  1.00  0.00     0.034 A 
ATOM     26  C   UNL A   1      42.792  28.797  33.881  1.00  0.00     0.049 A 
ATOM     27  C   UNL A   1      43.492  25.129  29.622  1.00  0.00     0.074 A 
ATOM     28  C   UNL A   1      43.735  28.736  34.889  1.00  0.00     0.029 A 
ATOM     29  N   UNL A   1      43.097  27.774  32.988  1.00  0.00    -0.354 N 
ATOM     30  N   UNL A   1      43.415  25.896  30.687  1.00  0.00    -0.248 NA
ATOM     31  C   UNL A   1      44.539  24.101  29.694  1.00  0.00     0.031 C 
ATOM     32  C   UNL A   1      44.642  27.715  34.577  1.00  0.00     0.029 A 
ATOM     33  C   UNL A   1      44.226  27.091  33.410  1.00  0.00     0.049 A 
ATOM     34  H   UNL A   1      42.585  27.566  32.173  1.00  0.00     0.167 HD
ATOM     35  C   UNL A   1      44.405  25.442  31.553  1.00  0.00     0.074 A 
ATOM     36  C   UNL A   1      45.011  24.288  30.917  1.00  0.00     0.031 C 
ATOM     37  C   UNL A   1      44.807  25.947  32.747  1.00  0.00     0.034 A 
BRANCH  24  38
ATOM     38  C   UNL A   1      41.481  30.832  34.714  1.00  0.00     0.023 A 
ATOM     39  C   UNL A   1      40.390  30.815  35.601  1.00  0.00     0.031 A 
ATOM     40  C   UNL A   1      42.288  31.981  34.678  1.00  0.00     0.131 A 
ATOM     41  C   UNL A   1      40.076  31.965  36.339  1.00  0.00     0.055 A 
ATOM     42  C   UNL A   1      42.020  33.091  35.481  1.00  0.00     0.041 A 
ATOM     43  F   UNL A   1      43.322  32.065  33.826  1.00  0.00    -0.206 F 
ATOM     44  C   UNL A   1      40.896  33.096  36.303  1.00  0.00     0.022 A 
BRANCH  41  45
ATOM     45  S   UNL A   1      38.481  32.029  37.203  1.00  0.00     0.124 S 
ATOM     46  O   UNL A   1      37.875  33.221  36.612  1.00  0.00    -0.237 OA
ATOM     47  O   UNL A   1      37.871  30.756  36.838  1.00  0.00    -0.237 OA
ATOM     48  O   UNL A   1      38.857  32.161  38.609  1.00  0.00    -0.744 OA
ENDBRANCH  41  45
ENDBRANCH  24  38
BRANCH  25  49
ATOM     49  C   UNL A   1      42.781  24.078  27.337  1.00  0.00     0.023 A 
ATOM     50  C   UNL A   1      41.865  23.012  27.305  1.00  0.00     0.031 A 
ATOM     51  C   UNL A   1      43.830  24.053  26.402  1.00  0.00     0.131 A 
ATOM     52  C   UNL A   1      42.033  21.952  26.398  1.00  0.00     0.055 A 
ATOM     53  C   UNL A   1      43.960  23.026  25.460  1.00  0.00     0.041 A 
ATOM     54  F   UNL A   1      44.746  25.033  26.382  1.00  0.00    -0.206 F 
ATOM     55  C   UNL A   1      43.064  21.960  25.461  1.00  0.00     0.022 A 
BRANCH  52  56
ATOM     56  S   UNL A   1      40.898  20.544  26.509  1.00  0.00     0.124 S 
ATOM     57  O   UNL A   1      41.549  19.575  25.635  1.00  0.00    -0.237 OA
ATOM     58  O   UNL A   1      40.944  20.245  27.937  1.00  0.00    -0.237 OA
ATOM     59  O   UNL A   1      39.632  21.080  26.018  1.00  0.00    -0.744 OA
ENDBRANCH  52  56
ENDBRANCH  25  49
BRANCH  37  60
ATOM     60  C   UNL A   1      45.953  25.240  33.425  1.00  0.00     0.023 A 
ATOM     61  C   UNL A   1      45.728  24.183  34.324  1.00  0.00     0.031 A 
ATOM     62  C   UNL A   1      47.278  25.640  33.190  1.00  0.00     0.131 A 
ATOM     63  C   UNL A   1      46.805  23.609  35.012  1.00  0.00     0.055 A 
ATOM     64  C   UNL A   1      48.354  25.020  33.827  1.00  0.00     0.041 A 
ATOM     65  F   UNL A   1      47.549  26.644  32.340  1.00  0.00    -0.206 F 
ATOM     66  C   UNL A   1      48.119  24.010  34.757  1.00  0.00     0.022 A 
BRANCH  63  67
ATOM     67  S   UNL A   1      46.453  22.408  36.323  1.00  0.00     0.124 S 
ATOM     68  O   UNL A   1      45.903  21.287  35.568  1.00  0.00    -0.237 OA
ATOM     69  O   UNL A   1      47.771  22.194  36.912  1.00  0.00    -0.237 OA
ATOM     70  O   UNL A   1      45.498  23.108  37.181  1.00  0.00    -0.744 OA
ENDBRANCH  63  67
ENDBRANCH  37  60
ENDBRANCH  11  12
ENDBRANCH   4   6
ENDBRANCH   3   4
ENDBRANCH   2   3
ENDBRANCH   1   2
BRANCH   1  71
ATOM     71  O   UNL A   1      32.620  34.929  29.184  1.00  0.00    -0.458 OA
BRANCH  71  72
ATOM     72  C   UNL A   1      33.173  36.121  29.532  1.00  0.00     0.340 C 
ATOM     73  O   UNL A   1      33.314  37.090  28.800  1.00  0.00    -0.246 OA
BRANCH  72  74
ATOM     74  C   UNL A   1      33.477  36.163  30.979  1.00  0.00     0.083 A 
ATOM     75  C   UNL A   1      33.241  37.412  31.592  1.00  0.00     0.018 A 
ATOM     76  C   UNL A   1      34.003  35.067  31.700  1.00  0.00     0.049 A 
ATOM     77  C   UNL A   1      33.513  37.600  32.939  1.00  0.00     0.001 A 
ATOM     78  C   UNL A   1      34.348  35.330  33.037  1.00  0.00     0.026 A 
ATOM     79  C   UNL A   1      34.081  36.560  33.659  1.00  0.00     0.002 A 
BRANCH  76  80
ATOM     80  N   UNL A   1      34.191  33.825  31.110  1.00  0.00    -0.380 N 
ATOM     81  H   UNL A   1      33.489  33.530  30.486  1.00  0.00     0.160 HD
BRANCH  80  82
ATOM     82  C   UNL A   1      35.307  32.903  31.306  1.00  0.00     0.156 C 
BRANCH  82  83
ATOM     83  C   UNL A   1      36.648  33.402  30.790  1.00  0.00     0.049 A 
ATOM     84  C   UNL A   1      36.943  33.516  29.423  1.00  0.00     0.013 A 
ATOM     85  C   UNL A   1      37.678  33.777  31.688  1.00  0.00     0.274 A 
ATOM     86  C   UNL A   1      38.213  33.922  28.983  1.00  0.00     0.001 A 
ATOM     87  C   UNL A   1      38.943  34.205  31.260  1.00  0.00     0.086 A 
ATOM     88  C   UNL A   1      39.213  34.252  29.897  1.00  0.00     0.007 A 
BRANCH  85  89
ATOM     89  N   UNL A   1      37.438  33.751  33.121  1.00  0.00     0.063 N 
ATOM     90  O   UNL A   1      37.325  32.639  33.649  1.00  0.00    -0.258 OA
ATOM     91  O   UNL A   1      37.483  34.834  33.721  1.00  0.00    -0.258 OA
ENDBRANCH  85  89
ENDBRANCH  82  83
ENDBRANCH  80  82
ENDBRANCH  76  80
ENDBRANCH  72  74
ENDBRANCH  71  72
ENDBRANCH   1  71
TORSDOF 18
ENDMDL
MODEL 2
REMARK VINA RESULT:     -10.8      4.265      6.630
REMARK SMILES O=C(OCCOC(=O)c1ccccc1NCc1ccccc1[N+](=O)[O-])c1ccc(-c2c3nc(c(-c4cc(S(=O)(=O)[O-])ccc4F)c4ccc([nH]4)c(-c4cc(S(=O)(=O)[O-])ccc4F)c4nc(c(-c5cc(S(=O)(=O)[O-])ccc5F)c5ccc2[nH]5)C=C4)C=C3)cc1
REMARK SMILES IDX 5 1 4 2 3 3 2 4 1 5 26 6 27 7 88 8 28 9 87 10 29 11 30 12
REMARK SMILES IDX 31 13 81 14 32 15 86 16 80 17 82 18 33 19 85 20 79 21 78 22
REMARK SMILES IDX 34 24 66 25 46 26 65 27 47 28 50 29 64 30 83 31 48 32 49 33
REMARK SMILES IDX 63 35 84 36 51 37 35 38 36 39 44 40 37 41 43 42 45 43 42 44
REMARK SMILES IDX 38 45 39 46 40 47 41 48 67 49 68 50 76 51 69 52 75 53 77 54
REMARK SMILES IDX 74 55 70 56 71 57 72 58 73 59 52 60 53 61 61 62 54 63 60 64
REMARK SMILES IDX 62 65 59 66 55 67 56 68 57 69 58 70 6 71 7 72 8 73 9 74
REMARK SMILES IDX 10 75 14 76 11 77 13 78 12 79 15 80 16 82 17 83 18 84 22 85
REMARK SMILES IDX 19 86 21 87 20 88 23 89 24 90 25 91
REMARK H PARENT 82 23 50 34 15 81
REMARK Flexibility Score: inf
ROOT
ATOM      1  C   UNL A   1      32.899  28.829  25.394  1.00  0.00     0.275 C 
ENDROOT
BRANCH   1   2
ATOM      2  C   UNL A   1      32.043  29.680  26.332  1.00  0.00     0.275 C 
BRANCH   2   3
ATOM      3  O   UNL A   1      32.425  31.068  26.392  1.00  0.00    -0.458 OA
BRANCH   3   4
ATOM      4  C   UNL A   1      33.174  31.757  27.286  1.00  0.00     0.338 C 
ATOM      5  O   UNL A   1      32.766  32.861  27.649  1.00  0.00    -0.246 OA
BRANCH   4   6
ATOM      6  C   UNL A   1      34.518  31.322  27.792  1.00  0.00     0.060 A 
ATOM      7  C   UNL A   1      34.869  30.032  28.180  1.00  0.00     0.016 A 
ATOM      8  C   UNL A   1      35.497  32.332  27.930  1.00  0.00     0.016 A 
ATOM      9  C   UNL A   1      36.155  29.748  28.650  1.00  0.00     0.010 A 
ATOM     10  C   UNL A   1      36.791  32.051  28.395  1.00  0.00     0.010 A 
ATOM     11  C   UNL A   1      37.126  30.749  28.762  1.00  0.00    -0.014 A 
BRANCH  11  12
ATOM     12  C   UNL A   1      38.399  30.407  29.440  1.00  0.00     0.031 A 
ATOM     13  C   UNL A   1      38.557  30.822  30.866  1.00  0.00     0.074 A 
ATOM     14  C   UNL A   1      39.341  29.660  28.838  1.00  0.00     0.049 A 
ATOM     15  N   UNL A   1      39.429  30.426  31.750  1.00  0.00    -0.248 NA
ATOM     16  C   UNL A   1      37.593  31.817  31.353  1.00  0.00     0.031 C 
ATOM     17  C   UNL A   1      39.280  29.248  27.446  1.00  0.00     0.029 A 
ATOM     18  N   UNL A   1      40.493  29.078  29.303  1.00  0.00    -0.354 N 
ATOM     19  C   UNL A   1      39.128  31.133  32.906  1.00  0.00     0.074 A 
ATOM     20  C   UNL A   1      37.994  31.980  32.603  1.00  0.00     0.031 C 
ATOM     21  C   UNL A   1      40.302  28.421  27.176  1.00  0.00     0.029 A 
ATOM     22  C   UNL A   1      41.088  28.231  28.387  1.00  0.00     0.049 A 
ATOM     23  H   UNL A   1      40.860  29.246  30.201  1.00  0.00     0.167 HD
ATOM     24  C   UNL A   1      39.762  31.090  34.102  1.00  0.00     0.034 A 
ATOM     25  C   UNL A   1      42.110  27.362  28.539  1.00  0.00     0.034 A 
ATOM     26  C   UNL A   1      40.937  30.292  34.343  1.00  0.00     0.049 A 
ATOM     27  C   UNL A   1      42.760  27.288  29.901  1.00  0.00     0.074 A 
ATOM     28  C   UNL A   1      41.724  30.226  35.478  1.00  0.00     0.029 A 
ATOM     29  N   UNL A   1      41.511  29.432  33.411  1.00  0.00    -0.354 N 
ATOM     30  N   UNL A   1      42.422  27.904  31.012  1.00  0.00    -0.248 NA
ATOM     31  C   UNL A   1      43.920  26.398  30.034  1.00  0.00     0.031 C 
ATOM     32  C   UNL A   1      42.802  29.373  35.212  1.00  0.00     0.029 A 
ATOM     33  C   UNL A   1      42.652  28.849  33.936  1.00  0.00     0.049 A 
ATOM     34  H   UNL A   1      41.156  29.263  32.508  1.00  0.00     0.167 HD
ATOM     35  C   UNL A   1      43.330  27.474  31.973  1.00  0.00     0.074 A 
ATOM     36  C   UNL A   1      44.179  26.492  31.329  1.00  0.00     0.031 C 
ATOM     37  C   UNL A   1      43.479  27.876  33.262  1.00  0.00     0.034 A 
BRANCH  24  38
ATOM     38  C   UNL A   1      39.244  32.030  35.158  1.00  0.00     0.023 A 
ATOM     39  C   UNL A   1      39.722  33.348  35.270  1.00  0.00     0.031 A 
ATOM     40  C   UNL A   1      38.368  31.557  36.150  1.00  0.00     0.131 A 
ATOM     41  C   UNL A   1      39.404  34.110  36.403  1.00  0.00     0.055 A 
ATOM     42  C   UNL A   1      37.986  32.352  37.232  1.00  0.00     0.041 A 
ATOM     43  F   UNL A   1      37.909  30.296  36.111  1.00  0.00    -0.206 F 
ATOM     44  C   UNL A   1      38.520  33.630  37.374  1.00  0.00     0.022 A 
BRANCH  41  45
ATOM     45  S   UNL A   1      40.304  35.661  36.683  1.00  0.00     0.124 S 
ATOM     46  O   UNL A   1      41.676  35.263  36.375  1.00  0.00    -0.237 OA
ATOM     47  O   UNL A   1      39.673  36.569  35.733  1.00  0.00    -0.237 OA
ATOM     48  O   UNL A   1      40.050  35.956  38.092  1.00  0.00    -0.744 OA
ENDBRANCH  41  45
ENDBRANCH  24  38
BRANCH  25  49
ATOM     49  C   UNL A   1      42.543  26.444  27.436  1.00  0.00     0.023 A 
ATOM     50  C   UNL A   1      42.045  25.131  27.373  1.00  0.00     0.031 A 
ATOM     51  C   UNL A   1      43.482  26.823  26.462  1.00  0.00     0.131 A 
ATOM     52  C   UNL A   1      42.511  24.235  26.396  1.00  0.00     0.055 A 
ATOM     53  C   UNL A   1      43.900  25.947  25.454  1.00  0.00     0.041 A 
ATOM     54  F   UNL A   1      44.007  28.058  26.468  1.00  0.00    -0.206 F 
ATOM     55  C   UNL A   1      43.423  24.640  25.422  1.00  0.00     0.022 A 
BRANCH  52  56
ATOM     56  S   UNL A   1      41.933  22.519  26.462  1.00  0.00     0.124 S 
ATOM     57  O   UNL A   1      42.516  22.063  27.718  1.00  0.00    -0.237 OA
ATOM     58  O   UNL A   1      40.484  22.700  26.461  1.00  0.00    -0.237 OA
ATOM     59  O   UNL A   1      42.495  21.919  25.256  1.00  0.00    -0.744 OA
ENDBRANCH  52  56
ENDBRANCH  25  49
BRANCH  37  60
ATOM     60  C   UNL A   1      44.604  27.240  34.039  1.00  0.00     0.023 A 
ATOM     61  C   UNL A   1      44.412  26.046  34.754  1.00  0.00     0.031 A 
ATOM     62  C   UNL A   1      45.871  27.844  34.084  1.00  0.00     0.131 A 
ATOM     63  C   UNL A   1      45.447  25.530  35.545  1.00  0.00     0.055 A 
ATOM     64  C   UNL A   1      46.920  27.290  34.819  1.00  0.00     0.041 A 
ATOM     65  F   UNL A   1      46.108  28.986  33.418  1.00  0.00    -0.206 F 
ATOM     66  C   UNL A   1      46.706  26.136  35.569  1.00  0.00     0.022 A 
BRANCH  63  67
ATOM     67  S   UNL A   1      45.091  24.119  36.625  1.00  0.00     0.124 S 
ATOM     68  O   UNL A   1      44.210  23.311  35.788  1.00  0.00    -0.237 OA
ATOM     69  O   UNL A   1      46.419  23.568  36.868  1.00  0.00    -0.237 OA
ATOM     70  O   UNL A   1      44.451  24.731  37.788  1.00  0.00    -0.744 OA
ENDBRANCH  63  67
ENDBRANCH  37  60
ENDBRANCH  11  12
ENDBRANCH   4   6
ENDBRANCH   3   4
ENDBRANCH   2   3
ENDBRANCH   1   2
BRANCH   1  71
ATOM     71  O   UNL A   1      32.849  29.281  24.034  1.00  0.00    -0.458 OA
BRANCH  71  72
ATOM     72  C   UNL A   1      32.451  28.335  23.142  1.00  0.00     0.340 C 
ATOM     73  O   UNL A   1      33.185  27.591  22.507  1.00  0.00    -0.246 OA
BRANCH  72  74
ATOM     74  C   UNL A   1      30.977  28.213  23.122  1.00  0.00     0.083 A 
ATOM     75  C   UNL A   1      30.294  29.412  22.832  1.00  0.00     0.018 A 
ATOM     76  C   UNL A   1      30.288  27.013  23.410  1.00  0.00     0.049 A 
ATOM     77  C   UNL A   1      28.906  29.448  22.811  1.00  0.00     0.001 A 
ATOM     78  C   UNL A   1      28.887  27.117  23.467  1.00  0.00     0.026 A 
ATOM     79  C   UNL A   1      28.203  28.300  23.143  1.00  0.00     0.002 A 
BRANCH  76  80
ATOM     80  N   UNL A   1      30.959  25.822  23.649  1.00  0.00    -0.380 N 
ATOM     81  H   UNL A   1      31.942  25.874  23.669  1.00  0.00     0.160 HD
BRANCH  80  82
ATOM     82  C   UNL A   1      30.379  24.500  23.873  1.00  0.00     0.156 C 
BRANCH  82  83
ATOM     83  C   UNL A   1      31.373  23.428  24.290  1.00  0.00     0.049 A 
ATOM     84  C   UNL A   1      32.064  22.629  23.366  1.00  0.00     0.013 A 
ATOM     85  C   UNL A   1      31.646  23.183  25.659  1.00  0.00     0.274 A 
ATOM     86  C   UNL A   1      32.929  21.607  23.790  1.00  0.00     0.001 A 
ATOM     87  C   UNL A   1      32.524  22.180  26.093  1.00  0.00     0.086 A 
ATOM     88  C   UNL A   1      33.147  21.374  25.147  1.00  0.00     0.007 A 
BRANCH  85  89
ATOM     89  N   UNL A   1      31.023  24.006  26.683  1.00  0.00     0.063 N 
ATOM     90  O   UNL A   1      31.479  25.144  26.839  1.00  0.00    -0.258 OA
ATOM     91  O   UNL A   1      30.012  23.551  27.235  1.00  0.00    -0.258 OA
ENDBRANCH  85  89
ENDBRANCH  82  83
ENDBRANCH  80  82
ENDBRANCH  76  80
ENDBRANCH  72  74
ENDBRANCH  71  72
ENDBRANCH   1  71
TORSDOF 18
ENDMDL
MODEL 3
REMARK VINA RESULT:     -10.6      3.610      5.929
REMARK SMILES O=C(OCCOC(=O)c1ccccc1NCc1ccccc1[N+](=O)[O-])c1ccc(-c2c3nc(c(-c4cc(S(=O)(=O)[O-])ccc4F)c4ccc([nH]4)c(-c4cc(S(=O)(=O)[O-])ccc4F)c4nc(c(-c5cc(S(=O)(=O)[O-])ccc5F)c5ccc2[nH]5)C=C4)C=C3)cc1
REMARK SMILES IDX 5 1 4 2 3 3 2 4 1 5 26 6 27 7 88 8 28 9 87 10 29 11 30 12
REMARK SMILES IDX 31 13 81 14 32 15 86 16 80 17 82 18 33 19 85 20 79 21 78 22
REMARK SMILES IDX 34 24 66 25 46 26 65 27 47 28 50 29 64 30 83 31 48 32 49 33
REMARK SMILES IDX 63 35 84 36 51 37 35 38 36 39 44 40 37 41 43 42 45 43 42 44
REMARK SMILES IDX 38 45 39 46 40 47 41 48 67 49 68 50 76 51 69 52 75 53 77 54
REMARK SMILES IDX 74 55 70 56 71 57 72 58 73 59 52 60 53 61 61 62 54 63 60 64
REMARK SMILES IDX 62 65 59 66 55 67 56 68 57 69 58 70 6 71 7 72 8 73 9 74
REMARK SMILES IDX 10 75 14 76 11 77 13 78 12 79 15 80 16 82 17 83 18 84 22 85
REMARK SMILES IDX 19 86 21 87 20 88 23 89 24 90 25 91
REMARK H PARENT 82 23 50 34 15 81
REMARK Flexibility Score: inf
ROOT
ATOM      1  C   UNL A   1      31.743  29.308  26.810  1.00  0.00     0.275 C 
ENDROOT
BRANCH   1   2
ATOM      2  C   UNL A   1      32.064  30.800  26.739  1.00  0.00     0.275 C 
BRANCH   2   3
ATOM      3  O   UNL A   1      33.471  31.109  26.784  1.00  0.00    -0.458 OA
BRANCH   3   4
ATOM      4  C   UNL A   1      34.259  31.571  27.784  1.00  0.00     0.338 C 
ATOM      5  O   UNL A   1      33.900  32.590  28.376  1.00  0.00    -0.246 OA
BRANCH   4   6
ATOM      6  C   UNL A   1      35.592  30.994  28.160  1.00  0.00     0.060 A 
ATOM      7  C   UNL A   1      35.870  29.646  28.373  1.00  0.00     0.016 A 
ATOM      8  C   UNL A   1      36.645  31.914  28.361  1.00  0.00     0.016 A 
ATOM      9  C   UNL A   1      37.154  29.225  28.734  1.00  0.00     0.010 A 
ATOM     10  C   UNL A   1      37.937  31.497  28.716  1.00  0.00     0.010 A 
ATOM     11  C   UNL A   1      38.196  30.141  28.909  1.00  0.00    -0.014 A 
BRANCH  11  12
ATOM     12  C   UNL A   1      39.473  29.639  29.470  1.00  0.00     0.031 A 
ATOM     13  C   UNL A   1      39.812  30.025  30.872  1.00  0.00     0.074 A 
ATOM     14  C   UNL A   1      40.254  28.783  28.790  1.00  0.00     0.049 A 
ATOM     15  N   UNL A   1      40.705  29.519  31.676  1.00  0.00    -0.248 NA
ATOM     16  C   UNL A   1      39.029  31.132  31.439  1.00  0.00     0.031 C 
ATOM     17  C   UNL A   1      40.015  28.387  27.413  1.00  0.00     0.029 A 
ATOM     18  N   UNL A   1      41.362  28.058  29.152  1.00  0.00    -0.354 N 
ATOM     19  C   UNL A   1      40.603  30.253  32.849  1.00  0.00     0.074 A 
ATOM     20  C   UNL A   1      39.561  31.238  32.646  1.00  0.00     0.031 C 
ATOM     21  C   UNL A   1      40.896  27.439  27.056  1.00  0.00     0.029 A 
ATOM     22  C   UNL A   1      41.760  27.147  28.192  1.00  0.00     0.049 A 
ATOM     23  H   UNL A   1      41.829  28.175  30.011  1.00  0.00     0.167 HD
ATOM     24  C   UNL A   1      41.333  30.126  33.982  1.00  0.00     0.034 A 
ATOM     25  C   UNL A   1      42.675  26.156  28.255  1.00  0.00     0.034 A 
ATOM     26  C   UNL A   1      42.415  29.185  34.121  1.00  0.00     0.049 A 
ATOM     27  C   UNL A   1      43.432  25.995  29.553  1.00  0.00     0.074 A 
ATOM     28  C   UNL A   1      43.288  29.017  35.179  1.00  0.00     0.029 A 
ATOM     29  N   UNL A   1      42.789  28.264  33.147  1.00  0.00    -0.354 N 
ATOM     30  N   UNL A   1      43.277  26.644  30.686  1.00  0.00    -0.248 NA
ATOM     31  C   UNL A   1      44.478  24.966  29.585  1.00  0.00     0.031 C 
ATOM     32  C   UNL A   1      44.223  28.035  34.822  1.00  0.00     0.029 A 
ATOM     33  C   UNL A   1      43.891  27.540  33.570  1.00  0.00     0.049 A 
ATOM     34  H   UNL A   1      42.334  28.144  32.281  1.00  0.00     0.167 HD
ATOM     35  C   UNL A   1      44.208  26.099  31.563  1.00  0.00     0.074 A 
ATOM     36  C   UNL A   1      44.865  25.021  30.851  1.00  0.00     0.031 C 
ATOM     37  C   UNL A   1      44.524  26.474  32.830  1.00  0.00     0.034 A 
BRANCH  24  38
ATOM     38  C   UNL A   1      41.036  31.119  35.075  1.00  0.00     0.023 A 
ATOM     39  C   UNL A   1      39.852  31.048  35.832  1.00  0.00     0.031 A 
ATOM     40  C   UNL A   1      41.877  32.228  35.263  1.00  0.00     0.131 A 
ATOM     41  C   UNL A   1      39.493  32.118  36.664  1.00  0.00     0.055 A 
ATOM     42  C   UNL A   1      41.555  33.249  36.159  1.00  0.00     0.041 A 
ATOM     43  F   UNL A   1      43.001  32.364  34.543  1.00  0.00    -0.206 F 
ATOM     44  C   UNL A   1      40.348  33.208  36.851  1.00  0.00     0.022 A 
BRANCH  41  45
ATOM     45  S   UNL A   1      37.815  32.152  37.353  1.00  0.00     0.124 S 
ATOM     46  O   UNL A   1      37.983  33.055  38.490  1.00  0.00    -0.237 OA
ATOM     47  O   UNL A   1      37.025  32.667  36.241  1.00  0.00    -0.237 OA
ATOM     48  O   UNL A   1      37.560  30.757  37.707  1.00  0.00    -0.744 OA
ENDBRANCH  41  45
ENDBRANCH  24  38
BRANCH  25  49
ATOM     49  C   UNL A   1      42.885  25.195  27.125  1.00  0.00     0.023 A 
ATOM     50  C   UNL A   1      42.281  23.926  27.152  1.00  0.00     0.031 A 
ATOM     51  C   UNL A   1      43.717  25.487  26.030  1.00  0.00     0.131 A 
ATOM     52  C   UNL A   1      42.543  22.987  26.141  1.00  0.00     0.055 A 
ATOM     53  C   UNL A   1      43.929  24.571  24.994  1.00  0.00     0.041 A 
ATOM     54  F   UNL A   1      44.334  26.676  25.944  1.00  0.00    -0.206 F 
ATOM     55  C   UNL A   1      43.349  23.307  25.050  1.00  0.00     0.022 A 
BRANCH  52  56
ATOM     56  S   UNL A   1      41.844  21.324  26.316  1.00  0.00     0.124 S 
ATOM     57  O   UNL A   1      40.455  21.549  25.933  1.00  0.00    -0.237 OA
ATOM     58  O   UNL A   1      42.652  20.567  25.365  1.00  0.00    -0.237 OA
ATOM     59  O   UNL A   1      42.062  21.004  27.724  1.00  0.00    -0.744 OA
ENDBRANCH  52  56
ENDBRANCH  25  49
BRANCH  37  60
ATOM     60  C   UNL A   1      45.627  25.698  33.505  1.00  0.00     0.023 A 
ATOM     61  C   UNL A   1      45.340  24.643  34.389  1.00  0.00     0.031 A 
ATOM     62  C   UNL A   1      46.973  26.030  33.282  1.00  0.00     0.131 A 
ATOM     63  C   UNL A   1      46.381  24.005  35.076  1.00  0.00     0.055 A 
ATOM     64  C   UNL A   1      48.010  25.346  33.918  1.00  0.00     0.041 A 
ATOM     65  F   UNL A   1      47.302  27.029  32.447  1.00  0.00    -0.206 F 
ATOM     66  C   UNL A   1      47.716  24.339  34.833  1.00  0.00     0.022 A 
BRANCH  63  67
ATOM     67  S   UNL A   1      45.958  22.808  36.370  1.00  0.00     0.124 S 
ATOM     68  O   UNL A   1      45.289  23.651  37.355  1.00  0.00    -0.237 OA
ATOM     69  O   UNL A   1      45.107  21.864  35.655  1.00  0.00    -0.237 OA
ATOM     70  O   UNL A   1      47.257  22.280  36.785  1.00  0.00    -0.744 OA
ENDBRANCH  63  67
ENDBRANCH  37  60
ENDBRANCH  11  12
ENDBRANCH   4   6
ENDBRANCH   3   4
ENDBRANCH   2   3
ENDBRANCH   1   2
BRANCH   1  71
ATOM     71  O   UNL A   1      32.542  28.524  25.915  1.00  0.00    -0.458 OA
BRANCH  71  72
ATOM     72  C   UNL A   1      32.365  28.819  24.599  1.00  0.00     0.340 C 
ATOM     73  O   UNL A   1      33.206  29.293  23.849  1.00  0.00    -0.246 OA
BRANCH  72  74
ATOM     74  C   UNL A   1      31.039  28.365  24.128  1.00  0.00     0.083 A 
ATOM     75  C   UNL A   1      30.302  29.341  23.424  1.00  0.00     0.018 A 
ATOM     76  C   UNL A   1      30.514  27.079  24.387  1.00  0.00     0.049 A 
ATOM     77  C   UNL A   1      29.028  29.061  22.952  1.00  0.00     0.001 A 
ATOM     78  C   UNL A   1      29.188  26.870  23.971  1.00  0.00     0.026 A 
ATOM     79  C   UNL A   1      28.466  27.826  23.239  1.00  0.00     0.002 A 
BRANCH  76  80
ATOM     80  N   UNL A   1      31.256  26.103  25.038  1.00  0.00    -0.380 N 
ATOM     81  H   UNL A   1      31.471  26.279  25.983  1.00  0.00     0.160 HD
BRANCH  80  82
ATOM     82  C   UNL A   1      31.756  24.846  24.487  1.00  0.00     0.156 C 
BRANCH  82  83
ATOM     83  C   UNL A   1      32.791  24.138  25.346  1.00  0.00     0.049 A 
ATOM     84  C   UNL A   1      34.167  24.398  25.250  1.00  0.00     0.013 A 
ATOM     85  C   UNL A   1      32.402  23.162  26.297  1.00  0.00     0.274 A 
ATOM     86  C   UNL A   1      35.099  23.680  26.016  1.00  0.00     0.001 A 
ATOM     87  C   UNL A   1      33.322  22.454  27.083  1.00  0.00     0.086 A 
ATOM     88  C   UNL A   1      34.680  22.703  26.918  1.00  0.00     0.007 A 
BRANCH  85  89
ATOM     89  N   UNL A   1      30.993  22.875  26.508  1.00  0.00     0.063 N 
ATOM     90  O   UNL A   1      30.526  21.898  25.910  1.00  0.00    -0.258 OA
ATOM     91  O   UNL A   1      30.399  23.553  27.357  1.00  0.00    -0.258 OA
ENDBRANCH  85  89
ENDBRANCH  82  83
ENDBRANCH  80  82
ENDBRANCH  76  80
ENDBRANCH  72  74
ENDBRANCH  71  72
ENDBRANCH   1  71
TORSDOF 18
ENDMDL
