MODEL 1
REMARK VINA RESULT:     -11.8      0.000      0.000
REMARK SMILES O=C(OCCOC(=O)c1cccc(OS(=O)(=O)c2cccc([N+](=O)[O-])c2)c1)c1ccc(-c2c3nc(c(-c4cc(S(=O)(=O)[O-])ccc4F)c4ccc([nH]4)c(-c4cc(S(=O)(=O)[O-])ccc4F)c4nc(c(-c5cc(S(=O)(=O)[O-])ccc5F)c5ccc2[nH]5)C=C4)C=C3)cc1
REMARK SMILES IDX 5 1 4 2 3 3 2 4 1 5 28 6 29 7 90 8 30 9 89 10 31 11 32 12
REMARK SMILES IDX 33 13 83 14 34 15 88 16 82 17 84 18 35 19 87 20 81 21 80 22
REMARK SMILES IDX 36 24 68 25 48 26 67 27 49 28 52 29 66 30 85 31 50 32 51 33
REMARK SMILES IDX 65 35 86 36 53 37 37 38 38 39 46 40 39 41 45 42 47 43 44 44
REMARK SMILES IDX 40 45 41 46 42 47 43 48 69 49 70 50 78 51 71 52 77 53 79 54
REMARK SMILES IDX 76 55 72 56 73 57 74 58 75 59 54 60 55 61 63 62 56 63 62 64
REMARK SMILES IDX 64 65 61 66 57 67 58 68 59 69 60 70 6 71 7 72 8 73 9 74
REMARK SMILES IDX 10 75 27 76 11 77 13 78 12 79 14 80 15 81 16 82 17 83 18 84
REMARK SMILES IDX 19 85 26 86 20 87 22 88 21 89 23 90 24 91 25 92
REMARK H PARENT 84 23 52 34
REMARK Flexibility Score: inf
ROOT
ATOM      1  C   UNL A   1      31.862  31.272  26.818  1.00  0.00     0.275 C 
ENDROOT
BRANCH   1   2
ATOM      2  C   UNL A   1      31.776  32.776  26.554  1.00  0.00     0.275 C 
BRANCH   2   3
ATOM      3  O   UNL A   1      32.137  33.589  27.684  1.00  0.00    -0.458 OA
BRANCH   3   4
ATOM      4  C   UNL A   1      33.334  34.053  28.114  1.00  0.00     0.338 C 
ATOM      5  O   UNL A   1      33.501  35.274  28.121  1.00  0.00    -0.246 OA
BRANCH   4   6
ATOM      6  C   UNL A   1      34.506  33.200  28.522  1.00  0.00     0.060 A 
ATOM      7  C   UNL A   1      34.454  31.924  29.086  1.00  0.00     0.016 A 
ATOM      8  C   UNL A   1      35.783  33.765  28.328  1.00  0.00     0.016 A 
ATOM      9  C   UNL A   1      35.620  31.241  29.454  1.00  0.00     0.010 A 
ATOM     10  C   UNL A   1      36.956  33.079  28.672  1.00  0.00     0.010 A 
ATOM     11  C   UNL A   1      36.877  31.820  29.271  1.00  0.00    -0.014 A 
BRANCH  11  12
ATOM     12  C   UNL A   1      38.065  31.173  29.879  1.00  0.00     0.031 A 
ATOM     13  C   UNL A   1      38.421  31.514  31.299  1.00  0.00     0.074 A 
ATOM     14  C   UNL A   1      38.762  30.232  29.216  1.00  0.00     0.049 A 
ATOM     15  N   UNL A   1      39.359  31.017  32.064  1.00  0.00    -0.248 NA
ATOM     16  C   UNL A   1      37.596  32.545  31.945  1.00  0.00     0.031 C 
ATOM     17  C   UNL A   1      38.481  29.760  27.862  1.00  0.00     0.029 A 
ATOM     18  N   UNL A   1      39.849  29.492  29.603  1.00  0.00    -0.354 N 
ATOM     19  C   UNL A   1      39.217  31.653  33.292  1.00  0.00     0.074 A 
ATOM     20  C   UNL A   1      38.153  32.624  33.141  1.00  0.00     0.031 C 
ATOM     21  C   UNL A   1      39.391  28.830  27.520  1.00  0.00     0.029 A 
ATOM     22  C   UNL A   1      40.309  28.637  28.630  1.00  0.00     0.049 A 
ATOM     23  H   UNL A   1      40.260  29.565  30.494  1.00  0.00     0.167 HD
ATOM     24  C   UNL A   1      39.889  31.431  34.449  1.00  0.00     0.034 A 
ATOM     25  C   UNL A   1      41.355  27.797  28.646  1.00  0.00     0.034 A 
ATOM     26  C   UNL A   1      40.977  30.493  34.579  1.00  0.00     0.049 A 
ATOM     27  C   UNL A   1      42.165  27.657  29.905  1.00  0.00     0.074 A 
ATOM     28  C   UNL A   1      41.736  30.191  35.696  1.00  0.00     0.029 A 
ATOM     29  N   UNL A   1      41.478  29.718  33.541  1.00  0.00    -0.354 N 
ATOM     30  N   UNL A   1      42.032  28.277  31.051  1.00  0.00    -0.248 NA
ATOM     31  C   UNL A   1      43.251  26.671  29.864  1.00  0.00     0.031 C 
ATOM     32  C   UNL A   1      42.736  29.286  35.318  1.00  0.00     0.029 A 
ATOM     33  C   UNL A   1      42.557  28.968  33.982  1.00  0.00     0.049 A 
ATOM     34  H   UNL A   1      41.120  29.705  32.624  1.00  0.00     0.167 HD
ATOM     35  C   UNL A   1      43.016  27.745  31.876  1.00  0.00     0.074 A 
ATOM     36  C   UNL A   1      43.724  26.749  31.096  1.00  0.00     0.031 C 
ATOM     37  C   UNL A   1      43.297  28.033  33.171  1.00  0.00     0.034 A 
BRANCH  24  38
ATOM     38  C   UNL A   1      39.483  32.274  35.631  1.00  0.00     0.023 A 
ATOM     39  C   UNL A   1      40.108  33.506  35.902  1.00  0.00     0.031 A 
ATOM     40  C   UNL A   1      38.546  31.790  36.560  1.00  0.00     0.131 A 
ATOM     41  C   UNL A   1      39.870  34.156  37.122  1.00  0.00     0.055 A 
ATOM     42  C   UNL A   1      38.248  32.489  37.731  1.00  0.00     0.041 A 
ATOM     43  F   UNL A   1      37.936  30.611  36.365  1.00  0.00    -0.206 F 
ATOM     44  C   UNL A   1      38.928  33.666  38.029  1.00  0.00     0.022 A 
BRANCH  41  45
ATOM     45  S   UNL A   1      40.954  35.534  37.590  1.00  0.00     0.124 S 
ATOM     46  O   UNL A   1      40.014  36.654  37.609  1.00  0.00    -0.237 OA
ATOM     47  O   UNL A   1      41.465  35.107  38.888  1.00  0.00    -0.237 OA
ATOM     48  O   UNL A   1      41.940  35.575  36.513  1.00  0.00    -0.744 OA
ENDBRANCH  41  45
ENDBRANCH  24  38
BRANCH  25  49
ATOM     49  C   UNL A   1      41.792  27.038  27.448  1.00  0.00     0.023 A 
ATOM     50  C   UNL A   1      41.645  25.645  27.372  1.00  0.00     0.031 A 
ATOM     51  C   UNL A   1      42.580  27.692  26.485  1.00  0.00     0.131 A 
ATOM     52  C   UNL A   1      42.355  24.938  26.392  1.00  0.00     0.055 A 
ATOM     53  C   UNL A   1      43.292  26.982  25.523  1.00  0.00     0.041 A 
ATOM     54  F   UNL A   1      42.704  29.028  26.510  1.00  0.00    -0.206 F 
ATOM     55  C   UNL A   1      43.193  25.595  25.483  1.00  0.00     0.022 A 
BRANCH  52  56
ATOM     56  S   UNL A   1      42.181  23.139  26.261  1.00  0.00     0.124 S 
ATOM     57  O   UNL A   1      40.747  22.961  26.449  1.00  0.00    -0.237 OA
ATOM     58  O   UNL A   1      42.696  22.859  24.924  1.00  0.00    -0.237 OA
ATOM     59  O   UNL A   1      43.032  22.663  27.351  1.00  0.00    -0.744 OA
ENDBRANCH  52  56
ENDBRANCH  25  49
BRANCH  37  60
ATOM     60  C   UNL A   1      44.412  27.237  33.794  1.00  0.00     0.023 A 
ATOM     61  C   UNL A   1      44.226  25.900  34.188  1.00  0.00     0.031 A 
ATOM     62  C   UNL A   1      45.636  27.857  34.094  1.00  0.00     0.131 A 
ATOM     63  C   UNL A   1      45.219  25.254  34.936  1.00  0.00     0.055 A 
ATOM     64  C   UNL A   1      46.648  27.184  34.777  1.00  0.00     0.041 A 
ATOM     65  F   UNL A   1      45.856  29.137  33.753  1.00  0.00    -0.206 F 
ATOM     66  C   UNL A   1      46.436  25.880  35.219  1.00  0.00     0.022 A 
BRANCH  63  67
ATOM     67  S   UNL A   1      44.844  23.630  35.654  1.00  0.00     0.124 S 
ATOM     68  O   UNL A   1      43.468  23.419  35.214  1.00  0.00    -0.237 OA
ATOM     69  O   UNL A   1      45.850  22.774  35.035  1.00  0.00    -0.237 OA
ATOM     70  O   UNL A   1      45.010  23.844  37.090  1.00  0.00    -0.744 OA
ENDBRANCH  63  67
ENDBRANCH  37  60
ENDBRANCH  11  12
ENDBRANCH   4   6
ENDBRANCH   3   4
ENDBRANCH   2   3
ENDBRANCH   1   2
BRANCH   1  71
ATOM     71  O   UNL A   1      31.450  30.485  25.692  1.00  0.00    -0.458 OA
BRANCH  71  72
ATOM     72  C   UNL A   1      31.614  29.144  25.825  1.00  0.00     0.338 C 
ATOM     73  O   UNL A   1      31.859  28.530  26.850  1.00  0.00    -0.246 OA
BRANCH  72  74
ATOM     74  C   UNL A   1      31.324  28.496  24.529  1.00  0.00     0.063 A 
ATOM     75  C   UNL A   1      30.679  29.238  23.535  1.00  0.00     0.016 A 
ATOM     76  C   UNL A   1      31.705  27.172  24.294  1.00  0.00     0.064 A 
ATOM     77  C   UNL A   1      30.463  28.669  22.281  1.00  0.00     0.005 A 
ATOM     78  C   UNL A   1      31.436  26.587  23.057  1.00  0.00     0.143 A 
ATOM     79  C   UNL A   1      30.848  27.347  22.041  1.00  0.00     0.048 A 
BRANCH  78  80
ATOM     80  O   UNL A   1      31.734  25.286  22.734  1.00  0.00    -0.379 OA
BRANCH  80  81
ATOM     81  S   UNL A   1      33.275  24.807  22.483  1.00  0.00     0.339 S 
ATOM     82  O   UNL A   1      33.259  23.671  21.581  1.00  0.00    -0.181 OA
ATOM     83  O   UNL A   1      34.088  25.975  22.198  1.00  0.00    -0.181 OA
BRANCH  81  84
ATOM     84  C   UNL A   1      33.824  24.219  24.066  1.00  0.00     0.112 A 
ATOM     85  C   UNL A   1      35.195  24.089  24.306  1.00  0.00     0.024 A 
ATOM     86  C   UNL A   1      32.884  23.917  25.055  1.00  0.00     0.109 A 
ATOM     87  C   UNL A   1      35.639  23.710  25.572  1.00  0.00     0.009 A 
ATOM     88  C   UNL A   1      33.344  23.536  26.321  1.00  0.00     0.270 A 
ATOM     89  C   UNL A   1      34.717  23.459  26.590  1.00  0.00     0.086 A 
BRANCH  88  90
ATOM     90  N   UNL A   1      32.375  23.221  27.378  1.00  0.00     0.062 N 
ATOM     91  O   UNL A   1      32.683  22.360  28.213  1.00  0.00    -0.258 OA
ATOM     92  O   UNL A   1      31.312  23.861  27.390  1.00  0.00    -0.258 OA
ENDBRANCH  88  90
ENDBRANCH  81  84
ENDBRANCH  80  81
ENDBRANCH  78  80
ENDBRANCH  72  74
ENDBRANCH  71  72
ENDBRANCH   1  71
TORSDOF 18
ENDMDL
MODEL 2
REMARK VINA RESULT:     -11.7      1.572      2.135
REMARK SMILES O=C(OCCOC(=O)c1cccc(OS(=O)(=O)c2cccc([N+](=O)[O-])c2)c1)c1ccc(-c2c3nc(c(-c4cc(S(=O)(=O)[O-])ccc4F)c4ccc([nH]4)c(-c4cc(S(=O)(=O)[O-])ccc4F)c4nc(c(-c5cc(S(=O)(=O)[O-])ccc5F)c5ccc2[nH]5)C=C4)C=C3)cc1
REMARK SMILES IDX 5 1 4 2 3 3 2 4 1 5 28 6 29 7 90 8 30 9 89 10 31 11 32 12
REMARK SMILES IDX 33 13 83 14 34 15 88 16 82 17 84 18 35 19 87 20 81 21 80 22
REMARK SMILES IDX 36 24 68 25 48 26 67 27 49 28 52 29 66 30 85 31 50 32 51 33
REMARK SMILES IDX 65 35 86 36 53 37 37 38 38 39 46 40 39 41 45 42 47 43 44 44
REMARK SMILES IDX 40 45 41 46 42 47 43 48 69 49 70 50 78 51 71 52 77 53 79 54
REMARK SMILES IDX 76 55 72 56 73 57 74 58 75 59 54 60 55 61 63 62 56 63 62 64
REMARK SMILES IDX 64 65 61 66 57 67 58 68 59 69 60 70 6 71 7 72 8 73 9 74
REMARK SMILES IDX 10 75 27 76 11 77 13 78 12 79 14 80 15 81 16 82 17 83 18 84
REMARK SMILES IDX 19 85 26 86 20 87 22 88 21 89 23 90 24 91 25 92
REMARK H PARENT 84 23 52 34
REMARK Flexibility Score: inf
ROOT
ATOM      1  C   UNL A   1      31.425  31.118  25.894  1.00  0.00     0.275 C 
ENDROOT
BRANCH   1   2
ATOM      2  C   UNL A   1      31.077  32.226  26.889  1.00  0.00     0.275 C 
BRANCH   2   3
ATOM      3  O   UNL A   1      32.013  33.317  26.901  1.00  0.00    -0.458 OA
BRANCH   3   4
ATOM      4  C   UNL A   1      32.919  33.717  27.824  1.00  0.00     0.338 C 
ATOM      5  O   UNL A   1      32.737  34.811  28.362  1.00  0.00    -0.246 OA
BRANCH   4   6
ATOM      6  C   UNL A   1      34.168  32.968  28.203  1.00  0.00     0.060 A 
ATOM      7  C   UNL A   1      34.297  31.588  28.374  1.00  0.00     0.016 A 
ATOM      8  C   UNL A   1      35.320  33.753  28.424  1.00  0.00     0.016 A 
ATOM      9  C   UNL A   1      35.513  31.011  28.760  1.00  0.00     0.010 A 
ATOM     10  C   UNL A   1      36.546  33.180  28.789  1.00  0.00     0.010 A 
ATOM     11  C   UNL A   1      36.639  31.801  28.992  1.00  0.00    -0.014 A 
BRANCH  11  12
ATOM     12  C   UNL A   1      37.835  31.188  29.619  1.00  0.00     0.031 A 
ATOM     13  C   UNL A   1      38.182  31.570  31.031  1.00  0.00     0.074 A 
ATOM     14  C   UNL A   1      38.549  30.242  28.981  1.00  0.00     0.049 A 
ATOM     15  N   UNL A   1      39.125  31.106  31.811  1.00  0.00    -0.248 NA
ATOM     16  C   UNL A   1      37.340  32.604  31.649  1.00  0.00     0.031 C 
ATOM     17  C   UNL A   1      38.278  29.732  27.639  1.00  0.00     0.029 A 
ATOM     18  N   UNL A   1      39.645  29.529  29.390  1.00  0.00    -0.354 N 
ATOM     19  C   UNL A   1      38.970  31.770  33.022  1.00  0.00     0.074 A 
ATOM     20  C   UNL A   1      37.892  32.721  32.845  1.00  0.00     0.031 C 
ATOM     21  C   UNL A   1      39.203  28.808  27.322  1.00  0.00     0.029 A 
ATOM     22  C   UNL A   1      40.121  28.657  28.440  1.00  0.00     0.049 A 
ATOM     23  H   UNL A   1      40.053  29.630  30.280  1.00  0.00     0.167 HD
ATOM     24  C   UNL A   1      39.642  31.587  34.186  1.00  0.00     0.034 A 
ATOM     25  C   UNL A   1      41.180  27.833  28.479  1.00  0.00     0.034 A 
ATOM     26  C   UNL A   1      40.743  30.670  34.342  1.00  0.00     0.049 A 
ATOM     27  C   UNL A   1      41.988  27.737  29.743  1.00  0.00     0.074 A 
ATOM     28  C   UNL A   1      41.503  30.407  35.469  1.00  0.00     0.029 A 
ATOM     29  N   UNL A   1      41.259  29.877  33.325  1.00  0.00    -0.354 N 
ATOM     30  N   UNL A   1      41.842  28.383  30.874  1.00  0.00    -0.248 NA
ATOM     31  C   UNL A   1      43.089  26.767  29.730  1.00  0.00     0.031 C 
ATOM     32  C   UNL A   1      42.518  29.508  35.115  1.00  0.00     0.029 A 
ATOM     33  C   UNL A   1      42.348  29.154  33.787  1.00  0.00     0.049 A 
ATOM     34  H   UNL A   1      40.904  29.836  32.408  1.00  0.00     0.167 HD
ATOM     35  C   UNL A   1      42.832  27.886  31.714  1.00  0.00     0.074 A 
ATOM     36  C   UNL A   1      43.557  26.883  30.960  1.00  0.00     0.031 C 
ATOM     37  C   UNL A   1      43.104  28.212  33.002  1.00  0.00     0.034 A 
BRANCH  24  38
ATOM     38  C   UNL A   1      39.219  32.453  35.346  1.00  0.00     0.023 A 
ATOM     39  C   UNL A   1      39.748  33.745  35.526  1.00  0.00     0.031 A 
ATOM     40  C   UNL A   1      38.371  31.942  36.342  1.00  0.00     0.131 A 
ATOM     41  C   UNL A   1      39.511  34.435  36.724  1.00  0.00     0.055 A 
ATOM     42  C   UNL A   1      38.068  32.673  37.492  1.00  0.00     0.041 A 
ATOM     43  F   UNL A   1      37.857  30.707  36.234  1.00  0.00    -0.206 F 
ATOM     44  C   UNL A   1      38.658  33.916  37.700  1.00  0.00     0.022 A 
BRANCH  41  45
ATOM     45  S   UNL A   1      40.492  35.922  37.071  1.00  0.00     0.124 S 
ATOM     46  O   UNL A   1      40.848  36.362  35.724  1.00  0.00    -0.237 OA
ATOM     47  O   UNL A   1      39.543  36.766  37.789  1.00  0.00    -0.237 OA
ATOM     48  O   UNL A   1      41.607  35.418  37.870  1.00  0.00    -0.744 OA
ENDBRANCH  41  45
ENDBRANCH  24  38
BRANCH  25  49
ATOM     49  C   UNL A   1      41.631  27.051  27.301  1.00  0.00     0.023 A 
ATOM     50  C   UNL A   1      41.542  25.652  27.276  1.00  0.00     0.031 A 
ATOM     51  C   UNL A   1      42.379  27.704  26.306  1.00  0.00     0.131 A 
ATOM     52  C   UNL A   1      42.267  24.941  26.310  1.00  0.00     0.055 A 
ATOM     53  C   UNL A   1      43.107  26.990  25.358  1.00  0.00     0.041 A 
ATOM     54  F   UNL A   1      42.448  29.043  26.282  1.00  0.00    -0.206 F 
ATOM     55  C   UNL A   1      43.065  25.599  25.367  1.00  0.00     0.022 A 
BRANCH  52  56
ATOM     56  S   UNL A   1      42.165  23.132  26.243  1.00  0.00     0.124 S 
ATOM     57  O   UNL A   1      42.985  22.743  27.384  1.00  0.00    -0.237 OA
ATOM     58  O   UNL A   1      40.733  22.882  26.362  1.00  0.00    -0.237 OA
ATOM     59  O   UNL A   1      42.725  22.837  24.924  1.00  0.00    -0.744 OA
ENDBRANCH  52  56
ENDBRANCH  25  49
BRANCH  37  60
ATOM     60  C   UNL A   1      44.229  27.448  33.647  1.00  0.00     0.023 A 
ATOM     61  C   UNL A   1      44.001  26.232  34.316  1.00  0.00     0.031 A 
ATOM     62  C   UNL A   1      45.521  27.998  33.686  1.00  0.00     0.131 A 
ATOM     63  C   UNL A   1      45.031  25.650  35.066  1.00  0.00     0.055 A 
ATOM     64  C   UNL A   1      46.560  27.377  34.377  1.00  0.00     0.041 A 
ATOM     65  F   UNL A   1      45.785  29.166  33.078  1.00  0.00    -0.206 F 
ATOM     66  C   UNL A   1      46.314  26.204  35.089  1.00  0.00     0.022 A 
BRANCH  63  67
ATOM     67  S   UNL A   1      44.635  24.232  36.127  1.00  0.00     0.124 S 
ATOM     68  O   UNL A   1      44.203  24.890  37.357  1.00  0.00    -0.237 OA
ATOM     69  O   UNL A   1      43.592  23.554  35.366  1.00  0.00    -0.237 OA
ATOM     70  O   UNL A   1      45.903  23.511  36.221  1.00  0.00    -0.744 OA
ENDBRANCH  63  67
ENDBRANCH  37  60
ENDBRANCH  11  12
ENDBRANCH   4   6
ENDBRANCH   3   4
ENDBRANCH   2   3
ENDBRANCH   1   2
BRANCH   1  71
ATOM     71  O   UNL A   1      31.616  29.844  26.523  1.00  0.00    -0.458 OA
BRANCH  71  72
ATOM     72  C   UNL A   1      32.418  28.975  25.855  1.00  0.00     0.338 C 
ATOM     73  O   UNL A   1      33.603  29.113  25.602  1.00  0.00    -0.246 OA
BRANCH  72  74
ATOM     74  C   UNL A   1      31.656  27.742  25.572  1.00  0.00     0.063 A 
ATOM     75  C   UNL A   1      30.741  27.742  24.514  1.00  0.00     0.016 A 
ATOM     76  C   UNL A   1      31.861  26.588  26.334  1.00  0.00     0.064 A 
ATOM     77  C   UNL A   1      30.068  26.567  24.185  1.00  0.00     0.005 A 
ATOM     78  C   UNL A   1      31.143  25.430  26.038  1.00  0.00     0.143 A 
ATOM     79  C   UNL A   1      30.275  25.411  24.942  1.00  0.00     0.048 A 
BRANCH  78  80
ATOM     80  O   UNL A   1      31.241  24.256  26.744  1.00  0.00    -0.379 OA
BRANCH  80  81
ATOM     81  S   UNL A   1      32.629  23.395  26.769  1.00  0.00     0.339 S 
ATOM     82  O   UNL A   1      33.725  24.287  26.442  1.00  0.00    -0.181 OA
ATOM     83  O   UNL A   1      32.658  22.589  27.976  1.00  0.00    -0.181 OA
BRANCH  81  84
ATOM     84  C   UNL A   1      32.465  22.243  25.429  1.00  0.00     0.112 A 
ATOM     85  C   UNL A   1      32.144  22.722  24.155  1.00  0.00     0.024 A 
ATOM     86  C   UNL A   1      32.682  20.881  25.657  1.00  0.00     0.109 A 
ATOM     87  C   UNL A   1      32.097  21.836  23.079  1.00  0.00     0.009 A 
ATOM     88  C   UNL A   1      32.629  20.003  24.568  1.00  0.00     0.270 A 
ATOM     89  C   UNL A   1      32.366  20.480  23.277  1.00  0.00     0.086 A 
BRANCH  88  90
ATOM     90  N   UNL A   1      32.861  18.570  24.783  1.00  0.00     0.062 N 
ATOM     91  O   UNL A   1      34.032  18.172  24.846  1.00  0.00    -0.258 OA
ATOM     92  O   UNL A   1      31.865  17.842  24.921  1.00  0.00    -0.258 OA
ENDBRANCH  88  90
ENDBRANCH  81  84
ENDBRANCH  80  81
ENDBRANCH  78  80
ENDBRANCH  72  74
ENDBRANCH  71  72
ENDBRANCH   1  71
TORSDOF 18
ENDMDL
MODEL 3
REMARK VINA RESULT:     -11.7      4.685     10.361
REMARK SMILES O=C(OCCOC(=O)c1cccc(OS(=O)(=O)c2cccc([N+](=O)[O-])c2)c1)c1ccc(-c2c3nc(c(-c4cc(S(=O)(=O)[O-])ccc4F)c4ccc([nH]4)c(-c4cc(S(=O)(=O)[O-])ccc4F)c4nc(c(-c5cc(S(=O)(=O)[O-])ccc5F)c5ccc2[nH]5)C=C4)C=C3)cc1
REMARK SMILES IDX 5 1 4 2 3 3 2 4 1 5 28 6 29 7 90 8 30 9 89 10 31 11 32 12
REMARK SMILES IDX 33 13 83 14 34 15 88 16 82 17 84 18 35 19 87 20 81 21 80 22
REMARK SMILES IDX 36 24 68 25 48 26 67 27 49 28 52 29 66 30 85 31 50 32 51 33
REMARK SMILES IDX 65 35 86 36 53 37 37 38 38 39 46 40 39 41 45 42 47 43 44 44
REMARK SMILES IDX 40 45 41 46 42 47 43 48 69 49 70 50 78 51 71 52 77 53 79 54
REMARK SMILES IDX 76 55 72 56 73 57 74 58 75 59 54 60 55 61 63 62 56 63 62 64
REMARK SMILES IDX 64 65 61 66 57 67 58 68 59 69 60 70 6 71 7 72 8 73 9 74
REMARK SMILES IDX 10 75 27 76 11 77 13 78 12 79 14 80 15 81 16 82 17 83 18 84
REMARK SMILES IDX 19 85 26 86 20 87 22 88 21 89 23 90 24 91 25 92
REMARK H PARENT 84 23 52 34
REMARK Flexibility Score: inf
ROOT
ATOM      1  C   UNL A   1      37.155  21.024  25.414  1.00  0.00     0.275 C 
ENDROOT
BRANCH   1   2
ATOM      2  C   UNL A   1      37.896  19.796  24.884  1.00  0.00     0.275 C 
BRANCH   2   3
ATOM      3  O   UNL A   1      38.965  19.346  25.734  1.00  0.00    -0.458 OA
BRANCH   3   4
ATOM      4  C   UNL A   1      40.174  19.881  26.020  1.00  0.00     0.338 C 
ATOM      5  O   UNL A   1      41.156  19.138  25.944  1.00  0.00    -0.246 OA
BRANCH   4   6
ATOM      6  C   UNL A   1      40.418  21.290  26.488  1.00  0.00     0.060 A 
ATOM      7  C   UNL A   1      39.888  22.458  25.936  1.00  0.00     0.016 A 
ATOM      8  C   UNL A   1      41.288  21.438  27.589  1.00  0.00     0.016 A 
ATOM      9  C   UNL A   1      40.216  23.721  26.445  1.00  0.00     0.010 A 
ATOM     10  C   UNL A   1      41.604  22.697  28.118  1.00  0.00     0.010 A 
ATOM     11  C   UNL A   1      41.092  23.853  27.523  1.00  0.00    -0.014 A 
BRANCH  11  12
ATOM     12  C   UNL A   1      41.594  25.200  27.885  1.00  0.00     0.031 A 
ATOM     13  C   UNL A   1      42.985  25.585  27.463  1.00  0.00     0.074 A 
ATOM     14  C   UNL A   1      40.801  26.099  28.496  1.00  0.00     0.049 A 
ATOM     15  N   UNL A   1      43.607  26.729  27.591  1.00  0.00    -0.248 NA
ATOM     16  C   UNL A   1      43.773  24.540  26.793  1.00  0.00     0.031 C 
ATOM     17  C   UNL A   1      39.414  25.877  28.895  1.00  0.00     0.029 A 
ATOM     18  N   UNL A   1      41.051  27.392  28.874  1.00  0.00    -0.354 N 
ATOM     19  C   UNL A   1      44.848  26.551  26.990  1.00  0.00     0.074 A 
ATOM     20  C   UNL A   1      44.915  25.167  26.568  1.00  0.00     0.031 C 
ATOM     21  C   UNL A   1      38.943  26.988  29.491  1.00  0.00     0.029 A 
ATOM     22  C   UNL A   1      39.990  27.996  29.505  1.00  0.00     0.049 A 
ATOM     23  H   UNL A   1      41.908  27.847  28.708  1.00  0.00     0.167 HD
ATOM     24  C   UNL A   1      45.832  27.461  26.781  1.00  0.00     0.034 A 
ATOM     25  C   UNL A   1      39.886  29.227  30.031  1.00  0.00     0.034 A 
ATOM     26  C   UNL A   1      45.776  28.825  27.244  1.00  0.00     0.049 A 
ATOM     27  C   UNL A   1      41.039  30.182  29.896  1.00  0.00     0.074 A 
ATOM     28  C   UNL A   1      46.714  29.832  27.098  1.00  0.00     0.029 A 
ATOM     29  N   UNL A   1      44.723  29.369  27.969  1.00  0.00    -0.354 N 
ATOM     30  N   UNL A   1      42.212  29.995  29.342  1.00  0.00    -0.248 NA
ATOM     31  C   UNL A   1      40.826  31.529  30.439  1.00  0.00     0.031 C 
ATOM     32  C   UNL A   1      46.259  30.962  27.791  1.00  0.00     0.029 A 
ATOM     33  C   UNL A   1      45.005  30.684  28.308  1.00  0.00     0.049 A 
ATOM     34  H   UNL A   1      43.897  28.890  28.208  1.00  0.00     0.167 HD
ATOM     35  C   UNL A   1      42.875  31.211  29.462  1.00  0.00     0.074 A 
ATOM     36  C   UNL A   1      41.966  32.120  30.130  1.00  0.00     0.031 C 
ATOM     37  C   UNL A   1      44.116  31.554  29.037  1.00  0.00     0.034 A 
BRANCH  24  38
ATOM     38  C   UNL A   1      47.064  26.962  26.069  1.00  0.00     0.023 A 
ATOM     39  C   UNL A   1      48.055  26.228  26.748  1.00  0.00     0.031 A 
ATOM     40  C   UNL A   1      47.306  27.322  24.733  1.00  0.00     0.131 A 
ATOM     41  C   UNL A   1      49.285  25.973  26.123  1.00  0.00     0.055 A 
ATOM     42  C   UNL A   1      48.498  26.986  24.089  1.00  0.00     0.041 A 
ATOM     43  F   UNL A   1      46.407  28.042  24.045  1.00  0.00    -0.206 F 
ATOM     44  C   UNL A   1      49.505  26.329  24.791  1.00  0.00     0.022 A 
BRANCH  41  45
ATOM     45  S   UNL A   1      50.656  25.353  27.138  1.00  0.00     0.124 S 
ATOM     46  O   UNL A   1      51.037  26.551  27.883  1.00  0.00    -0.237 OA
ATOM     47  O   UNL A   1      50.020  24.293  27.913  1.00  0.00    -0.237 OA
ATOM     48  O   UNL A   1      51.635  24.902  26.151  1.00  0.00    -0.744 OA
ENDBRANCH  41  45
ENDBRANCH  24  38
BRANCH  25  49
ATOM     49  C   UNL A   1      38.699  29.672  30.802  1.00  0.00     0.023 A 
ATOM     50  C   UNL A   1      37.725  30.502  30.228  1.00  0.00     0.031 A 
ATOM     51  C   UNL A   1      38.677  29.458  32.191  1.00  0.00     0.131 A 
ATOM     52  C   UNL A   1      36.812  31.160  31.063  1.00  0.00     0.055 A 
ATOM     53  C   UNL A   1      37.776  30.125  33.015  1.00  0.00     0.041 A 
ATOM     54  F   UNL A   1      39.572  28.637  32.761  1.00  0.00    -0.206 F 
ATOM     55  C   UNL A   1      36.846  30.994  32.453  1.00  0.00     0.022 A 
BRANCH  52  56
ATOM     56  S   UNL A   1      35.535  32.232  30.353  1.00  0.00     0.124 S 
ATOM     57  O   UNL A   1      35.173  31.507  29.142  1.00  0.00    -0.237 OA
ATOM     58  O   UNL A   1      34.524  32.274  31.405  1.00  0.00    -0.237 OA
ATOM     59  O   UNL A   1      36.257  33.488  30.154  1.00  0.00    -0.744 OA
ENDBRANCH  52  56
ENDBRANCH  25  49
BRANCH  37  60
ATOM     60  C   UNL A   1      44.523  32.982  29.287  1.00  0.00     0.023 A 
ATOM     61  C   UNL A   1      44.220  34.002  28.368  1.00  0.00     0.031 A 
ATOM     62  C   UNL A   1      45.316  33.302  30.401  1.00  0.00     0.131 A 
ATOM     63  C   UNL A   1      44.779  35.276  28.537  1.00  0.00     0.055 A 
ATOM     64  C   UNL A   1      45.810  34.590  30.601  1.00  0.00     0.041 A 
ATOM     65  F   UNL A   1      45.647  32.359  31.299  1.00  0.00    -0.206 F 
ATOM     66  C   UNL A   1      45.558  35.582  29.656  1.00  0.00     0.022 A 
BRANCH  63  67
ATOM     67  S   UNL A   1      44.587  36.490  27.203  1.00  0.00     0.124 S 
ATOM     68  O   UNL A   1      44.423  37.733  27.951  1.00  0.00    -0.237 OA
ATOM     69  O   UNL A   1      45.840  36.349  26.469  1.00  0.00    -0.237 OA
ATOM     70  O   UNL A   1      43.396  36.032  26.492  1.00  0.00    -0.744 OA
ENDBRANCH  63  67
ENDBRANCH  37  60
ENDBRANCH  11  12
ENDBRANCH   4   6
ENDBRANCH   3   4
ENDBRANCH   2   3
ENDBRANCH   1   2
BRANCH   1  71
ATOM     71  O   UNL A   1      35.855  21.184  24.832  1.00  0.00    -0.458 OA
BRANCH  71  72
ATOM     72  C   UNL A   1      35.744  22.172  23.907  1.00  0.00     0.338 C 
ATOM     73  O   UNL A   1      36.639  22.648  23.229  1.00  0.00    -0.246 OA
BRANCH  72  74
ATOM     74  C   UNL A   1      34.318  22.519  23.744  1.00  0.00     0.063 A 
ATOM     75  C   UNL A   1      33.899  23.103  22.544  1.00  0.00     0.016 A 
ATOM     76  C   UNL A   1      33.399  22.249  24.762  1.00  0.00     0.064 A 
ATOM     77  C   UNL A   1      32.546  23.368  22.343  1.00  0.00     0.005 A 
ATOM     78  C   UNL A   1      32.054  22.569  24.579  1.00  0.00     0.143 A 
ATOM     79  C   UNL A   1      31.624  23.095  23.357  1.00  0.00     0.048 A 
BRANCH  78  80
ATOM     80  O   UNL A   1      31.077  22.381  25.526  1.00  0.00    -0.379 OA
BRANCH  80  81
ATOM     81  S   UNL A   1      30.910  23.405  26.787  1.00  0.00     0.339 S 
ATOM     82  O   UNL A   1      29.577  23.242  27.334  1.00  0.00    -0.181 OA
ATOM     83  O   UNL A   1      32.083  23.300  27.634  1.00  0.00    -0.181 OA
BRANCH  81  84
ATOM     84  C   UNL A   1      30.989  25.024  26.061  1.00  0.00     0.112 A 
ATOM     85  C   UNL A   1      29.986  25.421  25.171  1.00  0.00     0.024 A 
ATOM     86  C   UNL A   1      32.035  25.885  26.404  1.00  0.00     0.109 A 
ATOM     87  C   UNL A   1      29.992  26.719  24.663  1.00  0.00     0.009 A 
ATOM     88  C   UNL A   1      32.029  27.185  25.884  1.00  0.00     0.270 A 
ATOM     89  C   UNL A   1      30.998  27.612  25.038  1.00  0.00     0.086 A 
BRANCH  88  90
ATOM     90  N   UNL A   1      33.114  28.109  26.236  1.00  0.00     0.062 N 
ATOM     91  O   UNL A   1      32.821  29.290  26.468  1.00  0.00    -0.258 OA
ATOM     92  O   UNL A   1      34.262  27.644  26.312  1.00  0.00    -0.258 OA
ENDBRANCH  88  90
ENDBRANCH  81  84
ENDBRANCH  80  81
ENDBRANCH  78  80
ENDBRANCH  72  74
ENDBRANCH  71  72
ENDBRANCH   1  71
TORSDOF 18
ENDMDL
