MODEL 1
REMARK VINA RESULT:     -12.5      0.000      0.000
REMARK SMILES O=C(COc1ccccc1/C=C1\C(=O)Nc2ccccc21)OCCOC(=O)c1ccc(-c2c3nc(c(-c4cc(S(=O)(=O)[O-])ccc4F)c4ccc([nH]4)c(-c4cc(S(=O)(=O)[O-])ccc4F)c4nc(c(-c5cc(S(=O)(=O)[O-])ccc5F)c5ccc2[nH]5)C=C4)C=C3)cc1
REMARK SMILES IDX 23 1 22 2 2 3 1 4 3 5 4 6 5 7 6 8 10 9 7 10 9 11 8 12 11 13
REMARK SMILES IDX 12 14 13 15 21 16 14 17 15 18 16 19 20 20 17 22 19 23 18 24
REMARK SMILES IDX 24 25 25 26 26 27 27 28 28 29 29 30 90 31 30 32 89 33 31 34
REMARK SMILES IDX 32 35 33 36 83 37 34 38 88 39 82 40 84 41 35 42 87 43 81 44
REMARK SMILES IDX 80 45 36 47 68 48 48 49 67 50 49 51 52 52 66 53 85 54 50 55
REMARK SMILES IDX 51 56 65 58 86 59 53 60 37 61 38 62 46 63 39 64 45 65 47 66
REMARK SMILES IDX 44 67 40 68 41 69 42 70 43 71 69 72 70 73 78 74 71 75 77 76
REMARK SMILES IDX 79 77 76 78 72 79 73 80 74 81 75 82 54 83 55 84 63 85 56 86
REMARK SMILES IDX 62 87 64 88 61 89 57 90 58 91 59 92 60 93
REMARK H PARENT 15 21 84 46 52 57
REMARK Flexibility Score: inf
ROOT
ATOM      1  C   UNL A   1      31.390  30.422  25.491  1.00  0.00     0.274 C 
ENDROOT
BRANCH   1   2
ATOM      2  O   UNL A   1      31.660  29.164  26.146  1.00  0.00    -0.460 OA
BRANCH   2   3
ATOM      3  C   UNL A   1      32.761  28.403  25.903  1.00  0.00     0.344 C 
ATOM      4  O   UNL A   1      33.668  28.835  25.196  1.00  0.00    -0.248 OA
BRANCH   3   5
ATOM      5  C   UNL A   1      32.853  27.044  26.570  1.00  0.00     0.352 C 
BRANCH   5   6
ATOM      6  O   UNL A   1      31.546  26.515  26.758  1.00  0.00    -0.481 OA
BRANCH   6   7
ATOM      7  C   UNL A   1      31.389  25.340  26.080  1.00  0.00     0.127 A 
ATOM      8  C   UNL A   1      32.072  24.228  26.590  1.00  0.00     0.047 A 
ATOM      9  C   UNL A   1      30.644  25.275  24.890  1.00  0.00     0.017 A 
ATOM     10  C   UNL A   1      32.028  23.021  25.904  1.00  0.00     0.004 A 
ATOM     11  C   UNL A   1      30.737  24.088  24.156  1.00  0.00     0.012 A 
ATOM     12  C   UNL A   1      31.385  22.960  24.674  1.00  0.00     0.001 A 
BRANCH   9  13
ATOM     13  C   UNL A   1      29.772  26.391  24.442  1.00  0.00     0.026 C 
ATOM     14  C   UNL A   1      30.080  27.325  23.516  1.00  0.00     0.050 C 
ATOM     15  C   UNL A   1      31.412  27.499  22.810  1.00  0.00     0.256 C 
ATOM     16  C   UNL A   1      29.214  28.414  23.005  1.00  0.00     0.011 A 
ATOM     17  O   UNL A   1      32.397  26.785  22.812  1.00  0.00    -0.269 OA
ATOM     18  N   UNL A   1      31.316  28.694  22.130  1.00  0.00    -0.321 N 
ATOM     19  C   UNL A   1      30.038  29.222  22.211  1.00  0.00     0.049 A 
ATOM     20  C   UNL A   1      27.863  28.705  23.080  1.00  0.00     0.011 A 
ATOM     21  H   UNL A   1      32.061  29.118  21.648  1.00  0.00     0.170 HD
ATOM     22  C   UNL A   1      29.597  30.346  21.538  1.00  0.00     0.027 A 
ATOM     23  C   UNL A   1      27.380  29.828  22.379  1.00  0.00     0.001 A 
ATOM     24  C   UNL A   1      28.243  30.647  21.626  1.00  0.00     0.002 A 
ENDBRANCH   9  13
ENDBRANCH   6   7
ENDBRANCH   5   6
ENDBRANCH   3   5
ENDBRANCH   2   3
ENDBRANCH   1   2
BRANCH   1  25
ATOM     25  C   UNL A   1      31.493  31.598  26.464  1.00  0.00     0.275 C 
BRANCH  25  26
ATOM     26  O   UNL A   1      32.539  31.375  27.425  1.00  0.00    -0.458 OA
BRANCH  26  27
ATOM     27  C   UNL A   1      33.372  32.431  27.624  1.00  0.00     0.338 C 
ATOM     28  O   UNL A   1      33.046  33.600  27.713  1.00  0.00    -0.246 OA
BRANCH  27  29
ATOM     29  C   UNL A   1      34.726  31.919  27.929  1.00  0.00     0.060 A 
ATOM     30  C   UNL A   1      34.918  30.533  27.981  1.00  0.00     0.016 A 
ATOM     31  C   UNL A   1      35.791  32.789  28.174  1.00  0.00     0.016 A 
ATOM     32  C   UNL A   1      36.163  30.012  28.331  1.00  0.00     0.010 A 
ATOM     33  C   UNL A   1      37.035  32.266  28.541  1.00  0.00     0.010 A 
ATOM     34  C   UNL A   1      37.212  30.876  28.668  1.00  0.00    -0.014 A 
BRANCH  34  35
ATOM     35  C   UNL A   1      38.383  30.332  29.403  1.00  0.00     0.031 A 
ATOM     36  C   UNL A   1      38.578  30.767  30.833  1.00  0.00     0.074 A 
ATOM     37  C   UNL A   1      39.215  29.433  28.848  1.00  0.00     0.049 A 
ATOM     38  N   UNL A   1      39.498  30.419  31.695  1.00  0.00    -0.248 NA
ATOM     39  C   UNL A   1      37.600  31.734  31.356  1.00  0.00     0.031 C 
ATOM     40  C   UNL A   1      39.101  28.897  27.493  1.00  0.00     0.029 A 
ATOM     41  N   UNL A   1      40.320  28.803  29.366  1.00  0.00    -0.354 N 
ATOM     42  C   UNL A   1      39.207  31.122  32.860  1.00  0.00     0.074 A 
ATOM     43  C   UNL A   1      38.061  31.956  32.576  1.00  0.00     0.031 C 
ATOM     44  C   UNL A   1      40.095  28.012  27.290  1.00  0.00     0.029 A 
ATOM     45  C   UNL A   1      40.933  27.941  28.487  1.00  0.00     0.049 A 
ATOM     46  H   UNL A   1      40.645  28.956  30.283  1.00  0.00     0.167 HD
ATOM     47  C   UNL A   1      39.830  31.065  34.063  1.00  0.00     0.034 A 
ATOM     48  C   UNL A   1      42.043  27.188  28.632  1.00  0.00     0.034 A 
ATOM     49  C   UNL A   1      40.981  30.239  34.328  1.00  0.00     0.049 A 
ATOM     50  C   UNL A   1      42.775  27.211  29.957  1.00  0.00     0.074 A 
ATOM     51  C   UNL A   1      41.685  30.099  35.511  1.00  0.00     0.029 A 
ATOM     52  N   UNL A   1      41.608  29.425  33.394  1.00  0.00    -0.354 N 
ATOM     53  N   UNL A   1      42.482  27.867  31.058  1.00  0.00    -0.248 NA
ATOM     54  C   UNL A   1      43.979  26.376  30.062  1.00  0.00     0.031 C 
ATOM     55  C   UNL A   1      42.788  29.273  35.269  1.00  0.00     0.029 A 
ATOM     56  C   UNL A   1      42.714  28.810  33.964  1.00  0.00     0.049 A 
ATOM     57  H   UNL A   1      41.311  29.301  32.464  1.00  0.00     0.167 HD
ATOM     58  C   UNL A   1      43.438  27.480  31.998  1.00  0.00     0.074 A 
ATOM     59  C   UNL A   1      44.306  26.530  31.335  1.00  0.00     0.031 C 
ATOM     60  C   UNL A   1      43.578  27.865  33.293  1.00  0.00     0.034 A 
BRANCH  47  61
ATOM     61  C   UNL A   1      39.310  31.973  35.154  1.00  0.00     0.023 A 
ATOM     62  C   UNL A   1      39.740  33.307  35.282  1.00  0.00     0.031 A 
ATOM     63  C   UNL A   1      38.404  31.481  36.109  1.00  0.00     0.131 A 
ATOM     64  C   UNL A   1      39.325  34.073  36.382  1.00  0.00     0.055 A 
ATOM     65  C   UNL A   1      37.925  32.278  37.151  1.00  0.00     0.041 A 
ATOM     66  F   UNL A   1      37.982  30.207  36.059  1.00  0.00    -0.206 F 
ATOM     67  C   UNL A   1      38.398  33.577  37.302  1.00  0.00     0.022 A 
BRANCH  64  68
ATOM     68  S   UNL A   1      40.139  35.665  36.689  1.00  0.00     0.124 S 
ATOM     69  O   UNL A   1      39.656  35.990  38.029  1.00  0.00    -0.237 OA
ATOM     70  O   UNL A   1      41.552  35.322  36.584  1.00  0.00    -0.237 OA
ATOM     71  O   UNL A   1      39.623  36.524  35.625  1.00  0.00    -0.744 OA
ENDBRANCH  64  68
ENDBRANCH  47  61
BRANCH  48  72
ATOM     72  C   UNL A   1      42.559  26.358  27.502  1.00  0.00     0.023 A 
ATOM     73  C   UNL A   1      42.156  25.022  27.332  1.00  0.00     0.031 A 
ATOM     74  C   UNL A   1      43.530  26.866  26.620  1.00  0.00     0.131 A 
ATOM     75  C   UNL A   1      42.763  24.226  26.348  1.00  0.00     0.055 A 
ATOM     76  C   UNL A   1      44.085  26.089  25.602  1.00  0.00     0.041 A 
ATOM     77  F   UNL A   1      43.960  28.133  26.739  1.00  0.00    -0.206 F 
ATOM     78  C   UNL A   1      43.713  24.755  25.472  1.00  0.00     0.022 A 
BRANCH  75  79
ATOM     79  S   UNL A   1      42.377  22.453  26.300  1.00  0.00     0.124 S 
ATOM     80  O   UNL A   1      43.154  22.013  25.148  1.00  0.00    -0.237 OA
ATOM     81  O   UNL A   1      42.851  22.004  27.605  1.00  0.00    -0.237 OA
ATOM     82  O   UNL A   1      40.926  22.426  26.124  1.00  0.00    -0.744 OA
ENDBRANCH  75  79
ENDBRANCH  48  72
BRANCH  60  83
ATOM     83  C   UNL A   1      44.673  27.202  34.102  1.00  0.00     0.023 A 
ATOM     84  C   UNL A   1      44.470  25.989  34.786  1.00  0.00     0.031 A 
ATOM     85  C   UNL A   1      45.938  27.810  34.204  1.00  0.00     0.131 A 
ATOM     86  C   UNL A   1      45.487  25.468  35.601  1.00  0.00     0.055 A 
ATOM     87  C   UNL A   1      46.971  27.244  34.952  1.00  0.00     0.041 A 
ATOM     88  F   UNL A   1      46.193  28.969  33.577  1.00  0.00    -0.206 F 
ATOM     89  C   UNL A   1      46.742  26.077  35.673  1.00  0.00     0.022 A 
BRANCH  86  90
ATOM     90  S   UNL A   1      45.104  24.055  36.673  1.00  0.00     0.124 S 
ATOM     91  O   UNL A   1      46.436  23.563  37.013  1.00  0.00    -0.237 OA
ATOM     92  O   UNL A   1      44.361  24.681  37.761  1.00  0.00    -0.237 OA
ATOM     93  O   UNL A   1      44.318  23.174  35.812  1.00  0.00    -0.744 OA
ENDBRANCH  86  90
ENDBRANCH  60  83
ENDBRANCH  34  35
ENDBRANCH  27  29
ENDBRANCH  26  27
ENDBRANCH  25  26
ENDBRANCH   1  25
TORSDOF 17
ENDMDL
MODEL 2
REMARK VINA RESULT:     -12.4      4.860     10.457
REMARK SMILES O=C(COc1ccccc1/C=C1\C(=O)Nc2ccccc21)OCCOC(=O)c1ccc(-c2c3nc(c(-c4cc(S(=O)(=O)[O-])ccc4F)c4ccc([nH]4)c(-c4cc(S(=O)(=O)[O-])ccc4F)c4nc(c(-c5cc(S(=O)(=O)[O-])ccc5F)c5ccc2[nH]5)C=C4)C=C3)cc1
REMARK SMILES IDX 23 1 22 2 2 3 1 4 3 5 4 6 5 7 6 8 10 9 7 10 9 11 8 12 11 13
REMARK SMILES IDX 12 14 13 15 21 16 14 17 15 18 16 19 20 20 17 22 19 23 18 24
REMARK SMILES IDX 24 25 25 26 26 27 27 28 28 29 29 30 90 31 30 32 89 33 31 34
REMARK SMILES IDX 32 35 33 36 83 37 34 38 88 39 82 40 84 41 35 42 87 43 81 44
REMARK SMILES IDX 80 45 36 47 68 48 48 49 67 50 49 51 52 52 66 53 85 54 50 55
REMARK SMILES IDX 51 56 65 58 86 59 53 60 37 61 38 62 46 63 39 64 45 65 47 66
REMARK SMILES IDX 44 67 40 68 41 69 42 70 43 71 69 72 70 73 78 74 71 75 77 76
REMARK SMILES IDX 79 77 76 78 72 79 73 80 74 81 75 82 54 83 55 84 63 85 56 86
REMARK SMILES IDX 62 87 64 88 61 89 57 90 58 91 59 92 60 93
REMARK H PARENT 15 21 84 46 52 57
REMARK Flexibility Score: inf
ROOT
ATOM      1  C   UNL A   1      36.133  20.716  24.877  1.00  0.00     0.274 C 
ENDROOT
BRANCH   1   2
ATOM      2  O   UNL A   1      36.103  22.159  24.917  1.00  0.00    -0.460 OA
BRANCH   2   3
ATOM      3  C   UNL A   1      35.990  22.946  23.813  1.00  0.00     0.344 C 
ATOM      4  O   UNL A   1      36.709  22.750  22.837  1.00  0.00    -0.248 OA
BRANCH   3   5
ATOM      5  C   UNL A   1      34.924  24.025  23.810  1.00  0.00     0.352 C 
BRANCH   5   6
ATOM      6  O   UNL A   1      34.221  23.998  22.573  1.00  0.00    -0.481 OA
BRANCH   6   7
ATOM      7  C   UNL A   1      32.906  24.323  22.748  1.00  0.00     0.127 A 
ATOM      8  C   UNL A   1      32.584  25.685  22.688  1.00  0.00     0.047 A 
ATOM      9  C   UNL A   1      31.945  23.343  23.051  1.00  0.00     0.017 A 
ATOM     10  C   UNL A   1      31.282  26.095  22.942  1.00  0.00     0.004 A 
ATOM     11  C   UNL A   1      30.681  23.803  23.437  1.00  0.00     0.012 A 
ATOM     12  C   UNL A   1      30.339  25.156  23.345  1.00  0.00     0.001 A 
BRANCH   9  13
ATOM     13  C   UNL A   1      32.234  21.890  22.936  1.00  0.00     0.026 C 
ATOM     14  C   UNL A   1      32.367  21.018  23.958  1.00  0.00     0.050 C 
ATOM     15  C   UNL A   1      32.352  21.347  25.440  1.00  0.00     0.256 C 
ATOM     16  C   UNL A   1      32.597  19.556  23.878  1.00  0.00     0.011 A 
ATOM     17  O   UNL A   1      32.085  22.389  26.007  1.00  0.00    -0.269 OA
ATOM     18  N   UNL A   1      32.735  20.187  26.079  1.00  0.00    -0.321 N 
ATOM     19  C   UNL A   1      32.853  19.132  25.189  1.00  0.00     0.049 A 
ATOM     20  C   UNL A   1      32.525  18.609  22.871  1.00  0.00     0.011 A 
ATOM     21  H   UNL A   1      32.903  20.117  27.046  1.00  0.00     0.170 HD
ATOM     22  C   UNL A   1      33.105  17.820  25.539  1.00  0.00     0.027 A 
ATOM     23  C   UNL A   1      32.747  17.259  23.205  1.00  0.00     0.001 A 
ATOM     24  C   UNL A   1      33.048  16.870  24.524  1.00  0.00     0.002 A 
ENDBRANCH   9  13
ENDBRANCH   6   7
ENDBRANCH   5   6
ENDBRANCH   3   5
ENDBRANCH   2   3
ENDBRANCH   1   2
BRANCH   1  25
ATOM     25  C   UNL A   1      37.564  20.179  24.947  1.00  0.00     0.275 C 
BRANCH  25  26
ATOM     26  O   UNL A   1      38.499  21.248  25.172  1.00  0.00    -0.458 OA
BRANCH  26  27
ATOM     27  C   UNL A   1      39.489  20.970  26.061  1.00  0.00     0.338 C 
ATOM     28  O   UNL A   1      40.098  19.920  26.157  1.00  0.00    -0.246 OA
BRANCH  27  29
ATOM     29  C   UNL A   1      39.863  22.216  26.765  1.00  0.00     0.060 A 
ATOM     30  C   UNL A   1      39.169  23.391  26.451  1.00  0.00     0.016 A 
ATOM     31  C   UNL A   1      40.891  22.233  27.711  1.00  0.00     0.016 A 
ATOM     32  C   UNL A   1      39.537  24.599  27.043  1.00  0.00     0.010 A 
ATOM     33  C   UNL A   1      41.270  23.447  28.292  1.00  0.00     0.010 A 
ATOM     34  C   UNL A   1      40.626  24.643  27.923  1.00  0.00    -0.014 A 
BRANCH  34  35
ATOM     35  C   UNL A   1      41.246  25.957  28.234  1.00  0.00     0.031 A 
ATOM     36  C   UNL A   1      42.636  26.217  27.714  1.00  0.00     0.074 A 
ATOM     37  C   UNL A   1      40.580  26.916  28.902  1.00  0.00     0.049 A 
ATOM     38  N   UNL A   1      43.383  27.284  27.823  1.00  0.00    -0.248 NA
ATOM     39  C   UNL A   1      43.269  25.113  26.974  1.00  0.00     0.031 C 
ATOM     40  C   UNL A   1      39.215  26.803  29.410  1.00  0.00     0.029 A 
ATOM     41  N   UNL A   1      40.967  28.185  29.257  1.00  0.00    -0.354 N 
ATOM     42  C   UNL A   1      44.571  26.981  27.164  1.00  0.00     0.074 A 
ATOM     43  C   UNL A   1      44.465  25.613  26.709  1.00  0.00     0.031 C 
ATOM     44  C   UNL A   1      38.875  27.960  30.007  1.00  0.00     0.029 A 
ATOM     45  C   UNL A   1      40.007  28.886  29.951  1.00  0.00     0.049 A 
ATOM     46  H   UNL A   1      41.850  28.560  29.037  1.00  0.00     0.167 HD
ATOM     47  C   UNL A   1      45.647  27.777  26.944  1.00  0.00     0.034 A 
ATOM     48  C   UNL A   1      40.043  30.125  30.482  1.00  0.00     0.034 A 
ATOM     49  C   UNL A   1      45.745  29.135  27.417  1.00  0.00     0.049 A 
ATOM     50  C   UNL A   1      41.292  30.962  30.302  1.00  0.00     0.074 A 
ATOM     51  C   UNL A   1      46.784  30.033  27.245  1.00  0.00     0.029 A 
ATOM     52  N   UNL A   1      44.776  29.789  28.167  1.00  0.00    -0.354 N 
ATOM     53  N   UNL A   1      42.403  30.672  29.663  1.00  0.00    -0.248 NA
ATOM     54  C   UNL A   1      41.281  32.303  30.902  1.00  0.00     0.031 C 
ATOM     55  C   UNL A   1      46.483  31.194  27.966  1.00  0.00     0.029 A 
ATOM     56  C   UNL A   1      45.210  31.064  28.499  1.00  0.00     0.049 A 
ATOM     57  H   UNL A   1      43.907  29.404  28.426  1.00  0.00     0.167 HD
ATOM     58  C   UNL A   1      43.199  31.816  29.744  1.00  0.00     0.074 A 
ATOM     59  C   UNL A   1      42.434  32.797  30.484  1.00  0.00     0.031 C 
ATOM     60  C   UNL A   1      44.441  32.037  29.242  1.00  0.00     0.034 A 
BRANCH  47  61
ATOM     61  C   UNL A   1      46.822  27.166  26.217  1.00  0.00     0.023 A 
ATOM     62  C   UNL A   1      47.827  26.449  26.893  1.00  0.00     0.031 A 
ATOM     63  C   UNL A   1      46.962  27.342  24.830  1.00  0.00     0.131 A 
ATOM     64  C   UNL A   1      48.961  26.007  26.195  1.00  0.00     0.055 A 
ATOM     65  C   UNL A   1      48.049  26.821  24.126  1.00  0.00     0.041 A 
ATOM     66  F   UNL A   1      46.053  28.044  24.134  1.00  0.00    -0.206 F 
ATOM     67  C   UNL A   1      49.066  26.163  24.811  1.00  0.00     0.022 A 
BRANCH  64  68
ATOM     68  S   UNL A   1      50.373  25.375  27.142  1.00  0.00     0.124 S 
ATOM     69  O   UNL A   1      50.723  26.535  27.960  1.00  0.00    -0.237 OA
ATOM     70  O   UNL A   1      49.794  24.242  27.854  1.00  0.00    -0.237 OA
ATOM     71  O   UNL A   1      51.352  25.033  26.112  1.00  0.00    -0.744 OA
ENDBRANCH  64  68
ENDBRANCH  47  61
BRANCH  48  72
ATOM     72  C   UNL A   1      38.882  30.662  31.253  1.00  0.00     0.023 A 
ATOM     73  C   UNL A   1      37.876  31.418  30.627  1.00  0.00     0.031 A 
ATOM     74  C   UNL A   1      38.805  30.496  32.648  1.00  0.00     0.131 A 
ATOM     75  C   UNL A   1      36.874  32.028  31.400  1.00  0.00     0.055 A 
ATOM     76  C   UNL A   1      37.771  31.052  33.403  1.00  0.00     0.041 A 
ATOM     77  F   UNL A   1      39.743  29.791  33.301  1.00  0.00    -0.206 F 
ATOM     78  C   UNL A   1      36.806  31.836  32.782  1.00  0.00     0.022 A 
BRANCH  75  79
ATOM     79  S   UNL A   1      35.721  33.171  30.587  1.00  0.00     0.124 S 
ATOM     80  O   UNL A   1      36.320  33.303  29.264  1.00  0.00    -0.237 OA
ATOM     81  O   UNL A   1      34.465  32.433  30.654  1.00  0.00    -0.237 OA
ATOM     82  O   UNL A   1      35.784  34.368  31.424  1.00  0.00    -0.744 OA
ENDBRANCH  75  79
ENDBRANCH  48  72
BRANCH  60  83
ATOM     83  C   UNL A   1      45.024  33.424  29.415  1.00  0.00     0.023 A 
ATOM     84  C   UNL A   1      44.791  34.457  28.490  1.00  0.00     0.031 A 
ATOM     85  C   UNL A   1      45.848  33.707  30.521  1.00  0.00     0.131 A 
ATOM     86  C   UNL A   1      45.435  35.695  28.645  1.00  0.00     0.055 A 
ATOM     87  C   UNL A   1      46.420  34.965  30.713  1.00  0.00     0.041 A 
ATOM     88  F   UNL A   1      46.111  32.762  31.439  1.00  0.00    -0.206 F 
ATOM     89  C   UNL A   1      46.232  35.961  29.761  1.00  0.00     0.022 A 
BRANCH  86  90
ATOM     90  S   UNL A   1      45.326  36.908  27.301  1.00  0.00     0.124 S 
ATOM     91  O   UNL A   1      45.727  38.141  27.972  1.00  0.00    -0.237 OA
ATOM     92  O   UNL A   1      46.271  36.378  26.325  1.00  0.00    -0.237 OA
ATOM     93  O   UNL A   1      43.922  36.849  26.899  1.00  0.00    -0.744 OA
ENDBRANCH  86  90
ENDBRANCH  60  83
ENDBRANCH  34  35
ENDBRANCH  27  29
ENDBRANCH  26  27
ENDBRANCH  25  26
ENDBRANCH   1  25
TORSDOF 17
ENDMDL
MODEL 3
REMARK VINA RESULT:     -12.4      1.742      2.159
REMARK SMILES O=C(COc1ccccc1/C=C1\C(=O)Nc2ccccc21)OCCOC(=O)c1ccc(-c2c3nc(c(-c4cc(S(=O)(=O)[O-])ccc4F)c4ccc([nH]4)c(-c4cc(S(=O)(=O)[O-])ccc4F)c4nc(c(-c5cc(S(=O)(=O)[O-])ccc5F)c5ccc2[nH]5)C=C4)C=C3)cc1
REMARK SMILES IDX 23 1 22 2 2 3 1 4 3 5 4 6 5 7 6 8 10 9 7 10 9 11 8 12 11 13
REMARK SMILES IDX 12 14 13 15 21 16 14 17 15 18 16 19 20 20 17 22 19 23 18 24
REMARK SMILES IDX 24 25 25 26 26 27 27 28 28 29 29 30 90 31 30 32 89 33 31 34
REMARK SMILES IDX 32 35 33 36 83 37 34 38 88 39 82 40 84 41 35 42 87 43 81 44
REMARK SMILES IDX 80 45 36 47 68 48 48 49 67 50 49 51 52 52 66 53 85 54 50 55
REMARK SMILES IDX 51 56 65 58 86 59 53 60 37 61 38 62 46 63 39 64 45 65 47 66
REMARK SMILES IDX 44 67 40 68 41 69 42 70 43 71 69 72 70 73 78 74 71 75 77 76
REMARK SMILES IDX 79 77 76 78 72 79 73 80 74 81 75 82 54 83 55 84 63 85 56 86
REMARK SMILES IDX 62 87 64 88 61 89 57 90 58 91 59 92 60 93
REMARK H PARENT 15 21 84 46 52 57
REMARK Flexibility Score: inf
ROOT
ATOM      1  C   UNL A   1      31.653  29.896  25.648  1.00  0.00     0.274 C 
ENDROOT
BRANCH   1   2
ATOM      2  O   UNL A   1      32.635  28.855  25.836  1.00  0.00    -0.460 OA
BRANCH   2   3
ATOM      3  C   UNL A   1      32.362  27.647  26.399  1.00  0.00     0.344 C 
ATOM      4  O   UNL A   1      31.355  27.499  27.087  1.00  0.00    -0.248 OA
BRANCH   3   5
ATOM      5  C   UNL A   1      33.302  26.493  26.110  1.00  0.00     0.352 C 
BRANCH   5   6
ATOM      6  O   UNL A   1      33.887  26.666  24.824  1.00  0.00    -0.481 OA
BRANCH   6   7
ATOM      7  C   UNL A   1      33.735  25.543  24.061  1.00  0.00     0.127 A 
ATOM      8  C   UNL A   1      34.491  24.424  24.436  1.00  0.00     0.047 A 
ATOM      9  C   UNL A   1      32.923  25.542  22.913  1.00  0.00     0.017 A 
ATOM     10  C   UNL A   1      34.453  23.276  23.656  1.00  0.00     0.004 A 
ATOM     11  C   UNL A   1      33.018  24.423  22.079  1.00  0.00     0.012 A 
ATOM     12  C   UNL A   1      33.740  23.287  22.463  1.00  0.00     0.001 A 
BRANCH   9  13
ATOM     13  C   UNL A   1      31.983  26.651  22.610  1.00  0.00     0.026 C 
ATOM     14  C   UNL A   1      30.730  26.793  23.095  1.00  0.00     0.050 C 
ATOM     15  C   UNL A   1      29.978  25.806  23.968  1.00  0.00     0.256 C 
ATOM     16  C   UNL A   1      29.790  27.914  22.861  1.00  0.00     0.011 A 
ATOM     17  O   UNL A   1      30.367  24.791  24.516  1.00  0.00    -0.269 OA
ATOM     18  N   UNL A   1      28.684  26.277  24.027  1.00  0.00    -0.321 N 
ATOM     19  C   UNL A   1      28.566  27.513  23.413  1.00  0.00     0.049 A 
ATOM     20  C   UNL A   1      29.900  29.189  22.334  1.00  0.00     0.011 A 
ATOM     21  H   UNL A   1      27.938  25.796  24.452  1.00  0.00     0.170 HD
ATOM     22  C   UNL A   1      27.427  28.295  23.411  1.00  0.00     0.027 A 
ATOM     23  C   UNL A   1      28.762  30.019  22.346  1.00  0.00     0.001 A 
ATOM     24  C   UNL A   1      27.534  29.570  22.867  1.00  0.00     0.002 A 
ENDBRANCH   9  13
ENDBRANCH   6   7
ENDBRANCH   5   6
ENDBRANCH   3   5
ENDBRANCH   2   3
ENDBRANCH   1   2
BRANCH   1  25
ATOM     25  C   UNL A   1      31.928  31.102  26.549  1.00  0.00     0.275 C 
BRANCH  25  26
ATOM     26  O   UNL A   1      32.965  30.801  27.500  1.00  0.00    -0.458 OA
BRANCH  26  27
ATOM     27  C   UNL A   1      33.790  31.839  27.798  1.00  0.00     0.338 C 
ATOM     28  O   UNL A   1      33.454  32.987  28.023  1.00  0.00    -0.246 OA
BRANCH  27  29
ATOM     29  C   UNL A   1      35.156  31.314  28.017  1.00  0.00     0.060 A 
ATOM     30  C   UNL A   1      35.332  29.927  28.092  1.00  0.00     0.016 A 
ATOM     31  C   UNL A   1      36.248  32.173  28.161  1.00  0.00     0.016 A 
ATOM     32  C   UNL A   1      36.592  29.396  28.365  1.00  0.00     0.010 A 
ATOM     33  C   UNL A   1      37.508  31.641  28.450  1.00  0.00     0.010 A 
ATOM     34  C   UNL A   1      37.675  30.252  28.602  1.00  0.00    -0.014 A 
BRANCH  34  35
ATOM     35  C   UNL A   1      38.889  29.708  29.263  1.00  0.00     0.031 A 
ATOM     36  C   UNL A   1      39.231  30.228  30.636  1.00  0.00     0.074 A 
ATOM     37  C   UNL A   1      39.634  28.741  28.699  1.00  0.00     0.049 A 
ATOM     38  N   UNL A   1      40.214  29.900  31.434  1.00  0.00    -0.248 NA
ATOM     39  C   UNL A   1      38.341  31.268  31.177  1.00  0.00     0.031 C 
ATOM     40  C   UNL A   1      39.375  28.123  27.400  1.00  0.00     0.029 A 
ATOM     41  N   UNL A   1      40.759  28.101  29.158  1.00  0.00    -0.354 N 
ATOM     42  C   UNL A   1      40.058  30.689  32.569  1.00  0.00     0.074 A 
ATOM     43  C   UNL A   1      38.921  31.550  32.333  1.00  0.00     0.031 C 
ATOM     44  C   UNL A   1      40.313  27.186  27.170  1.00  0.00     0.029 A 
ATOM     45  C   UNL A   1      41.256  27.158  28.288  1.00  0.00     0.049 A 
ATOM     46  H   UNL A   1      41.172  28.300  30.029  1.00  0.00     0.167 HD
ATOM     47  C   UNL A   1      40.787  30.685  33.712  1.00  0.00     0.034 A 
ATOM     48  C   UNL A   1      42.347  26.371  28.385  1.00  0.00     0.034 A 
ATOM     49  C   UNL A   1      41.928  29.831  33.928  1.00  0.00     0.049 A 
ATOM     50  C   UNL A   1      43.199  26.450  29.633  1.00  0.00     0.074 A 
ATOM     51  C   UNL A   1      42.734  29.739  35.050  1.00  0.00     0.029 A 
ATOM     52  N   UNL A   1      42.437  28.932  33.000  1.00  0.00    -0.354 N 
ATOM     53  N   UNL A   1      43.034  27.189  30.708  1.00  0.00    -0.248 NA
ATOM     54  C   UNL A   1      44.378  25.575  29.686  1.00  0.00     0.031 C 
ATOM     55  C   UNL A   1      43.779  28.854  34.766  1.00  0.00     0.029 A 
ATOM     56  C   UNL A   1      43.568  28.310  33.509  1.00  0.00     0.049 A 
ATOM     57  H   UNL A   1      42.050  28.759  32.111  1.00  0.00     0.167 HD
ATOM     58  C   UNL A   1      44.059  26.825  31.582  1.00  0.00     0.074 A 
ATOM     59  C   UNL A   1      44.827  25.798  30.911  1.00  0.00     0.031 C 
ATOM     60  C   UNL A   1      44.332  27.288  32.830  1.00  0.00     0.034 A 
BRANCH  47  61
ATOM     61  C   UNL A   1      40.404  31.683  34.780  1.00  0.00     0.023 A 
ATOM     62  C   UNL A   1      39.516  31.357  35.821  1.00  0.00     0.031 A 
ATOM     63  C   UNL A   1      40.902  32.997  34.729  1.00  0.00     0.131 A 
ATOM     64  C   UNL A   1      39.093  32.351  36.718  1.00  0.00     0.055 A 
ATOM     65  C   UNL A   1      40.548  33.958  35.678  1.00  0.00     0.041 A 
ATOM     66  F   UNL A   1      41.728  33.378  33.741  1.00  0.00    -0.206 F 
ATOM     67  C   UNL A   1      39.625  33.642  36.670  1.00  0.00     0.022 A 
BRANCH  64  68
ATOM     68  S   UNL A   1      37.717  31.982  37.840  1.00  0.00     0.124 S 
ATOM     69  O   UNL A   1      38.325  32.234  39.145  1.00  0.00    -0.237 OA
ATOM     70  O   UNL A   1      36.698  32.933  37.414  1.00  0.00    -0.237 OA
ATOM     71  O   UNL A   1      37.417  30.578  37.563  1.00  0.00    -0.744 OA
ENDBRANCH  64  68
ENDBRANCH  47  61
BRANCH  48  72
ATOM     72  C   UNL A   1      42.726  25.448  27.273  1.00  0.00     0.023 A 
ATOM     73  C   UNL A   1      42.204  24.145  27.194  1.00  0.00     0.031 A 
ATOM     74  C   UNL A   1      43.683  25.829  26.315  1.00  0.00     0.131 A 
ATOM     75  C   UNL A   1      42.685  23.255  26.221  1.00  0.00     0.055 A 
ATOM     76  C   UNL A   1      44.112  24.959  25.310  1.00  0.00     0.041 A 
ATOM     77  F   UNL A   1      44.224  27.058  26.346  1.00  0.00    -0.206 F 
ATOM     78  C   UNL A   1      43.624  23.658  25.268  1.00  0.00     0.022 A 
BRANCH  75  79
ATOM     79  S   UNL A   1      42.150  21.521  26.285  1.00  0.00     0.124 S 
ATOM     80  O   UNL A   1      42.444  21.172  27.670  1.00  0.00    -0.237 OA
ATOM     81  O   UNL A   1      40.738  21.626  25.934  1.00  0.00    -0.237 OA
ATOM     82  O   UNL A   1      42.992  20.868  25.284  1.00  0.00    -0.744 OA
ENDBRANCH  75  79
ENDBRANCH  48  72
BRANCH  60  83
ATOM     83  C   UNL A   1      45.473  26.634  33.580  1.00  0.00     0.023 A 
ATOM     84  C   UNL A   1      45.286  25.495  34.384  1.00  0.00     0.031 A 
ATOM     85  C   UNL A   1      46.768  27.178  33.502  1.00  0.00     0.131 A 
ATOM     86  C   UNL A   1      46.357  24.987  35.137  1.00  0.00     0.055 A 
ATOM     87  C   UNL A   1      47.846  26.619  34.190  1.00  0.00     0.041 A 
ATOM     88  F   UNL A   1      47.011  28.265  32.754  1.00  0.00    -0.206 F 
ATOM     89  C   UNL A   1      47.640  25.529  35.029  1.00  0.00     0.022 A 
BRANCH  86  90
ATOM     90  S   UNL A   1      46.022  23.691  36.361  1.00  0.00     0.124 S 
ATOM     91  O   UNL A   1      45.695  24.474  37.550  1.00  0.00    -0.237 OA
ATOM     92  O   UNL A   1      44.913  22.964  35.752  1.00  0.00    -0.237 OA
ATOM     93  O   UNL A   1      47.282  22.953  36.433  1.00  0.00    -0.744 OA
ENDBRANCH  86  90
ENDBRANCH  60  83
ENDBRANCH  34  35
ENDBRANCH  27  29
ENDBRANCH  26  27
ENDBRANCH  25  26
ENDBRANCH   1  25
TORSDOF 17
ENDMDL
