MODEL 1
REMARK VINA RESULT:     -12.5      0.000      0.000
REMARK SMILES CCC[C@@H]1CCc2nc3c(F)cccc3c(C(=O)OCCOC(=O)c3ccc(-c4c5nc(c(-c6cc(S(=O)(=O)[O-])ccc6F)c6ccc([nH]6)c(-c6cc(S(=O)(=O)[O-])ccc6F)c6nc(c(-c7cc(S(=O)(=O)[O-])ccc7F)c7ccc4[nH]7)C=C6)C=C5)cc3)c2C1
REMARK SMILES IDX 21 1 20 2 19 3 17 4 18 5 16 6 4 7 5 8 89 9 6 10 88 11 7 12
REMARK SMILES IDX 8 13 15 14 9 15 14 16 10 17 13 18 11 19 12 20 3 21 2 22 1 23
REMARK SMILES IDX 22 24 23 25 24 26 25 27 26 28 87 29 27 30 86 31 28 32 29 33
REMARK SMILES IDX 30 34 80 35 31 36 85 37 79 38 81 39 32 40 84 41 78 42 77 43
REMARK SMILES IDX 33 45 65 46 45 47 64 48 46 49 49 50 63 51 82 52 47 53 48 54
REMARK SMILES IDX 62 56 83 57 50 58 34 59 35 60 43 61 36 62 42 63 44 64 41 65
REMARK SMILES IDX 37 66 38 67 39 68 40 69 66 70 67 71 75 72 68 73 74 74 76 75
REMARK SMILES IDX 73 76 69 77 70 78 71 79 72 80 51 81 52 82 60 83 53 84 59 85
REMARK SMILES IDX 61 86 58 87 54 88 55 89 56 90 57 91
REMARK H PARENT 81 44 49 55
REMARK Flexibility Score: inf
ROOT
ATOM      1  C   UNL A   1      47.956  23.610  36.651  1.00  0.00     0.275 C 
ENDROOT
BRANCH   1   2
ATOM      2  C   UNL A   1      47.423  22.720  35.526  1.00  0.00     0.275 C 
BRANCH   2   3
ATOM      3  O   UNL A   1      48.500  22.044  34.841  1.00  0.00    -0.458 OA
BRANCH   3   4
ATOM      4  C   UNL A   1      48.469  20.687  34.892  1.00  0.00     0.339 C 
ATOM      5  O   UNL A   1      47.663  19.962  34.334  1.00  0.00    -0.246 OA
BRANCH   4   6
ATOM      6  C   UNL A   1      49.585  20.161  35.720  1.00  0.00     0.074 A 
ATOM      7  C   UNL A   1      52.499  20.924  33.667  1.00  0.00    -0.006 C 
ATOM      8  C   UNL A   1      53.498  19.790  33.898  1.00  0.00     0.010 C 
ATOM      9  C   UNL A   1      51.107  20.295  33.684  1.00  0.00     0.042 C 
ATOM     10  C   UNL A   1      53.292  19.289  35.350  1.00  0.00     0.057 C 
ATOM     11  C   UNL A   1      50.827  19.926  35.110  1.00  0.00    -0.011 A 
ATOM     12  C   UNL A   1      51.864  19.395  35.882  1.00  0.00     0.045 A 
ATOM     13  N   UNL A   1      51.688  19.079  37.182  1.00  0.00    -0.249 NA
ATOM     14  C   UNL A   1      49.386  19.835  37.077  1.00  0.00     0.018 A 
ATOM     15  C   UNL A   1      50.487  19.281  37.765  1.00  0.00     0.107 A 
ATOM     16  C   UNL A   1      48.156  20.010  37.762  1.00  0.00     0.011 A 
ATOM     17  C   UNL A   1      50.301  18.922  39.100  1.00  0.00     0.149 A 
ATOM     18  C   UNL A   1      48.006  19.636  39.094  1.00  0.00     0.004 A 
ATOM     19  F   UNL A   1      51.315  18.380  39.795  1.00  0.00    -0.205 F 
ATOM     20  C   UNL A   1      49.085  19.085  39.764  1.00  0.00     0.041 A 
BRANCH   7  21
ATOM     21  C   UNL A   1      52.696  21.844  32.460  1.00  0.00     0.003 C 
BRANCH  21  22
ATOM     22  C   UNL A   1      53.543  23.348  32.876  1.00  0.00    -0.003 C 
ATOM     23  C   UNL A   1      54.546  24.900  31.728  1.00  0.00     0.004 C 
ENDBRANCH  21  22
ENDBRANCH   7  21
ENDBRANCH   4   6
ENDBRANCH   3   4
ENDBRANCH   2   3
ENDBRANCH   1   2
BRANCH   1  24
ATOM     24  O   UNL A   1      48.112  24.956  36.176  1.00  0.00    -0.458 OA
BRANCH  24  25
ATOM     25  C   UNL A   1      47.432  25.869  36.902  1.00  0.00     0.338 C 
ATOM     26  O   UNL A   1      47.695  26.283  38.018  1.00  0.00    -0.246 OA
BRANCH  25  27
ATOM     27  C   UNL A   1      46.386  26.455  36.069  1.00  0.00     0.060 A 
ATOM     28  C   UNL A   1      44.835  25.554  35.999  1.00  0.00     0.016 A 
ATOM     29  C   UNL A   1      46.562  28.024  35.199  1.00  0.00     0.016 A 
ATOM     30  C   UNL A   1      43.463  26.192  35.002  1.00  0.00     0.010 A 
ATOM     31  C   UNL A   1      45.209  28.661  34.187  1.00  0.00     0.010 A 
ATOM     32  C   UNL A   1      43.635  27.768  34.117  1.00  0.00    -0.014 A 
BRANCH  32  33
ATOM     33  C   UNL A   1      42.500  28.282  33.320  1.00  0.00     0.031 A 
ATOM     34  C   UNL A   1      41.510  29.198  33.972  1.00  0.00     0.074 A 
ATOM     35  C   UNL A   1      42.444  27.998  32.005  1.00  0.00     0.049 A 
ATOM     36  N   UNL A   1      40.546  29.887  33.424  1.00  0.00    -0.248 NA
ATOM     37  C   UNL A   1      41.629  29.398  35.426  1.00  0.00     0.031 C 
ATOM     38  C   UNL A   1      43.429  27.204  31.267  1.00  0.00     0.029 A 
ATOM     39  N   UNL A   1      41.549  28.376  31.036  1.00  0.00    -0.354 N 
ATOM     40  C   UNL A   1      39.976  30.621  34.458  1.00  0.00     0.074 A 
ATOM     41  C   UNL A   1      40.709  30.318  35.661  1.00  0.00     0.031 C 
ATOM     42  C   UNL A   1      43.103  27.171  29.969  1.00  0.00     0.029 A 
ATOM     43  C   UNL A   1      41.856  27.896  29.781  1.00  0.00     0.049 A 
ATOM     44  H   UNL A   1      40.762  28.936  31.220  1.00  0.00     0.167 HD
ATOM     45  C   UNL A   1      38.898  31.434  34.416  1.00  0.00     0.034 A 
ATOM     46  C   UNL A   1      41.198  28.015  28.611  1.00  0.00     0.034 A 
ATOM     47  C   UNL A   1      38.083  31.571  33.245  1.00  0.00     0.049 A 
ATOM     48  C   UNL A   1      39.931  28.824  28.615  1.00  0.00     0.074 A 
ATOM     49  C   UNL A   1      36.880  32.234  33.108  1.00  0.00     0.029 A 
ATOM     50  N   UNL A   1      38.373  30.991  32.016  1.00  0.00    -0.354 N 
ATOM     51  N   UNL A   1      39.401  29.505  29.605  1.00  0.00    -0.248 NA
ATOM     52  C   UNL A   1      39.159  28.874  27.369  1.00  0.00     0.031 C 
ATOM     53  C   UNL A   1      36.410  31.996  31.816  1.00  0.00     0.029 A 
ATOM     54  C   UNL A   1      37.358  31.258  31.119  1.00  0.00     0.049 A 
ATOM     55  H   UNL A   1      39.182  30.467  31.815  1.00  0.00     0.167 HD
ATOM     56  C   UNL A   1      38.238  30.072  29.103  1.00  0.00     0.074 A 
ATOM     57  C   UNL A   1      38.153  29.672  27.711  1.00  0.00     0.031 C 
ATOM     58  C   UNL A   1      37.321  30.845  29.734  1.00  0.00     0.034 A 
BRANCH  45  59
ATOM     59  C   UNL A   1      38.492  32.112  35.696  1.00  0.00     0.023 A 
ATOM     60  C   UNL A   1      37.877  31.374  36.720  1.00  0.00     0.031 A 
ATOM     61  C   UNL A   1      38.737  33.480  35.913  1.00  0.00     0.131 A 
ATOM     62  C   UNL A   1      37.521  32.007  37.917  1.00  0.00     0.055 A 
ATOM     63  C   UNL A   1      38.406  34.101  37.118  1.00  0.00     0.041 A 
ATOM     64  F   UNL A   1      39.351  34.219  34.974  1.00  0.00    -0.206 F 
ATOM     65  C   UNL A   1      37.793  33.364  38.127  1.00  0.00     0.022 A 
BRANCH  62  66
ATOM     66  S   UNL A   1      36.715  31.086  39.255  1.00  0.00     0.124 S 
ATOM     67  O   UNL A   1      36.597  29.749  38.677  1.00  0.00    -0.237 OA
ATOM     68  O   UNL A   1      37.685  31.215  40.338  1.00  0.00    -0.237 OA
ATOM     69  O   UNL A   1      35.450  31.787  39.448  1.00  0.00    -0.744 OA
ENDBRANCH  62  66
ENDBRANCH  45  59
BRANCH  46  70
ATOM     70  C   UNL A   1      41.746  27.366  27.382  1.00  0.00     0.023 A 
ATOM     71  C   UNL A   1      41.730  25.965  27.236  1.00  0.00     0.031 A 
ATOM     72  C   UNL A   1      42.392  28.120  26.389  1.00  0.00     0.131 A 
ATOM     73  C   UNL A   1      42.409  25.361  26.168  1.00  0.00     0.055 A 
ATOM     74  C   UNL A   1      43.013  27.517  25.291  1.00  0.00     0.041 A 
ATOM     75  F   UNL A   1      42.443  29.458  26.482  1.00  0.00    -0.206 F 
ATOM     76  C   UNL A   1      43.037  26.129  25.185  1.00  0.00     0.022 A 
BRANCH  73  77
ATOM     77  S   UNL A   1      42.581  23.556  26.076  1.00  0.00     0.124 S 
ATOM     78  O   UNL A   1      43.424  23.266  27.232  1.00  0.00    -0.237 OA
ATOM     79  O   UNL A   1      41.192  23.120  26.182  1.00  0.00    -0.237 OA
ATOM     80  O   UNL A   1      43.204  23.336  24.774  1.00  0.00    -0.744 OA
ENDBRANCH  73  77
ENDBRANCH  46  70
BRANCH  58  81
ATOM     81  C   UNL A   1      36.137  31.331  28.947  1.00  0.00     0.023 A 
ATOM     82  C   UNL A   1      35.774  32.686  29.034  1.00  0.00     0.031 A 
ATOM     83  C   UNL A   1      35.264  30.433  28.316  1.00  0.00     0.131 A 
ATOM     84  C   UNL A   1      34.524  33.094  28.562  1.00  0.00     0.055 A 
ATOM     85  C   UNL A   1      34.041  30.856  27.797  1.00  0.00     0.041 A 
ATOM     86  F   UNL A   1      35.573  29.129  28.226  1.00  0.00    -0.206 F 
ATOM     87  C   UNL A   1      33.658  32.189  27.938  1.00  0.00     0.022 A 
BRANCH  84  88
ATOM     88  S   UNL A   1      33.939  34.785  28.845  1.00  0.00     0.124 S 
ATOM     89  O   UNL A   1      34.194  34.960  30.273  1.00  0.00    -0.237 OA
ATOM     90  O   UNL A   1      34.803  35.557  27.956  1.00  0.00    -0.237 OA
ATOM     91  O   UNL A   1      32.529  34.739  28.469  1.00  0.00    -0.744 OA
ENDBRANCH  84  88
ENDBRANCH  58  81
ENDBRANCH  32  33
ENDBRANCH  25  27
ENDBRANCH  24  25
ENDBRANCH   1  24
TORSDOF 16
ENDMDL
MODEL 2
REMARK VINA RESULT:     -12.2      7.290     12.864
REMARK SMILES CCC[C@@H]1CCc2nc3c(F)cccc3c(C(=O)OCCOC(=O)c3ccc(-c4c5nc(c(-c6cc(S(=O)(=O)[O-])ccc6F)c6ccc([nH]6)c(-c6cc(S(=O)(=O)[O-])ccc6F)c6nc(c(-c7cc(S(=O)(=O)[O-])ccc7F)c7ccc4[nH]7)C=C6)C=C5)cc3)c2C1
REMARK SMILES IDX 21 1 20 2 19 3 17 4 18 5 16 6 4 7 5 8 89 9 6 10 88 11 7 12
REMARK SMILES IDX 8 13 15 14 9 15 14 16 10 17 13 18 11 19 12 20 3 21 2 22 1 23
REMARK SMILES IDX 22 24 23 25 24 26 25 27 26 28 87 29 27 30 86 31 28 32 29 33
REMARK SMILES IDX 30 34 80 35 31 36 85 37 79 38 81 39 32 40 84 41 78 42 77 43
REMARK SMILES IDX 33 45 65 46 45 47 64 48 46 49 49 50 63 51 82 52 47 53 48 54
REMARK SMILES IDX 62 56 83 57 50 58 34 59 35 60 43 61 36 62 42 63 44 64 41 65
REMARK SMILES IDX 37 66 38 67 39 68 40 69 66 70 67 71 75 72 68 73 74 74 76 75
REMARK SMILES IDX 73 76 69 77 70 78 71 79 72 80 51 81 52 82 60 83 53 84 59 85
REMARK SMILES IDX 61 86 58 87 54 88 55 89 56 90 57 91
REMARK H PARENT 81 44 49 55
REMARK Flexibility Score: inf
ROOT
ATOM      1  C   UNL A   1      39.119  21.448  25.895  1.00  0.00     0.275 C 
ENDROOT
BRANCH   1   2
ATOM      2  C   UNL A   1      38.033  22.525  25.962  1.00  0.00     0.275 C 
BRANCH   2   3
ATOM      3  O   UNL A   1      36.714  21.936  25.963  1.00  0.00    -0.458 OA
BRANCH   3   4
ATOM      4  C   UNL A   1      36.088  21.895  24.759  1.00  0.00     0.339 C 
ATOM      5  O   UNL A   1      36.558  22.240  23.688  1.00  0.00    -0.246 OA
BRANCH   4   6
ATOM      6  C   UNL A   1      34.716  21.341  24.892  1.00  0.00     0.074 A 
ATOM      7  C   UNL A   1      32.642  24.319  24.559  1.00  0.00    -0.006 C 
ATOM      8  C   UNL A   1      31.430  24.105  25.467  1.00  0.00     0.010 C 
ATOM      9  C   UNL A   1      33.842  23.701  25.274  1.00  0.00     0.042 C 
ATOM     10  C   UNL A   1      31.148  22.582  25.498  1.00  0.00     0.057 C 
ATOM     11  C   UNL A   1      33.661  22.214  25.196  1.00  0.00    -0.011 A 
ATOM     12  C   UNL A   1      32.377  21.685  25.358  1.00  0.00     0.045 A 
ATOM     13  N   UNL A   1      32.140  20.361  25.260  1.00  0.00    -0.249 NA
ATOM     14  C   UNL A   1      34.483  19.954  24.787  1.00  0.00     0.018 A 
ATOM     15  C   UNL A   1      33.158  19.515  24.993  1.00  0.00     0.107 A 
ATOM     16  C   UNL A   1      35.497  18.999  24.516  1.00  0.00     0.011 A 
ATOM     17  C   UNL A   1      32.914  18.143  24.926  1.00  0.00     0.149 A 
ATOM     18  C   UNL A   1      35.216  17.637  24.460  1.00  0.00     0.004 A 
ATOM     19  F   UNL A   1      31.671  17.674  25.125  1.00  0.00    -0.205 F 
ATOM     20  C   UNL A   1      33.917  17.209  24.671  1.00  0.00     0.041 A 
BRANCH   7  21
ATOM     21  C   UNL A   1      32.943  25.733  24.055  1.00  0.00     0.003 C 
BRANCH  21  22
ATOM     22  C   UNL A   1      33.512  25.755  22.374  1.00  0.00    -0.003 C 
ATOM     23  C   UNL A   1      32.554  25.499  20.437  1.00  0.00     0.004 C 
ENDBRANCH  21  22
ENDBRANCH   7  21
ENDBRANCH   4   6
ENDBRANCH   3   4
ENDBRANCH   2   3
ENDBRANCH   1   2
BRANCH   1  24
ATOM     24  O   UNL A   1      40.082  21.661  26.939  1.00  0.00    -0.458 OA
BRANCH  24  25
ATOM     25  C   UNL A   1      41.307  22.003  26.485  1.00  0.00     0.338 C 
ATOM     26  O   UNL A   1      42.006  21.396  25.692  1.00  0.00    -0.246 OA
BRANCH  25  27
ATOM     27  C   UNL A   1      41.631  23.346  26.956  1.00  0.00     0.060 A 
ATOM     28  C   UNL A   1      41.259  24.691  25.826  1.00  0.00     0.016 A 
ATOM     29  C   UNL A   1      42.299  23.698  28.593  1.00  0.00     0.016 A 
ATOM     30  C   UNL A   1      41.612  26.401  26.308  1.00  0.00     0.010 A 
ATOM     31  C   UNL A   1      42.673  25.397  29.079  1.00  0.00     0.010 A 
ATOM     32  C   UNL A   1      42.291  26.763  27.953  1.00  0.00    -0.014 A 
BRANCH  32  33
ATOM     33  C   UNL A   1      42.559  28.166  28.335  1.00  0.00     0.031 A 
ATOM     34  C   UNL A   1      41.430  29.008  28.847  1.00  0.00     0.074 A 
ATOM     35  C   UNL A   1      43.828  28.618  28.315  1.00  0.00     0.049 A 
ATOM     36  N   UNL A   1      41.472  30.196  29.387  1.00  0.00    -0.248 NA
ATOM     37  C   UNL A   1      40.074  28.438  28.774  1.00  0.00     0.031 C 
ATOM     38  C   UNL A   1      45.002  27.828  27.937  1.00  0.00     0.029 A 
ATOM     39  N   UNL A   1      44.359  29.835  28.659  1.00  0.00    -0.354 N 
ATOM     40  C   UNL A   1      40.162  30.491  29.746  1.00  0.00     0.074 A 
ATOM     41  C   UNL A   1      39.348  29.357  29.388  1.00  0.00     0.031 C 
ATOM     42  C   UNL A   1      46.109  28.564  28.089  1.00  0.00     0.029 A 
ATOM     43  C   UNL A   1      45.729  29.899  28.525  1.00  0.00     0.049 A 
ATOM     44  H   UNL A   1      43.814  30.591  28.972  1.00  0.00     0.167 HD
ATOM     45  C   UNL A   1      39.673  31.633  30.276  1.00  0.00     0.034 A 
ATOM     46  C   UNL A   1      46.583  30.923  28.718  1.00  0.00     0.034 A 
ATOM     47  C   UNL A   1      40.478  32.807  30.451  1.00  0.00     0.049 A 
ATOM     48  C   UNL A   1      45.999  32.225  29.191  1.00  0.00     0.074 A 
ATOM     49  C   UNL A   1      40.079  34.073  30.828  1.00  0.00     0.029 A 
ATOM     50  N   UNL A   1      41.845  32.861  30.212  1.00  0.00    -0.354 N 
ATOM     51  N   UNL A   1      44.754  32.489  29.519  1.00  0.00    -0.248 NA
ATOM     52  C   UNL A   1      46.908  33.369  29.308  1.00  0.00     0.031 C 
ATOM     53  C   UNL A   1      41.195  34.908  30.750  1.00  0.00     0.029 A 
ATOM     54  C   UNL A   1      42.306  34.148  30.408  1.00  0.00     0.049 A 
ATOM     55  H   UNL A   1      42.403  32.096  29.942  1.00  0.00     0.167 HD
ATOM     56  C   UNL A   1      44.729  33.826  29.887  1.00  0.00     0.074 A 
ATOM     57  C   UNL A   1      46.090  34.312  29.764  1.00  0.00     0.031 C 
ATOM     58  C   UNL A   1      43.678  34.585  30.282  1.00  0.00     0.034 A 
BRANCH  45  59
ATOM     59  C   UNL A   1      38.199  31.684  30.572  1.00  0.00     0.023 A 
ATOM     60  C   UNL A   1      37.295  32.094  29.578  1.00  0.00     0.031 A 
ATOM     61  C   UNL A   1      37.687  31.302  31.825  1.00  0.00     0.131 A 
ATOM     62  C   UNL A   1      35.923  32.119  29.853  1.00  0.00     0.055 A 
ATOM     63  C   UNL A   1      36.316  31.301  32.086  1.00  0.00     0.041 A 
ATOM     64  F   UNL A   1      38.511  30.874  32.795  1.00  0.00    -0.206 F 
ATOM     65  C   UNL A   1      35.427  31.713  31.097  1.00  0.00     0.022 A 
BRANCH  62  66
ATOM     66  S   UNL A   1      34.730  32.653  28.597  1.00  0.00     0.124 S 
ATOM     67  O   UNL A   1      34.146  31.383  28.170  1.00  0.00    -0.237 OA
ATOM     68  O   UNL A   1      33.844  33.519  29.370  1.00  0.00    -0.237 OA
ATOM     69  O   UNL A   1      35.554  33.320  27.595  1.00  0.00    -0.744 OA
ENDBRANCH  62  66
ENDBRANCH  45  59
BRANCH  46  70
ATOM     70  C   UNL A   1      48.044  30.728  28.474  1.00  0.00     0.023 A 
ATOM     71  C   UNL A   1      48.871  30.154  29.460  1.00  0.00     0.031 A 
ATOM     72  C   UNL A   1      48.656  31.208  27.305  1.00  0.00     0.131 A 
ATOM     73  C   UNL A   1      50.263  30.144  29.291  1.00  0.00     0.055 A 
ATOM     74  C   UNL A   1      50.039  31.137  27.112  1.00  0.00     0.041 A 
ATOM     75  F   UNL A   1      47.915  31.770  26.337  1.00  0.00    -0.206 F 
ATOM     76  C   UNL A   1      50.852  30.618  28.116  1.00  0.00     0.022 A 
BRANCH  73  77
ATOM     77  S   UNL A   1      51.361  29.605  30.634  1.00  0.00     0.124 S 
ATOM     78  O   UNL A   1      51.565  28.195  30.319  1.00  0.00    -0.237 OA
ATOM     79  O   UNL A   1      52.519  30.471  30.434  1.00  0.00    -0.237 OA
ATOM     80  O   UNL A   1      50.585  29.873  31.840  1.00  0.00    -0.744 OA
ENDBRANCH  73  77
ENDBRANCH  46  70
BRANCH  58  81
ATOM     81  C   UNL A   1      43.930  36.026  30.626  1.00  0.00     0.023 A 
ATOM     82  C   UNL A   1      44.062  36.389  31.978  1.00  0.00     0.031 A 
ATOM     83  C   UNL A   1      43.813  37.037  29.660  1.00  0.00     0.131 A 
ATOM     84  C   UNL A   1      43.996  37.737  32.337  1.00  0.00     0.055 A 
ATOM     85  C   UNL A   1      43.804  38.383  30.019  1.00  0.00     0.041 A 
ATOM     86  F   UNL A   1      43.673  36.726  28.361  1.00  0.00    -0.206 F 
ATOM     87  C   UNL A   1      43.874  38.737  31.366  1.00  0.00     0.022 A 
BRANCH  84  88
ATOM     88  S   UNL A   1      43.953  38.226  34.081  1.00  0.00     0.124 S 
ATOM     89  O   UNL A   1      44.472  39.590  34.027  1.00  0.00    -0.237 OA
ATOM     90  O   UNL A   1      42.530  38.109  34.392  1.00  0.00    -0.237 OA
ATOM     91  O   UNL A   1      44.823  37.257  34.741  1.00  0.00    -0.744 OA
ENDBRANCH  84  88
ENDBRANCH  58  81
ENDBRANCH  32  33
ENDBRANCH  25  27
ENDBRANCH  24  25
ENDBRANCH   1  24
TORSDOF 16
ENDMDL
MODEL 3
REMARK VINA RESULT:     -12.2      7.327     13.062
REMARK SMILES CCC[C@@H]1CCc2nc3c(F)cccc3c(C(=O)OCCOC(=O)c3ccc(-c4c5nc(c(-c6cc(S(=O)(=O)[O-])ccc6F)c6ccc([nH]6)c(-c6cc(S(=O)(=O)[O-])ccc6F)c6nc(c(-c7cc(S(=O)(=O)[O-])ccc7F)c7ccc4[nH]7)C=C6)C=C5)cc3)c2C1
REMARK SMILES IDX 21 1 20 2 19 3 17 4 18 5 16 6 4 7 5 8 89 9 6 10 88 11 7 12
REMARK SMILES IDX 8 13 15 14 9 15 14 16 10 17 13 18 11 19 12 20 3 21 2 22 1 23
REMARK SMILES IDX 22 24 23 25 24 26 25 27 26 28 87 29 27 30 86 31 28 32 29 33
REMARK SMILES IDX 30 34 80 35 31 36 85 37 79 38 81 39 32 40 84 41 78 42 77 43
REMARK SMILES IDX 33 45 65 46 45 47 64 48 46 49 49 50 63 51 82 52 47 53 48 54
REMARK SMILES IDX 62 56 83 57 50 58 34 59 35 60 43 61 36 62 42 63 44 64 41 65
REMARK SMILES IDX 37 66 38 67 39 68 40 69 66 70 67 71 75 72 68 73 74 74 76 75
REMARK SMILES IDX 73 76 69 77 70 78 71 79 72 80 51 81 52 82 60 83 53 84 59 85
REMARK SMILES IDX 61 86 58 87 54 88 55 89 56 90 57 91
REMARK H PARENT 81 44 49 55
REMARK Flexibility Score: inf
ROOT
ATOM      1  C   UNL A   1      38.793  21.754  25.714  1.00  0.00     0.275 C 
ENDROOT
BRANCH   1   2
ATOM      2  C   UNL A   1      37.440  22.351  26.110  1.00  0.00     0.275 C 
BRANCH   2   3
ATOM      3  O   UNL A   1      36.351  21.514  25.662  1.00  0.00    -0.458 OA
BRANCH   3   4
ATOM      4  C   UNL A   1      35.122  21.846  26.135  1.00  0.00     0.339 C 
ATOM      5  O   UNL A   1      34.793  21.912  27.307  1.00  0.00    -0.246 OA
BRANCH   4   6
ATOM      6  C   UNL A   1      34.190  22.152  25.019  1.00  0.00     0.074 A 
ATOM      7  C   UNL A   1      32.538  18.947  24.488  1.00  0.00    -0.006 C 
ATOM      8  C   UNL A   1      32.260  18.848  22.988  1.00  0.00     0.010 C 
ATOM      9  C   UNL A   1      33.884  19.653  24.641  1.00  0.00     0.042 C 
ATOM     10  C   UNL A   1      32.026  20.290  22.472  1.00  0.00     0.057 C 
ATOM     11  C   UNL A   1      33.650  21.090  24.278  1.00  0.00    -0.011 A 
ATOM     12  C   UNL A   1      32.803  21.382  23.205  1.00  0.00     0.045 A 
ATOM     13  N   UNL A   1      32.521  22.653  22.852  1.00  0.00    -0.249 NA
ATOM     14  C   UNL A   1      33.904  23.486  24.662  1.00  0.00     0.018 A 
ATOM     15  C   UNL A   1      33.058  23.678  23.548  1.00  0.00     0.107 A 
ATOM     16  C   UNL A   1      34.433  24.617  25.336  1.00  0.00     0.011 A 
ATOM     17  C   UNL A   1      32.790  24.990  23.159  1.00  0.00     0.149 A 
ATOM     18  C   UNL A   1      34.145  25.913  24.916  1.00  0.00     0.004 A 
ATOM     19  F   UNL A   1      32.000  25.225  22.098  1.00  0.00    -0.205 F 
ATOM     20  C   UNL A   1      33.323  26.098  23.819  1.00  0.00     0.041 A 
BRANCH   7  21
ATOM     21  C   UNL A   1      32.461  17.674  25.336  1.00  0.00     0.003 C 
BRANCH  21  22
ATOM     22  C   UNL A   1      33.556  16.401  24.761  1.00  0.00    -0.003 C 
ATOM     23  C   UNL A   1      35.556  15.747  25.311  1.00  0.00     0.004 C 
ENDBRANCH  21  22
ENDBRANCH   7  21
ENDBRANCH   4   6
ENDBRANCH   3   4
ENDBRANCH   2   3
ENDBRANCH   1   2
BRANCH   1  24
ATOM     24  O   UNL A   1      39.718  21.874  26.807  1.00  0.00    -0.458 OA
BRANCH  24  25
ATOM     25  C   UNL A   1      40.978  22.167  26.420  1.00  0.00     0.338 C 
ATOM     26  O   UNL A   1      41.698  21.529  25.671  1.00  0.00    -0.246 OA
BRANCH  25  27
ATOM     27  C   UNL A   1      41.326  23.501  26.902  1.00  0.00     0.060 A 
ATOM     28  C   UNL A   1      40.959  24.863  25.791  1.00  0.00     0.016 A 
ATOM     29  C   UNL A   1      42.016  23.826  28.536  1.00  0.00     0.016 A 
ATOM     30  C   UNL A   1      41.341  26.562  26.288  1.00  0.00     0.010 A 
ATOM     31  C   UNL A   1      42.419  25.513  29.035  1.00  0.00     0.010 A 
ATOM     32  C   UNL A   1      42.044  26.897  27.929  1.00  0.00    -0.014 A 
BRANCH  32  33
ATOM     33  C   UNL A   1      42.334  28.291  28.324  1.00  0.00     0.031 A 
ATOM     34  C   UNL A   1      41.219  29.149  28.840  1.00  0.00     0.074 A 
ATOM     35  C   UNL A   1      43.611  28.722  28.309  1.00  0.00     0.049 A 
ATOM     36  N   UNL A   1      41.281  30.331  29.390  1.00  0.00    -0.248 NA
ATOM     37  C   UNL A   1      39.854  28.603  28.760  1.00  0.00     0.031 C 
ATOM     38  C   UNL A   1      44.772  27.916  27.927  1.00  0.00     0.029 A 
ATOM     39  N   UNL A   1      44.162  29.927  28.664  1.00  0.00    -0.354 N 
ATOM     40  C   UNL A   1      39.975  30.646  29.749  1.00  0.00     0.074 A 
ATOM     41  C   UNL A   1      39.143  29.529  29.380  1.00  0.00     0.031 C 
ATOM     42  C   UNL A   1      45.892  28.631  28.087  1.00  0.00     0.029 A 
ATOM     43  C   UNL A   1      45.533  29.968  28.534  1.00  0.00     0.049 A 
ATOM     44  H   UNL A   1      43.629  30.689  28.983  1.00  0.00     0.167 HD
ATOM     45  C   UNL A   1      39.505  31.791  30.288  1.00  0.00     0.034 A 
ATOM     46  C   UNL A   1      46.405  30.977  28.737  1.00  0.00     0.034 A 
ATOM     47  C   UNL A   1      40.329  32.950  30.474  1.00  0.00     0.049 A 
ATOM     48  C   UNL A   1      45.842  32.284  29.219  1.00  0.00     0.074 A 
ATOM     49  C   UNL A   1      39.952  34.219  30.861  1.00  0.00     0.029 A 
ATOM     50  N   UNL A   1      41.698  32.983  30.238  1.00  0.00    -0.354 N 
ATOM     51  N   UNL A   1      44.601  32.567  29.547  1.00  0.00    -0.248 NA
ATOM     52  C   UNL A   1      46.770  33.412  29.347  1.00  0.00     0.031 C 
ATOM     53  C   UNL A   1      41.082  35.036  30.792  1.00  0.00     0.029 A 
ATOM     54  C   UNL A   1      42.180  34.259  30.446  1.00  0.00     0.049 A 
ATOM     55  H   UNL A   1      42.243  32.211  29.962  1.00  0.00     0.167 HD
ATOM     56  C   UNL A   1      44.598  33.901  29.927  1.00  0.00     0.074 A 
ATOM     57  C   UNL A   1      45.968  34.365  29.810  1.00  0.00     0.031 C 
ATOM     58  C   UNL A   1      43.560  34.675  30.326  1.00  0.00     0.034 A 
BRANCH  45  59
ATOM     59  C   UNL A   1      38.031  31.865  30.581  1.00  0.00     0.023 A 
ATOM     60  C   UNL A   1      37.131  32.254  29.575  1.00  0.00     0.031 A 
ATOM     61  C   UNL A   1      37.516  31.527  31.846  1.00  0.00     0.131 A 
ATOM     62  C   UNL A   1      35.760  32.300  29.849  1.00  0.00     0.055 A 
ATOM     63  C   UNL A   1      36.144  31.546  32.106  1.00  0.00     0.041 A 
ATOM     64  F   UNL A   1      38.335  31.120  32.829  1.00  0.00    -0.206 F 
ATOM     65  C   UNL A   1      35.259  31.936  31.105  1.00  0.00     0.022 A 
BRANCH  62  66
ATOM     66  S   UNL A   1      34.571  32.807  28.577  1.00  0.00     0.124 S 
ATOM     67  O   UNL A   1      35.433  33.482  27.607  1.00  0.00    -0.237 OA
ATOM     68  O   UNL A   1      34.027  31.524  28.142  1.00  0.00    -0.237 OA
ATOM     69  O   UNL A   1      33.647  33.680  29.291  1.00  0.00    -0.744 OA
ENDBRANCH  62  66
ENDBRANCH  45  59
BRANCH  46  70
ATOM     70  C   UNL A   1      47.862  30.758  28.494  1.00  0.00     0.023 A 
ATOM     71  C   UNL A   1      48.690  30.219  29.498  1.00  0.00     0.031 A 
ATOM     72  C   UNL A   1      48.472  31.184  27.303  1.00  0.00     0.131 A 
ATOM     73  C   UNL A   1      50.081  30.189  29.323  1.00  0.00     0.055 A 
ATOM     74  C   UNL A   1      49.853  31.093  27.106  1.00  0.00     0.041 A 
ATOM     75  F   UNL A   1      47.731  31.712  26.316  1.00  0.00    -0.206 F 
ATOM     76  C   UNL A   1      50.667  30.608  28.126  1.00  0.00     0.022 A 
BRANCH  73  77
ATOM     77  S   UNL A   1      51.181  29.696  30.681  1.00  0.00     0.124 S 
ATOM     78  O   UNL A   1      50.388  28.683  31.369  1.00  0.00    -0.237 OA
ATOM     79  O   UNL A   1      52.346  29.201  29.954  1.00  0.00    -0.237 OA
ATOM     80  O   UNL A   1      51.390  30.937  31.421  1.00  0.00    -0.744 OA
ENDBRANCH  73  77
ENDBRANCH  46  70
BRANCH  58  81
ATOM     81  C   UNL A   1      43.836  36.108  30.682  1.00  0.00     0.023 A 
ATOM     82  C   UNL A   1      43.805  36.490  32.035  1.00  0.00     0.031 A 
ATOM     83  C   UNL A   1      43.898  37.104  29.697  1.00  0.00     0.131 A 
ATOM     84  C   UNL A   1      43.760  37.846  32.365  1.00  0.00     0.055 A 
ATOM     85  C   UNL A   1      43.909  38.456  30.034  1.00  0.00     0.041 A 
ATOM     86  F   UNL A   1      43.917  36.776  28.395  1.00  0.00    -0.206 F 
ATOM     87  C   UNL A   1      43.818  38.832  31.374  1.00  0.00     0.022 A 
BRANCH  84  88
ATOM     88  S   UNL A   1      43.510  38.369  34.081  1.00  0.00     0.124 S 
ATOM     89  O   UNL A   1      42.558  37.374  34.567  1.00  0.00    -0.237 OA
ATOM     90  O   UNL A   1      44.860  38.263  34.630  1.00  0.00    -0.237 OA
ATOM     91  O   UNL A   1      42.983  39.726  33.964  1.00  0.00    -0.744 OA
ENDBRANCH  84  88
ENDBRANCH  58  81
ENDBRANCH  32  33
ENDBRANCH  25  27
ENDBRANCH  24  25
ENDBRANCH   1  24
TORSDOF 16
ENDMDL
