MODEL 1
REMARK VINA RESULT:     -11.5      0.000      0.000
REMARK SMILES CCCOc1ccc(C[N@H+]2CC[C@H](C(=O)OCCOC(=O)c3ccc(-c4c5nc(c(-c6cc(S(=O)(=O)[O-])ccc6F)c6ccc([nH]6)c(-c6cc(S(=O)(=O)[O-])ccc6F)c6nc(c(-c7cc(S(=O)(=O)[O-])ccc7F)c7ccc4[nH]7)C=C6)C=C5)cc3)[C@@H]2C)cc1
REMARK SMILES IDX 17 1 16 2 14 3 15 4 13 5 10 6 11 7 85 8 12 10 86 11 9 12
REMARK SMILES IDX 8 13 5 14 6 15 88 16 7 17 87 18 4 19 3 20 2 21 1 22 18 23
REMARK SMILES IDX 19 24 20 25 21 26 22 27 23 28 84 29 24 30 83 31 25 32 26 33
REMARK SMILES IDX 27 34 77 35 28 36 82 37 76 38 78 39 29 40 81 41 75 42 74 43
REMARK SMILES IDX 30 45 62 46 42 47 61 48 43 49 46 50 60 51 79 52 44 53 45 54
REMARK SMILES IDX 59 56 80 57 47 58 31 59 32 60 40 61 33 62 39 63 41 64 38 65
REMARK SMILES IDX 34 66 35 67 36 68 37 69 63 70 64 71 72 72 65 73 71 74 73 75
REMARK SMILES IDX 70 76 66 77 67 78 68 79 69 80 48 81 49 82 57 83 50 84 56 85
REMARK SMILES IDX 58 86 55 87 51 88 52 89 53 90 54 91
REMARK H PARENT 10 9 78 44 46 55
REMARK Flexibility Score: inf
ROOT
ATOM      1  C   UNL A   1      34.919  21.059  24.639  1.00  0.00     0.274 C 
ENDROOT
BRANCH   1   2
ATOM      2  O   UNL A   1      33.733  21.838  24.886  1.00  0.00    -0.462 OA
BRANCH   2   3
ATOM      3  C   UNL A   1      33.483  22.820  23.981  1.00  0.00     0.315 C 
ATOM      4  O   UNL A   1      34.069  22.940  22.909  1.00  0.00    -0.252 OA
BRANCH   3   5
ATOM      5  C   UNL A   1      32.415  23.798  24.420  1.00  0.00     0.162 C 
ATOM      6  N   UNL A   1      32.244  25.208  26.358  1.00  0.00    -0.328 N 
ATOM      7  C   UNL A   1      31.571  23.950  26.666  1.00  0.00     0.263 C 
ATOM      8  C   UNL A   1      32.974  25.054  25.095  1.00  0.00     0.195 C 
ATOM      9  H   UNL A   1      32.915  25.384  27.107  1.00  0.00     0.348 HD
ATOM     10  C   UNL A   1      31.322  23.265  25.338  1.00  0.00     0.083 C 
ATOM     11  C   UNL A   1      34.471  25.059  25.402  1.00  0.00     0.076 C 
BRANCH   6  12
ATOM     12  C   UNL A   1      31.441  26.428  26.473  1.00  0.00     0.299 C 
BRANCH  12  13
ATOM     13  C   UNL A   1      30.998  27.129  25.207  1.00  0.00     0.006 A 
ATOM     14  C   UNL A   1      30.071  28.418  22.874  1.00  0.00     0.119 A 
ATOM     15  C   UNL A   1      31.167  28.923  23.570  1.00  0.00     0.047 A 
ATOM     16  C   UNL A   1      29.437  27.272  23.339  1.00  0.00     0.047 A 
ATOM     17  C   UNL A   1      31.613  28.299  24.739  1.00  0.00     0.013 A 
ATOM     18  C   UNL A   1      29.900  26.629  24.490  1.00  0.00     0.013 A 
BRANCH  14  19
ATOM     19  O   UNL A   1      29.757  29.040  21.701  1.00  0.00    -0.494 OA
BRANCH  19  20
ATOM     20  C   UNL A   1      29.019  30.260  21.794  1.00  0.00     0.229 C 
BRANCH  20  21
ATOM     21  C   UNL A   1      27.831  30.107  22.745  1.00  0.00     0.038 C 
ATOM     22  C   UNL A   1      27.635  31.308  23.659  1.00  0.00     0.007 C 
ENDBRANCH  20  21
ENDBRANCH  19  20
ENDBRANCH  14  19
ENDBRANCH  12  13
ENDBRANCH   6  12
ENDBRANCH   3   5
ENDBRANCH   2   3
ENDBRANCH   1   2
BRANCH   1  23
ATOM     23  C   UNL A   1      36.018  21.390  25.647  1.00  0.00     0.275 C 
BRANCH  23  24
ATOM     24  O   UNL A   1      37.232  21.763  24.971  1.00  0.00    -0.458 OA
BRANCH  24  25
ATOM     25  C   UNL A   1      38.373  21.381  25.592  1.00  0.00     0.338 C 
ATOM     26  O   UNL A   1      38.888  20.277  25.575  1.00  0.00    -0.246 OA
BRANCH  25  27
ATOM     27  C   UNL A   1      38.951  22.515  26.330  1.00  0.00     0.060 A 
ATOM     28  C   UNL A   1      38.482  23.808  26.102  1.00  0.00     0.016 A 
ATOM     29  C   UNL A   1      40.074  22.305  27.131  1.00  0.00     0.016 A 
ATOM     30  C   UNL A   1      39.184  24.906  26.599  1.00  0.00     0.010 A 
ATOM     31  C   UNL A   1      40.733  23.403  27.690  1.00  0.00     0.010 A 
ATOM     32  C   UNL A   1      40.322  24.716  27.393  1.00  0.00    -0.014 A 
BRANCH  32  33
ATOM     33  C   UNL A   1      41.146  25.873  27.835  1.00  0.00     0.031 A 
ATOM     34  C   UNL A   1      40.519  26.937  28.699  1.00  0.00     0.074 A 
ATOM     35  C   UNL A   1      42.438  25.981  27.473  1.00  0.00     0.049 A 
ATOM     36  N   UNL A   1      40.968  28.124  29.017  1.00  0.00    -0.248 NA
ATOM     37  C   UNL A   1      39.197  26.624  29.261  1.00  0.00     0.031 C 
ATOM     38  C   UNL A   1      43.184  24.995  26.689  1.00  0.00     0.029 A 
ATOM     39  N   UNL A   1      43.352  26.976  27.712  1.00  0.00    -0.354 N 
ATOM     40  C   UNL A   1      39.961  28.723  29.769  1.00  0.00     0.074 A 
ATOM     41  C   UNL A   1      38.875  27.768  29.847  1.00  0.00     0.031 C 
ATOM     42  C   UNL A   1      44.443  25.430  26.523  1.00  0.00     0.029 A 
ATOM     43  C   UNL A   1      44.574  26.756  27.119  1.00  0.00     0.049 A 
ATOM     44  H   UNL A   1      43.154  27.773  28.256  1.00  0.00     0.167 HD
ATOM     45  C   UNL A   1      39.944  29.955  30.335  1.00  0.00     0.034 A 
ATOM     46  C   UNL A   1      45.660  27.547  27.029  1.00  0.00     0.034 A 
ATOM     47  C   UNL A   1      41.053  30.879  30.279  1.00  0.00     0.049 A 
ATOM     48  C   UNL A   1      45.618  28.919  27.653  1.00  0.00     0.074 A 
ATOM     49  C   UNL A   1      41.144  32.159  30.799  1.00  0.00     0.029 A 
ATOM     50  N   UNL A   1      42.276  30.612  29.675  1.00  0.00    -0.354 N 
ATOM     51  N   UNL A   1      44.630  29.507  28.286  1.00  0.00    -0.248 NA
ATOM     52  C   UNL A   1      46.836  29.729  27.547  1.00  0.00     0.031 C 
ATOM     53  C   UNL A   1      42.403  32.680  30.474  1.00  0.00     0.029 A 
ATOM     54  C   UNL A   1      43.122  31.703  29.804  1.00  0.00     0.049 A 
ATOM     55  H   UNL A   1      42.508  29.771  29.219  1.00  0.00     0.167 HD
ATOM     56  C   UNL A   1      45.117  30.754  28.668  1.00  0.00     0.074 A 
ATOM     57  C   UNL A   1      46.490  30.820  28.213  1.00  0.00     0.031 C 
ATOM     58  C   UNL A   1      44.487  31.755  29.335  1.00  0.00     0.034 A 
BRANCH  45  59
ATOM     59  C   UNL A   1      38.661  30.392  31.002  1.00  0.00     0.023 A 
ATOM     60  C   UNL A   1      37.618  31.008  30.288  1.00  0.00     0.031 A 
ATOM     61  C   UNL A   1      38.501  30.232  32.391  1.00  0.00     0.131 A 
ATOM     62  C   UNL A   1      36.500  31.509  30.975  1.00  0.00     0.055 A 
ATOM     63  C   UNL A   1      37.352  30.662  33.057  1.00  0.00     0.041 A 
ATOM     64  F   UNL A   1      39.472  29.671  33.130  1.00  0.00    -0.206 F 
ATOM     65  C   UNL A   1      36.349  31.318  32.351  1.00  0.00     0.022 A 
BRANCH  62  66
ATOM     66  S   UNL A   1      35.309  32.535  30.069  1.00  0.00     0.124 S 
ATOM     67  O   UNL A   1      36.130  33.684  29.699  1.00  0.00    -0.237 OA
ATOM     68  O   UNL A   1      34.902  31.660  28.976  1.00  0.00    -0.237 OA
ATOM     69  O   UNL A   1      34.272  32.815  31.061  1.00  0.00    -0.744 OA
ENDBRANCH  62  66
ENDBRANCH  45  59
BRANCH  46  70
ATOM     70  C   UNL A   1      46.859  27.094  26.269  1.00  0.00     0.023 A 
ATOM     71  C   UNL A   1      47.938  26.475  26.919  1.00  0.00     0.031 A 
ATOM     72  C   UNL A   1      46.956  27.307  24.882  1.00  0.00     0.131 A 
ATOM     73  C   UNL A   1      49.085  26.124  26.189  1.00  0.00     0.055 A 
ATOM     74  C   UNL A   1      48.076  26.911  24.152  1.00  0.00     0.041 A 
ATOM     75  F   UNL A   1      45.950  27.892  24.214  1.00  0.00    -0.206 F 
ATOM     76  C   UNL A   1      49.155  26.326  24.808  1.00  0.00     0.022 A 
BRANCH  73  77
ATOM     77  S   UNL A   1      50.515  25.459  27.083  1.00  0.00     0.124 S 
ATOM     78  O   UNL A   1      51.456  25.210  25.997  1.00  0.00    -0.237 OA
ATOM     79  O   UNL A   1      50.849  26.558  27.982  1.00  0.00    -0.237 OA
ATOM     80  O   UNL A   1      49.983  24.263  27.734  1.00  0.00    -0.744 OA
ENDBRANCH  73  77
ENDBRANCH  46  70
BRANCH  58  81
ATOM     81  C   UNL A   1      45.308  32.979  29.650  1.00  0.00     0.023 A 
ATOM     82  C   UNL A   1      46.031  33.096  30.849  1.00  0.00     0.031 A 
ATOM     83  C   UNL A   1      45.334  34.059  28.751  1.00  0.00     0.131 A 
ATOM     84  C   UNL A   1      46.701  34.293  31.147  1.00  0.00     0.055 A 
ATOM     85  C   UNL A   1      46.044  35.228  29.028  1.00  0.00     0.041 A 
ATOM     86  F   UNL A   1      44.659  33.999  27.591  1.00  0.00    -0.206 F 
ATOM     87  C   UNL A   1      46.721  35.355  30.238  1.00  0.00     0.022 A 
BRANCH  84  88
ATOM     88  S   UNL A   1      47.461  34.484  32.783  1.00  0.00     0.124 S 
ATOM     89  O   UNL A   1      47.431  33.119  33.295  1.00  0.00    -0.237 OA
ATOM     90  O   UNL A   1      48.779  35.013  32.454  1.00  0.00    -0.237 OA
ATOM     91  O   UNL A   1      46.571  35.421  33.467  1.00  0.00    -0.744 OA
ENDBRANCH  84  88
ENDBRANCH  58  81
ENDBRANCH  32  33
ENDBRANCH  25  27
ENDBRANCH  24  25
ENDBRANCH  23  24
ENDBRANCH   1  23
TORSDOF 19
ENDMDL
MODEL 2
REMARK VINA RESULT:     -11.1      4.767      9.865
REMARK SMILES CCCOc1ccc(C[N@H+]2CC[C@H](C(=O)OCCOC(=O)c3ccc(-c4c5nc(c(-c6cc(S(=O)(=O)[O-])ccc6F)c6ccc([nH]6)c(-c6cc(S(=O)(=O)[O-])ccc6F)c6nc(c(-c7cc(S(=O)(=O)[O-])ccc7F)c7ccc4[nH]7)C=C6)C=C5)cc3)[C@@H]2C)cc1
REMARK SMILES IDX 17 1 16 2 14 3 15 4 13 5 10 6 11 7 85 8 12 10 86 11 9 12
REMARK SMILES IDX 8 13 5 14 6 15 88 16 7 17 87 18 4 19 3 20 2 21 1 22 18 23
REMARK SMILES IDX 19 24 20 25 21 26 22 27 23 28 84 29 24 30 83 31 25 32 26 33
REMARK SMILES IDX 27 34 77 35 28 36 82 37 76 38 78 39 29 40 81 41 75 42 74 43
REMARK SMILES IDX 30 45 62 46 42 47 61 48 43 49 46 50 60 51 79 52 44 53 45 54
REMARK SMILES IDX 59 56 80 57 47 58 31 59 32 60 40 61 33 62 39 63 41 64 38 65
REMARK SMILES IDX 34 66 35 67 36 68 37 69 63 70 64 71 72 72 65 73 71 74 73 75
REMARK SMILES IDX 70 76 66 77 67 78 68 79 69 80 48 81 49 82 57 83 50 84 56 85
REMARK SMILES IDX 58 86 55 87 51 88 52 89 53 90 54 91
REMARK H PARENT 10 9 78 44 46 55
REMARK Flexibility Score: inf
ROOT
ATOM      1  C   UNL A   1      31.764  29.140  26.877  1.00  0.00     0.274 C 
ENDROOT
BRANCH   1   2
ATOM      2  O   UNL A   1      31.487  28.292  25.748  1.00  0.00    -0.462 OA
BRANCH   2   3
ATOM      3  C   UNL A   1      31.306  26.977  26.038  1.00  0.00     0.315 C 
ATOM      4  O   UNL A   1      30.913  26.554  27.121  1.00  0.00    -0.252 OA
BRANCH   3   5
ATOM      5  C   UNL A   1      31.662  26.045  24.900  1.00  0.00     0.162 C 
ATOM      6  N   UNL A   1      33.646  25.854  23.558  1.00  0.00    -0.328 N 
ATOM      7  C   UNL A   1      32.729  26.753  22.865  1.00  0.00     0.263 C 
ATOM      8  C   UNL A   1      33.128  25.601  24.907  1.00  0.00     0.195 C 
ATOM      9  H   UNL A   1      34.543  26.335  23.635  1.00  0.00     0.348 HD
ATOM     10  C   UNL A   1      31.365  26.532  23.487  1.00  0.00     0.083 C 
ATOM     11  C   UNL A   1      34.049  26.292  25.912  1.00  0.00     0.076 C 
BRANCH   6  12
ATOM     12  C   UNL A   1      34.081  24.664  22.821  1.00  0.00     0.299 C 
BRANCH  12  13
ATOM     13  C   UNL A   1      33.579  23.308  23.267  1.00  0.00     0.006 A 
ATOM     14  C   UNL A   1      32.611  20.760  24.000  1.00  0.00     0.119 A 
ATOM     15  C   UNL A   1      33.796  21.248  24.545  1.00  0.00     0.047 A 
ATOM     16  C   UNL A   1      31.908  21.541  23.089  1.00  0.00     0.047 A 
ATOM     17  C   UNL A   1      34.290  22.500  24.166  1.00  0.00     0.013 A 
ATOM     18  C   UNL A   1      32.383  22.806  22.733  1.00  0.00     0.013 A 
BRANCH  14  19
ATOM     19  O   UNL A   1      32.163  19.569  24.488  1.00  0.00    -0.494 OA
BRANCH  19  20
ATOM     20  C   UNL A   1      32.185  18.454  23.594  1.00  0.00     0.229 C 
BRANCH  20  21
ATOM     21  C   UNL A   1      33.062  17.330  24.147  1.00  0.00     0.038 C 
ATOM     22  C   UNL A   1      34.205  16.948  23.218  1.00  0.00     0.007 C 
ENDBRANCH  20  21
ENDBRANCH  19  20
ENDBRANCH  14  19
ENDBRANCH  12  13
ENDBRANCH   6  12
ENDBRANCH   3   5
ENDBRANCH   2   3
ENDBRANCH   1   2
BRANCH   1  23
ATOM     23  C   UNL A   1      31.793  30.612  26.469  1.00  0.00     0.275 C 
BRANCH  23  24
ATOM     24  O   UNL A   1      33.148  31.067  26.301  1.00  0.00    -0.458 OA
BRANCH  24  25
ATOM     25  C   UNL A   1      33.614  31.859  27.295  1.00  0.00     0.338 C 
ATOM     26  O   UNL A   1      33.049  32.809  27.807  1.00  0.00    -0.246 OA
BRANCH  25  27
ATOM     27  C   UNL A   1      34.956  31.418  27.706  1.00  0.00     0.060 A 
ATOM     28  C   UNL A   1      35.200  30.068  27.958  1.00  0.00     0.016 A 
ATOM     29  C   UNL A   1      35.927  32.375  27.999  1.00  0.00     0.016 A 
ATOM     30  C   UNL A   1      36.382  29.675  28.586  1.00  0.00     0.010 A 
ATOM     31  C   UNL A   1      37.142  31.971  28.560  1.00  0.00     0.010 A 
ATOM     32  C   UNL A   1      37.363  30.624  28.901  1.00  0.00    -0.014 A 
BRANCH  32  33
ATOM     33  C   UNL A   1      38.576  30.238  29.672  1.00  0.00     0.031 A 
ATOM     34  C   UNL A   1      39.544  29.247  29.078  1.00  0.00     0.074 A 
ATOM     35  C   UNL A   1      38.817  30.763  30.888  1.00  0.00     0.049 A 
ATOM     36  N   UNL A   1      40.534  28.607  29.645  1.00  0.00    -0.248 NA
ATOM     37  C   UNL A   1      39.351  28.920  27.658  1.00  0.00     0.031 C 
ATOM     38  C   UNL A   1      37.995  31.775  31.554  1.00  0.00     0.029 A 
ATOM     39  N   UNL A   1      39.825  30.509  31.785  1.00  0.00    -0.354 N 
ATOM     40  C   UNL A   1      41.047  27.759  28.667  1.00  0.00     0.074 A 
ATOM     41  C   UNL A   1      40.248  27.963  27.477  1.00  0.00     0.031 C 
ATOM     42  C   UNL A   1      38.538  32.063  32.748  1.00  0.00     0.029 A 
ATOM     43  C   UNL A   1      39.699  31.205  32.965  1.00  0.00     0.049 A 
ATOM     44  H   UNL A   1      40.567  29.888  31.603  1.00  0.00     0.167 HD
ATOM     45  C   UNL A   1      42.085  26.890  28.758  1.00  0.00     0.034 A 
ATOM     46  C   UNL A   1      40.409  31.131  34.107  1.00  0.00     0.034 A 
ATOM     47  C   UNL A   1      42.895  26.729  29.944  1.00  0.00     0.049 A 
ATOM     48  C   UNL A   1      41.550  30.149  34.194  1.00  0.00     0.074 A 
ATOM     49  C   UNL A   1      43.957  25.868  30.158  1.00  0.00     0.029 A 
ATOM     50  N   UNL A   1      42.738  27.460  31.115  1.00  0.00    -0.354 N 
ATOM     51  N   UNL A   1      41.971  29.292  33.294  1.00  0.00    -0.248 NA
ATOM     52  C   UNL A   1      42.306  30.126  35.452  1.00  0.00     0.031 C 
ATOM     53  C   UNL A   1      44.416  26.050  31.469  1.00  0.00     0.029 A 
ATOM     54  C   UNL A   1      43.678  27.067  32.055  1.00  0.00     0.049 A 
ATOM     55  H   UNL A   1      42.056  28.156  31.258  1.00  0.00     0.167 HD
ATOM     56  C   UNL A   1      43.056  28.639  33.875  1.00  0.00     0.074 A 
ATOM     57  C   UNL A   1      43.233  29.217  35.190  1.00  0.00     0.031 C 
ATOM     58  C   UNL A   1      43.835  27.650  33.366  1.00  0.00     0.034 A 
BRANCH  45  59
ATOM     59  C   UNL A   1      42.351  26.004  27.564  1.00  0.00     0.023 A 
ATOM     60  C   UNL A   1      41.835  24.699  27.469  1.00  0.00     0.031 A 
ATOM     61  C   UNL A   1      43.179  26.460  26.522  1.00  0.00     0.131 A 
ATOM     62  C   UNL A   1      42.214  23.872  26.399  1.00  0.00     0.055 A 
ATOM     63  C   UNL A   1      43.490  25.659  25.421  1.00  0.00     0.041 A 
ATOM     64  F   UNL A   1      43.720  27.688  26.567  1.00  0.00    -0.206 F 
ATOM     65  C   UNL A   1      43.019  24.352  25.363  1.00  0.00     0.022 A 
BRANCH  62  66
ATOM     66  S   UNL A   1      41.756  22.118  26.450  1.00  0.00     0.124 S 
ATOM     67  O   UNL A   1      42.629  21.555  25.423  1.00  0.00    -0.237 OA
ATOM     68  O   UNL A   1      42.066  21.747  27.826  1.00  0.00    -0.237 OA
ATOM     69  O   UNL A   1      40.334  22.124  26.112  1.00  0.00    -0.744 OA
ENDBRANCH  62  66
ENDBRANCH  45  59
BRANCH  46  70
ATOM     70  C   UNL A   1      40.031  31.962  35.284  1.00  0.00     0.023 A 
ATOM     71  C   UNL A   1      39.101  31.500  36.230  1.00  0.00     0.031 A 
ATOM     72  C   UNL A   1      40.570  33.249  35.461  1.00  0.00     0.131 A 
ATOM     73  C   UNL A   1      38.710  32.334  37.289  1.00  0.00     0.055 A 
ATOM     74  C   UNL A   1      40.216  34.055  36.543  1.00  0.00     0.041 A 
ATOM     75  F   UNL A   1      41.464  33.735  34.586  1.00  0.00    -0.206 F 
ATOM     76  C   UNL A   1      39.271  33.602  37.459  1.00  0.00     0.022 A 
BRANCH  73  77
ATOM     77  S   UNL A   1      37.404  31.762  38.409  1.00  0.00     0.124 S 
ATOM     78  O   UNL A   1      36.334  32.714  38.129  1.00  0.00    -0.237 OA
ATOM     79  O   UNL A   1      37.184  30.396  37.947  1.00  0.00    -0.237 OA
ATOM     80  O   UNL A   1      38.013  31.880  39.732  1.00  0.00    -0.744 OA
ENDBRANCH  73  77
ENDBRANCH  46  70
BRANCH  58  81
ATOM     81  C   UNL A   1      44.978  27.180  34.229  1.00  0.00     0.023 A 
ATOM     82  C   UNL A   1      44.835  26.107  35.126  1.00  0.00     0.031 A 
ATOM     83  C   UNL A   1      46.216  27.843  34.179  1.00  0.00     0.131 A 
ATOM     84  C   UNL A   1      45.894  25.768  35.983  1.00  0.00     0.055 A 
ATOM     85  C   UNL A   1      47.284  27.468  34.996  1.00  0.00     0.041 A 
ATOM     86  F   UNL A   1      46.405  28.875  33.341  1.00  0.00    -0.206 F 
ATOM     87  C   UNL A   1      47.121  26.435  35.914  1.00  0.00     0.022 A 
BRANCH  84  88
ATOM     88  S   UNL A   1      45.614  24.510  37.260  1.00  0.00     0.124 S 
ATOM     89  O   UNL A   1      45.172  23.366  36.470  1.00  0.00    -0.237 OA
ATOM     90  O   UNL A   1      46.932  24.391  37.873  1.00  0.00    -0.237 OA
ATOM     91  O   UNL A   1      44.587  25.109  38.111  1.00  0.00    -0.744 OA
ENDBRANCH  84  88
ENDBRANCH  58  81
ENDBRANCH  32  33
ENDBRANCH  25  27
ENDBRANCH  24  25
ENDBRANCH  23  24
ENDBRANCH   1  23
TORSDOF 19
ENDMDL
MODEL 3
REMARK VINA RESULT:     -11.1      2.331      8.016
REMARK SMILES CCCOc1ccc(C[N@H+]2CC[C@H](C(=O)OCCOC(=O)c3ccc(-c4c5nc(c(-c6cc(S(=O)(=O)[O-])ccc6F)c6ccc([nH]6)c(-c6cc(S(=O)(=O)[O-])ccc6F)c6nc(c(-c7cc(S(=O)(=O)[O-])ccc7F)c7ccc4[nH]7)C=C6)C=C5)cc3)[C@@H]2C)cc1
REMARK SMILES IDX 17 1 16 2 14 3 15 4 13 5 10 6 11 7 85 8 12 10 86 11 9 12
REMARK SMILES IDX 8 13 5 14 6 15 88 16 7 17 87 18 4 19 3 20 2 21 1 22 18 23
REMARK SMILES IDX 19 24 20 25 21 26 22 27 23 28 84 29 24 30 83 31 25 32 26 33
REMARK SMILES IDX 27 34 77 35 28 36 82 37 76 38 78 39 29 40 81 41 75 42 74 43
REMARK SMILES IDX 30 45 62 46 42 47 61 48 43 49 46 50 60 51 79 52 44 53 45 54
REMARK SMILES IDX 59 56 80 57 47 58 31 59 32 60 40 61 33 62 39 63 41 64 38 65
REMARK SMILES IDX 34 66 35 67 36 68 37 69 63 70 64 71 72 72 65 73 71 74 73 75
REMARK SMILES IDX 70 76 66 77 67 78 68 79 69 80 48 81 49 82 57 83 50 84 56 85
REMARK SMILES IDX 58 86 55 87 51 88 52 89 53 90 54 91
REMARK H PARENT 10 9 78 44 46 55
REMARK Flexibility Score: inf
ROOT
ATOM      1  C   UNL A   1      37.199  20.872  24.683  1.00  0.00     0.274 C 
ENDROOT
BRANCH   1   2
ATOM      2  O   UNL A   1      36.037  21.109  25.498  1.00  0.00    -0.462 OA
BRANCH   2   3
ATOM      3  C   UNL A   1      35.656  22.409  25.604  1.00  0.00     0.315 C 
ATOM      4  O   UNL A   1      36.373  23.309  26.028  1.00  0.00    -0.252 OA
BRANCH   3   5
ATOM      5  C   UNL A   1      34.229  22.664  25.170  1.00  0.00     0.162 C 
ATOM      6  N   UNL A   1      32.134  21.843  26.014  1.00  0.00    -0.328 N 
ATOM      7  C   UNL A   1      32.562  20.946  24.945  1.00  0.00     0.263 C 
ATOM      8  C   UNL A   1      33.239  22.753  26.336  1.00  0.00     0.195 C 
ATOM      9  H   UNL A   1      31.934  21.266  26.832  1.00  0.00     0.348 HD
ATOM     10  C   UNL A   1      33.625  21.691  24.164  1.00  0.00     0.083 C 
ATOM     11  C   UNL A   1      33.775  22.385  27.719  1.00  0.00     0.076 C 
BRANCH   6  12
ATOM     12  C   UNL A   1      30.825  22.480  25.850  1.00  0.00     0.299 C 
BRANCH  12  13
ATOM     13  C   UNL A   1      30.768  23.905  25.340  1.00  0.00     0.006 A 
ATOM     14  C   UNL A   1      30.721  26.590  24.475  1.00  0.00     0.119 A 
ATOM     15  C   UNL A   1      30.865  25.555  23.554  1.00  0.00     0.047 A 
ATOM     16  C   UNL A   1      30.601  26.288  25.827  1.00  0.00     0.047 A 
ATOM     17  C   UNL A   1      30.912  24.225  23.983  1.00  0.00     0.013 A 
ATOM     18  C   UNL A   1      30.616  24.958  26.255  1.00  0.00     0.013 A 
BRANCH  14  19
ATOM     19  O   UNL A   1      30.601  27.848  23.961  1.00  0.00    -0.494 OA
BRANCH  19  20
ATOM     20  C   UNL A   1      29.992  27.965  22.674  1.00  0.00     0.229 C 
BRANCH  20  21
ATOM     21  C   UNL A   1      28.856  28.989  22.700  1.00  0.00     0.038 C 
ATOM     22  C   UNL A   1      29.201  30.250  23.477  1.00  0.00     0.007 C 
ENDBRANCH  20  21
ENDBRANCH  19  20
ENDBRANCH  14  19
ENDBRANCH  12  13
ENDBRANCH   6  12
ENDBRANCH   3   5
ENDBRANCH   2   3
ENDBRANCH   1   2
BRANCH   1  23
ATOM     23  C   UNL A   1      38.228  20.016  25.421  1.00  0.00     0.275 C 
BRANCH  23  24
ATOM     24  O   UNL A   1      39.515  20.658  25.424  1.00  0.00    -0.458 OA
BRANCH  24  25
ATOM     25  C   UNL A   1      40.142  20.678  26.624  1.00  0.00     0.338 C 
ATOM     26  O   UNL A   1      40.507  19.720  27.281  1.00  0.00    -0.246 OA
BRANCH  25  27
ATOM     27  C   UNL A   1      40.342  22.067  27.068  1.00  0.00     0.060 A 
ATOM     28  C   UNL A   1      39.626  23.102  26.465  1.00  0.00     0.016 A 
ATOM     29  C   UNL A   1      41.363  22.353  27.972  1.00  0.00     0.016 A 
ATOM     30  C   UNL A   1      39.986  24.429  26.696  1.00  0.00     0.010 A 
ATOM     31  C   UNL A   1      41.674  23.684  28.260  1.00  0.00     0.010 A 
ATOM     32  C   UNL A   1      41.019  24.735  27.590  1.00  0.00    -0.014 A 
BRANCH  32  33
ATOM     33  C   UNL A   1      41.490  26.136  27.760  1.00  0.00     0.031 A 
ATOM     34  C   UNL A   1      42.820  26.543  27.180  1.00  0.00     0.074 A 
ATOM     35  C   UNL A   1      40.745  27.040  28.424  1.00  0.00     0.049 A 
ATOM     36  N   UNL A   1      43.524  27.627  27.387  1.00  0.00    -0.248 NA
ATOM     37  C   UNL A   1      43.448  25.586  26.258  1.00  0.00     0.031 C 
ATOM     38  C   UNL A   1      39.415  26.796  28.985  1.00  0.00     0.029 A 
ATOM     39  N   UNL A   1      41.007  28.349  28.746  1.00  0.00    -0.354 N 
ATOM     40  C   UNL A   1      44.703  27.458  26.666  1.00  0.00     0.074 A 
ATOM     41  C   UNL A   1      44.619  26.161  26.028  1.00  0.00     0.031 C 
ATOM     42  C   UNL A   1      38.974  27.920  29.571  1.00  0.00     0.029 A 
ATOM     43  C   UNL A   1      40.016  28.939  29.496  1.00  0.00     0.049 A 
ATOM     44  H   UNL A   1      41.825  28.820  28.468  1.00  0.00     0.167 HD
ATOM     45  C   UNL A   1      45.757  28.304  26.554  1.00  0.00     0.034 A 
ATOM     46  C   UNL A   1      39.969  30.146  30.092  1.00  0.00     0.034 A 
ATOM     47  C   UNL A   1      45.805  29.611  27.168  1.00  0.00     0.049 A 
ATOM     48  C   UNL A   1      41.156  31.068  29.967  1.00  0.00     0.074 A 
ATOM     49  C   UNL A   1      46.825  30.546  27.138  1.00  0.00     0.029 A 
ATOM     50  N   UNL A   1      44.775  30.174  27.913  1.00  0.00    -0.354 N 
ATOM     51  N   UNL A   1      42.299  30.863  29.357  1.00  0.00    -0.248 NA
ATOM     52  C   UNL A   1      41.042  32.381  30.614  1.00  0.00     0.031 C 
ATOM     53  C   UNL A   1      46.429  31.655  27.898  1.00  0.00     0.029 A 
ATOM     54  C   UNL A   1      45.138  31.438  28.352  1.00  0.00     0.049 A 
ATOM     55  H   UNL A   1      43.913  29.738  28.103  1.00  0.00     0.167 HD
ATOM     56  C   UNL A   1      43.035  32.032  29.534  1.00  0.00     0.074 A 
ATOM     57  C   UNL A   1      42.197  32.940  30.288  1.00  0.00     0.031 C 
ATOM     58  C   UNL A   1      44.292  32.328  29.112  1.00  0.00     0.034 A 
BRANCH  45  59
ATOM     59  C   UNL A   1      46.965  27.807  25.795  1.00  0.00     0.023 A 
ATOM     60  C   UNL A   1      47.174  28.110  24.438  1.00  0.00     0.031 A 
ATOM     61  C   UNL A   1      47.900  26.972  26.434  1.00  0.00     0.131 A 
ATOM     62  C   UNL A   1      48.245  27.520  23.746  1.00  0.00     0.055 A 
ATOM     63  C   UNL A   1      49.007  26.452  25.759  1.00  0.00     0.041 A 
ATOM     64  F   UNL A   1      47.742  26.630  27.722  1.00  0.00    -0.206 F 
ATOM     65  C   UNL A   1      49.176  26.713  24.404  1.00  0.00     0.022 A 
BRANCH  62  66
ATOM     66  S   UNL A   1      48.327  27.711  21.944  1.00  0.00     0.124 S 
ATOM     67  O   UNL A   1      48.552  26.334  21.511  1.00  0.00    -0.237 OA
ATOM     68  O   UNL A   1      47.022  28.276  21.623  1.00  0.00    -0.237 OA
ATOM     69  O   UNL A   1      49.462  28.610  21.745  1.00  0.00    -0.744 OA
ENDBRANCH  62  66
ENDBRANCH  45  59
BRANCH  46  70
ATOM     70  C   UNL A   1      38.788  30.535  30.912  1.00  0.00     0.023 A 
ATOM     71  C   UNL A   1      37.687  31.188  30.334  1.00  0.00     0.031 A 
ATOM     72  C   UNL A   1      38.759  30.288  32.296  1.00  0.00     0.131 A 
ATOM     73  C   UNL A   1      36.619  31.606  31.144  1.00  0.00     0.055 A 
ATOM     74  C   UNL A   1      37.674  30.661  33.089  1.00  0.00     0.041 A 
ATOM     75  F   UNL A   1      39.785  29.665  32.895  1.00  0.00    -0.206 F 
ATOM     76  C   UNL A   1      36.600  31.335  32.515  1.00  0.00     0.022 A 
BRANCH  73  77
ATOM     77  S   UNL A   1      35.283  32.571  30.391  1.00  0.00     0.124 S 
ATOM     78  O   UNL A   1      34.922  31.739  29.248  1.00  0.00    -0.237 OA
ATOM     79  O   UNL A   1      34.306  32.634  31.472  1.00  0.00    -0.237 OA
ATOM     80  O   UNL A   1      35.925  33.841  30.059  1.00  0.00    -0.744 OA
ENDBRANCH  73  77
ENDBRANCH  46  70
BRANCH  58  81
ATOM     81  C   UNL A   1      44.799  33.713  29.419  1.00  0.00     0.023 A 
ATOM     82  C   UNL A   1      44.661  34.772  28.505  1.00  0.00     0.031 A 
ATOM     83  C   UNL A   1      45.464  33.966  30.631  1.00  0.00     0.131 A 
ATOM     84  C   UNL A   1      45.236  36.020  28.789  1.00  0.00     0.055 A 
ATOM     85  C   UNL A   1      45.989  35.223  30.933  1.00  0.00     0.041 A 
ATOM     86  F   UNL A   1      45.624  32.989  31.539  1.00  0.00    -0.206 F 
ATOM     87  C   UNL A   1      45.890  36.254  30.002  1.00  0.00     0.022 A 
BRANCH  84  88
ATOM     88  S   UNL A   1      45.210  37.305  27.509  1.00  0.00     0.124 S 
ATOM     89  O   UNL A   1      46.107  36.751  26.501  1.00  0.00    -0.237 OA
ATOM     90  O   UNL A   1      43.798  37.355  27.148  1.00  0.00    -0.237 OA
ATOM     91  O   UNL A   1      45.714  38.489  28.202  1.00  0.00    -0.744 OA
ENDBRANCH  84  88
ENDBRANCH  58  81
ENDBRANCH  32  33
ENDBRANCH  25  27
ENDBRANCH  24  25
ENDBRANCH  23  24
ENDBRANCH   1  23
TORSDOF 19
ENDMDL
