MODEL 1
REMARK VINA RESULT:     -10.8      0.000      0.000
REMARK SMILES CC[C@](C)(Nc1cccc(Br)c1)C(=O)OCCOC(=O)c1ccc(-c2c3nc(c(-c4cc(S(=O)(=O)[O-])ccc4F)c4ccc([nH]4)c(-c4cc(S(=O)(=O)[O-])ccc4F)c4nc(c(-c5cc(S(=O)(=O)[O-])ccc5F)c5ccc2[nH]5)C=C4)C=C3)cc1
REMARK SMILES IDX 17 1 16 2 15 3 13 4 14 5 3 6 4 7 2 8 1 9 5 10 6 12 7 13
REMARK SMILES IDX 12 14 8 15 10 16 9 17 11 18 18 19 19 20 20 21 21 22 22 23
REMARK SMILES IDX 83 24 23 25 82 26 24 27 25 28 26 29 76 30 27 31 81 32 75 33
REMARK SMILES IDX 77 34 28 35 80 36 74 37 73 38 29 40 61 41 41 42 60 43 42 44
REMARK SMILES IDX 45 45 59 46 78 47 43 48 44 49 58 51 79 52 46 53 30 54 31 55
REMARK SMILES IDX 39 56 32 57 38 58 40 59 37 60 33 61 34 62 35 63 36 64 62 65
REMARK SMILES IDX 63 66 71 67 64 68 70 69 72 70 69 71 65 72 66 73 67 74 68 75
REMARK SMILES IDX 47 76 48 77 56 78 49 79 55 80 57 81 54 82 50 83 51 84 52 85
REMARK SMILES IDX 53 86
REMARK H PARENT 5 11 77 39 45 50
REMARK Flexibility Score: inf
ROOT
ATOM      1  C   UNL A   1      31.837  29.842  25.937  1.00  0.00     0.275 C 
ENDROOT
BRANCH   1   2
ATOM      2  C   UNL A   1      31.633  28.373  26.309  1.00  0.00     0.274 C 
BRANCH   2   3
ATOM      3  O   UNL A   1      32.454  27.512  25.495  1.00  0.00    -0.460 OA
BRANCH   3   4
ATOM      4  C   UNL A   1      31.821  26.804  24.525  1.00  0.00     0.331 C 
ATOM      5  O   UNL A   1      31.220  25.756  24.755  1.00  0.00    -0.249 OA
BRANCH   4   6
ATOM      6  C   UNL A   1      32.026  27.347  23.084  1.00  0.00     0.132 C 
ATOM      7  C   UNL A   1      31.350  26.384  22.084  1.00  0.00     0.047 C 
BRANCH   6   8
ATOM      8  C   UNL A   1      33.555  27.405  22.820  1.00  0.00     0.037 C 
ATOM      9  C   UNL A   1      34.164  28.800  22.718  1.00  0.00     0.007 C 
ENDBRANCH   6   8
BRANCH   6  10
ATOM     10  N   UNL A   1      31.511  28.710  22.758  1.00  0.00    -0.370 N 
ATOM     11  H   UNL A   1      32.174  29.433  22.689  1.00  0.00     0.161 HD
BRANCH  10  12
ATOM     12  C   UNL A   1      30.188  29.048  22.545  1.00  0.00     0.036 A 
ATOM     13  C   UNL A   1      29.179  28.376  23.246  1.00  0.00     0.026 A 
ATOM     14  C   UNL A   1      29.827  30.106  21.707  1.00  0.00     0.041 A 
ATOM     15  C   UNL A   1      27.834  28.710  23.080  1.00  0.00     0.003 A 
ATOM     16  C   UNL A   1      28.482  30.457  21.560  1.00  0.00     0.020 A 
ATOM     17  C   UNL A   1      27.483  29.756  22.234  1.00  0.00     0.016 A 
ATOM     18  Br  UNL A   1      28.005  31.917  20.457  1.00  0.00    -0.051 Br
ENDBRANCH  10  12
ENDBRANCH   6  10
ENDBRANCH   4   6
ENDBRANCH   3   4
ENDBRANCH   2   3
ENDBRANCH   1   2
BRANCH   1  19
ATOM     19  O   UNL A   1      33.218  30.188  26.123  1.00  0.00    -0.458 OA
BRANCH  19  20
ATOM     20  C   UNL A   1      33.473  31.177  27.008  1.00  0.00     0.338 C 
ATOM     21  O   UNL A   1      32.795  32.164  27.226  1.00  0.00    -0.246 OA
BRANCH  20  22
ATOM     22  C   UNL A   1      34.770  30.906  27.657  1.00  0.00     0.060 A 
ATOM     23  C   UNL A   1      35.088  29.618  28.088  1.00  0.00     0.016 A 
ATOM     24  C   UNL A   1      35.655  31.957  27.887  1.00  0.00     0.016 A 
ATOM     25  C   UNL A   1      36.268  29.376  28.787  1.00  0.00     0.010 A 
ATOM     26  C   UNL A   1      36.870  31.704  28.531  1.00  0.00     0.010 A 
ATOM     27  C   UNL A   1      37.178  30.415  29.003  1.00  0.00    -0.014 A 
BRANCH  27  28
ATOM     28  C   UNL A   1      38.428  30.176  29.772  1.00  0.00     0.031 A 
ATOM     29  C   UNL A   1      39.484  29.275  29.196  1.00  0.00     0.074 A 
ATOM     30  C   UNL A   1      38.613  30.758  30.972  1.00  0.00     0.049 A 
ATOM     31  N   UNL A   1      40.542  28.764  29.768  1.00  0.00    -0.248 NA
ATOM     32  C   UNL A   1      39.313  28.890  27.787  1.00  0.00     0.031 C 
ATOM     33  C   UNL A   1      37.693  31.706  31.605  1.00  0.00     0.029 A 
ATOM     34  N   UNL A   1      39.635  30.633  31.880  1.00  0.00    -0.354 N 
ATOM     35  C   UNL A   1      41.140  27.957  28.805  1.00  0.00     0.074 A 
ATOM     36  C   UNL A   1      40.319  28.045  27.616  1.00  0.00     0.031 C 
ATOM     37  C   UNL A   1      38.197  32.083  32.790  1.00  0.00     0.029 A 
ATOM     38  C   UNL A   1      39.430  31.345  33.040  1.00  0.00     0.049 A 
ATOM     39  H   UNL A   1      40.438  30.087  31.716  1.00  0.00     0.167 HD
ATOM     40  C   UNL A   1      42.266  27.208  28.912  1.00  0.00     0.034 A 
ATOM     41  C   UNL A   1      40.128  31.360  34.193  1.00  0.00     0.034 A 
ATOM     42  C   UNL A   1      43.078  27.155  30.105  1.00  0.00     0.049 A 
ATOM     43  C   UNL A   1      41.344  30.479  34.311  1.00  0.00     0.074 A 
ATOM     44  C   UNL A   1      44.229  26.424  30.338  1.00  0.00     0.029 A 
ATOM     45  N   UNL A   1      42.821  27.870  31.270  1.00  0.00    -0.354 N 
ATOM     46  N   UNL A   1      41.859  29.660  33.422  1.00  0.00    -0.248 NA
ATOM     47  C   UNL A   1      42.065  30.513  35.589  1.00  0.00     0.031 C 
ATOM     48  C   UNL A   1      44.639  26.657  31.656  1.00  0.00     0.029 A 
ATOM     49  C   UNL A   1      43.782  27.584  32.227  1.00  0.00     0.049 A 
ATOM     50  H   UNL A   1      42.068  28.491  31.396  1.00  0.00     0.167 HD
ATOM     51  C   UNL A   1      42.973  29.092  34.032  1.00  0.00     0.074 A 
ATOM     52  C   UNL A   1      43.065  29.677  35.355  1.00  0.00     0.031 C 
ATOM     53  C   UNL A   1      43.843  28.171  33.545  1.00  0.00     0.034 A 
BRANCH  40  54
ATOM     54  C   UNL A   1      42.631  26.337  27.735  1.00  0.00     0.023 A 
ATOM     55  C   UNL A   1      42.060  25.068  27.537  1.00  0.00     0.031 A 
ATOM     56  C   UNL A   1      43.610  26.768  26.820  1.00  0.00     0.131 A 
ATOM     57  C   UNL A   1      42.521  24.247  26.496  1.00  0.00     0.055 A 
ATOM     58  C   UNL A   1      44.011  25.976  25.743  1.00  0.00     0.041 A 
ATOM     59  F   UNL A   1      44.207  27.961  26.970  1.00  0.00    -0.206 F 
ATOM     60  C   UNL A   1      43.478  24.702  25.584  1.00  0.00     0.022 A 
BRANCH  57  61
ATOM     61  S   UNL A   1      41.958  22.523  26.433  1.00  0.00     0.124 S 
ATOM     62  O   UNL A   1      42.570  21.968  27.638  1.00  0.00    -0.237 OA
ATOM     63  O   UNL A   1      40.507  22.666  26.460  1.00  0.00    -0.237 OA
ATOM     64  O   UNL A   1      42.512  22.027  25.176  1.00  0.00    -0.744 OA
ENDBRANCH  57  61
ENDBRANCH  40  54
BRANCH  41  65
ATOM     65  C   UNL A   1      39.656  32.174  35.350  1.00  0.00     0.023 A 
ATOM     66  C   UNL A   1      38.866  31.610  36.363  1.00  0.00     0.031 A 
ATOM     67  C   UNL A   1      39.971  33.543  35.443  1.00  0.00     0.131 A 
ATOM     68  C   UNL A   1      38.392  32.417  37.410  1.00  0.00     0.055 A 
ATOM     69  C   UNL A   1      39.540  34.329  36.513  1.00  0.00     0.041 A 
ATOM     70  F   UNL A   1      40.722  34.132  34.500  1.00  0.00    -0.206 F 
ATOM     71  C   UNL A   1      38.736  33.768  37.499  1.00  0.00     0.022 A 
BRANCH  68  72
ATOM     72  S   UNL A   1      37.259  31.690  38.625  1.00  0.00     0.124 S 
ATOM     73  O   UNL A   1      38.050  31.757  39.848  1.00  0.00    -0.237 OA
ATOM     74  O   UNL A   1      36.114  32.592  38.549  1.00  0.00    -0.237 OA
ATOM     75  O   UNL A   1      37.023  30.343  38.108  1.00  0.00    -0.744 OA
ENDBRANCH  68  72
ENDBRANCH  41  65
BRANCH  53  76
ATOM     76  C   UNL A   1      44.986  27.780  34.445  1.00  0.00     0.023 A 
ATOM     77  C   UNL A   1      44.889  26.695  35.334  1.00  0.00     0.031 A 
ATOM     78  C   UNL A   1      46.181  28.520  34.428  1.00  0.00     0.131 A 
ATOM     79  C   UNL A   1      45.950  26.412  36.206  1.00  0.00     0.055 A 
ATOM     80  C   UNL A   1      47.253  28.202  35.262  1.00  0.00     0.041 A 
ATOM     81  F   UNL A   1      46.323  29.567  33.599  1.00  0.00    -0.206 F 
ATOM     82  C   UNL A   1      47.136  27.149  36.166  1.00  0.00     0.022 A 
BRANCH  79  83
ATOM     83  S   UNL A   1      45.730  25.113  37.453  1.00  0.00     0.124 S 
ATOM     84  O   UNL A   1      46.927  25.273  38.271  1.00  0.00    -0.237 OA
ATOM     85  O   UNL A   1      44.471  25.494  38.083  1.00  0.00    -0.237 OA
ATOM     86  O   UNL A   1      45.680  23.884  36.663  1.00  0.00    -0.744 OA
ENDBRANCH  79  83
ENDBRANCH  53  76
ENDBRANCH  27  28
ENDBRANCH  20  22
ENDBRANCH  19  20
ENDBRANCH   1  19
TORSDOF 17
ENDMDL
MODEL 2
REMARK VINA RESULT:     -10.8      2.011      2.902
REMARK SMILES CC[C@](C)(Nc1cccc(Br)c1)C(=O)OCCOC(=O)c1ccc(-c2c3nc(c(-c4cc(S(=O)(=O)[O-])ccc4F)c4ccc([nH]4)c(-c4cc(S(=O)(=O)[O-])ccc4F)c4nc(c(-c5cc(S(=O)(=O)[O-])ccc5F)c5ccc2[nH]5)C=C4)C=C3)cc1
REMARK SMILES IDX 17 1 16 2 15 3 13 4 14 5 3 6 4 7 2 8 1 9 5 10 6 12 7 13
REMARK SMILES IDX 12 14 8 15 10 16 9 17 11 18 18 19 19 20 20 21 21 22 22 23
REMARK SMILES IDX 83 24 23 25 82 26 24 27 25 28 26 29 76 30 27 31 81 32 75 33
REMARK SMILES IDX 77 34 28 35 80 36 74 37 73 38 29 40 61 41 41 42 60 43 42 44
REMARK SMILES IDX 45 45 59 46 78 47 43 48 44 49 58 51 79 52 46 53 30 54 31 55
REMARK SMILES IDX 39 56 32 57 38 58 40 59 37 60 33 61 34 62 35 63 36 64 62 65
REMARK SMILES IDX 63 66 71 67 64 68 70 69 72 70 69 71 65 72 66 73 67 74 68 75
REMARK SMILES IDX 47 76 48 77 56 78 49 79 55 80 57 81 54 82 50 83 51 84 52 85
REMARK SMILES IDX 53 86
REMARK H PARENT 5 11 77 39 45 50
REMARK Flexibility Score: inf
ROOT
ATOM      1  C   UNL A   1      31.813  30.304  26.557  1.00  0.00     0.275 C 
ENDROOT
BRANCH   1   2
ATOM      2  C   UNL A   1      31.781  28.824  26.941  1.00  0.00     0.274 C 
BRANCH   2   3
ATOM      3  O   UNL A   1      31.781  27.983  25.770  1.00  0.00    -0.460 OA
BRANCH   3   4
ATOM      4  C   UNL A   1      31.003  26.872  25.817  1.00  0.00     0.331 C 
ATOM      5  O   UNL A   1      30.681  26.333  26.875  1.00  0.00    -0.249 OA
BRANCH   4   6
ATOM      6  C   UNL A   1      30.662  26.257  24.432  1.00  0.00     0.132 C 
ATOM      7  C   UNL A   1      31.884  26.409  23.500  1.00  0.00     0.047 C 
BRANCH   6   8
ATOM      8  C   UNL A   1      29.451  27.043  23.858  1.00  0.00     0.037 C 
ATOM      9  C   UNL A   1      29.779  28.102  22.809  1.00  0.00     0.007 C 
ENDBRANCH   6   8
BRANCH   6  10
ATOM     10  N   UNL A   1      30.271  24.817  24.370  1.00  0.00    -0.370 N 
ATOM     11  H   UNL A   1      29.309  24.617  24.327  1.00  0.00     0.161 HD
BRANCH  10  12
ATOM     12  C   UNL A   1      31.138  23.741  24.370  1.00  0.00     0.036 A 
ATOM     13  C   UNL A   1      31.421  23.077  23.170  1.00  0.00     0.026 A 
ATOM     14  C   UNL A   1      31.811  23.342  25.528  1.00  0.00     0.041 A 
ATOM     15  C   UNL A   1      32.314  22.006  23.126  1.00  0.00     0.003 A 
ATOM     16  C   UNL A   1      32.724  22.283  25.479  1.00  0.00     0.020 A 
ATOM     17  C   UNL A   1      32.969  21.607  24.285  1.00  0.00     0.016 A 
ATOM     18  Br  UNL A   1      33.662  21.778  27.040  1.00  0.00    -0.051 Br
ENDBRANCH  10  12
ENDBRANCH   6  10
ENDBRANCH   4   6
ENDBRANCH   3   4
ENDBRANCH   2   3
ENDBRANCH   1   2
BRANCH   1  19
ATOM     19  O   UNL A   1      33.180  30.725  26.422  1.00  0.00    -0.458 OA
BRANCH  19  20
ATOM     20  C   UNL A   1      33.586  31.712  27.251  1.00  0.00     0.338 C 
ATOM     21  O   UNL A   1      33.039  32.782  27.448  1.00  0.00    -0.246 OA
BRANCH  20  22
ATOM     22  C   UNL A   1      34.868  31.315  27.864  1.00  0.00     0.060 A 
ATOM     23  C   UNL A   1      35.048  30.018  28.345  1.00  0.00     0.016 A 
ATOM     24  C   UNL A   1      35.881  32.260  28.010  1.00  0.00     0.016 A 
ATOM     25  C   UNL A   1      36.218  29.665  29.010  1.00  0.00     0.010 A 
ATOM     26  C   UNL A   1      37.082  31.890  28.619  1.00  0.00     0.010 A 
ATOM     27  C   UNL A   1      37.254  30.595  29.142  1.00  0.00    -0.014 A 
BRANCH  27  28
ATOM     28  C   UNL A   1      38.498  30.240  29.875  1.00  0.00     0.031 A 
ATOM     29  C   UNL A   1      39.470  29.278  29.251  1.00  0.00     0.074 A 
ATOM     30  C   UNL A   1      38.753  30.772  31.085  1.00  0.00     0.049 A 
ATOM     31  N   UNL A   1      40.498  28.671  29.784  1.00  0.00    -0.248 NA
ATOM     32  C   UNL A   1      39.240  28.946  27.837  1.00  0.00     0.031 C 
ATOM     33  C   UNL A   1      37.922  31.769  31.764  1.00  0.00     0.029 A 
ATOM     34  N   UNL A   1      39.781  30.545  31.966  1.00  0.00    -0.354 N 
ATOM     35  C   UNL A   1      41.012  27.849  28.787  1.00  0.00     0.074 A 
ATOM     36  C   UNL A   1      40.174  28.032  27.620  1.00  0.00     0.031 C 
ATOM     37  C   UNL A   1      38.479  32.074  32.947  1.00  0.00     0.029 A 
ATOM     38  C   UNL A   1      39.657  31.237  33.148  1.00  0.00     0.049 A 
ATOM     39  H   UNL A   1      40.537  29.944  31.769  1.00  0.00     0.167 HD
ATOM     40  C   UNL A   1      42.079  27.014  28.848  1.00  0.00     0.034 A 
ATOM     41  C   UNL A   1      40.378  31.167  34.285  1.00  0.00     0.034 A 
ATOM     42  C   UNL A   1      42.909  26.866  30.020  1.00  0.00     0.049 A 
ATOM     43  C   UNL A   1      41.525  30.192  34.351  1.00  0.00     0.074 A 
ATOM     44  C   UNL A   1      44.005  26.043  30.206  1.00  0.00     0.029 A 
ATOM     45  N   UNL A   1      42.733  27.565  31.209  1.00  0.00    -0.354 N 
ATOM     46  N   UNL A   1      41.957  29.362  33.429  1.00  0.00    -0.248 NA
ATOM     47  C   UNL A   1      42.274  30.136  35.613  1.00  0.00     0.031 C 
ATOM     48  C   UNL A   1      44.461  26.207  31.520  1.00  0.00     0.029 A 
ATOM     49  C   UNL A   1      43.689  27.180  32.136  1.00  0.00     0.049 A 
ATOM     50  H   UNL A   1      42.032  28.238  31.369  1.00  0.00     0.167 HD
ATOM     51  C   UNL A   1      43.037  28.694  33.998  1.00  0.00     0.074 A 
ATOM     52  C   UNL A   1      43.202  29.233  35.333  1.00  0.00     0.031 C 
ATOM     53  C   UNL A   1      43.823  27.723  33.467  1.00  0.00     0.034 A 
BRANCH  40  54
ATOM     54  C   UNL A   1      42.351  26.151  27.640  1.00  0.00     0.023 A 
ATOM     55  C   UNL A   1      41.863  24.837  27.534  1.00  0.00     0.031 A 
ATOM     56  C   UNL A   1      43.159  26.639  26.597  1.00  0.00     0.131 A 
ATOM     57  C   UNL A   1      42.244  24.035  26.447  1.00  0.00     0.055 A 
ATOM     58  C   UNL A   1      43.473  25.860  25.482  1.00  0.00     0.041 A 
ATOM     59  F   UNL A   1      43.673  27.879  26.653  1.00  0.00    -0.206 F 
ATOM     60  C   UNL A   1      43.029  24.545  25.409  1.00  0.00     0.022 A 
BRANCH  57  61
ATOM     61  S   UNL A   1      41.819  22.271  26.477  1.00  0.00     0.124 S 
ATOM     62  O   UNL A   1      42.600  21.759  25.353  1.00  0.00    -0.237 OA
ATOM     63  O   UNL A   1      42.265  21.862  27.803  1.00  0.00    -0.237 OA
ATOM     64  O   UNL A   1      40.372  22.263  26.276  1.00  0.00    -0.744 OA
ENDBRANCH  57  61
ENDBRANCH  40  54
BRANCH  41  65
ATOM     65  C   UNL A   1      39.995  31.982  35.474  1.00  0.00     0.023 A 
ATOM     66  C   UNL A   1      39.056  31.513  36.405  1.00  0.00     0.031 A 
ATOM     67  C   UNL A   1      40.548  33.259  35.679  1.00  0.00     0.131 A 
ATOM     68  C   UNL A   1      38.675  32.328  37.484  1.00  0.00     0.055 A 
ATOM     69  C   UNL A   1      40.205  34.044  36.781  1.00  0.00     0.041 A 
ATOM     70  F   UNL A   1      41.449  33.756  34.817  1.00  0.00    -0.206 F 
ATOM     71  C   UNL A   1      39.255  33.584  37.685  1.00  0.00     0.022 A 
BRANCH  68  72
ATOM     72  S   UNL A   1      37.358  31.751  38.589  1.00  0.00     0.124 S 
ATOM     73  O   UNL A   1      36.299  32.716  38.319  1.00  0.00    -0.237 OA
ATOM     74  O   UNL A   1      37.130  30.394  38.105  1.00  0.00    -0.237 OA
ATOM     75  O   UNL A   1      37.963  31.843  39.916  1.00  0.00    -0.744 OA
ENDBRANCH  68  72
ENDBRANCH  41  65
BRANCH  53  76
ATOM     76  C   UNL A   1      44.952  27.222  34.329  1.00  0.00     0.023 A 
ATOM     77  C   UNL A   1      44.807  26.089  35.148  1.00  0.00     0.031 A 
ATOM     78  C   UNL A   1      46.181  27.903  34.347  1.00  0.00     0.131 A 
ATOM     79  C   UNL A   1      45.859  25.700  35.991  1.00  0.00     0.055 A 
ATOM     80  C   UNL A   1      47.242  27.481  35.149  1.00  0.00     0.041 A 
ATOM     81  F   UNL A   1      46.368  28.992  33.584  1.00  0.00    -0.206 F 
ATOM     82  C   UNL A   1      47.080  26.380  35.986  1.00  0.00     0.022 A 
BRANCH  79  83
ATOM     83  S   UNL A   1      45.584  24.337  37.156  1.00  0.00     0.124 S 
ATOM     84  O   UNL A   1      46.938  24.061  37.624  1.00  0.00    -0.237 OA
ATOM     85  O   UNL A   1      44.682  24.937  38.133  1.00  0.00    -0.237 OA
ATOM     86  O   UNL A   1      44.990  23.291  36.326  1.00  0.00    -0.744 OA
ENDBRANCH  79  83
ENDBRANCH  53  76
ENDBRANCH  27  28
ENDBRANCH  20  22
ENDBRANCH  19  20
ENDBRANCH   1  19
TORSDOF 17
ENDMDL
MODEL 3
REMARK VINA RESULT:     -10.7      2.390      3.328
REMARK SMILES CC[C@](C)(Nc1cccc(Br)c1)C(=O)OCCOC(=O)c1ccc(-c2c3nc(c(-c4cc(S(=O)(=O)[O-])ccc4F)c4ccc([nH]4)c(-c4cc(S(=O)(=O)[O-])ccc4F)c4nc(c(-c5cc(S(=O)(=O)[O-])ccc5F)c5ccc2[nH]5)C=C4)C=C3)cc1
REMARK SMILES IDX 17 1 16 2 15 3 13 4 14 5 3 6 4 7 2 8 1 9 5 10 6 12 7 13
REMARK SMILES IDX 12 14 8 15 10 16 9 17 11 18 18 19 19 20 20 21 21 22 22 23
REMARK SMILES IDX 83 24 23 25 82 26 24 27 25 28 26 29 76 30 27 31 81 32 75 33
REMARK SMILES IDX 77 34 28 35 80 36 74 37 73 38 29 40 61 41 41 42 60 43 42 44
REMARK SMILES IDX 45 45 59 46 78 47 43 48 44 49 58 51 79 52 46 53 30 54 31 55
REMARK SMILES IDX 39 56 32 57 38 58 40 59 37 60 33 61 34 62 35 63 36 64 62 65
REMARK SMILES IDX 63 66 71 67 64 68 70 69 72 70 69 71 65 72 66 73 67 74 68 75
REMARK SMILES IDX 47 76 48 77 56 78 49 79 55 80 57 81 54 82 50 83 51 84 52 85
REMARK SMILES IDX 53 86
REMARK H PARENT 5 11 77 39 45 50
REMARK Flexibility Score: inf
ROOT
ATOM      1  C   UNL A   1      31.731  29.493  25.921  1.00  0.00     0.275 C 
ENDROOT
BRANCH   1   2
ATOM      2  C   UNL A   1      31.054  29.540  24.551  1.00  0.00     0.274 C 
BRANCH   2   3
ATOM      3  O   UNL A   1      31.853  28.871  23.554  1.00  0.00    -0.460 OA
BRANCH   3   4
ATOM      4  C   UNL A   1      31.222  27.945  22.789  1.00  0.00     0.331 C 
ATOM      5  O   UNL A   1      30.256  28.218  22.079  1.00  0.00    -0.249 OA
BRANCH   4   6
ATOM      6  C   UNL A   1      31.729  26.488  22.980  1.00  0.00     0.132 C 
ATOM      7  C   UNL A   1      32.162  25.924  21.609  1.00  0.00     0.047 C 
BRANCH   6   8
ATOM      8  C   UNL A   1      30.550  25.656  23.552  1.00  0.00     0.037 C 
ATOM      9  C   UNL A   1      30.057  26.059  24.939  1.00  0.00     0.007 C 
ENDBRANCH   6   8
BRANCH   6  10
ATOM     10  N   UNL A   1      32.875  26.250  23.906  1.00  0.00    -0.370 N 
ATOM     11  H   UNL A   1      33.243  27.034  24.372  1.00  0.00     0.161 HD
BRANCH  10  12
ATOM     12  C   UNL A   1      33.468  25.029  24.166  1.00  0.00     0.036 A 
ATOM     13  C   UNL A   1      34.220  24.396  23.169  1.00  0.00     0.026 A 
ATOM     14  C   UNL A   1      33.409  24.440  25.432  1.00  0.00     0.041 A 
ATOM     15  C   UNL A   1      34.859  23.178  23.404  1.00  0.00     0.003 A 
ATOM     16  C   UNL A   1      34.068  23.231  25.674  1.00  0.00     0.020 A 
ATOM     17  C   UNL A   1      34.783  22.592  24.663  1.00  0.00     0.016 A 
ATOM     18  Br  UNL A   1      34.018  22.463  27.401  1.00  0.00    -0.051 Br
ENDBRANCH  10  12
ENDBRANCH   6  10
ENDBRANCH   4   6
ENDBRANCH   3   4
ENDBRANCH   2   3
ENDBRANCH   1   2
BRANCH   1  19
ATOM     19  O   UNL A   1      32.930  30.282  25.881  1.00  0.00    -0.458 OA
BRANCH  19  20
ATOM     20  C   UNL A   1      33.089  31.181  26.878  1.00  0.00     0.338 C 
ATOM     21  O   UNL A   1      32.331  32.082  27.186  1.00  0.00    -0.246 OA
BRANCH  20  22
ATOM     22  C   UNL A   1      34.390  30.938  27.529  1.00  0.00     0.060 A 
ATOM     23  C   UNL A   1      34.746  29.651  27.936  1.00  0.00     0.016 A 
ATOM     24  C   UNL A   1      35.241  32.011  27.785  1.00  0.00     0.016 A 
ATOM     25  C   UNL A   1      35.929  29.432  28.637  1.00  0.00     0.010 A 
ATOM     26  C   UNL A   1      36.459  31.782  28.431  1.00  0.00     0.010 A 
ATOM     27  C   UNL A   1      36.805  30.495  28.879  1.00  0.00    -0.014 A 
BRANCH  27  28
ATOM     28  C   UNL A   1      38.058  30.279  29.650  1.00  0.00     0.031 A 
ATOM     29  C   UNL A   1      39.122  29.378  29.088  1.00  0.00     0.074 A 
ATOM     30  C   UNL A   1      38.240  30.882  30.840  1.00  0.00     0.049 A 
ATOM     31  N   UNL A   1      40.185  28.885  29.666  1.00  0.00    -0.248 NA
ATOM     32  C   UNL A   1      38.952  28.968  27.686  1.00  0.00     0.031 C 
ATOM     33  C   UNL A   1      37.312  31.833  31.458  1.00  0.00     0.029 A 
ATOM     34  N   UNL A   1      39.263  30.782  31.749  1.00  0.00    -0.354 N 
ATOM     35  C   UNL A   1      40.789  28.068  28.717  1.00  0.00     0.074 A 
ATOM     36  C   UNL A   1      39.965  28.129  27.527  1.00  0.00     0.031 C 
ATOM     37  C   UNL A   1      37.815  32.234  32.637  1.00  0.00     0.029 A 
ATOM     38  C   UNL A   1      39.054  31.511  32.897  1.00  0.00     0.049 A 
ATOM     39  H   UNL A   1      40.072  30.240  31.593  1.00  0.00     0.167 HD
ATOM     40  C   UNL A   1      41.921  27.331  28.835  1.00  0.00     0.034 A 
ATOM     41  C   UNL A   1      39.753  31.552  34.048  1.00  0.00     0.034 A 
ATOM     42  C   UNL A   1      42.734  27.304  30.027  1.00  0.00     0.049 A 
ATOM     43  C   UNL A   1      40.977  30.683  34.179  1.00  0.00     0.074 A 
ATOM     44  C   UNL A   1      43.892  26.587  30.271  1.00  0.00     0.029 A 
ATOM     45  N   UNL A   1      42.473  28.037  31.181  1.00  0.00    -0.354 N 
ATOM     46  N   UNL A   1      41.498  29.854  33.304  1.00  0.00    -0.248 NA
ATOM     47  C   UNL A   1      41.699  30.745  35.456  1.00  0.00     0.031 C 
ATOM     48  C   UNL A   1      44.302  26.846  31.584  1.00  0.00     0.029 A 
ATOM     49  C   UNL A   1      43.437  27.775  32.141  1.00  0.00     0.049 A 
ATOM     50  H   UNL A   1      41.714  28.653  31.297  1.00  0.00     0.167 HD
ATOM     51  C   UNL A   1      42.618  29.305  33.922  1.00  0.00     0.074 A 
ATOM     52  C   UNL A   1      42.706  29.913  35.234  1.00  0.00     0.031 C 
ATOM     53  C   UNL A   1      43.495  28.384  33.449  1.00  0.00     0.034 A 
BRANCH  40  54
ATOM     54  C   UNL A   1      42.292  26.444  27.671  1.00  0.00     0.023 A 
ATOM     55  C   UNL A   1      41.841  25.116  27.569  1.00  0.00     0.031 A 
ATOM     56  C   UNL A   1      43.158  26.923  26.671  1.00  0.00     0.131 A 
ATOM     57  C   UNL A   1      42.312  24.295  26.533  1.00  0.00     0.055 A 
ATOM     58  C   UNL A   1      43.563  26.123  25.602  1.00  0.00     0.041 A 
ATOM     59  F   UNL A   1      43.639  28.175  26.728  1.00  0.00    -0.206 F 
ATOM     60  C   UNL A   1      43.154  24.796  25.536  1.00  0.00     0.022 A 
BRANCH  57  61
ATOM     61  S   UNL A   1      41.924  22.522  26.583  1.00  0.00     0.124 S 
ATOM     62  O   UNL A   1      40.473  22.542  26.750  1.00  0.00    -0.237 OA
ATOM     63  O   UNL A   1      42.412  22.057  25.291  1.00  0.00    -0.237 OA
ATOM     64  O   UNL A   1      42.671  22.041  27.742  1.00  0.00    -0.744 OA
ENDBRANCH  57  61
ENDBRANCH  40  54
BRANCH  41  65
ATOM     65  C   UNL A   1      39.275  32.381  35.192  1.00  0.00     0.023 A 
ATOM     66  C   UNL A   1      39.753  33.684  35.395  1.00  0.00     0.031 A 
ATOM     67  C   UNL A   1      38.348  31.865  36.117  1.00  0.00     0.131 A 
ATOM     68  C   UNL A   1      39.325  34.419  36.513  1.00  0.00     0.055 A 
ATOM     69  C   UNL A   1      37.887  32.618  37.198  1.00  0.00     0.041 A 
ATOM     70  F   UNL A   1      37.862  30.623  35.970  1.00  0.00    -0.206 F 
ATOM     71  C   UNL A   1      38.384  33.900  37.407  1.00  0.00     0.022 A 
BRANCH  68  72
ATOM     72  S   UNL A   1      40.067  36.045  36.823  1.00  0.00     0.124 S 
ATOM     73  O   UNL A   1      41.472  35.701  37.005  1.00  0.00    -0.237 OA
ATOM     74  O   UNL A   1      39.734  36.768  35.600  1.00  0.00    -0.237 OA
ATOM     75  O   UNL A   1      39.378  36.510  38.026  1.00  0.00    -0.744 OA
ENDBRANCH  68  72
ENDBRANCH  41  65
BRANCH  53  76
ATOM     76  C   UNL A   1      44.643  28.018  34.354  1.00  0.00     0.023 A 
ATOM     77  C   UNL A   1      44.474  27.149  35.445  1.00  0.00     0.031 A 
ATOM     78  C   UNL A   1      45.917  28.568  34.133  1.00  0.00     0.131 A 
ATOM     79  C   UNL A   1      45.551  26.893  36.305  1.00  0.00     0.055 A 
ATOM     80  C   UNL A   1      46.999  28.269  34.962  1.00  0.00     0.041 A 
ATOM     81  F   UNL A   1      46.129  29.406  33.104  1.00  0.00    -0.206 F 
ATOM     82  C   UNL A   1      46.816  27.437  36.063  1.00  0.00     0.022 A 
BRANCH  79  83
ATOM     83  S   UNL A   1      45.261  25.901  37.796  1.00  0.00     0.124 S 
ATOM     84  O   UNL A   1      44.128  26.591  38.404  1.00  0.00    -0.237 OA
ATOM     85  O   UNL A   1      44.983  24.580  37.244  1.00  0.00    -0.237 OA
ATOM     86  O   UNL A   1      46.520  26.011  38.531  1.00  0.00    -0.744 OA
ENDBRANCH  79  83
ENDBRANCH  53  76
ENDBRANCH  27  28
ENDBRANCH  20  22
ENDBRANCH  19  20
ENDBRANCH   1  19
TORSDOF 17
ENDMDL
