MODEL 1
REMARK VINA RESULT:     -11.0      0.000      0.000
REMARK SMILES C[C@H](NC(=O)NCCc1ccccc1F)C(=O)OCCOC(=O)c1ccc(-c2c3nc(c(-c4cc(S(=O)(=O)[O-])ccc4F)c4ccc([nH]4)c(-c4cc(S(=O)(=O)[O-])ccc4F)c4nc(c(-c5cc(S(=O)(=O)[O-])ccc5F)c5ccc2[nH]5)C=C4)C=C3)cc1
REMARK SMILES IDX 19 1 18 2 16 3 17 4 2 5 1 6 3 7 4 8 5 10 6 11 7 13 8 14 9 15
REMARK SMILES IDX 10 16 14 17 11 18 13 19 15 20 12 21 20 22 21 23 22 24 23 25
REMARK SMILES IDX 24 26 25 27 86 28 26 29 85 30 27 31 28 32 29 33 79 34 30 35
REMARK SMILES IDX 84 36 78 37 80 38 31 39 83 40 77 41 76 42 32 44 64 45 44 46
REMARK SMILES IDX 63 47 45 48 48 49 62 50 81 51 46 52 47 53 61 55 82 56 49 57
REMARK SMILES IDX 33 58 34 59 42 60 35 61 41 62 43 63 40 64 36 65 37 66 38 67
REMARK SMILES IDX 39 68 65 69 66 70 74 71 67 72 73 73 75 74 72 75 68 76 69 77
REMARK SMILES IDX 70 78 71 79 50 80 51 81 59 82 52 83 58 84 60 85 57 86 53 87
REMARK SMILES IDX 54 88 55 89 56 90
REMARK H PARENT 3 9 6 12 80 43 48 54
REMARK Flexibility Score: inf
ROOT
ATOM      1  C   UNL A   1      32.069  28.689  25.281  1.00  0.00     0.274 C 
ENDROOT
BRANCH   1   2
ATOM      2  O   UNL A   1      30.889  27.864  25.295  1.00  0.00    -0.461 OA
BRANCH   2   3
ATOM      3  C   UNL A   1      30.924  26.798  26.142  1.00  0.00     0.328 C 
ATOM      4  O   UNL A   1      31.437  26.811  27.257  1.00  0.00    -0.250 OA
BRANCH   3   5
ATOM      5  C   UNL A   1      30.336  25.522  25.522  1.00  0.00     0.190 C 
ATOM      6  C   UNL A   1      29.317  25.947  24.468  1.00  0.00     0.043 C 
BRANCH   5   7
ATOM      7  N   UNL A   1      29.747  24.587  26.476  1.00  0.00    -0.325 N 
ATOM      8  C   UNL A   1      30.141  23.398  26.958  1.00  0.00     0.315 C 
ATOM      9  H   UNL A   1      28.883  24.889  26.838  1.00  0.00     0.166 HD
ATOM     10  O   UNL A   1      29.397  22.805  27.741  1.00  0.00    -0.249 OA
ATOM     11  N   UNL A   1      31.302  22.807  26.628  1.00  0.00    -0.338 N 
ATOM     12  H   UNL A   1      31.434  21.937  27.070  1.00  0.00     0.165 HD
BRANCH  11  13
ATOM     13  C   UNL A   1      32.406  23.179  25.757  1.00  0.00     0.122 C 
BRANCH  13  14
ATOM     14  C   UNL A   1      33.739  23.393  26.483  1.00  0.00     0.060 C 
BRANCH  14  15
ATOM     15  C   UNL A   1      35.006  22.869  25.855  1.00  0.00    -0.010 A 
ATOM     16  C   UNL A   1      36.020  23.670  25.316  1.00  0.00     0.007 A 
ATOM     17  C   UNL A   1      35.168  21.476  25.795  1.00  0.00     0.126 A 
ATOM     18  C   UNL A   1      37.158  23.083  24.745  1.00  0.00     0.000 A 
ATOM     19  C   UNL A   1      36.295  20.887  25.231  1.00  0.00     0.039 A 
ATOM     20  F   UNL A   1      34.217  20.677  26.299  1.00  0.00    -0.207 F 
ATOM     21  C   UNL A   1      37.297  21.695  24.703  1.00  0.00     0.003 A 
ENDBRANCH  14  15
ENDBRANCH  13  14
ENDBRANCH  11  13
ENDBRANCH   5   7
ENDBRANCH   3   5
ENDBRANCH   2   3
ENDBRANCH   1   2
BRANCH   1  22
ATOM     22  C   UNL A   1      31.793  30.070  25.881  1.00  0.00     0.275 C 
BRANCH  22  23
ATOM     23  O   UNL A   1      32.461  30.267  27.141  1.00  0.00    -0.458 OA
BRANCH  23  24
ATOM     24  C   UNL A   1      33.217  31.390  27.213  1.00  0.00     0.338 C 
ATOM     25  O   UNL A   1      32.856  32.526  26.937  1.00  0.00    -0.246 OA
BRANCH  24  26
ATOM     26  C   UNL A   1      34.538  31.089  27.790  1.00  0.00     0.060 A 
ATOM     27  C   UNL A   1      34.789  29.778  28.211  1.00  0.00     0.016 A 
ATOM     28  C   UNL A   1      35.493  32.090  27.990  1.00  0.00     0.016 A 
ATOM     29  C   UNL A   1      35.996  29.465  28.836  1.00  0.00     0.010 A 
ATOM     30  C   UNL A   1      36.700  31.774  28.624  1.00  0.00     0.010 A 
ATOM     31  C   UNL A   1      36.955  30.462  29.059  1.00  0.00    -0.014 A 
BRANCH  31  32
ATOM     32  C   UNL A   1      38.203  30.141  29.796  1.00  0.00     0.031 A 
ATOM     33  C   UNL A   1      39.220  29.222  29.179  1.00  0.00     0.074 A 
ATOM     34  C   UNL A   1      38.434  30.693  31.001  1.00  0.00     0.049 A 
ATOM     35  N   UNL A   1      40.332  28.760  29.690  1.00  0.00    -0.248 NA
ATOM     36  C   UNL A   1      38.950  28.765  27.808  1.00  0.00     0.031 C 
ATOM     37  C   UNL A   1      37.549  31.643  31.676  1.00  0.00     0.029 A 
ATOM     38  N   UNL A   1      39.487  30.541  31.869  1.00  0.00    -0.354 N 
ATOM     39  C   UNL A   1      40.895  27.951  28.708  1.00  0.00     0.074 A 
ATOM     40  C   UNL A   1      39.988  27.971  27.579  1.00  0.00     0.031 C 
ATOM     41  C   UNL A   1      38.101  31.997  32.848  1.00  0.00     0.029 A 
ATOM     42  C   UNL A   1      39.352  31.264  33.031  1.00  0.00     0.049 A 
ATOM     43  H   UNL A   1      40.264  29.969  31.679  1.00  0.00     0.167 HD
ATOM     44  C   UNL A   1      42.059  27.262  28.747  1.00  0.00     0.034 A 
ATOM     45  C   UNL A   1      40.132  31.311  34.130  1.00  0.00     0.034 A 
ATOM     46  C   UNL A   1      42.957  27.253  29.875  1.00  0.00     0.049 A 
ATOM     47  C   UNL A   1      41.379  30.468  34.183  1.00  0.00     0.074 A 
ATOM     48  C   UNL A   1      44.163  26.585  30.010  1.00  0.00     0.029 A 
ATOM     49  N   UNL A   1      42.749  27.940  31.063  1.00  0.00    -0.354 N 
ATOM     50  N   UNL A   1      41.869  29.663  33.269  1.00  0.00    -0.248 NA
ATOM     51  C   UNL A   1      42.171  30.528  35.420  1.00  0.00     0.031 C 
ATOM     52  C   UNL A   1      44.655  26.823  31.297  1.00  0.00     0.029 A 
ATOM     53  C   UNL A   1      43.790  27.691  31.944  1.00  0.00     0.049 A 
ATOM     54  H   UNL A   1      41.976  28.520  31.251  1.00  0.00     0.167 HD
ATOM     55  C   UNL A   1      43.035  29.135  33.814  1.00  0.00     0.074 A 
ATOM     56  C   UNL A   1      43.178  29.712  35.135  1.00  0.00     0.031 C 
ATOM     57  C   UNL A   1      43.910  28.256  33.266  1.00  0.00     0.034 A 
BRANCH  44  58
ATOM     58  C   UNL A   1      42.412  26.419  27.549  1.00  0.00     0.023 A 
ATOM     59  C   UNL A   1      42.013  25.077  27.446  1.00  0.00     0.031 A 
ATOM     60  C   UNL A   1      43.142  26.979  26.486  1.00  0.00     0.131 A 
ATOM     61  C   UNL A   1      42.379  24.325  26.318  1.00  0.00     0.055 A 
ATOM     62  C   UNL A   1      43.454  26.244  25.342  1.00  0.00     0.041 A 
ATOM     63  F   UNL A   1      43.563  28.252  26.543  1.00  0.00    -0.206 F 
ATOM     64  C   UNL A   1      43.077  24.906  25.256  1.00  0.00     0.022 A 
BRANCH  61  65
ATOM     65  S   UNL A   1      41.994  22.554  26.285  1.00  0.00     0.124 S 
ATOM     66  O   UNL A   1      40.534  22.573  26.215  1.00  0.00    -0.237 OA
ATOM     67  O   UNL A   1      42.686  22.100  25.085  1.00  0.00    -0.237 OA
ATOM     68  O   UNL A   1      42.544  22.060  27.546  1.00  0.00    -0.744 OA
ENDBRANCH  61  65
ENDBRANCH  44  58
BRANCH  45  69
ATOM     69  C   UNL A   1      39.729  32.150  35.290  1.00  0.00     0.023 A 
ATOM     70  C   UNL A   1      38.878  31.652  36.287  1.00  0.00     0.031 A 
ATOM     71  C   UNL A   1      40.195  33.472  35.414  1.00  0.00     0.131 A 
ATOM     72  C   UNL A   1      38.503  32.478  37.359  1.00  0.00     0.055 A 
ATOM     73  C   UNL A   1      39.849  34.276  36.500  1.00  0.00     0.041 A 
ATOM     74  F   UNL A   1      41.014  33.991  34.486  1.00  0.00    -0.206 F 
ATOM     75  C   UNL A   1      38.994  33.781  37.479  1.00  0.00     0.022 A 
BRANCH  72  76
ATOM     76  S   UNL A   1      37.343  31.832  38.596  1.00  0.00     0.124 S 
ATOM     77  O   UNL A   1      37.147  30.464  38.131  1.00  0.00    -0.237 OA
ATOM     78  O   UNL A   1      38.098  31.988  39.835  1.00  0.00    -0.237 OA
ATOM     79  O   UNL A   1      36.182  32.710  38.464  1.00  0.00    -0.744 OA
ENDBRANCH  72  76
ENDBRANCH  45  69
BRANCH  57  80
ATOM     80  C   UNL A   1      45.119  27.881  34.081  1.00  0.00     0.023 A 
ATOM     81  C   UNL A   1      45.123  26.752  34.916  1.00  0.00     0.031 A 
ATOM     82  C   UNL A   1      46.297  28.644  33.985  1.00  0.00     0.131 A 
ATOM     83  C   UNL A   1      46.277  26.428  35.644  1.00  0.00     0.055 A 
ATOM     84  C   UNL A   1      47.456  28.294  34.679  1.00  0.00     0.041 A 
ATOM     85  F   UNL A   1      46.344  29.731  33.198  1.00  0.00    -0.206 F 
ATOM     86  C   UNL A   1      47.448  27.182  35.517  1.00  0.00     0.022 A 
BRANCH  83  87
ATOM     87  S   UNL A   1      46.229  25.017  36.782  1.00  0.00     0.124 S 
ATOM     88  O   UNL A   1      47.353  25.307  37.669  1.00  0.00    -0.237 OA
ATOM     89  O   UNL A   1      44.902  25.134  37.376  1.00  0.00    -0.237 OA
ATOM     90  O   UNL A   1      46.414  23.862  35.906  1.00  0.00    -0.744 OA
ENDBRANCH  83  87
ENDBRANCH  57  80
ENDBRANCH  31  32
ENDBRANCH  24  26
ENDBRANCH  23  24
ENDBRANCH  22  23
ENDBRANCH   1  22
TORSDOF 18
ENDMDL
MODEL 2
REMARK VINA RESULT:     -10.9      4.686      9.804
REMARK SMILES C[C@H](NC(=O)NCCc1ccccc1F)C(=O)OCCOC(=O)c1ccc(-c2c3nc(c(-c4cc(S(=O)(=O)[O-])ccc4F)c4ccc([nH]4)c(-c4cc(S(=O)(=O)[O-])ccc4F)c4nc(c(-c5cc(S(=O)(=O)[O-])ccc5F)c5ccc2[nH]5)C=C4)C=C3)cc1
REMARK SMILES IDX 19 1 18 2 16 3 17 4 2 5 1 6 3 7 4 8 5 10 6 11 7 13 8 14 9 15
REMARK SMILES IDX 10 16 14 17 11 18 13 19 15 20 12 21 20 22 21 23 22 24 23 25
REMARK SMILES IDX 24 26 25 27 86 28 26 29 85 30 27 31 28 32 29 33 79 34 30 35
REMARK SMILES IDX 84 36 78 37 80 38 31 39 83 40 77 41 76 42 32 44 64 45 44 46
REMARK SMILES IDX 63 47 45 48 48 49 62 50 81 51 46 52 47 53 61 55 82 56 49 57
REMARK SMILES IDX 33 58 34 59 42 60 35 61 41 62 43 63 40 64 36 65 37 66 38 67
REMARK SMILES IDX 39 68 65 69 66 70 74 71 67 72 73 73 75 74 72 75 68 76 69 77
REMARK SMILES IDX 70 78 71 79 50 80 51 81 59 82 52 83 58 84 60 85 57 86 53 87
REMARK SMILES IDX 54 88 55 89 56 90
REMARK H PARENT 3 9 6 12 80 43 48 54
REMARK Flexibility Score: inf
ROOT
ATOM      1  C   UNL A   1      35.100  22.325  24.253  1.00  0.00     0.274 C 
ENDROOT
BRANCH   1   2
ATOM      2  O   UNL A   1      33.757  21.806  24.271  1.00  0.00    -0.461 OA
BRANCH   2   3
ATOM      3  C   UNL A   1      33.283  21.437  25.493  1.00  0.00     0.328 C 
ATOM      4  O   UNL A   1      33.149  20.276  25.866  1.00  0.00    -0.250 OA
BRANCH   3   5
ATOM      5  C   UNL A   1      32.833  22.632  26.347  1.00  0.00     0.190 C 
ATOM      6  C   UNL A   1      33.935  22.914  27.366  1.00  0.00     0.043 C 
BRANCH   5   7
ATOM      7  N   UNL A   1      31.539  22.471  27.002  1.00  0.00    -0.325 N 
ATOM      8  C   UNL A   1      30.394  23.170  26.958  1.00  0.00     0.315 C 
ATOM      9  H   UNL A   1      31.497  21.690  27.600  1.00  0.00     0.166 HD
ATOM     10  O   UNL A   1      29.457  22.809  27.671  1.00  0.00    -0.249 OA
ATOM     11  N   UNL A   1      30.212  24.254  26.185  1.00  0.00    -0.338 N 
ATOM     12  H   UNL A   1      29.314  24.648  26.275  1.00  0.00     0.165 HD
BRANCH  11  13
ATOM     13  C   UNL A   1      31.059  24.969  25.242  1.00  0.00     0.122 C 
BRANCH  13  14
ATOM     14  C   UNL A   1      30.846  26.487  25.230  1.00  0.00     0.060 C 
BRANCH  14  15
ATOM     15  C   UNL A   1      31.985  27.388  25.641  1.00  0.00    -0.010 A 
ATOM     16  C   UNL A   1      33.112  27.659  24.857  1.00  0.00     0.007 A 
ATOM     17  C   UNL A   1      31.909  27.983  26.910  1.00  0.00     0.126 A 
ATOM     18  C   UNL A   1      34.121  28.506  25.335  1.00  0.00     0.000 A 
ATOM     19  C   UNL A   1      32.906  28.825  27.391  1.00  0.00     0.039 A 
ATOM     20  F   UNL A   1      30.845  27.745  27.690  1.00  0.00    -0.207 F 
ATOM     21  C   UNL A   1      34.019  29.089  26.599  1.00  0.00     0.003 A 
ENDBRANCH  14  15
ENDBRANCH  13  14
ENDBRANCH  11  13
ENDBRANCH   5   7
ENDBRANCH   3   5
ENDBRANCH   2   3
ENDBRANCH   1   2
BRANCH   1  22
ATOM     22  C   UNL A   1      36.126  21.231  24.563  1.00  0.00     0.275 C 
BRANCH  22  23
ATOM     23  O   UNL A   1      36.804  21.451  25.813  1.00  0.00    -0.458 OA
BRANCH  23  24
ATOM     24  C   UNL A   1      38.142  21.234  25.779  1.00  0.00     0.338 C 
ATOM     25  O   UNL A   1      38.706  20.258  25.305  1.00  0.00    -0.246 OA
BRANCH  24  26
ATOM     26  C   UNL A   1      38.869  22.405  26.299  1.00  0.00     0.060 A 
ATOM     27  C   UNL A   1      38.344  23.675  26.039  1.00  0.00     0.016 A 
ATOM     28  C   UNL A   1      40.090  22.268  26.965  1.00  0.00     0.016 A 
ATOM     29  C   UNL A   1      39.040  24.814  26.442  1.00  0.00     0.010 A 
ATOM     30  C   UNL A   1      40.791  23.413  27.362  1.00  0.00     0.010 A 
ATOM     31  C   UNL A   1      40.275  24.693  27.094  1.00  0.00    -0.014 A 
BRANCH  31  32
ATOM     32  C   UNL A   1      41.049  25.909  27.449  1.00  0.00     0.031 A 
ATOM     33  C   UNL A   1      40.421  26.973  28.306  1.00  0.00     0.074 A 
ATOM     34  C   UNL A   1      42.321  26.044  27.029  1.00  0.00     0.049 A 
ATOM     35  N   UNL A   1      40.901  28.136  28.661  1.00  0.00    -0.248 NA
ATOM     36  C   UNL A   1      39.076  26.689  28.830  1.00  0.00     0.031 C 
ATOM     37  C   UNL A   1      43.056  25.054  26.241  1.00  0.00     0.029 A 
ATOM     38  N   UNL A   1      43.221  27.065  27.209  1.00  0.00    -0.354 N 
ATOM     39  C   UNL A   1      39.919  28.730  29.446  1.00  0.00     0.074 A 
ATOM     40  C   UNL A   1      38.806  27.804  29.495  1.00  0.00     0.031 C 
ATOM     41  C   UNL A   1      44.299  25.511  26.016  1.00  0.00     0.029 A 
ATOM     42  C   UNL A   1      44.433  26.845  26.599  1.00  0.00     0.049 A 
ATOM     43  H   UNL A   1      43.018  27.876  27.726  1.00  0.00     0.167 HD
ATOM     44  C   UNL A   1      39.946  29.932  30.068  1.00  0.00     0.034 A 
ATOM     45  C   UNL A   1      45.519  27.638  26.496  1.00  0.00     0.034 A 
ATOM     46  C   UNL A   1      41.061  30.845  30.016  1.00  0.00     0.049 A 
ATOM     47  C   UNL A   1      45.493  29.006  27.123  1.00  0.00     0.074 A 
ATOM     48  C   UNL A   1      41.185  32.087  30.614  1.00  0.00     0.029 A 
ATOM     49  N   UNL A   1      42.243  30.618  29.326  1.00  0.00    -0.354 N 
ATOM     50  N   UNL A   1      44.534  29.577  27.815  1.00  0.00    -0.248 NA
ATOM     51  C   UNL A   1      46.689  29.842  26.948  1.00  0.00     0.031 C 
ATOM     52  C   UNL A   1      42.416  32.635  30.241  1.00  0.00     0.029 A 
ATOM     53  C   UNL A   1      43.089  31.707  29.462  1.00  0.00     0.049 A 
ATOM     54  H   UNL A   1      42.451  29.801  28.816  1.00  0.00     0.167 HD
ATOM     55  C   UNL A   1      45.017  30.832  28.169  1.00  0.00     0.074 A 
ATOM     56  C   UNL A   1      46.354  30.936  27.619  1.00  0.00     0.031 C 
ATOM     57  C   UNL A   1      44.410  31.807  28.891  1.00  0.00     0.034 A 
BRANCH  44  58
ATOM     58  C   UNL A   1      38.714  30.355  30.824  1.00  0.00     0.023 A 
ATOM     59  C   UNL A   1      37.673  31.065  30.205  1.00  0.00     0.031 A 
ATOM     60  C   UNL A   1      38.574  30.022  32.183  1.00  0.00     0.131 A 
ATOM     61  C   UNL A   1      36.551  31.453  30.954  1.00  0.00     0.055 A 
ATOM     62  C   UNL A   1      37.431  30.360  32.909  1.00  0.00     0.041 A 
ATOM     63  F   UNL A   1      39.548  29.360  32.827  1.00  0.00    -0.206 F 
ATOM     64  C   UNL A   1      36.414  31.086  32.296  1.00  0.00     0.022 A 
BRANCH  61  65
ATOM     65  S   UNL A   1      35.301  32.509  30.173  1.00  0.00     0.124 S 
ATOM     66  O   UNL A   1      36.094  33.679  29.805  1.00  0.00    -0.237 OA
ATOM     67  O   UNL A   1      34.831  31.681  29.068  1.00  0.00    -0.237 OA
ATOM     68  O   UNL A   1      34.327  32.733  31.240  1.00  0.00    -0.744 OA
ENDBRANCH  61  65
ENDBRANCH  44  58
BRANCH  45  69
ATOM     69  C   UNL A   1      46.704  27.174  25.725  1.00  0.00     0.023 A 
ATOM     70  C   UNL A   1      46.959  27.648  24.430  1.00  0.00     0.031 A 
ATOM     71  C   UNL A   1      47.601  26.244  26.281  1.00  0.00     0.131 A 
ATOM     72  C   UNL A   1      48.077  27.177  23.724  1.00  0.00     0.055 A 
ATOM     73  C   UNL A   1      48.731  25.807  25.590  1.00  0.00     0.041 A 
ATOM     74  F   UNL A   1      47.399  25.765  27.519  1.00  0.00    -0.206 F 
ATOM     75  C   UNL A   1      48.972  26.270  24.300  1.00  0.00     0.022 A 
BRANCH  72  76
ATOM     76  S   UNL A   1      48.344  27.751  22.023  1.00  0.00     0.124 S 
ATOM     77  O   UNL A   1      47.176  28.598  21.811  1.00  0.00    -0.237 OA
ATOM     78  O   UNL A   1      49.627  28.439  22.130  1.00  0.00    -0.237 OA
ATOM     79  O   UNL A   1      48.368  26.513  21.247  1.00  0.00    -0.744 OA
ENDBRANCH  72  76
ENDBRANCH  45  69
BRANCH  57  80
ATOM     80  C   UNL A   1      45.194  33.066  29.154  1.00  0.00     0.023 A 
ATOM     81  C   UNL A   1      46.040  33.186  30.269  1.00  0.00     0.031 A 
ATOM     82  C   UNL A   1      45.123  34.141  28.250  1.00  0.00     0.131 A 
ATOM     83  C   UNL A   1      46.768  34.369  30.465  1.00  0.00     0.055 A 
ATOM     84  C   UNL A   1      45.881  35.299  28.428  1.00  0.00     0.041 A 
ATOM     85  F   UNL A   1      44.332  34.072  27.168  1.00  0.00    -0.206 F 
ATOM     86  C   UNL A   1      46.707  35.419  29.544  1.00  0.00     0.022 A 
BRANCH  83  87
ATOM     87  S   UNL A   1      47.785  34.535  31.958  1.00  0.00     0.124 S 
ATOM     88  O   UNL A   1      48.976  33.771  31.596  1.00  0.00    -0.237 OA
ATOM     89  O   UNL A   1      47.962  35.979  32.063  1.00  0.00    -0.237 OA
ATOM     90  O   UNL A   1      46.959  33.936  33.004  1.00  0.00    -0.744 OA
ENDBRANCH  83  87
ENDBRANCH  57  80
ENDBRANCH  31  32
ENDBRANCH  24  26
ENDBRANCH  23  24
ENDBRANCH  22  23
ENDBRANCH   1  22
TORSDOF 18
ENDMDL
MODEL 3
REMARK VINA RESULT:     -10.9      5.155     10.144
REMARK SMILES C[C@H](NC(=O)NCCc1ccccc1F)C(=O)OCCOC(=O)c1ccc(-c2c3nc(c(-c4cc(S(=O)(=O)[O-])ccc4F)c4ccc([nH]4)c(-c4cc(S(=O)(=O)[O-])ccc4F)c4nc(c(-c5cc(S(=O)(=O)[O-])ccc5F)c5ccc2[nH]5)C=C4)C=C3)cc1
REMARK SMILES IDX 19 1 18 2 16 3 17 4 2 5 1 6 3 7 4 8 5 10 6 11 7 13 8 14 9 15
REMARK SMILES IDX 10 16 14 17 11 18 13 19 15 20 12 21 20 22 21 23 22 24 23 25
REMARK SMILES IDX 24 26 25 27 86 28 26 29 85 30 27 31 28 32 29 33 79 34 30 35
REMARK SMILES IDX 84 36 78 37 80 38 31 39 83 40 77 41 76 42 32 44 64 45 44 46
REMARK SMILES IDX 63 47 45 48 48 49 62 50 81 51 46 52 47 53 61 55 82 56 49 57
REMARK SMILES IDX 33 58 34 59 42 60 35 61 41 62 43 63 40 64 36 65 37 66 38 67
REMARK SMILES IDX 39 68 65 69 66 70 74 71 67 72 73 73 75 74 72 75 68 76 69 77
REMARK SMILES IDX 70 78 71 79 50 80 51 81 59 82 52 83 58 84 60 85 57 86 53 87
REMARK SMILES IDX 54 88 55 89 56 90
REMARK H PARENT 3 9 6 12 80 43 48 54
REMARK Flexibility Score: inf
ROOT
ATOM      1  C   UNL A   1      35.248  20.601  24.952  1.00  0.00     0.274 C 
ENDROOT
BRANCH   1   2
ATOM      2  O   UNL A   1      34.882  21.983  25.119  1.00  0.00    -0.461 OA
BRANCH   2   3
ATOM      3  C   UNL A   1      33.819  22.218  25.937  1.00  0.00     0.328 C 
ATOM      4  O   UNL A   1      33.600  21.616  26.984  1.00  0.00    -0.250 OA
BRANCH   3   5
ATOM      5  C   UNL A   1      32.846  23.262  25.370  1.00  0.00     0.190 C 
ATOM      6  C   UNL A   1      31.453  22.636  25.355  1.00  0.00     0.043 C 
BRANCH   5   7
ATOM      7  N   UNL A   1      33.200  23.786  24.054  1.00  0.00    -0.325 N 
ATOM      8  C   UNL A   1      33.585  24.998  23.623  1.00  0.00     0.315 C 
ATOM      9  H   UNL A   1      33.145  23.115  23.337  1.00  0.00     0.166 HD
ATOM     10  O   UNL A   1      33.781  25.157  22.417  1.00  0.00    -0.249 OA
ATOM     11  N   UNL A   1      33.760  26.056  24.431  1.00  0.00    -0.338 N 
ATOM     12  H   UNL A   1      34.041  26.869  23.951  1.00  0.00     0.165 HD
BRANCH  11  13
ATOM     13  C   UNL A   1      33.623  26.258  25.866  1.00  0.00     0.122 C 
BRANCH  13  14
ATOM     14  C   UNL A   1      32.302  26.912  26.287  1.00  0.00     0.060 C 
BRANCH  14  15
ATOM     15  C   UNL A   1      31.250  27.177  25.238  1.00  0.00    -0.010 A 
ATOM     16  C   UNL A   1      30.289  26.249  24.820  1.00  0.00     0.007 A 
ATOM     17  C   UNL A   1      31.249  28.442  24.631  1.00  0.00     0.126 A 
ATOM     18  C   UNL A   1      29.358  26.590  23.829  1.00  0.00     0.000 A 
ATOM     19  C   UNL A   1      30.327  28.788  23.648  1.00  0.00     0.039 A 
ATOM     20  F   UNL A   1      32.156  29.356  25.004  1.00  0.00    -0.207 F 
ATOM     21  C   UNL A   1      29.375  27.858  23.245  1.00  0.00     0.003 A 
ENDBRANCH  14  15
ENDBRANCH  13  14
ENDBRANCH  11  13
ENDBRANCH   5   7
ENDBRANCH   3   5
ENDBRANCH   2   3
ENDBRANCH   1   2
BRANCH   1  22
ATOM     22  C   UNL A   1      36.766  20.414  25.008  1.00  0.00     0.275 C 
BRANCH  22  23
ATOM     23  O   UNL A   1      37.425  21.470  25.732  1.00  0.00    -0.458 OA
BRANCH  23  24
ATOM     24  C   UNL A   1      38.737  21.250  25.989  1.00  0.00     0.338 C 
ATOM     25  O   UNL A   1      39.363  20.228  25.741  1.00  0.00    -0.246 OA
BRANCH  24  26
ATOM     26  C   UNL A   1      39.372  22.468  26.521  1.00  0.00     0.060 A 
ATOM     27  C   UNL A   1      38.942  23.704  26.028  1.00  0.00     0.016 A 
ATOM     28  C   UNL A   1      40.429  22.401  27.434  1.00  0.00     0.016 A 
ATOM     29  C   UNL A   1      39.568  24.878  26.443  1.00  0.00     0.010 A 
ATOM     30  C   UNL A   1      41.061  23.580  27.844  1.00  0.00     0.010 A 
ATOM     31  C   UNL A   1      40.642  24.825  27.343  1.00  0.00    -0.014 A 
BRANCH  31  32
ATOM     32  C   UNL A   1      41.357  26.070  27.720  1.00  0.00     0.031 A 
ATOM     33  C   UNL A   1      40.655  27.119  28.537  1.00  0.00     0.074 A 
ATOM     34  C   UNL A   1      42.640  26.246  27.354  1.00  0.00     0.049 A 
ATOM     35  N   UNL A   1      41.078  28.301  28.902  1.00  0.00    -0.248 NA
ATOM     36  C   UNL A   1      39.299  26.792  29.005  1.00  0.00     0.031 C 
ATOM     37  C   UNL A   1      43.444  25.276  26.610  1.00  0.00     0.029 A 
ATOM     38  N   UNL A   1      43.496  27.299  27.564  1.00  0.00    -0.354 N 
ATOM     39  C   UNL A   1      40.042  28.866  29.637  1.00  0.00     0.074 A 
ATOM     40  C   UNL A   1      38.961  27.902  29.647  1.00  0.00     0.031 C 
ATOM     41  C   UNL A   1      44.679  25.775  26.435  1.00  0.00     0.029 A 
ATOM     42  C   UNL A   1      44.740  27.117  27.010  1.00  0.00     0.049 A 
ATOM     43  H   UNL A   1      43.242  28.108  28.064  1.00  0.00     0.167 HD
ATOM     44  C   UNL A   1      40.000  30.074  30.249  1.00  0.00     0.034 A 
ATOM     45  C   UNL A   1      45.802  27.946  26.947  1.00  0.00     0.034 A 
ATOM     46  C   UNL A   1      41.084  31.025  30.236  1.00  0.00     0.049 A 
ATOM     47  C   UNL A   1      45.701  29.318  27.559  1.00  0.00     0.074 A 
ATOM     48  C   UNL A   1      41.138  32.276  30.827  1.00  0.00     0.029 A 
ATOM     49  N   UNL A   1      42.303  30.833  29.601  1.00  0.00    -0.354 N 
ATOM     50  N   UNL A   1      44.693  29.861  28.202  1.00  0.00    -0.248 NA
ATOM     51  C   UNL A   1      46.873  30.194  27.428  1.00  0.00     0.031 C 
ATOM     52  C   UNL A   1      42.365  32.863  30.502  1.00  0.00     0.029 A 
ATOM     53  C   UNL A   1      43.104  31.953  29.763  1.00  0.00     0.049 A 
ATOM     54  H   UNL A   1      42.561  30.021  29.108  1.00  0.00     0.167 HD
ATOM     55  C   UNL A   1      45.116  31.135  28.565  1.00  0.00     0.074 A 
ATOM     56  C   UNL A   1      46.471  31.282  28.073  1.00  0.00     0.031 C 
ATOM     57  C   UNL A   1      44.444  32.094  29.250  1.00  0.00     0.034 A 
BRANCH  44  58
ATOM     58  C   UNL A   1      38.722  30.459  30.946  1.00  0.00     0.023 A 
ATOM     59  C   UNL A   1      37.698  31.153  30.282  1.00  0.00     0.031 A 
ATOM     60  C   UNL A   1      38.522  30.107  32.292  1.00  0.00     0.131 A 
ATOM     61  C   UNL A   1      36.531  31.507  30.977  1.00  0.00     0.055 A 
ATOM     62  C   UNL A   1      37.336  30.411  32.962  1.00  0.00     0.041 A 
ATOM     63  F   UNL A   1      39.477  29.460  32.977  1.00  0.00    -0.206 F 
ATOM     64  C   UNL A   1      36.334  31.120  32.306  1.00  0.00     0.022 A 
BRANCH  61  65
ATOM     65  S   UNL A   1      35.297  32.543  30.145  1.00  0.00     0.124 S 
ATOM     66  O   UNL A   1      34.334  32.771  31.220  1.00  0.00    -0.237 OA
ATOM     67  O   UNL A   1      36.081  33.701  29.732  1.00  0.00    -0.237 OA
ATOM     68  O   UNL A   1      34.817  31.695  29.055  1.00  0.00    -0.744 OA
ENDBRANCH  61  65
ENDBRANCH  44  58
BRANCH  45  69
ATOM     69  C   UNL A   1      47.035  27.519  26.233  1.00  0.00     0.023 A 
ATOM     70  C   UNL A   1      47.207  27.769  24.864  1.00  0.00     0.031 A 
ATOM     71  C   UNL A   1      48.064  26.848  26.920  1.00  0.00     0.131 A 
ATOM     72  C   UNL A   1      48.376  27.335  24.218  1.00  0.00     0.055 A 
ATOM     73  C   UNL A   1      49.240  26.453  26.282  1.00  0.00     0.041 A 
ATOM     74  F   UNL A   1      47.946  26.590  28.232  1.00  0.00    -0.206 F 
ATOM     75  C   UNL A   1      49.398  26.692  24.921  1.00  0.00     0.022 A 
BRANCH  72  76
ATOM     76  S   UNL A   1      48.540  27.608  22.432  1.00  0.00     0.124 S 
ATOM     77  O   UNL A   1      47.322  28.353  22.134  1.00  0.00    -0.237 OA
ATOM     78  O   UNL A   1      49.789  28.357  22.350  1.00  0.00    -0.237 OA
ATOM     79  O   UNL A   1      48.594  26.253  21.886  1.00  0.00    -0.744 OA
ENDBRANCH  72  76
ENDBRANCH  45  69
BRANCH  57  80
ATOM     80  C   UNL A   1      45.172  33.382  29.534  1.00  0.00     0.023 A 
ATOM     81  C   UNL A   1      45.072  34.489  28.676  1.00  0.00     0.031 A 
ATOM     82  C   UNL A   1      45.941  33.512  30.705  1.00  0.00     0.131 A 
ATOM     83  C   UNL A   1      45.751  35.675  28.988  1.00  0.00     0.055 A 
ATOM     84  C   UNL A   1      46.580  34.708  31.032  1.00  0.00     0.041 A 
ATOM     85  F   UNL A   1      46.065  32.483  31.558  1.00  0.00    -0.206 F 
ATOM     86  C   UNL A   1      46.490  35.797  30.169  1.00  0.00     0.022 A 
BRANCH  83  87
ATOM     87  S   UNL A   1      45.678  37.061  27.820  1.00  0.00     0.124 S 
ATOM     88  O   UNL A   1      45.073  38.111  28.636  1.00  0.00    -0.237 OA
ATOM     89  O   UNL A   1      47.081  37.255  27.470  1.00  0.00    -0.237 OA
ATOM     90  O   UNL A   1      44.836  36.555  26.739  1.00  0.00    -0.744 OA
ENDBRANCH  83  87
ENDBRANCH  57  80
ENDBRANCH  31  32
ENDBRANCH  24  26
ENDBRANCH  23  24
ENDBRANCH  22  23
ENDBRANCH   1  22
TORSDOF 18
ENDMDL
