MODEL 1
REMARK VINA RESULT:     -10.7      0.000      0.000
REMARK SMILES C[C@H]1C[C@](C(=O)OCCOC(=O)c2ccc(-c3c4nc(c(-c5cc(S(=O)(=O)[O-])ccc5F)c5ccc([nH]5)c(-c5cc(S(=O)(=O)[O-])ccc5F)c5nc(c(-c6cc(S(=O)(=O)[O-])ccc6F)c6ccc3[nH]6)C=C5)C=C4)cc2)(N(C=O)C2CC2)CS1
REMARK SMILES IDX 9 1 8 2 7 3 5 4 6 5 4 6 1 7 2 8 3 9 83 10 82 11 76 12 77 13
REMARK SMILES IDX 78 14 79 15 80 16 81 17 10 18 11 19 12 20 13 21 14 22 75 23
REMARK SMILES IDX 15 24 74 25 16 26 17 27 18 28 68 29 19 30 73 31 67 32 69 33
REMARK SMILES IDX 20 34 72 35 66 36 65 37 21 39 53 40 33 41 52 42 34 43 37 44
REMARK SMILES IDX 51 45 70 46 35 47 36 48 50 50 71 51 38 52 22 53 23 54 31 55
REMARK SMILES IDX 24 56 30 57 32 58 29 59 25 60 26 61 27 62 28 63 54 64 55 65
REMARK SMILES IDX 63 66 56 67 62 68 64 69 61 70 57 71 58 72 59 73 60 74 39 75
REMARK SMILES IDX 40 76 48 77 41 78 47 79 49 80 46 81 42 82 43 83 44 84 45 85
REMARK H PARENT 69 38 37 49
REMARK Flexibility Score: inf
ROOT
ATOM      1  C   UNL A   1      36.987  21.773  23.929  1.00  0.00     0.275 C 
ENDROOT
BRANCH   1   2
ATOM      2  C   UNL A   1      36.583  23.146  23.399  1.00  0.00     0.274 C 
BRANCH   2   3
ATOM      3  O   UNL A   1      35.374  23.659  24.006  1.00  0.00    -0.460 OA
BRANCH   3   4
ATOM      4  C   UNL A   1      34.220  23.195  23.437  1.00  0.00     0.333 C 
ATOM      5  O   UNL A   1      34.061  23.107  22.220  1.00  0.00    -0.249 OA
BRANCH   4   6
ATOM      6  C   UNL A   1      33.039  23.135  24.438  1.00  0.00     0.150 C 
ATOM      7  C   UNL A   1      31.515  25.579  22.669  1.00  0.00     0.019 C 
ATOM      8  C   UNL A   1      31.057  24.614  23.759  1.00  0.00     0.046 C 
ATOM      9  C   UNL A   1      31.681  23.216  23.666  1.00  0.00     0.055 C 
ATOM     10  S   UNL A   1      31.593  25.193  25.389  1.00  0.00    -0.156 SA
ATOM     11  C   UNL A   1      33.242  24.494  25.176  1.00  0.00     0.110 C 
BRANCH   6  12
ATOM     12  N   UNL A   1      33.031  21.934  25.358  1.00  0.00    -0.325 N 
BRANCH  12  13
ATOM     13  C   UNL A   1      33.328  22.004  26.717  1.00  0.00     0.341 C 
ATOM     14  O   UNL A   1      34.330  21.551  27.261  1.00  0.00    -0.279 OA
ENDBRANCH  12  13
BRANCH  12  15
ATOM     15  C   UNL A   1      32.325  20.720  24.965  1.00  0.00     0.086 C 
ATOM     16  C   UNL A   1      32.478  19.978  23.682  1.00  0.00     0.027 C 
ATOM     17  C   UNL A   1      33.042  19.393  24.938  1.00  0.00     0.027 C 
ENDBRANCH  12  15
ENDBRANCH   6  12
ENDBRANCH   4   6
ENDBRANCH   3   4
ENDBRANCH   2   3
ENDBRANCH   1   2
BRANCH   1  18
ATOM     18  O   UNL A   1      37.151  21.820  25.353  1.00  0.00    -0.458 OA
BRANCH  18  19
ATOM     19  C   UNL A   1      38.400  21.561  25.803  1.00  0.00     0.338 C 
ATOM     20  O   UNL A   1      39.043  20.538  25.578  1.00  0.00    -0.246 OA
BRANCH  19  21
ATOM     21  C   UNL A   1      38.959  22.718  26.545  1.00  0.00     0.060 A 
ATOM     22  C   UNL A   1      38.454  24.012  26.395  1.00  0.00     0.016 A 
ATOM     23  C   UNL A   1      40.125  22.526  27.294  1.00  0.00     0.016 A 
ATOM     24  C   UNL A   1      39.206  25.108  26.826  1.00  0.00     0.010 A 
ATOM     25  C   UNL A   1      40.803  23.622  27.837  1.00  0.00     0.010 A 
ATOM     26  C   UNL A   1      40.389  24.934  27.561  1.00  0.00    -0.014 A 
BRANCH  26  27
ATOM     27  C   UNL A   1      41.207  26.095  28.030  1.00  0.00     0.031 A 
ATOM     28  C   UNL A   1      40.576  27.210  28.833  1.00  0.00     0.074 A 
ATOM     29  C   UNL A   1      42.514  26.185  27.709  1.00  0.00     0.049 A 
ATOM     30  N   UNL A   1      41.028  28.414  29.083  1.00  0.00    -0.248 NA
ATOM     31  C   UNL A   1      39.252  26.940  29.412  1.00  0.00     0.031 C 
ATOM     32  C   UNL A   1      43.281  25.180  26.973  1.00  0.00     0.029 A 
ATOM     33  N   UNL A   1      43.427  27.186  27.946  1.00  0.00    -0.354 N 
ATOM     34  C   UNL A   1      40.020  29.067  29.790  1.00  0.00     0.074 A 
ATOM     35  C   UNL A   1      38.931  28.120  29.923  1.00  0.00     0.031 C 
ATOM     36  C   UNL A   1      44.545  25.599  26.836  1.00  0.00     0.029 A 
ATOM     37  C   UNL A   1      44.651  26.953  27.364  1.00  0.00     0.049 A 
ATOM     38  H   UNL A   1      43.225  27.988  28.480  1.00  0.00     0.167 HD
ATOM     39  C   UNL A   1      40.003  30.337  30.272  1.00  0.00     0.034 A 
ATOM     40  C   UNL A   1      45.719  27.754  27.186  1.00  0.00     0.034 A 
ATOM     41  C   UNL A   1      41.118  31.254  30.172  1.00  0.00     0.049 A 
ATOM     42  C   UNL A   1      45.672  29.166  27.687  1.00  0.00     0.074 A 
ATOM     43  C   UNL A   1      41.220  32.546  30.664  1.00  0.00     0.029 A 
ATOM     44  N   UNL A   1      42.326  30.979  29.543  1.00  0.00    -0.354 N 
ATOM     45  N   UNL A   1      44.685  29.798  28.277  1.00  0.00    -0.248 NA
ATOM     46  C   UNL A   1      46.880  29.974  27.487  1.00  0.00     0.031 C 
ATOM     47  C   UNL A   1      42.460  33.071  30.278  1.00  0.00     0.029 A 
ATOM     48  C   UNL A   1      43.165  32.084  29.611  1.00  0.00     0.049 A 
ATOM     49  H   UNL A   1      42.554  30.125  29.112  1.00  0.00     0.167 HD
ATOM     50  C   UNL A   1      45.153  31.086  28.516  1.00  0.00     0.074 A 
ATOM     51  C   UNL A   1      46.519  31.127  28.031  1.00  0.00     0.031 C 
ATOM     52  C   UNL A   1      44.509  32.137  29.083  1.00  0.00     0.034 A 
BRANCH  39  53
ATOM     53  C   UNL A   1      38.718  30.839  30.896  1.00  0.00     0.023 A 
ATOM     54  C   UNL A   1      37.671  31.385  30.135  1.00  0.00     0.031 A 
ATOM     55  C   UNL A   1      38.545  30.770  32.292  1.00  0.00     0.131 A 
ATOM     56  C   UNL A   1      36.527  31.891  30.775  1.00  0.00     0.055 A 
ATOM     57  C   UNL A   1      37.374  31.206  32.916  1.00  0.00     0.041 A 
ATOM     58  F   UNL A   1      39.516  30.277  33.077  1.00  0.00    -0.206 F 
ATOM     59  C   UNL A   1      36.361  31.783  32.158  1.00  0.00     0.022 A 
BRANCH  56  60
ATOM     60  S   UNL A   1      35.316  32.819  29.792  1.00  0.00     0.124 S 
ATOM     61  O   UNL A   1      34.891  31.813  28.822  1.00  0.00    -0.237 OA
ATOM     62  O   UNL A   1      34.328  33.202  30.794  1.00  0.00    -0.237 OA
ATOM     63  O   UNL A   1      36.099  33.920  29.233  1.00  0.00    -0.744 OA
ENDBRANCH  56  60
ENDBRANCH  39  53
BRANCH  40  64
ATOM     64  C   UNL A   1      46.879  27.250  26.401  1.00  0.00     0.023 A 
ATOM     65  C   UNL A   1      47.062  27.612  25.060  1.00  0.00     0.031 A 
ATOM     66  C   UNL A   1      47.848  26.430  27.010  1.00  0.00     0.131 A 
ATOM     67  C   UNL A   1      48.192  27.151  24.367  1.00  0.00     0.055 A 
ATOM     68  C   UNL A   1      48.991  26.014  26.331  1.00  0.00     0.041 A 
ATOM     69  F   UNL A   1      47.718  26.067  28.296  1.00  0.00    -0.206 F 
ATOM     70  C   UNL A   1      49.166  26.371  24.998  1.00  0.00     0.022 A 
BRANCH  67  71
ATOM     71  S   UNL A   1      48.365  27.571  22.612  1.00  0.00     0.124 S 
ATOM     72  O   UNL A   1      47.163  28.362  22.375  1.00  0.00    -0.237 OA
ATOM     73  O   UNL A   1      49.628  28.302  22.598  1.00  0.00    -0.237 OA
ATOM     74  O   UNL A   1      48.397  26.267  21.951  1.00  0.00    -0.744 OA
ENDBRANCH  67  71
ENDBRANCH  40  64
BRANCH  52  75
ATOM     75  C   UNL A   1      45.300  33.414  29.220  1.00  0.00     0.023 A 
ATOM     76  C   UNL A   1      45.317  34.380  28.198  1.00  0.00     0.031 A 
ATOM     77  C   UNL A   1      46.094  33.639  30.358  1.00  0.00     0.131 A 
ATOM     78  C   UNL A   1      46.165  35.493  28.302  1.00  0.00     0.055 A 
ATOM     79  C   UNL A   1      46.890  34.778  30.483  1.00  0.00     0.041 A 
ATOM     80  F   UNL A   1      46.119  32.747  31.361  1.00  0.00    -0.206 F 
ATOM     81  C   UNL A   1      46.942  35.705  29.445  1.00  0.00     0.022 A 
BRANCH  78  82
ATOM     82  S   UNL A   1      46.330  36.600  26.875  1.00  0.00     0.124 S 
ATOM     83  O   UNL A   1      47.626  37.224  27.123  1.00  0.00    -0.237 OA
ATOM     84  O   UNL A   1      46.272  35.671  25.751  1.00  0.00    -0.237 OA
ATOM     85  O   UNL A   1      45.179  37.494  26.999  1.00  0.00    -0.744 OA
ENDBRANCH  78  82
ENDBRANCH  52  75
ENDBRANCH  26  27
ENDBRANCH  19  21
ENDBRANCH  18  19
ENDBRANCH   1  18
TORSDOF 17
ENDMDL
MODEL 2
REMARK VINA RESULT:     -10.7      5.265      9.947
REMARK SMILES C[C@H]1C[C@](C(=O)OCCOC(=O)c2ccc(-c3c4nc(c(-c5cc(S(=O)(=O)[O-])ccc5F)c5ccc([nH]5)c(-c5cc(S(=O)(=O)[O-])ccc5F)c5nc(c(-c6cc(S(=O)(=O)[O-])ccc6F)c6ccc3[nH]6)C=C5)C=C4)cc2)(N(C=O)C2CC2)CS1
REMARK SMILES IDX 9 1 8 2 7 3 5 4 6 5 4 6 1 7 2 8 3 9 83 10 82 11 76 12 77 13
REMARK SMILES IDX 78 14 79 15 80 16 81 17 10 18 11 19 12 20 13 21 14 22 75 23
REMARK SMILES IDX 15 24 74 25 16 26 17 27 18 28 68 29 19 30 73 31 67 32 69 33
REMARK SMILES IDX 20 34 72 35 66 36 65 37 21 39 53 40 33 41 52 42 34 43 37 44
REMARK SMILES IDX 51 45 70 46 35 47 36 48 50 50 71 51 38 52 22 53 23 54 31 55
REMARK SMILES IDX 24 56 30 57 32 58 29 59 25 60 26 61 27 62 28 63 54 64 55 65
REMARK SMILES IDX 63 66 56 67 62 68 64 69 61 70 57 71 58 72 59 73 60 74 39 75
REMARK SMILES IDX 40 76 48 77 41 78 47 79 49 80 46 81 42 82 43 83 44 84 45 85
REMARK H PARENT 69 38 37 49
REMARK Flexibility Score: inf
ROOT
ATOM      1  C   UNL A   1      31.748  30.490  25.851  1.00  0.00     0.275 C 
ENDROOT
BRANCH   1   2
ATOM      2  C   UNL A   1      32.448  29.366  25.092  1.00  0.00     0.274 C 
BRANCH   2   3
ATOM      3  O   UNL A   1      31.872  28.063  25.343  1.00  0.00    -0.460 OA
BRANCH   3   4
ATOM      4  C   UNL A   1      32.780  27.110  25.713  1.00  0.00     0.333 C 
ATOM      5  O   UNL A   1      33.787  27.364  26.372  1.00  0.00    -0.249 OA
BRANCH   4   6
ATOM      6  C   UNL A   1      32.607  25.782  24.934  1.00  0.00     0.150 C 
ATOM      7  C   UNL A   1      33.588  27.388  22.126  1.00  0.00     0.019 C 
ATOM      8  C   UNL A   1      33.406  25.920  22.502  1.00  0.00     0.046 C 
ATOM      9  C   UNL A   1      33.803  25.584  23.944  1.00  0.00     0.055 C 
ATOM     10  S   UNL A   1      31.657  25.458  22.439  1.00  0.00    -0.156 SA
ATOM     11  C   UNL A   1      31.346  26.128  24.084  1.00  0.00     0.110 C 
BRANCH   6  12
ATOM     12  N   UNL A   1      32.447  24.545  25.791  1.00  0.00    -0.325 N 
BRANCH  12  13
ATOM     13  C   UNL A   1      31.220  24.101  26.278  1.00  0.00     0.341 C 
ATOM     14  O   UNL A   1      31.031  23.535  27.350  1.00  0.00    -0.279 OA
ENDBRANCH  12  13
BRANCH  12  15
ATOM     15  C   UNL A   1      33.499  23.535  25.817  1.00  0.00     0.086 C 
ATOM     16  C   UNL A   1      34.946  23.765  26.087  1.00  0.00     0.027 C 
ATOM     17  C   UNL A   1      34.105  23.096  27.127  1.00  0.00     0.027 C 
ENDBRANCH  12  15
ENDBRANCH   6  12
ENDBRANCH   4   6
ENDBRANCH   3   4
ENDBRANCH   2   3
ENDBRANCH   1   2
BRANCH   1  18
ATOM     18  O   UNL A   1      32.307  30.625  27.164  1.00  0.00    -0.458 OA
BRANCH  18  19
ATOM     19  C   UNL A   1      33.076  31.720  27.359  1.00  0.00     0.338 C 
ATOM     20  O   UNL A   1      32.685  32.884  27.321  1.00  0.00    -0.246 OA
BRANCH  19  21
ATOM     21  C   UNL A   1      34.467  31.348  27.719  1.00  0.00     0.060 A 
ATOM     22  C   UNL A   1      34.841  30.025  27.970  1.00  0.00     0.016 A 
ATOM     23  C   UNL A   1      35.385  32.372  27.968  1.00  0.00     0.016 A 
ATOM     24  C   UNL A   1      36.042  29.754  28.632  1.00  0.00     0.010 A 
ATOM     25  C   UNL A   1      36.641  32.079  28.510  1.00  0.00     0.010 A 
ATOM     26  C   UNL A   1      36.966  30.773  28.908  1.00  0.00    -0.014 A 
BRANCH  26  27
ATOM     27  C   UNL A   1      38.255  30.501  29.617  1.00  0.00     0.031 A 
ATOM     28  C   UNL A   1      39.281  29.563  29.021  1.00  0.00     0.074 A 
ATOM     29  C   UNL A   1      38.505  31.059  30.819  1.00  0.00     0.049 A 
ATOM     30  N   UNL A   1      40.307  28.982  29.592  1.00  0.00    -0.248 NA
ATOM     31  C   UNL A   1      39.115  29.217  27.602  1.00  0.00     0.031 C 
ATOM     32  C   UNL A   1      37.637  32.013  31.512  1.00  0.00     0.029 A 
ATOM     33  N   UNL A   1      39.560  30.887  31.683  1.00  0.00    -0.354 N 
ATOM     34  C   UNL A   1      40.870  28.153  28.624  1.00  0.00     0.074 A 
ATOM     35  C   UNL A   1      40.064  28.308  27.430  1.00  0.00     0.031 C 
ATOM     36  C   UNL A   1      38.199  32.356  32.678  1.00  0.00     0.029 A 
ATOM     37  C   UNL A   1      39.402  31.558  32.873  1.00  0.00     0.049 A 
ATOM     38  H   UNL A   1      40.350  30.339  31.471  1.00  0.00     0.167 HD
ATOM     39  C   UNL A   1      41.950  27.336  28.727  1.00  0.00     0.034 A 
ATOM     40  C   UNL A   1      40.085  31.489  34.032  1.00  0.00     0.034 A 
ATOM     41  C   UNL A   1      42.773  27.229  29.912  1.00  0.00     0.049 A 
ATOM     42  C   UNL A   1      41.250  30.553  34.145  1.00  0.00     0.074 A 
ATOM     43  C   UNL A   1      43.913  26.466  30.106  1.00  0.00     0.029 A 
ATOM     44  N   UNL A   1      42.551  27.908  31.104  1.00  0.00    -0.354 N 
ATOM     45  N   UNL A   1      41.721  29.713  33.253  1.00  0.00    -0.248 NA
ATOM     46  C   UNL A   1      41.967  30.548  35.424  1.00  0.00     0.031 C 
ATOM     47  C   UNL A   1      44.341  26.633  31.429  1.00  0.00     0.029 A 
ATOM     48  C   UNL A   1      43.514  27.560  32.042  1.00  0.00     0.049 A 
ATOM     49  H   UNL A   1      41.817  28.545  31.260  1.00  0.00     0.167 HD
ATOM     50  C   UNL A   1      42.792  29.073  33.869  1.00  0.00     0.074 A 
ATOM     51  C   UNL A   1      42.911  29.647  35.195  1.00  0.00     0.031 C 
ATOM     52  C   UNL A   1      43.600  28.099  33.380  1.00  0.00     0.034 A 
BRANCH  39  53
ATOM     53  C   UNL A   1      42.273  26.439  27.550  1.00  0.00     0.023 A 
ATOM     54  C   UNL A   1      41.838  25.105  27.475  1.00  0.00     0.031 A 
ATOM     55  C   UNL A   1      43.039  26.939  26.479  1.00  0.00     0.131 A 
ATOM     56  C   UNL A   1      42.221  24.302  26.387  1.00  0.00     0.055 A 
ATOM     57  C   UNL A   1      43.352  26.158  25.364  1.00  0.00     0.041 A 
ATOM     58  F   UNL A   1      43.500  28.199  26.499  1.00  0.00    -0.206 F 
ATOM     59  C   UNL A   1      42.954  24.826  25.320  1.00  0.00     0.022 A 
BRANCH  56  60
ATOM     60  S   UNL A   1      41.865  22.523  26.448  1.00  0.00     0.124 S 
ATOM     61  O   UNL A   1      42.329  22.175  27.788  1.00  0.00    -0.237 OA
ATOM     62  O   UNL A   1      40.422  22.487  26.239  1.00  0.00    -0.237 OA
ATOM     63  O   UNL A   1      42.669  21.975  25.357  1.00  0.00    -0.744 OA
ENDBRANCH  56  60
ENDBRANCH  39  53
BRANCH  40  64
ATOM     64  C   UNL A   1      39.599  32.264  35.206  1.00  0.00     0.023 A 
ATOM     65  C   UNL A   1      40.026  33.578  35.438  1.00  0.00     0.031 A 
ATOM     66  C   UNL A   1      38.655  31.703  36.087  1.00  0.00     0.131 A 
ATOM     67  C   UNL A   1      39.510  34.290  36.531  1.00  0.00     0.055 A 
ATOM     68  C   UNL A   1      38.112  32.430  37.144  1.00  0.00     0.041 A 
ATOM     69  F   UNL A   1      38.210  30.450  35.896  1.00  0.00    -0.206 F 
ATOM     70  C   UNL A   1      38.543  33.733  37.374  1.00  0.00     0.022 A 
BRANCH  67  71
ATOM     71  S   UNL A   1      40.137  35.960  36.853  1.00  0.00     0.124 S 
ATOM     72  O   UNL A   1      39.850  36.634  35.592  1.00  0.00    -0.237 OA
ATOM     73  O   UNL A   1      39.331  36.371  37.998  1.00  0.00    -0.237 OA
ATOM     74  O   UNL A   1      41.554  35.743  37.139  1.00  0.00    -0.744 OA
ENDBRANCH  67  71
ENDBRANCH  40  64
BRANCH  52  75
ATOM     75  C   UNL A   1      44.698  27.616  34.295  1.00  0.00     0.023 A 
ATOM     76  C   UNL A   1      44.486  26.561  35.201  1.00  0.00     0.031 A 
ATOM     77  C   UNL A   1      45.949  28.256  34.305  1.00  0.00     0.131 A 
ATOM     78  C   UNL A   1      45.485  26.223  36.127  1.00  0.00     0.055 A 
ATOM     79  C   UNL A   1      46.960  27.877  35.187  1.00  0.00     0.041 A 
ATOM     80  F   UNL A   1      46.202  29.272  33.465  1.00  0.00    -0.206 F 
ATOM     81  C   UNL A   1      46.726  26.866  36.117  1.00  0.00     0.022 A 
BRANCH  78  82
ATOM     82  S   UNL A   1      45.100  25.014  37.422  1.00  0.00     0.124 S 
ATOM     83  O   UNL A   1      45.925  23.876  37.030  1.00  0.00    -0.237 OA
ATOM     84  O   UNL A   1      45.513  25.714  38.635  1.00  0.00    -0.237 OA
ATOM     85  O   UNL A   1      43.659  24.810  37.285  1.00  0.00    -0.744 OA
ENDBRANCH  78  82
ENDBRANCH  52  75
ENDBRANCH  26  27
ENDBRANCH  19  21
ENDBRANCH  18  19
ENDBRANCH   1  18
TORSDOF 17
ENDMDL
MODEL 3
REMARK VINA RESULT:     -10.5      5.445     10.158
REMARK SMILES C[C@H]1C[C@](C(=O)OCCOC(=O)c2ccc(-c3c4nc(c(-c5cc(S(=O)(=O)[O-])ccc5F)c5ccc([nH]5)c(-c5cc(S(=O)(=O)[O-])ccc5F)c5nc(c(-c6cc(S(=O)(=O)[O-])ccc6F)c6ccc3[nH]6)C=C5)C=C4)cc2)(N(C=O)C2CC2)CS1
REMARK SMILES IDX 9 1 8 2 7 3 5 4 6 5 4 6 1 7 2 8 3 9 83 10 82 11 76 12 77 13
REMARK SMILES IDX 78 14 79 15 80 16 81 17 10 18 11 19 12 20 13 21 14 22 75 23
REMARK SMILES IDX 15 24 74 25 16 26 17 27 18 28 68 29 19 30 73 31 67 32 69 33
REMARK SMILES IDX 20 34 72 35 66 36 65 37 21 39 53 40 33 41 52 42 34 43 37 44
REMARK SMILES IDX 51 45 70 46 35 47 36 48 50 50 71 51 38 52 22 53 23 54 31 55
REMARK SMILES IDX 24 56 30 57 32 58 29 59 25 60 26 61 27 62 28 63 54 64 55 65
REMARK SMILES IDX 63 66 56 67 62 68 64 69 61 70 57 71 58 72 59 73 60 74 39 75
REMARK SMILES IDX 40 76 48 77 41 78 47 79 49 80 46 81 42 82 43 83 44 84 45 85
REMARK H PARENT 69 38 37 49
REMARK Flexibility Score: inf
ROOT
ATOM      1  C   UNL A   1      31.696  29.959  26.468  1.00  0.00     0.275 C 
ENDROOT
BRANCH   1   2
ATOM      2  C   UNL A   1      31.786  28.637  27.224  1.00  0.00     0.274 C 
BRANCH   2   3
ATOM      3  O   UNL A   1      32.221  27.534  26.395  1.00  0.00    -0.460 OA
BRANCH   3   4
ATOM      4  C   UNL A   1      31.201  26.821  25.829  1.00  0.00     0.333 C 
ATOM      5  O   UNL A   1      30.460  26.082  26.475  1.00  0.00    -0.249 OA
BRANCH   4   6
ATOM      6  C   UNL A   1      31.298  26.758  24.284  1.00  0.00     0.150 C 
ATOM      7  C   UNL A   1      31.007  23.396  24.477  1.00  0.00     0.019 C 
ATOM      8  C   UNL A   1      30.914  24.407  23.337  1.00  0.00     0.046 C 
ATOM      9  C   UNL A   1      30.255  25.736  23.724  1.00  0.00     0.055 C 
ATOM     10  S   UNL A   1      32.566  24.911  22.796  1.00  0.00    -0.156 SA
ATOM     11  C   UNL A   1      32.712  26.120  24.127  1.00  0.00     0.110 C 
BRANCH   6  12
ATOM     12  N   UNL A   1      31.144  28.084  23.570  1.00  0.00    -0.325 N 
BRANCH  12  13
ATOM     13  C   UNL A   1      32.145  28.660  22.793  1.00  0.00     0.341 C 
ATOM     14  O   UNL A   1      33.223  29.080  23.199  1.00  0.00    -0.279 OA
ENDBRANCH  12  13
BRANCH  12  15
ATOM     15  C   UNL A   1      29.813  28.631  23.329  1.00  0.00     0.086 C 
ATOM     16  C   UNL A   1      29.429  30.071  23.338  1.00  0.00     0.027 C 
ATOM     17  C   UNL A   1      29.501  29.340  22.035  1.00  0.00     0.027 C 
ENDBRANCH  12  15
ENDBRANCH   6  12
ENDBRANCH   4   6
ENDBRANCH   3   4
ENDBRANCH   2   3
ENDBRANCH   1   2
BRANCH   1  18
ATOM     18  O   UNL A   1      33.009  30.469  26.201  1.00  0.00    -0.458 OA
BRANCH  18  19
ATOM     19  C   UNL A   1      33.503  31.320  27.129  1.00  0.00     0.338 C 
ATOM     20  O   UNL A   1      32.885  32.248  27.648  1.00  0.00    -0.246 OA
BRANCH  19  21
ATOM     21  C   UNL A   1      34.883  30.947  27.527  1.00  0.00     0.060 A 
ATOM     22  C   UNL A   1      35.250  29.624  27.785  1.00  0.00     0.016 A 
ATOM     23  C   UNL A   1      35.794  31.972  27.803  1.00  0.00     0.016 A 
ATOM     24  C   UNL A   1      36.432  29.352  28.480  1.00  0.00     0.010 A 
ATOM     25  C   UNL A   1      37.033  31.678  28.380  1.00  0.00     0.010 A 
ATOM     26  C   UNL A   1      37.348  30.371  28.783  1.00  0.00    -0.014 A 
BRANCH  26  27
ATOM     27  C   UNL A   1      38.617  30.098  29.527  1.00  0.00     0.031 A 
ATOM     28  C   UNL A   1      39.646  29.140  28.972  1.00  0.00     0.074 A 
ATOM     29  C   UNL A   1      38.844  30.673  30.725  1.00  0.00     0.049 A 
ATOM     30  N   UNL A   1      40.653  28.558  29.577  1.00  0.00    -0.248 NA
ATOM     31  C   UNL A   1      39.510  28.772  27.555  1.00  0.00     0.031 C 
ATOM     32  C   UNL A   1      37.971  31.647  31.382  1.00  0.00     0.029 A 
ATOM     33  N   UNL A   1      39.877  30.505  31.618  1.00  0.00    -0.354 N 
ATOM     34  C   UNL A   1      41.230  27.707  28.636  1.00  0.00     0.074 A 
ATOM     35  C   UNL A   1      40.453  27.850  27.421  1.00  0.00     0.031 C 
ATOM     36  C   UNL A   1      38.508  32.004  32.555  1.00  0.00     0.029 A 
ATOM     37  C   UNL A   1      39.698  31.197  32.792  1.00  0.00     0.049 A 
ATOM     38  H   UNL A   1      40.666  29.945  31.434  1.00  0.00     0.167 HD
ATOM     39  C   UNL A   1      42.298  26.880  28.778  1.00  0.00     0.034 A 
ATOM     40  C   UNL A   1      40.352  31.141  33.967  1.00  0.00     0.034 A 
ATOM     41  C   UNL A   1      43.092  26.785  29.984  1.00  0.00     0.049 A 
ATOM     42  C   UNL A   1      41.505  30.195  34.123  1.00  0.00     0.074 A 
ATOM     43  C   UNL A   1      44.219  26.013  30.218  1.00  0.00     0.029 A 
ATOM     44  N   UNL A   1      42.849  27.486  31.159  1.00  0.00    -0.354 N 
ATOM     45  N   UNL A   1      41.988  29.335  33.257  1.00  0.00    -0.248 NA
ATOM     46  C   UNL A   1      42.191  30.204  35.420  1.00  0.00     0.031 C 
ATOM     47  C   UNL A   1      44.617  26.198  31.548  1.00  0.00     0.029 A 
ATOM     48  C   UNL A   1      43.786  27.144  32.125  1.00  0.00     0.049 A 
ATOM     49  H   UNL A   1      42.118  28.133  31.287  1.00  0.00     0.167 HD
ATOM     50  C   UNL A   1      43.037  28.695  33.909  1.00  0.00     0.074 A 
ATOM     51  C   UNL A   1      43.131  29.290  35.228  1.00  0.00     0.031 C 
ATOM     52  C   UNL A   1      43.846  27.705  33.455  1.00  0.00     0.034 A 
BRANCH  39  53
ATOM     53  C   UNL A   1      42.639  25.961  27.624  1.00  0.00     0.023 A 
ATOM     54  C   UNL A   1      42.086  24.676  27.492  1.00  0.00     0.031 A 
ATOM     55  C   UNL A   1      43.545  26.387  26.634  1.00  0.00     0.131 A 
ATOM     56  C   UNL A   1      42.487  23.843  26.434  1.00  0.00     0.055 A 
ATOM     57  C   UNL A   1      43.882  25.584  25.542  1.00  0.00     0.041 A 
ATOM     58  F   UNL A   1      44.123  27.596  26.712  1.00  0.00    -0.206 F 
ATOM     59  C   UNL A   1      43.362  24.298  25.444  1.00  0.00     0.022 A 
BRANCH  56  60
ATOM     60  S   UNL A   1      41.956  22.108  26.439  1.00  0.00     0.124 S 
ATOM     61  O   UNL A   1      42.774  21.545  25.368  1.00  0.00    -0.237 OA
ATOM     62  O   UNL A   1      42.291  21.683  27.793  1.00  0.00    -0.237 OA
ATOM     63  O   UNL A   1      40.526  22.186  26.144  1.00  0.00    -0.744 OA
ENDBRANCH  56  60
ENDBRANCH  39  53
BRANCH  40  64
ATOM     64  C   UNL A   1      39.847  31.940  35.117  1.00  0.00     0.023 A 
ATOM     65  C   UNL A   1      40.314  33.238  35.362  1.00  0.00     0.031 A 
ATOM     66  C   UNL A   1      38.845  31.420  35.959  1.00  0.00     0.131 A 
ATOM     67  C   UNL A   1      39.780  33.975  36.430  1.00  0.00     0.055 A 
ATOM     68  C   UNL A   1      38.286  32.174  36.988  1.00  0.00     0.041 A 
ATOM     69  F   UNL A   1      38.361  30.185  35.754  1.00  0.00    -0.206 F 
ATOM     70  C   UNL A   1      38.757  33.460  37.232  1.00  0.00     0.022 A 
BRANCH  67  71
ATOM     71  S   UNL A   1      40.457  35.622  36.772  1.00  0.00     0.124 S 
ATOM     72  O   UNL A   1      39.661  36.461  35.883  1.00  0.00    -0.237 OA
ATOM     73  O   UNL A   1      40.192  35.768  38.199  1.00  0.00    -0.237 OA
ATOM     74  O   UNL A   1      41.868  35.492  36.413  1.00  0.00    -0.744 OA
ENDBRANCH  67  71
ENDBRANCH  40  64
BRANCH  52  75
ATOM     75  C   UNL A   1      44.917  27.225  34.404  1.00  0.00     0.023 A 
ATOM     76  C   UNL A   1      44.692  26.146  35.279  1.00  0.00     0.031 A 
ATOM     77  C   UNL A   1      46.151  27.893  34.479  1.00  0.00     0.131 A 
ATOM     78  C   UNL A   1      45.660  25.811  36.237  1.00  0.00     0.055 A 
ATOM     79  C   UNL A   1      47.134  27.517  35.394  1.00  0.00     0.041 A 
ATOM     80  F   UNL A   1      46.415  28.933  33.672  1.00  0.00    -0.206 F 
ATOM     81  C   UNL A   1      46.886  26.481  36.291  1.00  0.00     0.022 A 
BRANCH  78  82
ATOM     82  S   UNL A   1      45.251  24.565  37.490  1.00  0.00     0.124 S 
ATOM     83  O   UNL A   1      44.154  25.206  38.209  1.00  0.00    -0.237 OA
ATOM     84  O   UNL A   1      44.891  23.409  36.675  1.00  0.00    -0.237 OA
ATOM     85  O   UNL A   1      46.491  24.424  38.252  1.00  0.00    -0.744 OA
ENDBRANCH  78  82
ENDBRANCH  52  75
ENDBRANCH  26  27
ENDBRANCH  19  21
ENDBRANCH  18  19
ENDBRANCH   1  18
TORSDOF 17
ENDMDL
