MODEL 1
REMARK VINA RESULT:     -12.1      0.000      0.000
REMARK SMILES C[C@@H](C(=O)OCCOC(=O)c1ccc(-c2c3nc(c(-c4cc(S(=O)(=O)[O-])ccc4F)c4ccc([nH]4)c(-c4cc(S(=O)(=O)[O-])ccc4F)c4nc(c(-c5cc(S(=O)(=O)[O-])ccc5F)c5ccc2[nH]5)C=C4)C=C3)cc1)c1ccc(N[C@H]2CCC[C@@H]2O)cc1F
REMARK SMILES IDX 6 1 5 2 3 3 4 4 2 5 1 6 74 7 75 8 86 9 76 10 85 11 87 12
REMARK SMILES IDX 77 13 78 14 79 16 80 17 83 18 81 19 82 20 84 21 7 23 8 24
REMARK SMILES IDX 9 25 10 26 11 27 12 28 73 29 13 30 72 31 14 32 15 33 16 34
REMARK SMILES IDX 66 35 17 36 71 37 65 38 67 39 18 40 70 41 64 42 63 43 19 45
REMARK SMILES IDX 51 46 31 47 50 48 32 49 35 50 49 51 68 52 33 53 34 54 48 56
REMARK SMILES IDX 69 57 36 58 20 59 21 60 29 61 22 62 28 63 30 64 27 65 23 66
REMARK SMILES IDX 24 67 25 68 26 69 52 70 53 71 61 72 54 73 60 74 62 75 59 76
REMARK SMILES IDX 55 77 56 78 57 79 58 80 37 81 38 82 46 83 39 84 45 85 47 86
REMARK SMILES IDX 44 87 40 88 41 89 42 90 43 91
REMARK H PARENT 78 15 84 22 67 44 35 55
REMARK Flexibility Score: inf
ROOT
ATOM      1  C   UNL A   1      31.467  28.755  24.686  1.00  0.00     0.274 C 
ENDROOT
BRANCH   1   2
ATOM      2  O   UNL A   1      31.116  27.590  25.459  1.00  0.00    -0.462 OA
BRANCH   2   3
ATOM      3  C   UNL A   1      31.315  26.381  24.860  1.00  0.00     0.313 C 
ATOM      4  O   UNL A   1      30.621  25.954  23.943  1.00  0.00    -0.252 OA
BRANCH   3   5
ATOM      5  C   UNL A   1      32.438  25.571  25.520  1.00  0.00     0.129 C 
ATOM      6  C   UNL A   1      33.833  26.153  25.269  1.00  0.00     0.025 C 
BRANCH   5   7
ATOM      7  C   UNL A   1      32.312  24.086  25.201  1.00  0.00     0.002 A 
ATOM      8  C   UNL A   1      33.082  23.532  24.167  1.00  0.00     0.010 A 
ATOM      9  C   UNL A   1      31.511  23.207  25.929  1.00  0.00     0.129 A 
ATOM     10  C   UNL A   1      33.062  22.152  23.903  1.00  0.00     0.026 A 
ATOM     11  C   UNL A   1      31.494  21.835  25.660  1.00  0.00     0.065 A 
ATOM     12  F   UNL A   1      30.768  23.652  26.950  1.00  0.00    -0.207 F 
ATOM     13  C   UNL A   1      32.305  21.267  24.669  1.00  0.00     0.037 A 
BRANCH  13  14
ATOM     14  N   UNL A   1      32.292  19.903  24.510  1.00  0.00    -0.380 N 
ATOM     15  H   UNL A   1      31.559  19.449  24.985  1.00  0.00     0.160 HD
BRANCH  14  16
ATOM     16  C   UNL A   1      33.171  19.002  23.761  1.00  0.00     0.107 C 
ATOM     17  C   UNL A   1      34.480  18.697  24.500  1.00  0.00     0.027 C 
ATOM     18  C   UNL A   1      32.565  17.643  23.357  1.00  0.00     0.136 C 
ATOM     19  C   UNL A   1      34.607  17.176  24.520  1.00  0.00     0.005 C 
ATOM     20  C   UNL A   1      33.766  16.703  23.349  1.00  0.00     0.034 C 
BRANCH  18  21
ATOM     21  O   UNL A   1      31.981  17.695  22.067  1.00  0.00    -0.391 OA
ATOM     22  H   UNL A   1      32.552  18.209  21.474  1.00  0.00     0.211 HD
ENDBRANCH  18  21
ENDBRANCH  14  16
ENDBRANCH  13  14
ENDBRANCH   5   7
ENDBRANCH   3   5
ENDBRANCH   2   3
ENDBRANCH   1   2
BRANCH   1  23
ATOM     23  C   UNL A   1      31.436  30.000  25.566  1.00  0.00     0.275 C 
BRANCH  23  24
ATOM     24  O   UNL A   1      32.776  30.492  25.734  1.00  0.00    -0.458 OA
BRANCH  24  25
ATOM     25  C   UNL A   1      32.988  31.274  26.818  1.00  0.00     0.338 C 
ATOM     26  O   UNL A   1      32.260  32.158  27.235  1.00  0.00    -0.246 OA
BRANCH  25  27
ATOM     27  C   UNL A   1      34.295  30.938  27.421  1.00  0.00     0.060 A 
ATOM     28  C   UNL A   1      34.683  29.612  27.602  1.00  0.00     0.016 A 
ATOM     29  C   UNL A   1      35.109  31.973  27.884  1.00  0.00     0.016 A 
ATOM     30  C   UNL A   1      35.841  29.323  28.328  1.00  0.00     0.010 A 
ATOM     31  C   UNL A   1      36.313  31.677  28.533  1.00  0.00     0.010 A 
ATOM     32  C   UNL A   1      36.673  30.347  28.807  1.00  0.00    -0.014 A 
BRANCH  32  33
ATOM     33  C   UNL A   1      37.872  30.029  29.641  1.00  0.00     0.031 A 
ATOM     34  C   UNL A   1      39.051  29.301  29.038  1.00  0.00     0.074 A 
ATOM     35  C   UNL A   1      37.929  30.408  30.935  1.00  0.00     0.049 A 
ATOM     36  N   UNL A   1      40.108  28.800  29.626  1.00  0.00    -0.248 NA
ATOM     37  C   UNL A   1      39.024  29.085  27.584  1.00  0.00     0.031 C 
ATOM     38  C   UNL A   1      36.888  31.154  31.642  1.00  0.00     0.029 A 
ATOM     39  N   UNL A   1      38.921  30.260  31.875  1.00  0.00    -0.354 N 
ATOM     40  C   UNL A   1      40.813  28.119  28.638  1.00  0.00     0.074 A 
ATOM     41  C   UNL A   1      40.076  28.300  27.404  1.00  0.00     0.031 C 
ATOM     42  C   UNL A   1      37.341  31.498  32.857  1.00  0.00     0.029 A 
ATOM     43  C   UNL A   1      38.665  30.920  33.056  1.00  0.00     0.049 A 
ATOM     44  H   UNL A   1      39.736  29.731  31.719  1.00  0.00     0.167 HD
ATOM     45  C   UNL A   1      41.952  27.390  28.759  1.00  0.00     0.034 A 
ATOM     46  C   UNL A   1      39.412  31.049  34.171  1.00  0.00     0.034 A 
ATOM     47  C   UNL A   1      42.715  27.287  29.981  1.00  0.00     0.049 A 
ATOM     48  C   UNL A   1      40.723  30.310  34.255  1.00  0.00     0.074 A 
ATOM     49  C   UNL A   1      43.872  26.563  30.222  1.00  0.00     0.029 A 
ATOM     50  N   UNL A   1      42.416  27.950  31.165  1.00  0.00    -0.354 N 
ATOM     51  N   UNL A   1      41.313  29.565  33.349  1.00  0.00    -0.248 NA
ATOM     52  C   UNL A   1      41.449  30.397  35.529  1.00  0.00     0.031 C 
ATOM     53  C   UNL A   1      44.244  26.752  31.557  1.00  0.00     0.029 A 
ATOM     54  C   UNL A   1      43.358  27.646  32.136  1.00  0.00     0.049 A 
ATOM     55  H   UNL A   1      41.646  28.550  31.294  1.00  0.00     0.167 HD
ATOM     56  C   UNL A   1      42.465  29.075  33.954  1.00  0.00     0.074 A 
ATOM     57  C   UNL A   1      42.518  29.656  35.280  1.00  0.00     0.031 C 
ATOM     58  C   UNL A   1      43.381  28.200  33.468  1.00  0.00     0.034 A 
BRANCH  45  59
ATOM     59  C   UNL A   1      42.387  26.572  27.565  1.00  0.00     0.023 A 
ATOM     60  C   UNL A   1      41.995  25.238  27.374  1.00  0.00     0.031 A 
ATOM     61  C   UNL A   1      43.247  27.146  26.609  1.00  0.00     0.131 A 
ATOM     62  C   UNL A   1      42.513  24.504  26.294  1.00  0.00     0.055 A 
ATOM     63  C   UNL A   1      43.697  26.435  25.495  1.00  0.00     0.041 A 
ATOM     64  F   UNL A   1      43.675  28.412  26.748  1.00  0.00    -0.206 F 
ATOM     65  C   UNL A   1      43.342  25.100  25.340  1.00  0.00     0.022 A 
BRANCH  62  66
ATOM     66  S   UNL A   1      42.200  22.717  26.224  1.00  0.00     0.124 S 
ATOM     67  O   UNL A   1      42.946  22.242  27.387  1.00  0.00    -0.237 OA
ATOM     68  O   UNL A   1      40.747  22.648  26.324  1.00  0.00    -0.237 OA
ATOM     69  O   UNL A   1      42.756  22.322  24.931  1.00  0.00    -0.744 OA
ENDBRANCH  62  66
ENDBRANCH  45  59
BRANCH  46  70
ATOM     70  C   UNL A   1      38.938  31.887  35.311  1.00  0.00     0.023 A 
ATOM     71  C   UNL A   1      38.338  31.292  36.433  1.00  0.00     0.031 A 
ATOM     72  C   UNL A   1      39.052  33.288  35.292  1.00  0.00     0.131 A 
ATOM     73  C   UNL A   1      37.849  32.095  37.475  1.00  0.00     0.055 A 
ATOM     74  C   UNL A   1      38.617  34.078  36.356  1.00  0.00     0.041 A 
ATOM     75  F   UNL A   1      39.612  33.910  34.243  1.00  0.00    -0.206 F 
ATOM     76  C   UNL A   1      38.001  33.483  37.453  1.00  0.00     0.022 A 
BRANCH  73  77
ATOM     77  S   UNL A   1      36.957  31.301  38.839  1.00  0.00     0.124 S 
ATOM     78  O   UNL A   1      35.727  32.082  38.887  1.00  0.00    -0.237 OA
ATOM     79  O   UNL A   1      36.829  29.930  38.354  1.00  0.00    -0.237 OA
ATOM     80  O   UNL A   1      37.854  31.474  39.979  1.00  0.00    -0.744 OA
ENDBRANCH  73  77
ENDBRANCH  46  70
BRANCH  58  81
ATOM     81  C   UNL A   1      44.502  27.808  34.395  1.00  0.00     0.023 A 
ATOM     82  C   UNL A   1      44.365  26.729  35.288  1.00  0.00     0.031 A 
ATOM     83  C   UNL A   1      45.710  28.525  34.402  1.00  0.00     0.131 A 
ATOM     84  C   UNL A   1      45.399  26.429  36.187  1.00  0.00     0.055 A 
ATOM     85  C   UNL A   1      46.755  28.191  35.266  1.00  0.00     0.041 A 
ATOM     86  F   UNL A   1      45.894  29.563  33.572  1.00  0.00    -0.206 F 
ATOM     87  C   UNL A   1      46.598  27.145  36.173  1.00  0.00     0.022 A 
BRANCH  84  88
ATOM     88  S   UNL A   1      45.123  25.141  37.434  1.00  0.00     0.124 S 
ATOM     89  O   UNL A   1      45.741  23.975  36.811  1.00  0.00    -0.237 OA
ATOM     90  O   UNL A   1      45.813  25.681  38.601  1.00  0.00    -0.237 OA
ATOM     91  O   UNL A   1      43.666  25.081  37.550  1.00  0.00    -0.744 OA
ENDBRANCH  84  88
ENDBRANCH  58  81
ENDBRANCH  32  33
ENDBRANCH  25  27
ENDBRANCH  24  25
ENDBRANCH  23  24
ENDBRANCH   1  23
TORSDOF 18
ENDMDL
MODEL 2
REMARK VINA RESULT:     -11.9      5.273     10.554
REMARK SMILES C[C@@H](C(=O)OCCOC(=O)c1ccc(-c2c3nc(c(-c4cc(S(=O)(=O)[O-])ccc4F)c4ccc([nH]4)c(-c4cc(S(=O)(=O)[O-])ccc4F)c4nc(c(-c5cc(S(=O)(=O)[O-])ccc5F)c5ccc2[nH]5)C=C4)C=C3)cc1)c1ccc(N[C@H]2CCC[C@@H]2O)cc1F
REMARK SMILES IDX 6 1 5 2 3 3 4 4 2 5 1 6 74 7 75 8 86 9 76 10 85 11 87 12
REMARK SMILES IDX 77 13 78 14 79 16 80 17 83 18 81 19 82 20 84 21 7 23 8 24
REMARK SMILES IDX 9 25 10 26 11 27 12 28 73 29 13 30 72 31 14 32 15 33 16 34
REMARK SMILES IDX 66 35 17 36 71 37 65 38 67 39 18 40 70 41 64 42 63 43 19 45
REMARK SMILES IDX 51 46 31 47 50 48 32 49 35 50 49 51 68 52 33 53 34 54 48 56
REMARK SMILES IDX 69 57 36 58 20 59 21 60 29 61 22 62 28 63 30 64 27 65 23 66
REMARK SMILES IDX 24 67 25 68 26 69 52 70 53 71 61 72 54 73 60 74 62 75 59 76
REMARK SMILES IDX 55 77 56 78 57 79 58 80 37 81 38 82 46 83 39 84 45 85 47 86
REMARK SMILES IDX 44 87 40 88 41 89 42 90 43 91
REMARK H PARENT 78 15 84 22 67 44 35 55
REMARK Flexibility Score: inf
ROOT
ATOM      1  C   UNL A   1      35.815  20.193  25.003  1.00  0.00     0.274 C 
ENDROOT
BRANCH   1   2
ATOM      2  O   UNL A   1      35.406  21.572  25.100  1.00  0.00    -0.462 OA
BRANCH   2   3
ATOM      3  C   UNL A   1      34.384  21.962  24.286  1.00  0.00     0.313 C 
ATOM      4  O   UNL A   1      33.247  21.507  24.358  1.00  0.00    -0.252 OA
BRANCH   3   5
ATOM      5  C   UNL A   1      34.831  22.960  23.211  1.00  0.00     0.129 C 
ATOM      6  C   UNL A   1      36.342  23.217  23.213  1.00  0.00     0.025 C 
BRANCH   5   7
ATOM      7  C   UNL A   1      33.980  24.224  23.240  1.00  0.00     0.002 A 
ATOM      8  C   UNL A   1      33.011  24.429  22.246  1.00  0.00     0.010 A 
ATOM      9  C   UNL A   1      34.058  25.183  24.249  1.00  0.00     0.129 A 
ATOM     10  C   UNL A   1      32.146  25.536  22.289  1.00  0.00     0.026 A 
ATOM     11  C   UNL A   1      33.196  26.283  24.286  1.00  0.00     0.065 A 
ATOM     12  F   UNL A   1      34.938  25.045  25.249  1.00  0.00    -0.207 F 
ATOM     13  C   UNL A   1      32.188  26.462  23.331  1.00  0.00     0.037 A 
BRANCH  13  14
ATOM     14  N   UNL A   1      31.330  27.526  23.472  1.00  0.00    -0.380 N 
ATOM     15  H   UNL A   1      31.464  28.046  24.297  1.00  0.00     0.160 HD
BRANCH  14  16
ATOM     16  C   UNL A   1      30.250  28.025  22.616  1.00  0.00     0.107 C 
ATOM     17  C   UNL A   1      28.865  27.540  23.061  1.00  0.00     0.027 C 
ATOM     18  C   UNL A   1      30.156  29.557  22.469  1.00  0.00     0.136 C 
ATOM     19  C   UNL A   1      27.997  28.790  23.172  1.00  0.00     0.005 C 
ATOM     20  C   UNL A   1      28.665  29.805  22.263  1.00  0.00     0.034 C 
BRANCH  18  21
ATOM     21  O   UNL A   1      30.884  30.018  21.345  1.00  0.00    -0.391 OA
ATOM     22  H   UNL A   1      30.541  30.883  21.070  1.00  0.00     0.211 HD
ENDBRANCH  18  21
ENDBRANCH  14  16
ENDBRANCH  13  14
ENDBRANCH   5   7
ENDBRANCH   3   5
ENDBRANCH   2   3
ENDBRANCH   1   2
BRANCH   1  23
ATOM     23  C   UNL A   1      37.337  20.095  24.975  1.00  0.00     0.275 C 
BRANCH  23  24
ATOM     24  O   UNL A   1      37.895  21.256  25.609  1.00  0.00    -0.458 OA
BRANCH  24  25
ATOM     25  C   UNL A   1      39.158  21.126  26.079  1.00  0.00     0.338 C 
ATOM     26  O   UNL A   1      39.818  20.102  26.127  1.00  0.00    -0.246 OA
BRANCH  25  27
ATOM     27  C   UNL A   1      39.630  22.427  26.595  1.00  0.00     0.060 A 
ATOM     28  C   UNL A   1      39.084  23.623  26.135  1.00  0.00     0.016 A 
ATOM     29  C   UNL A   1      40.695  22.448  27.498  1.00  0.00     0.016 A 
ATOM     30  C   UNL A   1      39.664  24.838  26.509  1.00  0.00     0.010 A 
ATOM     31  C   UNL A   1      41.213  23.671  27.937  1.00  0.00     0.010 A 
ATOM     32  C   UNL A   1      40.737  24.884  27.412  1.00  0.00    -0.014 A 
BRANCH  32  33
ATOM     33  C   UNL A   1      41.395  26.183  27.753  1.00  0.00     0.031 A 
ATOM     34  C   UNL A   1      40.709  27.168  28.670  1.00  0.00     0.074 A 
ATOM     35  C   UNL A   1      42.617  26.482  27.266  1.00  0.00     0.049 A 
ATOM     36  N   UNL A   1      41.038  28.402  28.960  1.00  0.00    -0.248 NA
ATOM     37  C   UNL A   1      39.474  26.715  29.328  1.00  0.00     0.031 C 
ATOM     38  C   UNL A   1      43.418  25.612  26.405  1.00  0.00     0.029 A 
ATOM     39  N   UNL A   1      43.420  27.579  27.461  1.00  0.00    -0.354 N 
ATOM     40  C   UNL A   1      40.001  28.905  29.741  1.00  0.00     0.074 A 
ATOM     41  C   UNL A   1      39.046  27.828  29.905  1.00  0.00     0.031 C 
ATOM     42  C   UNL A   1      44.636  26.152  26.245  1.00  0.00     0.029 A 
ATOM     43  C   UNL A   1      44.675  27.450  26.909  1.00  0.00     0.049 A 
ATOM     44  H   UNL A   1      43.127  28.383  27.949  1.00  0.00     0.167 HD
ATOM     45  C   UNL A   1      39.852  30.156  30.248  1.00  0.00     0.034 A 
ATOM     46  C   UNL A   1      45.739  28.279  26.938  1.00  0.00     0.034 A 
ATOM     47  C   UNL A   1      40.852  31.192  30.141  1.00  0.00     0.049 A 
ATOM     48  C   UNL A   1      45.588  29.629  27.590  1.00  0.00     0.074 A 
ATOM     49  C   UNL A   1      40.800  32.498  30.601  1.00  0.00     0.029 A 
ATOM     50  N   UNL A   1      42.103  31.034  29.556  1.00  0.00    -0.354 N 
ATOM     51  N   UNL A   1      44.551  30.135  28.216  1.00  0.00    -0.248 NA
ATOM     52  C   UNL A   1      46.740  30.536  27.503  1.00  0.00     0.031 C 
ATOM     53  C   UNL A   1      41.994  33.139  30.255  1.00  0.00     0.029 A 
ATOM     54  C   UNL A   1      42.822  32.217  29.635  1.00  0.00     0.049 A 
ATOM     55  H   UNL A   1      42.431  30.201  29.145  1.00  0.00     0.167 HD
ATOM     56  C   UNL A   1      44.919  31.428  28.573  1.00  0.00     0.074 A 
ATOM     57  C   UNL A   1      46.291  31.603  28.146  1.00  0.00     0.031 C 
ATOM     58  C   UNL A   1      44.177  32.393  29.172  1.00  0.00     0.034 A 
BRANCH  45  59
ATOM     59  C   UNL A   1      38.523  30.498  30.879  1.00  0.00     0.023 A 
ATOM     60  C   UNL A   1      37.490  31.139  30.177  1.00  0.00     0.031 A 
ATOM     61  C   UNL A   1      38.303  30.196  32.238  1.00  0.00     0.131 A 
ATOM     62  C   UNL A   1      36.315  31.516  30.849  1.00  0.00     0.055 A 
ATOM     63  C   UNL A   1      37.103  30.504  32.880  1.00  0.00     0.041 A 
ATOM     64  F   UNL A   1      39.261  29.603  32.968  1.00  0.00    -0.206 F 
ATOM     65  C   UNL A   1      36.105  31.182  32.189  1.00  0.00     0.022 A 
BRANCH  62  66
ATOM     66  S   UNL A   1      35.118  32.573  29.986  1.00  0.00     0.124 S 
ATOM     67  O   UNL A   1      35.963  33.685  29.556  1.00  0.00    -0.237 OA
ATOM     68  O   UNL A   1      34.628  31.696  28.930  1.00  0.00    -0.237 OA
ATOM     69  O   UNL A   1      34.143  32.904  31.023  1.00  0.00    -0.744 OA
ENDBRANCH  62  66
ENDBRANCH  45  59
BRANCH  46  70
ATOM     70  C   UNL A   1      47.032  27.877  26.314  1.00  0.00     0.023 A 
ATOM     71  C   UNL A   1      47.213  27.968  24.923  1.00  0.00     0.031 A 
ATOM     72  C   UNL A   1      48.097  27.374  27.082  1.00  0.00     0.131 A 
ATOM     73  C   UNL A   1      48.416  27.537  24.342  1.00  0.00     0.055 A 
ATOM     74  C   UNL A   1      49.312  27.002  26.507  1.00  0.00     0.041 A 
ATOM     75  F   UNL A   1      47.978  27.260  28.415  1.00  0.00    -0.206 F 
ATOM     76  C   UNL A   1      49.474  27.072  25.127  1.00  0.00     0.022 A 
BRANCH  73  77
ATOM     77  S   UNL A   1      48.560  27.541  22.535  1.00  0.00     0.124 S 
ATOM     78  O   UNL A   1      47.417  28.359  22.146  1.00  0.00    -0.237 OA
ATOM     79  O   UNL A   1      49.876  28.143  22.342  1.00  0.00    -0.237 OA
ATOM     80  O   UNL A   1      48.467  26.127  22.183  1.00  0.00    -0.744 OA
ENDBRANCH  73  77
ENDBRANCH  46  70
BRANCH  58  81
ATOM     81  C   UNL A   1      44.843  33.730  29.376  1.00  0.00     0.023 A 
ATOM     82  C   UNL A   1      44.613  34.800  28.491  1.00  0.00     0.031 A 
ATOM     83  C   UNL A   1      45.725  33.936  30.449  1.00  0.00     0.131 A 
ATOM     84  C   UNL A   1      45.298  36.011  28.664  1.00  0.00     0.055 A 
ATOM     85  C   UNL A   1      46.367  35.159  30.646  1.00  0.00     0.041 A 
ATOM     86  F   UNL A   1      45.981  32.949  31.322  1.00  0.00    -0.206 F 
ATOM     87  C   UNL A   1      46.164  36.202  29.743  1.00  0.00     0.022 A 
BRANCH  84  88
ATOM     88  S   UNL A   1      45.106  37.309  27.412  1.00  0.00     0.124 S 
ATOM     89  O   UNL A   1      43.806  36.983  26.832  1.00  0.00    -0.237 OA
ATOM     90  O   UNL A   1      45.160  38.528  28.212  1.00  0.00    -0.237 OA
ATOM     91  O   UNL A   1      46.248  37.101  26.523  1.00  0.00    -0.744 OA
ENDBRANCH  84  88
ENDBRANCH  58  81
ENDBRANCH  32  33
ENDBRANCH  25  27
ENDBRANCH  24  25
ENDBRANCH  23  24
ENDBRANCH   1  23
TORSDOF 18
ENDMDL
MODEL 3
REMARK VINA RESULT:     -11.9      5.162      8.079
REMARK SMILES C[C@@H](C(=O)OCCOC(=O)c1ccc(-c2c3nc(c(-c4cc(S(=O)(=O)[O-])ccc4F)c4ccc([nH]4)c(-c4cc(S(=O)(=O)[O-])ccc4F)c4nc(c(-c5cc(S(=O)(=O)[O-])ccc5F)c5ccc2[nH]5)C=C4)C=C3)cc1)c1ccc(N[C@H]2CCC[C@@H]2O)cc1F
REMARK SMILES IDX 6 1 5 2 3 3 4 4 2 5 1 6 74 7 75 8 86 9 76 10 85 11 87 12
REMARK SMILES IDX 77 13 78 14 79 16 80 17 83 18 81 19 82 20 84 21 7 23 8 24
REMARK SMILES IDX 9 25 10 26 11 27 12 28 73 29 13 30 72 31 14 32 15 33 16 34
REMARK SMILES IDX 66 35 17 36 71 37 65 38 67 39 18 40 70 41 64 42 63 43 19 45
REMARK SMILES IDX 51 46 31 47 50 48 32 49 35 50 49 51 68 52 33 53 34 54 48 56
REMARK SMILES IDX 69 57 36 58 20 59 21 60 29 61 22 62 28 63 30 64 27 65 23 66
REMARK SMILES IDX 24 67 25 68 26 69 52 70 53 71 61 72 54 73 60 74 62 75 59 76
REMARK SMILES IDX 55 77 56 78 57 79 58 80 37 81 38 82 46 83 39 84 45 85 47 86
REMARK SMILES IDX 44 87 40 88 41 89 42 90 43 91
REMARK H PARENT 78 15 84 22 67 44 35 55
REMARK Flexibility Score: inf
ROOT
ATOM      1  C   UNL A   1      36.286  19.661  24.926  1.00  0.00     0.274 C 
ENDROOT
BRANCH   1   2
ATOM      2  O   UNL A   1      35.832  20.995  25.235  1.00  0.00    -0.462 OA
BRANCH   2   3
ATOM      3  C   UNL A   1      34.751  21.446  24.537  1.00  0.00     0.313 C 
ATOM      4  O   UNL A   1      33.631  20.955  24.626  1.00  0.00    -0.252 OA
BRANCH   3   5
ATOM      5  C   UNL A   1      35.107  22.571  23.557  1.00  0.00     0.129 C 
ATOM      6  C   UNL A   1      36.608  22.877  23.504  1.00  0.00     0.025 C 
BRANCH   5   7
ATOM      7  C   UNL A   1      34.226  23.795  23.776  1.00  0.00     0.002 A 
ATOM      8  C   UNL A   1      34.693  24.852  24.572  1.00  0.00     0.010 A 
ATOM      9  C   UNL A   1      32.982  23.968  23.170  1.00  0.00     0.129 A 
ATOM     10  C   UNL A   1      33.950  26.035  24.724  1.00  0.00     0.026 A 
ATOM     11  C   UNL A   1      32.246  25.146  23.325  1.00  0.00     0.065 A 
ATOM     12  F   UNL A   1      32.478  23.017  22.372  1.00  0.00    -0.207 F 
ATOM     13  C   UNL A   1      32.733  26.227  24.070  1.00  0.00     0.037 A 
BRANCH  13  14
ATOM     14  N   UNL A   1      31.989  27.382  24.118  1.00  0.00    -0.380 N 
ATOM     15  H   UNL A   1      31.859  27.814  23.243  1.00  0.00     0.160 HD
BRANCH  14  16
ATOM     16  C   UNL A   1      31.355  28.085  25.236  1.00  0.00     0.107 C 
ATOM     17  C   UNL A   1      31.302  27.242  26.516  1.00  0.00     0.027 C 
ATOM     18  C   UNL A   1      31.978  29.440  25.625  1.00  0.00     0.136 C 
ATOM     19  C   UNL A   1      31.898  28.113  27.619  1.00  0.00     0.005 C 
ATOM     20  C   UNL A   1      31.718  29.537  27.125  1.00  0.00     0.034 C 
BRANCH  18  21
ATOM     21  O   UNL A   1      31.347  30.516  24.954  1.00  0.00    -0.391 OA
ATOM     22  H   UNL A   1      30.388  30.468  25.095  1.00  0.00     0.211 HD
ENDBRANCH  18  21
ENDBRANCH  14  16
ENDBRANCH  13  14
ENDBRANCH   5   7
ENDBRANCH   3   5
ENDBRANCH   2   3
ENDBRANCH   1   2
BRANCH   1  23
ATOM     23  C   UNL A   1      37.809  19.601  24.964  1.00  0.00     0.275 C 
BRANCH  23  24
ATOM     24  O   UNL A   1      38.316  20.831  25.507  1.00  0.00    -0.458 OA
BRANCH  24  25
ATOM     25  C   UNL A   1      39.490  20.745  26.175  1.00  0.00     0.338 C 
ATOM     26  O   UNL A   1      40.133  19.733  26.396  1.00  0.00    -0.246 OA
BRANCH  25  27
ATOM     27  C   UNL A   1      39.876  22.083  26.669  1.00  0.00     0.060 A 
ATOM     28  C   UNL A   1      39.177  23.223  26.277  1.00  0.00     0.016 A 
ATOM     29  C   UNL A   1      41.010  22.202  27.475  1.00  0.00     0.016 A 
ATOM     30  C   UNL A   1      39.667  24.486  26.617  1.00  0.00     0.010 A 
ATOM     31  C   UNL A   1      41.443  23.468  27.886  1.00  0.00     0.010 A 
ATOM     32  C   UNL A   1      40.806  24.631  27.423  1.00  0.00    -0.014 A 
BRANCH  32  33
ATOM     33  C   UNL A   1      41.361  25.986  27.725  1.00  0.00     0.031 A 
ATOM     34  C   UNL A   1      42.664  26.433  27.105  1.00  0.00     0.074 A 
ATOM     35  C   UNL A   1      40.696  26.836  28.536  1.00  0.00     0.049 A 
ATOM     36  N   UNL A   1      43.385  27.497  27.360  1.00  0.00    -0.248 NA
ATOM     37  C   UNL A   1      43.249  25.554  26.081  1.00  0.00     0.031 C 
ATOM     38  C   UNL A   1      39.407  26.560  29.172  1.00  0.00     0.029 A 
ATOM     39  N   UNL A   1      40.986  28.120  28.927  1.00  0.00    -0.354 N 
ATOM     40  C   UNL A   1      44.552  27.360  26.613  1.00  0.00     0.074 A 
ATOM     41  C   UNL A   1      44.426  26.123  25.871  1.00  0.00     0.031 C 
ATOM     42  C   UNL A   1      38.966  27.676  29.771  1.00  0.00     0.029 A 
ATOM     43  C   UNL A   1      39.977  28.719  29.648  1.00  0.00     0.049 A 
ATOM     44  H   UNL A   1      41.836  28.570  28.714  1.00  0.00     0.167 HD
ATOM     45  C   UNL A   1      45.634  28.179  26.575  1.00  0.00     0.034 A 
ATOM     46  C   UNL A   1      39.875  29.967  30.149  1.00  0.00     0.034 A 
ATOM     47  C   UNL A   1      45.707  29.449  27.262  1.00  0.00     0.049 A 
ATOM     48  C   UNL A   1      41.051  30.900  30.015  1.00  0.00     0.074 A 
ATOM     49  C   UNL A   1      46.759  30.350  27.307  1.00  0.00     0.029 A 
ATOM     50  N   UNL A   1      44.675  30.014  28.001  1.00  0.00    -0.354 N 
ATOM     51  N   UNL A   1      42.199  30.704  29.410  1.00  0.00    -0.248 NA
ATOM     52  C   UNL A   1      40.931  32.211  30.668  1.00  0.00     0.031 C 
ATOM     53  C   UNL A   1      46.381  31.433  28.107  1.00  0.00     0.029 A 
ATOM     54  C   UNL A   1      45.069  31.242  28.511  1.00  0.00     0.049 A 
ATOM     55  H   UNL A   1      43.792  29.603  28.141  1.00  0.00     0.167 HD
ATOM     56  C   UNL A   1      42.946  31.856  29.634  1.00  0.00     0.074 A 
ATOM     57  C   UNL A   1      42.098  32.765  30.377  1.00  0.00     0.031 C 
ATOM     58  C   UNL A   1      44.228  32.125  29.283  1.00  0.00     0.034 A 
BRANCH  45  59
ATOM     59  C   UNL A   1      46.859  27.683  25.844  1.00  0.00     0.023 A 
ATOM     60  C   UNL A   1      47.168  28.065  24.529  1.00  0.00     0.031 A 
ATOM     61  C   UNL A   1      47.726  26.774  26.483  1.00  0.00     0.131 A 
ATOM     62  C   UNL A   1      48.270  27.491  23.874  1.00  0.00     0.055 A 
ATOM     63  C   UNL A   1      48.863  26.267  25.853  1.00  0.00     0.041 A 
ATOM     64  F   UNL A   1      47.473  26.355  27.734  1.00  0.00    -0.206 F 
ATOM     65  C   UNL A   1      49.133  26.613  24.534  1.00  0.00     0.022 A 
BRANCH  62  66
ATOM     66  S   UNL A   1      48.486  27.799  22.098  1.00  0.00     0.124 S 
ATOM     67  O   UNL A   1      47.344  28.664  21.808  1.00  0.00    -0.237 OA
ATOM     68  O   UNL A   1      49.797  28.433  22.046  1.00  0.00    -0.237 OA
ATOM     69  O   UNL A   1      48.414  26.464  21.507  1.00  0.00    -0.744 OA
ENDBRANCH  62  66
ENDBRANCH  45  59
BRANCH  46  70
ATOM     70  C   UNL A   1      38.631  30.407  30.844  1.00  0.00     0.023 A 
ATOM     71  C   UNL A   1      37.617  31.076  30.138  1.00  0.00     0.031 A 
ATOM     72  C   UNL A   1      38.441  30.193  32.221  1.00  0.00     0.131 A 
ATOM     73  C   UNL A   1      36.474  31.531  30.815  1.00  0.00     0.055 A 
ATOM     74  C   UNL A   1      37.278  30.596  32.878  1.00  0.00     0.041 A 
ATOM     75  F   UNL A   1      39.379  29.565  32.947  1.00  0.00    -0.206 F 
ATOM     76  C   UNL A   1      36.290  31.279  32.176  1.00  0.00     0.022 A 
BRANCH  73  77
ATOM     77  S   UNL A   1      35.254  32.510  29.899  1.00  0.00     0.124 S 
ATOM     78  O   UNL A   1      34.269  32.803  30.933  1.00  0.00    -0.237 OA
ATOM     79  O   UNL A   1      36.060  33.638  29.441  1.00  0.00    -0.237 OA
ATOM     80  O   UNL A   1      34.807  31.600  28.847  1.00  0.00    -0.744 OA
ENDBRANCH  73  77
ENDBRANCH  46  70
BRANCH  58  81
ATOM     81  C   UNL A   1      44.787  33.453  29.725  1.00  0.00     0.023 A 
ATOM     82  C   UNL A   1      44.741  34.578  28.881  1.00  0.00     0.031 A 
ATOM     83  C   UNL A   1      45.386  33.595  30.987  1.00  0.00     0.131 A 
ATOM     84  C   UNL A   1      45.331  35.783  29.290  1.00  0.00     0.055 A 
ATOM     85  C   UNL A   1      45.927  34.811  31.409  1.00  0.00     0.041 A 
ATOM     86  F   UNL A   1      45.457  32.553  31.831  1.00  0.00    -0.206 F 
ATOM     87  C   UNL A   1      45.912  35.910  30.554  1.00  0.00     0.022 A 
BRANCH  84  88
ATOM     88  S   UNL A   1      45.401  37.162  28.114  1.00  0.00     0.124 S 
ATOM     89  O   UNL A   1      46.592  37.881  28.556  1.00  0.00    -0.237 OA
ATOM     90  O   UNL A   1      45.511  36.476  26.831  1.00  0.00    -0.237 OA
ATOM     91  O   UNL A   1      44.138  37.866  28.333  1.00  0.00    -0.744 OA
ENDBRANCH  84  88
ENDBRANCH  58  81
ENDBRANCH  32  33
ENDBRANCH  25  27
ENDBRANCH  24  25
ENDBRANCH  23  24
ENDBRANCH   1  23
TORSDOF 18
ENDMDL
