MODEL 1
REMARK VINA RESULT:     -12.0      0.000      0.000
REMARK SMILES COc1ccc(/C=C/C(=O)OCCOC(=O)c2ccc(-c3c4nc(c(-c5cc(S(=O)(=O)[O-])ccc5F)c5ccc([nH]5)c(-c5cc(S(=O)(=O)[O-])ccc5F)c5nc(c(-c6cc(S(=O)(=O)[O-])ccc6F)c6ccc3[nH]6)C=C5)C=C4)cc2)cc1S(=O)(=O)Nc1ccc(F)cc1F
REMARK SMILES IDX 12 1 11 2 9 3 10 4 8 5 7 6 6 7 3 8 4 9 81 10 5 11 80 12 2 13
REMARK SMILES IDX 1 14 82 15 83 16 84 17 85 18 86 20 87 21 92 22 88 23 91 24
REMARK SMILES IDX 93 25 89 26 90 27 13 28 14 29 15 30 16 31 17 32 18 33 79 34
REMARK SMILES IDX 19 35 78 36 20 37 21 38 22 39 72 40 23 41 77 42 71 43 73 44
REMARK SMILES IDX 24 45 76 46 70 47 69 48 25 50 57 51 37 52 56 53 38 54 41 55
REMARK SMILES IDX 55 56 74 57 39 58 40 59 54 61 75 62 42 63 26 64 27 65 35 66
REMARK SMILES IDX 28 67 34 68 36 69 33 70 29 71 30 72 31 73 32 74 58 75 59 76
REMARK SMILES IDX 67 77 60 78 66 79 68 80 65 81 61 82 62 83 63 84 64 85 43 86
REMARK SMILES IDX 44 87 52 88 45 89 51 90 53 91 50 92 46 93 47 94 48 95 49 96
REMARK H PARENT 85 19 73 49 41 60
REMARK Flexibility Score: inf
ROOT
ATOM      1  C   UNL A   1      35.688  20.289  24.879  1.00  0.00     0.275 C 
ENDROOT
BRANCH   1   2
ATOM      2  O   UNL A   1      35.186  21.305  25.767  1.00  0.00    -0.459 OA
BRANCH   2   3
ATOM      3  C   UNL A   1      33.853  21.515  25.687  1.00  0.00     0.330 C 
ATOM      4  O   UNL A   1      32.986  20.653  25.690  1.00  0.00    -0.247 OA
BRANCH   3   5
ATOM      5  C   UNL A   1      33.488  22.939  25.610  1.00  0.00     0.094 C 
ATOM      6  C   UNL A   1      32.421  23.502  25.016  1.00  0.00     0.015 C 
BRANCH   6   7
ATOM      7  C   UNL A   1      32.296  24.969  25.014  1.00  0.00    -0.024 A 
ATOM      8  C   UNL A   1      31.794  27.693  25.427  1.00  0.00     0.139 A 
ATOM      9  C   UNL A   1      32.917  27.094  25.998  1.00  0.00     0.048 A 
ATOM     10  C   UNL A   1      31.057  27.004  24.468  1.00  0.00     0.130 A 
ATOM     11  C   UNL A   1      33.178  25.747  25.776  1.00  0.00     0.012 A 
ATOM     12  C   UNL A   1      31.287  25.621  24.294  1.00  0.00     0.034 A 
BRANCH   8  13
ATOM     13  O   UNL A   1      31.519  28.946  25.881  1.00  0.00    -0.495 OA
ATOM     14  C   UNL A   1      32.629  29.817  25.668  1.00  0.00     0.278 C 
ENDBRANCH   8  13
BRANCH  10  15
ATOM     15  S   UNL A   1      29.865  27.731  23.370  1.00  0.00     0.265 S 
ATOM     16  O   UNL A   1      30.474  27.834  22.061  1.00  0.00    -0.201 OA
ATOM     17  O   UNL A   1      28.660  26.937  23.537  1.00  0.00    -0.201 OA
BRANCH  15  18
ATOM     18  N   UNL A   1      29.388  29.263  23.846  1.00  0.00    -0.277 N 
ATOM     19  H   UNL A   1      29.305  29.421  24.814  1.00  0.00     0.180 HD
BRANCH  18  20
ATOM     20  C   UNL A   1      29.091  30.363  22.987  1.00  0.00     0.085 A 
ATOM     21  C   UNL A   1      28.577  30.021  21.725  1.00  0.00     0.033 A 
ATOM     22  C   UNL A   1      29.171  31.716  23.340  1.00  0.00     0.150 A 
ATOM     23  C   UNL A   1      28.023  31.001  20.902  1.00  0.00     0.041 A 
ATOM     24  C   UNL A   1      28.621  32.698  22.518  1.00  0.00     0.080 A 
ATOM     25  F   UNL A   1      29.688  32.094  24.515  1.00  0.00    -0.205 F 
ATOM     26  C   UNL A   1      28.027  32.327  21.319  1.00  0.00     0.126 A 
ATOM     27  F   UNL A   1      27.435  33.252  20.555  1.00  0.00    -0.207 F 
ENDBRANCH  18  20
ENDBRANCH  15  18
ENDBRANCH  10  15
ENDBRANCH   6   7
ENDBRANCH   3   5
ENDBRANCH   2   3
ENDBRANCH   1   2
BRANCH   1  28
ATOM     28  C   UNL A   1      37.214  20.179  24.958  1.00  0.00     0.275 C 
BRANCH  28  29
ATOM     29  O   UNL A   1      37.812  21.273  25.680  1.00  0.00    -0.458 OA
BRANCH  29  30
ATOM     30  C   UNL A   1      39.075  21.052  26.113  1.00  0.00     0.338 C 
ATOM     31  O   UNL A   1      39.707  20.006  26.020  1.00  0.00    -0.246 OA
BRANCH  30  32
ATOM     32  C   UNL A   1      39.666  22.292  26.645  1.00  0.00     0.060 A 
ATOM     33  C   UNL A   1      39.207  23.512  26.140  1.00  0.00     0.016 A 
ATOM     34  C   UNL A   1      40.720  22.261  27.563  1.00  0.00     0.016 A 
ATOM     35  C   UNL A   1      39.808  24.706  26.541  1.00  0.00     0.010 A 
ATOM     36  C   UNL A   1      41.320  23.461  27.964  1.00  0.00     0.010 A 
ATOM     37  C   UNL A   1      40.877  24.692  27.447  1.00  0.00    -0.014 A 
BRANCH  37  38
ATOM     38  C   UNL A   1      41.552  25.962  27.824  1.00  0.00     0.031 A 
ATOM     39  C   UNL A   1      40.797  27.018  28.587  1.00  0.00     0.074 A 
ATOM     40  C   UNL A   1      42.841  26.163  27.488  1.00  0.00     0.049 A 
ATOM     41  N   UNL A   1      41.193  28.208  28.964  1.00  0.00    -0.248 NA
ATOM     42  C   UNL A   1      39.417  26.693  28.975  1.00  0.00     0.031 C 
ATOM     43  C   UNL A   1      43.683  25.204  26.772  1.00  0.00     0.029 A 
ATOM     44  N   UNL A   1      43.667  27.241  27.697  1.00  0.00    -0.354 N 
ATOM     45  C   UNL A   1      40.109  28.781  29.621  1.00  0.00     0.074 A 
ATOM     46  C   UNL A   1      39.033  27.813  29.573  1.00  0.00     0.031 C 
ATOM     47  C   UNL A   1      44.903  25.739  26.597  1.00  0.00     0.029 A 
ATOM     48  C   UNL A   1      44.919  27.092  27.145  1.00  0.00     0.049 A 
ATOM     49  H   UNL A   1      43.389  28.043  28.194  1.00  0.00     0.167 HD
ATOM     50  C   UNL A   1      40.023  29.999  30.210  1.00  0.00     0.034 A 
ATOM     51  C   UNL A   1      45.949  27.958  27.063  1.00  0.00     0.034 A 
ATOM     52  C   UNL A   1      41.105  30.953  30.259  1.00  0.00     0.049 A 
ATOM     53  C   UNL A   1      45.805  29.330  27.680  1.00  0.00     0.074 A 
ATOM     54  C   UNL A   1      41.130  32.196  30.868  1.00  0.00     0.029 A 
ATOM     55  N   UNL A   1      42.350  30.779  29.668  1.00  0.00    -0.354 N 
ATOM     56  N   UNL A   1      44.781  29.844  28.322  1.00  0.00    -0.248 NA
ATOM     57  C   UNL A   1      46.957  30.236  27.565  1.00  0.00     0.031 C 
ATOM     58  C   UNL A   1      42.361  32.801  30.589  1.00  0.00     0.029 A 
ATOM     59  C   UNL A   1      43.134  31.906  29.868  1.00  0.00     0.049 A 
ATOM     60  H   UNL A   1      42.634  29.974  29.178  1.00  0.00     0.167 HD
ATOM     61  C   UNL A   1      45.182  31.119  28.715  1.00  0.00     0.074 A 
ATOM     62  C   UNL A   1      46.543  31.289  28.252  1.00  0.00     0.031 C 
ATOM     63  C   UNL A   1      44.490  32.064  29.399  1.00  0.00     0.034 A 
BRANCH  50  64
ATOM     64  C   UNL A   1      38.698  30.398  30.810  1.00  0.00     0.023 A 
ATOM     65  C   UNL A   1      37.690  31.013  30.050  1.00  0.00     0.031 A 
ATOM     66  C   UNL A   1      38.436  30.135  32.167  1.00  0.00     0.131 A 
ATOM     67  C   UNL A   1      36.481  31.382  30.662  1.00  0.00     0.055 A 
ATOM     68  C   UNL A   1      37.209  30.448  32.754  1.00  0.00     0.041 A 
ATOM     69  F   UNL A   1      39.370  29.566  32.945  1.00  0.00    -0.206 F 
ATOM     70  C   UNL A   1      36.225  31.082  32.003  1.00  0.00     0.022 A 
BRANCH  67  71
ATOM     71  S   UNL A   1      35.277  32.342  29.703  1.00  0.00     0.124 S 
ATOM     72  O   UNL A   1      36.091  33.466  29.248  1.00  0.00    -0.237 OA
ATOM     73  O   UNL A   1      34.863  31.395  28.675  1.00  0.00    -0.237 OA
ATOM     74  O   UNL A   1      34.251  32.683  30.687  1.00  0.00    -0.744 OA
ENDBRANCH  67  71
ENDBRANCH  50  64
BRANCH  51  75
ATOM     75  C   UNL A   1      47.197  27.591  26.330  1.00  0.00     0.023 A 
ATOM     76  C   UNL A   1      47.347  27.869  24.963  1.00  0.00     0.031 A 
ATOM     77  C   UNL A   1      48.226  26.879  26.973  1.00  0.00     0.131 A 
ATOM     78  C   UNL A   1      48.467  27.384  24.269  1.00  0.00     0.055 A 
ATOM     79  C   UNL A   1      49.368  26.454  26.293  1.00  0.00     0.041 A 
ATOM     80  F   UNL A   1      48.134  26.583  28.280  1.00  0.00    -0.206 F 
ATOM     81  C   UNL A   1      49.484  26.690  24.927  1.00  0.00     0.022 A 
BRANCH  78  82
ATOM     82  S   UNL A   1      48.517  27.571  22.464  1.00  0.00     0.124 S 
ATOM     83  O   UNL A   1      49.793  28.251  22.271  1.00  0.00    -0.237 OA
ATOM     84  O   UNL A   1      48.454  26.185  22.016  1.00  0.00    -0.237 OA
ATOM     85  O   UNL A   1      47.330  28.374  22.174  1.00  0.00    -0.744 OA
ENDBRANCH  78  82
ENDBRANCH  51  75
BRANCH  63  86
ATOM     86  C   UNL A   1      45.219  33.344  29.731  1.00  0.00     0.023 A 
ATOM     87  C   UNL A   1      45.137  34.479  28.908  1.00  0.00     0.031 A 
ATOM     88  C   UNL A   1      46.021  33.418  30.884  1.00  0.00     0.131 A 
ATOM     89  C   UNL A   1      45.888  35.624  29.219  1.00  0.00     0.055 A 
ATOM     90  C   UNL A   1      46.720  34.579  31.220  1.00  0.00     0.041 A 
ATOM     91  F   UNL A   1      46.137  32.363  31.706  1.00  0.00    -0.206 F 
ATOM     92  C   UNL A   1      46.667  35.685  30.378  1.00  0.00     0.022 A 
BRANCH  89  93
ATOM     93  S   UNL A   1      45.902  37.004  28.041  1.00  0.00     0.124 S 
ATOM     94  O   UNL A   1      44.653  37.688  28.359  1.00  0.00    -0.237 OA
ATOM     95  O   UNL A   1      47.126  37.712  28.405  1.00  0.00    -0.237 OA
ATOM     96  O   UNL A   1      45.934  36.343  26.738  1.00  0.00    -0.744 OA
ENDBRANCH  89  93
ENDBRANCH  63  86
ENDBRANCH  37  38
ENDBRANCH  30  32
ENDBRANCH  29  30
ENDBRANCH  28  29
ENDBRANCH   1  28
TORSDOF 19
ENDMDL
MODEL 2
REMARK VINA RESULT:     -11.8      5.779     11.113
REMARK SMILES COc1ccc(/C=C/C(=O)OCCOC(=O)c2ccc(-c3c4nc(c(-c5cc(S(=O)(=O)[O-])ccc5F)c5ccc([nH]5)c(-c5cc(S(=O)(=O)[O-])ccc5F)c5nc(c(-c6cc(S(=O)(=O)[O-])ccc6F)c6ccc3[nH]6)C=C5)C=C4)cc2)cc1S(=O)(=O)Nc1ccc(F)cc1F
REMARK SMILES IDX 12 1 11 2 9 3 10 4 8 5 7 6 6 7 3 8 4 9 81 10 5 11 80 12 2 13
REMARK SMILES IDX 1 14 82 15 83 16 84 17 85 18 86 20 87 21 92 22 88 23 91 24
REMARK SMILES IDX 93 25 89 26 90 27 13 28 14 29 15 30 16 31 17 32 18 33 79 34
REMARK SMILES IDX 19 35 78 36 20 37 21 38 22 39 72 40 23 41 77 42 71 43 73 44
REMARK SMILES IDX 24 45 76 46 70 47 69 48 25 50 57 51 37 52 56 53 38 54 41 55
REMARK SMILES IDX 55 56 74 57 39 58 40 59 54 61 75 62 42 63 26 64 27 65 35 66
REMARK SMILES IDX 28 67 34 68 36 69 33 70 29 71 30 72 31 73 32 74 58 75 59 76
REMARK SMILES IDX 67 77 60 78 66 79 68 80 65 81 61 82 62 83 63 84 64 85 43 86
REMARK SMILES IDX 44 87 52 88 45 89 51 90 53 91 50 92 46 93 47 94 48 95 49 96
REMARK H PARENT 85 19 73 49 41 60
REMARK Flexibility Score: inf
ROOT
ATOM      1  C   UNL A   1      32.358  31.531  26.614  1.00  0.00     0.275 C 
ENDROOT
BRANCH   1   2
ATOM      2  O   UNL A   1      33.030  30.704  27.583  1.00  0.00    -0.459 OA
BRANCH   2   3
ATOM      3  C   UNL A   1      34.156  30.108  27.132  1.00  0.00     0.330 C 
ATOM      4  O   UNL A   1      35.303  30.460  27.372  1.00  0.00    -0.247 OA
BRANCH   3   5
ATOM      5  C   UNL A   1      33.898  28.925  26.296  1.00  0.00     0.094 C 
ATOM      6  C   UNL A   1      33.571  27.679  26.681  1.00  0.00     0.015 C 
BRANCH   6   7
ATOM      7  C   UNL A   1      33.422  26.632  25.656  1.00  0.00    -0.024 A 
ATOM      8  C   UNL A   1      32.651  24.688  23.794  1.00  0.00     0.139 A 
ATOM      9  C   UNL A   1      32.758  26.024  23.408  1.00  0.00     0.048 A 
ATOM     10  C   UNL A   1      33.150  24.284  25.029  1.00  0.00     0.130 A 
ATOM     11  C   UNL A   1      33.161  26.985  24.327  1.00  0.00     0.012 A 
ATOM     12  C   UNL A   1      33.499  25.270  25.979  1.00  0.00     0.034 A 
BRANCH   8  13
ATOM     13  O   UNL A   1      32.046  23.875  22.885  1.00  0.00    -0.495 OA
ATOM     14  C   UNL A   1      30.659  23.724  23.184  1.00  0.00     0.278 C 
ENDBRANCH   8  13
BRANCH  10  15
ATOM     15  S   UNL A   1      33.456  22.604  25.515  1.00  0.00     0.265 S 
ATOM     16  O   UNL A   1      34.707  22.575  26.243  1.00  0.00    -0.201 OA
ATOM     17  O   UNL A   1      32.237  22.170  26.174  1.00  0.00    -0.201 OA
BRANCH  15  18
ATOM     18  N   UNL A   1      33.586  21.561  24.212  1.00  0.00    -0.277 N 
ATOM     19  H   UNL A   1      33.624  21.971  23.318  1.00  0.00     0.180 HD
BRANCH  18  20
ATOM     20  C   UNL A   1      33.647  20.137  24.270  1.00  0.00     0.085 A 
ATOM     21  C   UNL A   1      32.497  19.465  23.824  1.00  0.00     0.033 A 
ATOM     22  C   UNL A   1      34.772  19.384  24.629  1.00  0.00     0.150 A 
ATOM     23  C   UNL A   1      32.528  18.088  23.602  1.00  0.00     0.041 A 
ATOM     24  C   UNL A   1      34.806  18.008  24.411  1.00  0.00     0.080 A 
ATOM     25  F   UNL A   1      35.878  19.975  25.096  1.00  0.00    -0.205 F 
ATOM     26  C   UNL A   1      33.691  17.378  23.873  1.00  0.00     0.126 A 
ATOM     27  F   UNL A   1      33.735  16.069  23.596  1.00  0.00    -0.207 F 
ENDBRANCH  18  20
ENDBRANCH  15  18
ENDBRANCH  10  15
ENDBRANCH   6   7
ENDBRANCH   3   5
ENDBRANCH   2   3
ENDBRANCH   1   2
BRANCH   1  28
ATOM     28  C   UNL A   1      31.920  32.866  27.223  1.00  0.00     0.275 C 
BRANCH  28  29
ATOM     29  O   UNL A   1      32.983  33.837  27.254  1.00  0.00    -0.458 OA
BRANCH  29  30
ATOM     30  C   UNL A   1      33.308  34.293  28.486  1.00  0.00     0.338 C 
ATOM     31  O   UNL A   1      32.684  35.111  29.152  1.00  0.00    -0.246 OA
BRANCH  30  32
ATOM     32  C   UNL A   1      34.498  33.593  29.000  1.00  0.00     0.060 A 
ATOM     33  C   UNL A   1      34.319  32.629  29.996  1.00  0.00     0.016 A 
ATOM     34  C   UNL A   1      35.785  33.939  28.577  1.00  0.00     0.016 A 
ATOM     35  C   UNL A   1      35.426  32.014  30.582  1.00  0.00     0.010 A 
ATOM     36  C   UNL A   1      36.894  33.319  29.167  1.00  0.00     0.010 A 
ATOM     37  C   UNL A   1      36.724  32.361  30.183  1.00  0.00    -0.014 A 
BRANCH  37  38
ATOM     38  C   UNL A   1      37.900  31.746  30.854  1.00  0.00     0.031 A 
ATOM     39  C   UNL A   1      38.710  30.696  30.142  1.00  0.00     0.074 A 
ATOM     40  C   UNL A   1      38.244  32.136  32.096  1.00  0.00     0.049 A 
ATOM     41  N   UNL A   1      39.737  30.009  30.574  1.00  0.00    -0.248 NA
ATOM     42  C   UNL A   1      38.311  30.378  28.763  1.00  0.00     0.031 C 
ATOM     43  C   UNL A   1      37.551  33.162  32.878  1.00  0.00     0.029 A 
ATOM     44  N   UNL A   1      39.255  31.712  32.925  1.00  0.00    -0.354 N 
ATOM     45  C   UNL A   1      40.100  29.166  29.529  1.00  0.00     0.074 A 
ATOM     46  C   UNL A   1      39.170  29.416  28.448  1.00  0.00     0.031 C 
ATOM     47  C   UNL A   1      38.155  33.284  34.073  1.00  0.00     0.029 A 
ATOM     48  C   UNL A   1      39.245  32.317  34.161  1.00  0.00     0.049 A 
ATOM     49  H   UNL A   1      39.923  31.041  32.658  1.00  0.00     0.167 HD
ATOM     50  C   UNL A   1      41.117  28.270  29.478  1.00  0.00     0.034 A 
ATOM     51  C   UNL A   1      40.008  32.094  35.252  1.00  0.00     0.034 A 
ATOM     52  C   UNL A   1      42.044  28.035  30.559  1.00  0.00     0.049 A 
ATOM     53  C   UNL A   1      41.097  31.049  35.184  1.00  0.00     0.074 A 
ATOM     54  C   UNL A   1      43.133  27.179  30.588  1.00  0.00     0.029 A 
ATOM     55  N   UNL A   1      41.989  28.646  31.805  1.00  0.00    -0.354 N 
ATOM     56  N   UNL A   1      41.444  30.281  34.176  1.00  0.00    -0.248 NA
ATOM     57  C   UNL A   1      41.900  30.846  36.398  1.00  0.00     0.031 C 
ATOM     58  C   UNL A   1      43.693  27.221  31.870  1.00  0.00     0.029 A 
ATOM     59  C   UNL A   1      43.001  28.159  32.619  1.00  0.00     0.049 A 
ATOM     60  H   UNL A   1      41.328  29.325  32.071  1.00  0.00     0.167 HD
ATOM     61  C   UNL A   1      42.527  29.530  34.629  1.00  0.00     0.074 A 
ATOM     62  C   UNL A   1      42.785  29.948  35.990  1.00  0.00     0.031 C 
ATOM     63  C   UNL A   1      43.246  28.582  33.977  1.00  0.00     0.034 A 
BRANCH  50  64
ATOM     64  C   UNL A   1      41.257  27.436  28.229  1.00  0.00     0.023 A 
ATOM     65  C   UNL A   1      40.886  26.082  28.192  1.00  0.00     0.031 A 
ATOM     66  C   UNL A   1      41.751  28.020  27.048  1.00  0.00     0.131 A 
ATOM     67  C   UNL A   1      41.055  25.344  27.009  1.00  0.00     0.055 A 
ATOM     68  C   UNL A   1      41.857  27.297  25.858  1.00  0.00     0.041 A 
ATOM     69  F   UNL A   1      42.137  29.304  27.031  1.00  0.00    -0.206 F 
ATOM     70  C   UNL A   1      41.516  25.949  25.836  1.00  0.00     0.022 A 
BRANCH  67  71
ATOM     71  S   UNL A   1      40.748  23.557  27.045  1.00  0.00     0.124 S 
ATOM     72  O   UNL A   1      41.236  23.201  28.375  1.00  0.00    -0.237 OA
ATOM     73  O   UNL A   1      39.305  23.479  26.853  1.00  0.00    -0.237 OA
ATOM     74  O   UNL A   1      41.553  23.049  25.936  1.00  0.00    -0.744 OA
ENDBRANCH  67  71
ENDBRANCH  50  64
BRANCH  51  75
ATOM     75  C   UNL A   1      39.750  32.829  36.525  1.00  0.00     0.023 A 
ATOM     76  C   UNL A   1      38.875  32.317  37.497  1.00  0.00     0.031 A 
ATOM     77  C   UNL A   1      40.312  34.098  36.750  1.00  0.00     0.131 A 
ATOM     78  C   UNL A   1      38.540  33.096  38.616  1.00  0.00     0.055 A 
ATOM     79  C   UNL A   1      40.025  34.842  37.895  1.00  0.00     0.041 A 
ATOM     80  F   UNL A   1      41.153  34.637  35.852  1.00  0.00    -0.206 F 
ATOM     81  C   UNL A   1      39.118  34.349  38.828  1.00  0.00     0.022 A 
BRANCH  78  82
ATOM     82  S   UNL A   1      37.241  32.496  39.732  1.00  0.00     0.124 S 
ATOM     83  O   UNL A   1      37.778  31.205  40.146  1.00  0.00    -0.237 OA
ATOM     84  O   UNL A   1      37.216  33.538  40.753  1.00  0.00    -0.237 OA
ATOM     85  O   UNL A   1      36.058  32.436  38.875  1.00  0.00    -0.744 OA
ENDBRANCH  78  82
ENDBRANCH  51  75
BRANCH  63  86
ATOM     86  C   UNL A   1      44.413  27.975  34.718  1.00  0.00     0.023 A 
ATOM     87  C   UNL A   1      44.278  26.805  35.484  1.00  0.00     0.031 A 
ATOM     88  C   UNL A   1      45.677  28.592  34.667  1.00  0.00     0.131 A 
ATOM     89  C   UNL A   1      45.374  26.316  36.213  1.00  0.00     0.055 A 
ATOM     90  C   UNL A   1      46.777  28.069  35.348  1.00  0.00     0.041 A 
ATOM     91  F   UNL A   1      45.863  29.713  33.952  1.00  0.00    -0.206 F 
ATOM     92  C   UNL A   1      46.626  26.933  36.137  1.00  0.00     0.022 A 
BRANCH  89  93
ATOM     93  S   UNL A   1      45.120  24.912  37.333  1.00  0.00     0.124 S 
ATOM     94  O   UNL A   1      43.665  24.827  37.390  1.00  0.00    -0.237 OA
ATOM     95  O   UNL A   1      45.794  23.825  36.629  1.00  0.00    -0.237 OA
ATOM     96  O   UNL A   1      45.766  25.340  38.572  1.00  0.00    -0.744 OA
ENDBRANCH  89  93
ENDBRANCH  63  86
ENDBRANCH  37  38
ENDBRANCH  30  32
ENDBRANCH  29  30
ENDBRANCH  28  29
ENDBRANCH   1  28
TORSDOF 19
ENDMDL
MODEL 3
REMARK VINA RESULT:     -11.8      2.328      2.892
REMARK SMILES COc1ccc(/C=C/C(=O)OCCOC(=O)c2ccc(-c3c4nc(c(-c5cc(S(=O)(=O)[O-])ccc5F)c5ccc([nH]5)c(-c5cc(S(=O)(=O)[O-])ccc5F)c5nc(c(-c6cc(S(=O)(=O)[O-])ccc6F)c6ccc3[nH]6)C=C5)C=C4)cc2)cc1S(=O)(=O)Nc1ccc(F)cc1F
REMARK SMILES IDX 12 1 11 2 9 3 10 4 8 5 7 6 6 7 3 8 4 9 81 10 5 11 80 12 2 13
REMARK SMILES IDX 1 14 82 15 83 16 84 17 85 18 86 20 87 21 92 22 88 23 91 24
REMARK SMILES IDX 93 25 89 26 90 27 13 28 14 29 15 30 16 31 17 32 18 33 79 34
REMARK SMILES IDX 19 35 78 36 20 37 21 38 22 39 72 40 23 41 77 42 71 43 73 44
REMARK SMILES IDX 24 45 76 46 70 47 69 48 25 50 57 51 37 52 56 53 38 54 41 55
REMARK SMILES IDX 55 56 74 57 39 58 40 59 54 61 75 62 42 63 26 64 27 65 35 66
REMARK SMILES IDX 28 67 34 68 36 69 33 70 29 71 30 72 31 73 32 74 58 75 59 76
REMARK SMILES IDX 67 77 60 78 66 79 68 80 65 81 61 82 62 83 63 84 64 85 43 86
REMARK SMILES IDX 44 87 52 88 45 89 51 90 53 91 50 92 46 93 47 94 48 95 49 96
REMARK H PARENT 85 19 73 49 41 60
REMARK Flexibility Score: inf
ROOT
ATOM      1  C   UNL A   1      35.535  20.657  24.895  1.00  0.00     0.275 C 
ENDROOT
BRANCH   1   2
ATOM      2  O   UNL A   1      34.834  19.414  24.706  1.00  0.00    -0.459 OA
BRANCH   2   3
ATOM      3  C   UNL A   1      33.489  19.527  24.654  1.00  0.00     0.330 C 
ATOM      4  O   UNL A   1      32.689  18.602  24.618  1.00  0.00    -0.247 OA
BRANCH   3   5
ATOM      5  C   UNL A   1      33.017  20.921  24.659  1.00  0.00     0.094 C 
ATOM      6  C   UNL A   1      31.950  21.449  24.034  1.00  0.00     0.015 C 
BRANCH   6   7
ATOM      7  C   UNL A   1      31.708  22.898  24.136  1.00  0.00    -0.024 A 
ATOM      8  C   UNL A   1      30.800  25.547  24.148  1.00  0.00     0.139 A 
ATOM      9  C   UNL A   1      30.593  24.731  25.260  1.00  0.00     0.048 A 
ATOM     10  C   UNL A   1      31.657  25.128  23.135  1.00  0.00     0.130 A 
ATOM     11  C   UNL A   1      31.062  23.423  25.262  1.00  0.00     0.012 A 
ATOM     12  C   UNL A   1      32.078  23.780  23.112  1.00  0.00     0.034 A 
BRANCH   8  13
ATOM     13  O   UNL A   1      30.118  26.725  24.166  1.00  0.00    -0.495 OA
ATOM     14  C   UNL A   1      28.737  26.516  23.870  1.00  0.00     0.278 C 
ENDBRANCH   8  13
BRANCH  10  15
ATOM     15  S   UNL A   1      32.338  26.169  21.867  1.00  0.00     0.265 S 
ATOM     16  O   UNL A   1      33.616  25.613  21.477  1.00  0.00    -0.201 OA
ATOM     17  O   UNL A   1      31.284  26.302  20.876  1.00  0.00    -0.201 OA
BRANCH  15  18
ATOM     18  N   UNL A   1      32.588  27.743  22.380  1.00  0.00    -0.277 N 
ATOM     19  H   UNL A   1      32.497  28.450  21.701  1.00  0.00     0.180 HD
BRANCH  18  20
ATOM     20  C   UNL A   1      32.921  28.159  23.703  1.00  0.00     0.085 A 
ATOM     21  C   UNL A   1      32.261  29.314  24.156  1.00  0.00     0.033 A 
ATOM     22  C   UNL A   1      33.749  27.462  24.592  1.00  0.00     0.150 A 
ATOM     23  C   UNL A   1      32.315  29.673  25.503  1.00  0.00     0.041 A 
ATOM     24  C   UNL A   1      33.807  27.820  25.938  1.00  0.00     0.080 A 
ATOM     25  F   UNL A   1      34.428  26.379  24.198  1.00  0.00    -0.205 F 
ATOM     26  C   UNL A   1      33.066  28.906  26.385  1.00  0.00     0.126 A 
ATOM     27  F   UNL A   1      33.060  29.217  27.687  1.00  0.00    -0.207 F 
ENDBRANCH  18  20
ENDBRANCH  15  18
ENDBRANCH  10  15
ENDBRANCH   6   7
ENDBRANCH   3   5
ENDBRANCH   2   3
ENDBRANCH   1   2
BRANCH   1  28
ATOM     28  C   UNL A   1      37.033  20.429  25.119  1.00  0.00     0.275 C 
BRANCH  28  29
ATOM     29  O   UNL A   1      37.687  21.574  25.701  1.00  0.00    -0.458 OA
BRANCH  29  30
ATOM     30  C   UNL A   1      38.970  21.369  26.081  1.00  0.00     0.338 C 
ATOM     31  O   UNL A   1      39.623  20.343  25.929  1.00  0.00    -0.246 OA
BRANCH  30  32
ATOM     32  C   UNL A   1      39.550  22.605  26.635  1.00  0.00     0.060 A 
ATOM     33  C   UNL A   1      39.103  23.829  26.129  1.00  0.00     0.016 A 
ATOM     34  C   UNL A   1      40.584  22.565  27.575  1.00  0.00     0.016 A 
ATOM     35  C   UNL A   1      39.696  25.019  26.552  1.00  0.00     0.010 A 
ATOM     36  C   UNL A   1      41.177  23.762  27.998  1.00  0.00     0.010 A 
ATOM     37  C   UNL A   1      40.746  24.997  27.481  1.00  0.00    -0.014 A 
BRANCH  37  38
ATOM     38  C   UNL A   1      41.414  26.264  27.882  1.00  0.00     0.031 A 
ATOM     39  C   UNL A   1      40.640  27.322  28.622  1.00  0.00     0.074 A 
ATOM     40  C   UNL A   1      42.713  26.460  27.588  1.00  0.00     0.049 A 
ATOM     41  N   UNL A   1      41.028  28.509  29.014  1.00  0.00    -0.248 NA
ATOM     42  C   UNL A   1      39.246  27.001  28.965  1.00  0.00     0.031 C 
ATOM     43  C   UNL A   1      43.574  25.498  26.897  1.00  0.00     0.029 A 
ATOM     44  N   UNL A   1      43.537  27.534  27.826  1.00  0.00    -0.354 N 
ATOM     45  C   UNL A   1      39.926  29.085  29.637  1.00  0.00     0.074 A 
ATOM     46  C   UNL A   1      38.848  28.122  29.553  1.00  0.00     0.031 C 
ATOM     47  C   UNL A   1      44.802  26.028  26.763  1.00  0.00     0.029 A 
ATOM     48  C   UNL A   1      44.806  27.380  27.314  1.00  0.00     0.049 A 
ATOM     49  H   UNL A   1      43.247  28.336  28.315  1.00  0.00     0.167 HD
ATOM     50  C   UNL A   1      39.826  30.303  30.225  1.00  0.00     0.034 A 
ATOM     51  C   UNL A   1      45.842  28.242  27.267  1.00  0.00     0.034 A 
ATOM     52  C   UNL A   1      40.910  31.252  30.310  1.00  0.00     0.049 A 
ATOM     53  C   UNL A   1      45.684  29.614  27.881  1.00  0.00     0.074 A 
ATOM     54  C   UNL A   1      40.920  32.494  30.923  1.00  0.00     0.029 A 
ATOM     55  N   UNL A   1      42.173  31.073  29.760  1.00  0.00    -0.354 N 
ATOM     56  N   UNL A   1      44.642  30.130  28.491  1.00  0.00    -0.248 NA
ATOM     57  C   UNL A   1      46.842  30.514  27.805  1.00  0.00     0.031 C 
ATOM     58  C   UNL A   1      42.162  33.094  30.685  1.00  0.00     0.029 A 
ATOM     59  C   UNL A   1      42.955  32.197  29.987  1.00  0.00     0.049 A 
ATOM     60  H   UNL A   1      42.469  30.268  29.277  1.00  0.00     0.167 HD
ATOM     61  C   UNL A   1      45.035  31.403  28.899  1.00  0.00     0.074 A 
ATOM     62  C   UNL A   1      46.411  31.569  28.481  1.00  0.00     0.031 C 
ATOM     63  C   UNL A   1      44.325  32.350  29.563  1.00  0.00     0.034 A 
BRANCH  50  64
ATOM     64  C   UNL A   1      38.484  30.706  30.783  1.00  0.00     0.023 A 
ATOM     65  C   UNL A   1      37.528  31.383  30.008  1.00  0.00     0.031 A 
ATOM     66  C   UNL A   1      38.153  30.385  32.112  1.00  0.00     0.131 A 
ATOM     67  C   UNL A   1      36.300  31.753  30.582  1.00  0.00     0.055 A 
ATOM     68  C   UNL A   1      36.907  30.701  32.657  1.00  0.00     0.041 A 
ATOM     69  F   UNL A   1      39.035  29.755  32.902  1.00  0.00    -0.206 F 
ATOM     70  C   UNL A   1      35.975  31.396  31.893  1.00  0.00     0.022 A 
BRANCH  67  71
ATOM     71  S   UNL A   1      35.166  32.790  29.618  1.00  0.00     0.124 S 
ATOM     72  O   UNL A   1      36.023  33.918  29.267  1.00  0.00    -0.237 OA
ATOM     73  O   UNL A   1      34.788  31.908  28.520  1.00  0.00    -0.237 OA
ATOM     74  O   UNL A   1      34.097  33.100  30.566  1.00  0.00    -0.744 OA
ENDBRANCH  67  71
ENDBRANCH  50  64
BRANCH  51  75
ATOM     75  C   UNL A   1      47.111  27.871  26.574  1.00  0.00     0.023 A 
ATOM     76  C   UNL A   1      47.254  28.023  25.186  1.00  0.00     0.031 A 
ATOM     77  C   UNL A   1      48.171  27.279  27.284  1.00  0.00     0.131 A 
ATOM     78  C   UNL A   1      48.402  27.532  24.543  1.00  0.00     0.055 A 
ATOM     79  C   UNL A   1      49.337  26.849  26.649  1.00  0.00     0.041 A 
ATOM     80  F   UNL A   1      48.087  27.106  28.613  1.00  0.00    -0.206 F 
ATOM     81  C   UNL A   1      49.449  26.958  25.266  1.00  0.00     0.022 A 
BRANCH  78  82
ATOM     82  S   UNL A   1      48.453  27.546  22.729  1.00  0.00     0.124 S 
ATOM     83  O   UNL A   1      49.706  28.247  22.472  1.00  0.00    -0.237 OA
ATOM     84  O   UNL A   1      48.438  26.121  22.417  1.00  0.00    -0.237 OA
ATOM     85  O   UNL A   1      47.241  28.276  22.362  1.00  0.00    -0.744 OA
ENDBRANCH  78  82
ENDBRANCH  51  75
BRANCH  63  86
ATOM     86  C   UNL A   1      45.048  33.626  29.921  1.00  0.00     0.023 A 
ATOM     87  C   UNL A   1      45.737  33.772  31.137  1.00  0.00     0.031 A 
ATOM     88  C   UNL A   1      45.030  34.718  29.034  1.00  0.00     0.131 A 
ATOM     89  C   UNL A   1      46.335  35.001  31.458  1.00  0.00     0.055 A 
ATOM     90  C   UNL A   1      45.676  35.919  29.334  1.00  0.00     0.041 A 
ATOM     91  F   UNL A   1      44.386  34.635  27.859  1.00  0.00    -0.206 F 
ATOM     92  C   UNL A   1      46.322  36.070  30.558  1.00  0.00     0.022 A 
BRANCH  89  93
ATOM     93  S   UNL A   1      47.058  35.214  33.109  1.00  0.00     0.124 S 
ATOM     94  O   UNL A   1      48.260  34.391  33.023  1.00  0.00    -0.237 OA
ATOM     95  O   UNL A   1      47.276  36.656  33.170  1.00  0.00    -0.237 OA
ATOM     96  O   UNL A   1      46.021  34.706  34.005  1.00  0.00    -0.744 OA
ENDBRANCH  89  93
ENDBRANCH  63  86
ENDBRANCH  37  38
ENDBRANCH  30  32
ENDBRANCH  29  30
ENDBRANCH  28  29
ENDBRANCH   1  28
TORSDOF 19
ENDMDL
