MODEL 1
REMARK VINA RESULT:      -9.7      0.000      0.000
REMARK SMILES CCC(CC)NC(=O)NC[C@H]1CC[C@H](C(=O)OCCOC(=O)c2ccc(-c3c4nc(c(-c5cc(S(=O)(=O)[O-])ccc5F)c5ccc([nH]5)c(-c5cc(S(=O)(=O)[O-])ccc5F)c5nc(c(-c6cc(S(=O)(=O)[O-])ccc6F)c6ccc3[nH]6)C=C5)C=C4)cc2)O1
REMARK SMILES IDX 18 1 17 2 15 3 16 4 14 5 11 6 12 7 86 8 13 9 10 10 9 11 6 12
REMARK SMILES IDX 7 13 8 15 3 17 2 18 1 19 4 20 5 21 19 22 20 23 21 24 22 25
REMARK SMILES IDX 23 26 24 27 85 28 25 29 84 30 26 31 27 32 28 33 78 34 29 35
REMARK SMILES IDX 83 36 77 37 79 38 30 39 82 40 76 41 75 42 31 44 63 45 43 46
REMARK SMILES IDX 62 47 44 48 47 49 61 50 80 51 45 52 46 53 60 55 81 56 48 57
REMARK SMILES IDX 32 58 33 59 41 60 34 61 40 62 42 63 39 64 35 65 36 66 37 67
REMARK SMILES IDX 38 68 64 69 65 70 73 71 66 72 72 73 74 74 71 75 67 76 68 77
REMARK SMILES IDX 69 78 70 79 49 80 50 81 58 82 51 83 57 84 59 85 56 86 52 87
REMARK SMILES IDX 53 88 54 89 55 90
REMARK H PARENT 6 14 9 16 79 43 47 54
REMARK Flexibility Score: inf
ROOT
ATOM      1  C   UNL A   1      33.378  34.333  28.034  1.00  0.00     0.274 C 
ENDROOT
BRANCH   1   2
ATOM      2  O   UNL A   1      32.634  35.119  28.983  1.00  0.00    -0.460 OA
BRANCH   2   3
ATOM      3  C   UNL A   1      33.171  36.334  29.295  1.00  0.00     0.335 C 
ATOM      4  O   UNL A   1      33.113  37.321  28.571  1.00  0.00    -0.249 OA
BRANCH   3   5
ATOM      5  C   UNL A   1      33.871  36.333  30.657  1.00  0.00     0.228 C 
ATOM      6  C   UNL A   1      33.639  35.199  32.683  1.00  0.00     0.138 C 
ATOM      7  C   UNL A   1      32.743  36.417  32.759  1.00  0.00     0.037 C 
ATOM      8  O   UNL A   1      33.912  35.033  31.279  1.00  0.00    -0.361 OA
ATOM      9  C   UNL A   1      33.275  37.307  31.667  1.00  0.00     0.047 C 
BRANCH   6  10
ATOM     10  C   UNL A   1      34.941  35.288  33.515  1.00  0.00     0.149 C 
BRANCH  10  11
ATOM     11  N   UNL A   1      35.361  34.032  34.115  1.00  0.00    -0.336 N 
ATOM     12  N   UNL A   1      37.502  33.473  33.290  1.00  0.00    -0.335 N 
ATOM     13  C   UNL A   1      36.507  33.347  34.175  1.00  0.00     0.315 C 
ATOM     14  H   UNL A   1      38.350  33.081  33.598  1.00  0.00     0.165 HD
ATOM     15  O   UNL A   1      36.647  32.541  35.095  1.00  0.00    -0.249 OA
ATOM     16  H   UNL A   1      34.627  33.578  34.590  1.00  0.00     0.165 HD
BRANCH  12  17
ATOM     17  C   UNL A   1      37.588  34.070  31.965  1.00  0.00     0.083 C 
BRANCH  17  18
ATOM     18  C   UNL A   1      39.020  34.559  31.715  1.00  0.00     0.021 C 
ATOM     19  C   UNL A   1      39.877  34.540  32.970  1.00  0.00     0.006 C 
ENDBRANCH  17  18
BRANCH  17  20
ATOM     20  C   UNL A   1      37.025  33.108  30.899  1.00  0.00     0.021 C 
ATOM     21  C   UNL A   1      37.120  33.591  29.459  1.00  0.00     0.006 C 
ENDBRANCH  17  20
ENDBRANCH  12  17
ENDBRANCH  10  11
ENDBRANCH   6  10
ENDBRANCH   3   5
ENDBRANCH   2   3
ENDBRANCH   1   2
BRANCH   1  22
ATOM     22  C   UNL A   1      33.593  32.898  28.525  1.00  0.00     0.275 C 
BRANCH  22  23
ATOM     23  O   UNL A   1      34.586  32.204  27.747  1.00  0.00    -0.458 OA
BRANCH  23  24
ATOM     24  C   UNL A   1      34.462  30.859  27.718  1.00  0.00     0.338 C 
ATOM     25  O   UNL A   1      33.485  30.220  27.348  1.00  0.00    -0.246 OA
BRANCH  24  26
ATOM     26  C   UNL A   1      35.728  30.222  28.105  1.00  0.00     0.060 A 
ATOM     27  C   UNL A   1      35.786  29.544  29.326  1.00  0.00     0.016 A 
ATOM     28  C   UNL A   1      36.873  30.367  27.318  1.00  0.00     0.016 A 
ATOM     29  C   UNL A   1      36.995  29.008  29.768  1.00  0.00     0.010 A 
ATOM     30  C   UNL A   1      38.084  29.827  27.763  1.00  0.00     0.010 A 
ATOM     31  C   UNL A   1      38.156  29.154  28.996  1.00  0.00    -0.014 A 
BRANCH  31  32
ATOM     32  C   UNL A   1      39.456  28.645  29.501  1.00  0.00     0.031 A 
ATOM     33  C   UNL A   1      40.145  29.350  30.636  1.00  0.00     0.074 A 
ATOM     34  C   UNL A   1      40.011  27.553  28.945  1.00  0.00     0.049 A 
ATOM     35  N   UNL A   1      41.312  29.110  31.177  1.00  0.00    -0.248 NA
ATOM     36  C   UNL A   1      39.421  30.479  31.235  1.00  0.00     0.031 C 
ATOM     37  C   UNL A   1      39.416  26.762  27.868  1.00  0.00     0.029 A 
ATOM     38  N   UNL A   1      41.200  26.920  29.208  1.00  0.00    -0.354 N 
ATOM     39  C   UNL A   1      41.472  30.065  32.175  1.00  0.00     0.074 A 
ATOM     40  C   UNL A   1      40.292  30.906  32.139  1.00  0.00     0.031 C 
ATOM     41  C   UNL A   1      40.240  25.746  27.566  1.00  0.00     0.029 A 
ATOM     42  C   UNL A   1      41.441  25.840  28.391  1.00  0.00     0.049 A 
ATOM     43  H   UNL A   1      41.820  27.211  29.915  1.00  0.00     0.167 HD
ATOM     44  C   UNL A   1      42.503  30.219  33.045  1.00  0.00     0.034 A 
ATOM     45  C   UNL A   1      42.519  25.036  28.302  1.00  0.00     0.034 A 
ATOM     46  C   UNL A   1      43.674  29.372  33.062  1.00  0.00     0.049 A 
ATOM     47  C   UNL A   1      43.691  25.282  29.217  1.00  0.00     0.074 A 
ATOM     48  C   UNL A   1      44.767  29.426  33.911  1.00  0.00     0.029 A 
ATOM     49  N   UNL A   1      43.911  28.325  32.181  1.00  0.00    -0.354 N 
ATOM     50  N   UNL A   1      43.833  26.191  30.155  1.00  0.00    -0.248 NA
ATOM     51  C   UNL A   1      44.849  24.392  29.061  1.00  0.00     0.031 C 
ATOM     52  C   UNL A   1      45.691  28.457  33.500  1.00  0.00     0.029 A 
ATOM     53  C   UNL A   1      45.146  27.749  32.441  1.00  0.00     0.049 A 
ATOM     54  H   UNL A   1      43.291  28.032  31.473  1.00  0.00     0.167 HD
ATOM     55  C   UNL A   1      45.086  25.964  30.717  1.00  0.00     0.074 A 
ATOM     56  C   UNL A   1      45.653  24.826  30.020  1.00  0.00     0.031 C 
ATOM     57  C   UNL A   1      45.709  26.628  31.724  1.00  0.00     0.034 A 
BRANCH  44  58
ATOM     58  C   UNL A   1      42.427  31.384  34.004  1.00  0.00     0.023 A 
ATOM     59  C   UNL A   1      41.569  31.375  35.118  1.00  0.00     0.031 A 
ATOM     60  C   UNL A   1      43.192  32.541  33.772  1.00  0.00     0.131 A 
ATOM     61  C   UNL A   1      41.436  32.528  35.908  1.00  0.00     0.055 A 
ATOM     62  C   UNL A   1      43.114  33.656  34.610  1.00  0.00     0.041 A 
ATOM     63  F   UNL A   1      44.013  32.618  32.714  1.00  0.00    -0.206 F 
ATOM     64  C   UNL A   1      42.219  33.660  35.676  1.00  0.00     0.022 A 
BRANCH  61  65
ATOM     65  S   UNL A   1      40.111  32.582  37.148  1.00  0.00     0.124 S 
ATOM     66  O   UNL A   1      40.857  32.377  38.389  1.00  0.00    -0.237 OA
ATOM     67  O   UNL A   1      39.550  33.913  36.953  1.00  0.00    -0.237 OA
ATOM     68  O   UNL A   1      39.238  31.474  36.767  1.00  0.00    -0.744 OA
ENDBRANCH  61  65
ENDBRANCH  44  58
BRANCH  45  69
ATOM     69  C   UNL A   1      42.565  23.950  27.283  1.00  0.00     0.023 A 
ATOM     70  C   UNL A   1      41.889  22.737  27.485  1.00  0.00     0.031 A 
ATOM     71  C   UNL A   1      43.326  24.094  26.109  1.00  0.00     0.131 A 
ATOM     72  C   UNL A   1      42.015  21.701  26.545  1.00  0.00     0.055 A 
ATOM     73  C   UNL A   1      43.408  23.081  25.153  1.00  0.00     0.041 A 
ATOM     74  F   UNL A   1      43.995  25.233  25.870  1.00  0.00    -0.206 F 
ATOM     75  C   UNL A   1      42.759  21.870  25.375  1.00  0.00     0.022 A 
BRANCH  72  76
ATOM     76  S   UNL A   1      41.254  20.096  26.912  1.00  0.00     0.124 S 
ATOM     77  O   UNL A   1      40.779  20.296  28.276  1.00  0.00    -0.237 OA
ATOM     78  O   UNL A   1      40.226  20.004  25.881  1.00  0.00    -0.237 OA
ATOM     79  O   UNL A   1      42.362  19.154  26.768  1.00  0.00    -0.744 OA
ENDBRANCH  72  76
ENDBRANCH  45  69
BRANCH  57  80
ATOM     80  C   UNL A   1      47.059  26.106  32.150  1.00  0.00     0.023 A 
ATOM     81  C   UNL A   1      48.236  26.449  31.464  1.00  0.00     0.031 A 
ATOM     82  C   UNL A   1      47.162  25.230  33.246  1.00  0.00     0.131 A 
ATOM     83  C   UNL A   1      49.460  25.878  31.846  1.00  0.00     0.055 A 
ATOM     84  C   UNL A   1      48.389  24.708  33.655  1.00  0.00     0.041 A 
ATOM     85  F   UNL A   1      46.068  24.867  33.936  1.00  0.00    -0.206 F 
ATOM     86  C   UNL A   1      49.545  25.020  32.947  1.00  0.00     0.022 A 
BRANCH  83  87
ATOM     87  S   UNL A   1      50.931  26.203  30.835  1.00  0.00     0.124 S 
ATOM     88  O   UNL A   1      51.139  27.632  31.051  1.00  0.00    -0.237 OA
ATOM     89  O   UNL A   1      51.924  25.316  31.434  1.00  0.00    -0.237 OA
ATOM     90  O   UNL A   1      50.508  25.836  29.484  1.00  0.00    -0.744 OA
ENDBRANCH  83  87
ENDBRANCH  57  80
ENDBRANCH  31  32
ENDBRANCH  24  26
ENDBRANCH  23  24
ENDBRANCH  22  23
ENDBRANCH   1  22
TORSDOF 19
ENDMDL
MODEL 2
REMARK VINA RESULT:      -9.6      5.640      9.362
REMARK SMILES CCC(CC)NC(=O)NC[C@H]1CC[C@H](C(=O)OCCOC(=O)c2ccc(-c3c4nc(c(-c5cc(S(=O)(=O)[O-])ccc5F)c5ccc([nH]5)c(-c5cc(S(=O)(=O)[O-])ccc5F)c5nc(c(-c6cc(S(=O)(=O)[O-])ccc6F)c6ccc3[nH]6)C=C5)C=C4)cc2)O1
REMARK SMILES IDX 18 1 17 2 15 3 16 4 14 5 11 6 12 7 86 8 13 9 10 10 9 11 6 12
REMARK SMILES IDX 7 13 8 15 3 17 2 18 1 19 4 20 5 21 19 22 20 23 21 24 22 25
REMARK SMILES IDX 23 26 24 27 85 28 25 29 84 30 26 31 27 32 28 33 78 34 29 35
REMARK SMILES IDX 83 36 77 37 79 38 30 39 82 40 76 41 75 42 31 44 63 45 43 46
REMARK SMILES IDX 62 47 44 48 47 49 61 50 80 51 45 52 46 53 60 55 81 56 48 57
REMARK SMILES IDX 32 58 33 59 41 60 34 61 40 62 42 63 39 64 35 65 36 66 37 67
REMARK SMILES IDX 38 68 64 69 65 70 73 71 66 72 72 73 74 74 71 75 67 76 68 77
REMARK SMILES IDX 69 78 70 79 49 80 50 81 58 82 51 83 57 84 59 85 56 86 52 87
REMARK SMILES IDX 53 88 54 89 55 90
REMARK H PARENT 6 14 9 16 79 43 47 54
REMARK Flexibility Score: inf
ROOT
ATOM      1  C   UNL A   1      34.615  20.850  25.919  1.00  0.00     0.274 C 
ENDROOT
BRANCH   1   2
ATOM      2  O   UNL A   1      34.797  22.019  26.739  1.00  0.00    -0.460 OA
BRANCH   2   3
ATOM      3  C   UNL A   1      33.660  22.699  27.060  1.00  0.00     0.335 C 
ATOM      4  O   UNL A   1      33.020  22.527  28.091  1.00  0.00    -0.249 OA
BRANCH   3   5
ATOM      5  C   UNL A   1      33.254  23.706  25.980  1.00  0.00     0.228 C 
ATOM      6  C   UNL A   1      33.187  23.757  23.648  1.00  0.00     0.138 C 
ATOM      7  C   UNL A   1      34.566  24.230  24.055  1.00  0.00     0.037 C 
ATOM      8  O   UNL A   1      32.669  23.091  24.814  1.00  0.00    -0.361 OA
ATOM      9  C   UNL A   1      34.390  24.604  25.503  1.00  0.00     0.047 C 
BRANCH   6  10
ATOM     10  C   UNL A   1      32.231  24.869  23.149  1.00  0.00     0.149 C 
BRANCH  10  11
ATOM     11  N   UNL A   1      32.850  25.847  22.270  1.00  0.00    -0.336 N 
ATOM     12  N   UNL A   1      32.525  28.001  23.180  1.00  0.00    -0.335 N 
ATOM     13  C   UNL A   1      33.144  27.148  22.357  1.00  0.00     0.315 C 
ATOM     14  H   UNL A   1      33.004  28.853  23.291  1.00  0.00     0.165 HD
ATOM     15  O   UNL A   1      34.031  27.587  21.624  1.00  0.00    -0.249 OA
ATOM     16  H   UNL A   1      33.116  25.459  21.404  1.00  0.00     0.165 HD
BRANCH  12  17
ATOM     17  C   UNL A   1      31.289  27.929  23.945  1.00  0.00     0.083 C 
BRANCH  17  18
ATOM     18  C   UNL A   1      31.616  27.816  25.439  1.00  0.00     0.021 C 
ATOM     19  C   UNL A   1      33.082  28.082  25.744  1.00  0.00     0.006 C 
ENDBRANCH  17  18
BRANCH  17  20
ATOM     20  C   UNL A   1      30.347  29.090  23.563  1.00  0.00     0.021 C 
ATOM     21  C   UNL A   1      28.975  28.682  23.046  1.00  0.00     0.006 C 
ENDBRANCH  17  20
ENDBRANCH  12  17
ENDBRANCH  10  11
ENDBRANCH   6  10
ENDBRANCH   3   5
ENDBRANCH   2   3
ENDBRANCH   1   2
BRANCH   1  22
ATOM     22  C   UNL A   1      35.833  20.580  25.029  1.00  0.00     0.275 C 
BRANCH  22  23
ATOM     23  O   UNL A   1      36.802  21.643  25.104  1.00  0.00    -0.458 OA
BRANCH  23  24
ATOM     24  C   UNL A   1      38.039  21.270  25.501  1.00  0.00     0.338 C 
ATOM     25  O   UNL A   1      38.548  20.164  25.374  1.00  0.00    -0.246 OA
BRANCH  24  26
ATOM     26  C   UNL A   1      38.772  22.427  26.035  1.00  0.00     0.060 A 
ATOM     27  C   UNL A   1      38.206  23.697  25.891  1.00  0.00     0.016 A 
ATOM     28  C   UNL A   1      40.044  22.274  26.592  1.00  0.00     0.016 A 
ATOM     29  C   UNL A   1      38.915  24.825  26.303  1.00  0.00     0.010 A 
ATOM     30  C   UNL A   1      40.752  23.407  27.006  1.00  0.00     0.010 A 
ATOM     31  C   UNL A   1      40.197  24.690  26.853  1.00  0.00    -0.014 A 
BRANCH  31  32
ATOM     32  C   UNL A   1      40.979  25.897  27.225  1.00  0.00     0.031 A 
ATOM     33  C   UNL A   1      40.355  26.956  28.090  1.00  0.00     0.074 A 
ATOM     34  C   UNL A   1      42.245  26.037  26.791  1.00  0.00     0.049 A 
ATOM     35  N   UNL A   1      40.838  28.111  28.470  1.00  0.00    -0.248 NA
ATOM     36  C   UNL A   1      39.001  26.675  28.587  1.00  0.00     0.031 C 
ATOM     37  C   UNL A   1      42.970  25.057  25.982  1.00  0.00     0.029 A 
ATOM     38  N   UNL A   1      43.145  27.057  26.968  1.00  0.00    -0.354 N 
ATOM     39  C   UNL A   1      39.846  28.704  29.243  1.00  0.00     0.074 A 
ATOM     40  C   UNL A   1      38.721  27.790  29.247  1.00  0.00     0.031 C 
ATOM     41  C   UNL A   1      44.206  25.522  25.737  1.00  0.00     0.029 A 
ATOM     42  C   UNL A   1      44.345  26.849  26.329  1.00  0.00     0.049 A 
ATOM     43  H   UNL A   1      42.950  27.861  27.502  1.00  0.00     0.167 HD
ATOM     44  C   UNL A   1      39.875  29.895  29.893  1.00  0.00     0.034 A 
ATOM     45  C   UNL A   1      45.422  27.651  26.212  1.00  0.00     0.034 A 
ATOM     46  C   UNL A   1      41.005  30.795  29.872  1.00  0.00     0.049 A 
ATOM     47  C   UNL A   1      45.397  29.008  26.868  1.00  0.00     0.074 A 
ATOM     48  C   UNL A   1      41.150  32.015  30.510  1.00  0.00     0.029 A 
ATOM     49  N   UNL A   1      42.181  30.579  29.166  1.00  0.00    -0.354 N 
ATOM     50  N   UNL A   1      44.451  29.560  27.592  1.00  0.00    -0.248 NA
ATOM     51  C   UNL A   1      46.587  29.850  26.688  1.00  0.00     0.031 C 
ATOM     52  C   UNL A   1      42.383  32.565  30.136  1.00  0.00     0.029 A 
ATOM     53  C   UNL A   1      43.040  31.657  29.322  1.00  0.00     0.049 A 
ATOM     54  H   UNL A   1      42.378  29.775  28.630  1.00  0.00     0.167 HD
ATOM     55  C   UNL A   1      44.945  30.804  27.977  1.00  0.00     0.074 A 
ATOM     56  C   UNL A   1      46.275  30.915  27.412  1.00  0.00     0.031 C 
ATOM     57  C   UNL A   1      44.357  31.764  28.735  1.00  0.00     0.034 A 
BRANCH  44  58
ATOM     58  C   UNL A   1      38.622  30.309  30.628  1.00  0.00     0.023 A 
ATOM     59  C   UNL A   1      37.577  30.998  29.986  1.00  0.00     0.031 A 
ATOM     60  C   UNL A   1      38.492  30.051  32.004  1.00  0.00     0.131 A 
ATOM     61  C   UNL A   1      36.490  31.476  30.735  1.00  0.00     0.055 A 
ATOM     62  C   UNL A   1      37.368  30.460  32.728  1.00  0.00     0.041 A 
ATOM     63  F   UNL A   1      39.464  29.416  32.676  1.00  0.00    -0.206 F 
ATOM     64  C   UNL A   1      36.367  31.192  32.097  1.00  0.00     0.022 A 
BRANCH  61  65
ATOM     65  S   UNL A   1      35.317  32.608  29.938  1.00  0.00     0.124 S 
ATOM     66  O   UNL A   1      34.394  32.901  31.033  1.00  0.00    -0.237 OA
ATOM     67  O   UNL A   1      36.176  33.708  29.515  1.00  0.00    -0.237 OA
ATOM     68  O   UNL A   1      34.748  31.808  28.855  1.00  0.00    -0.744 OA
ENDBRANCH  61  65
ENDBRANCH  44  58
BRANCH  45  69
ATOM     69  C   UNL A   1      46.600  27.217  25.409  1.00  0.00     0.023 A 
ATOM     70  C   UNL A   1      46.834  27.736  24.126  1.00  0.00     0.031 A 
ATOM     71  C   UNL A   1      47.486  26.239  25.897  1.00  0.00     0.131 A 
ATOM     72  C   UNL A   1      47.905  27.250  23.359  1.00  0.00     0.055 A 
ATOM     73  C   UNL A   1      48.578  25.795  25.152  1.00  0.00     0.041 A 
ATOM     74  F   UNL A   1      47.304  25.707  27.116  1.00  0.00    -0.206 F 
ATOM     75  C   UNL A   1      48.786  26.294  23.869  1.00  0.00     0.022 A 
BRANCH  72  76
ATOM     76  S   UNL A   1      48.087  27.831  21.651  1.00  0.00     0.124 S 
ATOM     77  O   UNL A   1      48.278  26.578  20.929  1.00  0.00    -0.237 OA
ATOM     78  O   UNL A   1      46.818  28.514  21.425  1.00  0.00    -0.237 OA
ATOM     79  O   UNL A   1      49.259  28.702  21.711  1.00  0.00    -0.744 OA
ENDBRANCH  72  76
ENDBRANCH  45  69
BRANCH  57  80
ATOM     80  C   UNL A   1      45.175  32.998  29.025  1.00  0.00     0.023 A 
ATOM     81  C   UNL A   1      45.128  34.130  28.193  1.00  0.00     0.031 A 
ATOM     82  C   UNL A   1      46.034  33.029  30.137  1.00  0.00     0.131 A 
ATOM     83  C   UNL A   1      45.965  35.226  28.456  1.00  0.00     0.055 A 
ATOM     84  C   UNL A   1      46.825  34.142  30.423  1.00  0.00     0.041 A 
ATOM     85  F   UNL A   1      46.121  31.973  30.963  1.00  0.00    -0.206 F 
ATOM     86  C   UNL A   1      46.803  35.244  29.574  1.00  0.00     0.022 A 
BRANCH  83  87
ATOM     87  S   UNL A   1      46.009  36.597  27.268  1.00  0.00     0.124 S 
ATOM     88  O   UNL A   1      46.396  35.919  26.035  1.00  0.00    -0.237 OA
ATOM     89  O   UNL A   1      44.638  37.097  27.317  1.00  0.00    -0.237 OA
ATOM     90  O   UNL A   1      47.017  37.500  27.821  1.00  0.00    -0.744 OA
ENDBRANCH  83  87
ENDBRANCH  57  80
ENDBRANCH  31  32
ENDBRANCH  24  26
ENDBRANCH  23  24
ENDBRANCH  22  23
ENDBRANCH   1  22
TORSDOF 19
ENDMDL
MODEL 3
REMARK VINA RESULT:      -9.3      2.045      7.966
REMARK SMILES CCC(CC)NC(=O)NC[C@H]1CC[C@H](C(=O)OCCOC(=O)c2ccc(-c3c4nc(c(-c5cc(S(=O)(=O)[O-])ccc5F)c5ccc([nH]5)c(-c5cc(S(=O)(=O)[O-])ccc5F)c5nc(c(-c6cc(S(=O)(=O)[O-])ccc6F)c6ccc3[nH]6)C=C5)C=C4)cc2)O1
REMARK SMILES IDX 18 1 17 2 15 3 16 4 14 5 11 6 12 7 86 8 13 9 10 10 9 11 6 12
REMARK SMILES IDX 7 13 8 15 3 17 2 18 1 19 4 20 5 21 19 22 20 23 21 24 22 25
REMARK SMILES IDX 23 26 24 27 85 28 25 29 84 30 26 31 27 32 28 33 78 34 29 35
REMARK SMILES IDX 83 36 77 37 79 38 30 39 82 40 76 41 75 42 31 44 63 45 43 46
REMARK SMILES IDX 62 47 44 48 47 49 61 50 80 51 45 52 46 53 60 55 81 56 48 57
REMARK SMILES IDX 32 58 33 59 41 60 34 61 40 62 42 63 39 64 35 65 36 66 37 67
REMARK SMILES IDX 38 68 64 69 65 70 73 71 66 72 72 73 74 74 71 75 67 76 68 77
REMARK SMILES IDX 69 78 70 79 49 80 50 81 58 82 51 83 57 84 59 85 56 86 52 87
REMARK SMILES IDX 53 88 54 89 55 90
REMARK H PARENT 6 14 9 16 79 43 47 54
REMARK Flexibility Score: inf
ROOT
ATOM      1  C   UNL A   1      33.343  33.887  27.981  1.00  0.00     0.274 C 
ENDROOT
BRANCH   1   2
ATOM      2  O   UNL A   1      32.610  34.425  29.097  1.00  0.00    -0.460 OA
BRANCH   2   3
ATOM      3  C   UNL A   1      32.898  35.716  29.427  1.00  0.00     0.335 C 
ATOM      4  O   UNL A   1      32.537  36.692  28.779  1.00  0.00    -0.249 OA
BRANCH   3   5
ATOM      5  C   UNL A   1      33.740  35.822  30.702  1.00  0.00     0.228 C 
ATOM      6  C   UNL A   1      33.673  34.930  32.857  1.00  0.00     0.138 C 
ATOM      7  C   UNL A   1      32.849  36.199  32.885  1.00  0.00     0.037 C 
ATOM      8  O   UNL A   1      33.786  34.597  31.461  1.00  0.00    -0.361 OA
ATOM      9  C   UNL A   1      33.302  36.932  31.650  1.00  0.00     0.047 C 
BRANCH   6  10
ATOM     10  C   UNL A   1      35.060  35.031  33.537  1.00  0.00     0.149 C 
BRANCH  10  11
ATOM     11  N   UNL A   1      35.548  33.782  34.101  1.00  0.00    -0.336 N 
ATOM     12  N   UNL A   1      37.696  33.341  33.226  1.00  0.00    -0.335 N 
ATOM     13  C   UNL A   1      36.724  33.150  34.125  1.00  0.00     0.315 C 
ATOM     14  H   UNL A   1      38.567  32.983  33.510  1.00  0.00     0.165 HD
ATOM     15  O   UNL A   1      36.918  32.332  35.025  1.00  0.00    -0.249 OA
ATOM     16  H   UNL A   1      34.844  33.286  34.579  1.00  0.00     0.165 HD
BRANCH  12  17
ATOM     17  C   UNL A   1      37.730  33.970  31.914  1.00  0.00     0.083 C 
BRANCH  17  18
ATOM     18  C   UNL A   1      39.161  34.422  31.598  1.00  0.00     0.021 C 
ATOM     19  C   UNL A   1      40.025  34.554  32.842  1.00  0.00     0.006 C 
ENDBRANCH  17  18
BRANCH  17  20
ATOM     20  C   UNL A   1      37.080  33.053  30.857  1.00  0.00     0.021 C 
ATOM     21  C   UNL A   1      37.445  33.354  29.410  1.00  0.00     0.006 C 
ENDBRANCH  17  20
ENDBRANCH  12  17
ENDBRANCH  10  11
ENDBRANCH   6  10
ENDBRANCH   3   5
ENDBRANCH   2   3
ENDBRANCH   1   2
BRANCH   1  22
ATOM     22  C   UNL A   1      33.300  32.356  27.954  1.00  0.00     0.275 C 
BRANCH  22  23
ATOM     23  O   UNL A   1      34.525  31.790  27.451  1.00  0.00    -0.458 OA
BRANCH  23  24
ATOM     24  C   UNL A   1      34.636  30.449  27.575  1.00  0.00     0.338 C 
ATOM     25  O   UNL A   1      33.849  29.606  27.164  1.00  0.00    -0.246 OA
BRANCH  24  26
ATOM     26  C   UNL A   1      35.919  30.100  28.200  1.00  0.00     0.060 A 
ATOM     27  C   UNL A   1      37.089  30.264  27.453  1.00  0.00     0.016 A 
ATOM     28  C   UNL A   1      35.964  29.534  29.476  1.00  0.00     0.016 A 
ATOM     29  C   UNL A   1      38.314  29.856  27.980  1.00  0.00     0.010 A 
ATOM     30  C   UNL A   1      37.195  29.128  30.004  1.00  0.00     0.010 A 
ATOM     31  C   UNL A   1      38.376  29.276  29.255  1.00  0.00    -0.014 A 
BRANCH  31  32
ATOM     32  C   UNL A   1      39.670  28.777  29.785  1.00  0.00     0.031 A 
ATOM     33  C   UNL A   1      40.364  27.628  29.108  1.00  0.00     0.074 A 
ATOM     34  C   UNL A   1      40.221  29.359  30.867  1.00  0.00     0.049 A 
ATOM     35  N   UNL A   1      41.459  27.001  29.450  1.00  0.00    -0.248 NA
ATOM     36  C   UNL A   1      39.731  27.116  27.885  1.00  0.00     0.031 C 
ATOM     37  C   UNL A   1      39.662  30.506  31.581  1.00  0.00     0.029 A 
ATOM     38  N   UNL A   1      41.371  29.064  31.553  1.00  0.00    -0.354 N 
ATOM     39  C   UNL A   1      41.646  26.011  28.492  1.00  0.00     0.074 A 
ATOM     40  C   UNL A   1      40.528  26.104  27.574  1.00  0.00     0.031 C 
ATOM     41  C   UNL A   1      40.474  30.821  32.603  1.00  0.00     0.029 A 
ATOM     42  C   UNL A   1      41.582  29.872  32.646  1.00  0.00     0.049 A 
ATOM     43  H   UNL A   1      41.987  28.343  31.288  1.00  0.00     0.167 HD
ATOM     44  C   UNL A   1      42.659  25.113  28.385  1.00  0.00     0.034 A 
ATOM     45  C   UNL A   1      42.546  29.833  33.588  1.00  0.00     0.034 A 
ATOM     46  C   UNL A   1      43.763  25.032  29.314  1.00  0.00     0.049 A 
ATOM     47  C   UNL A   1      43.611  28.771  33.499  1.00  0.00     0.074 A 
ATOM     48  C   UNL A   1      44.852  24.177  29.290  1.00  0.00     0.029 A 
ATOM     49  N   UNL A   1      43.913  25.828  30.442  1.00  0.00    -0.354 N 
ATOM     50  N   UNL A   1      43.774  27.836  32.591  1.00  0.00    -0.248 NA
ATOM     51  C   UNL A   1      44.621  28.758  34.565  1.00  0.00     0.031 C 
ATOM     52  C   UNL A   1      45.621  24.412  30.437  1.00  0.00     0.029 A 
ATOM     53  C   UNL A   1      45.054  25.461  31.141  1.00  0.00     0.049 A 
ATOM     54  H   UNL A   1      43.298  26.550  30.709  1.00  0.00     0.167 HD
ATOM     55  C   UNL A   1      44.923  27.142  32.963  1.00  0.00     0.074 A 
ATOM     56  C   UNL A   1      45.415  27.773  34.172  1.00  0.00     0.031 C 
ATOM     57  C   UNL A   1      45.522  26.085  32.357  1.00  0.00     0.034 A 
BRANCH  44  58
ATOM     58  C   UNL A   1      42.578  24.114  27.254  1.00  0.00     0.023 A 
ATOM     59  C   UNL A   1      41.730  22.994  27.312  1.00  0.00     0.031 A 
ATOM     60  C   UNL A   1      43.398  24.261  26.121  1.00  0.00     0.131 A 
ATOM     61  C   UNL A   1      41.781  22.024  26.298  1.00  0.00     0.055 A 
ATOM     62  C   UNL A   1      43.385  23.333  25.077  1.00  0.00     0.041 A 
ATOM     63  F   UNL A   1      44.243  25.298  26.018  1.00  0.00    -0.206 F 
ATOM     64  C   UNL A   1      42.585  22.198  25.170  1.00  0.00     0.022 A 
BRANCH  61  65
ATOM     65  S   UNL A   1      40.898  20.458  26.548  1.00  0.00     0.124 S 
ATOM     66  O   UNL A   1      41.799  19.503  25.905  1.00  0.00    -0.237 OA
ATOM     67  O   UNL A   1      40.810  20.374  28.001  1.00  0.00    -0.237 OA
ATOM     68  O   UNL A   1      39.628  20.664  25.856  1.00  0.00    -0.744 OA
ENDBRANCH  61  65
ENDBRANCH  44  58
BRANCH  45  69
ATOM     69  C   UNL A   1      42.528  30.799  34.722  1.00  0.00     0.023 A 
ATOM     70  C   UNL A   1      43.153  32.052  34.617  1.00  0.00     0.031 A 
ATOM     71  C   UNL A   1      41.923  30.464  35.947  1.00  0.00     0.131 A 
ATOM     72  C   UNL A   1      43.191  32.910  35.728  1.00  0.00     0.055 A 
ATOM     73  C   UNL A   1      41.918  31.340  37.032  1.00  0.00     0.041 A 
ATOM     74  F   UNL A   1      41.315  29.276  36.100  1.00  0.00    -0.206 F 
ATOM     75  C   UNL A   1      42.566  32.567  36.930  1.00  0.00     0.022 A 
BRANCH  72  76
ATOM     76  S   UNL A   1      44.137  34.452  35.605  1.00  0.00     0.124 S 
ATOM     77  O   UNL A   1      43.170  35.345  34.976  1.00  0.00    -0.237 OA
ATOM     78  O   UNL A   1      44.450  34.729  37.003  1.00  0.00    -0.237 OA
ATOM     79  O   UNL A   1      45.281  34.083  34.774  1.00  0.00    -0.744 OA
ENDBRANCH  72  76
ENDBRANCH  45  69
BRANCH  57  80
ATOM     80  C   UNL A   1      46.800  25.579  32.979  1.00  0.00     0.023 A 
ATOM     81  C   UNL A   1      46.798  24.573  33.961  1.00  0.00     0.031 A 
ATOM     82  C   UNL A   1      48.036  26.133  32.601  1.00  0.00     0.131 A 
ATOM     83  C   UNL A   1      48.002  24.188  34.569  1.00  0.00     0.055 A 
ATOM     84  C   UNL A   1      49.236  25.708  33.172  1.00  0.00     0.041 A 
ATOM     85  F   UNL A   1      48.095  27.099  31.671  1.00  0.00    -0.206 F 
ATOM     86  C   UNL A   1      49.223  24.740  34.171  1.00  0.00     0.022 A 
BRANCH  83  87
ATOM     87  S   UNL A   1      47.947  23.014  35.952  1.00  0.00     0.124 S 
ATOM     88  O   UNL A   1      48.960  22.038  35.563  1.00  0.00    -0.237 OA
ATOM     89  O   UNL A   1      48.283  23.860  37.094  1.00  0.00    -0.237 OA
ATOM     90  O   UNL A   1      46.571  22.521  35.931  1.00  0.00    -0.744 OA
ENDBRANCH  83  87
ENDBRANCH  57  80
ENDBRANCH  31  32
ENDBRANCH  24  26
ENDBRANCH  23  24
ENDBRANCH  22  23
ENDBRANCH   1  22
TORSDOF 19
ENDMDL
