MODEL 1
REMARK VINA RESULT:      -9.9      0.000      0.000
REMARK SMILES CCN(Cc1cn(CC)nc1C)C(=O)c1ccn([C@@H](C)C(=O)OCCOC(=O)c2ccc(-c3c4nc(c(-c5cc(S(=O)(=O)[O-])ccc5F)c5ccc([nH]5)c(-c5cc(S(=O)(=O)[O-])ccc5F)c5nc(c(-c6cc(S(=O)(=O)[O-])ccc6F)c6ccc3[nH]6)C=C5)C=C4)cc2)n1
REMARK SMILES IDX 23 1 21 2 22 3 19 4 20 5 18 6 15 7 16 8 92 9 17 10 13 11
REMARK SMILES IDX 14 12 3 13 2 14 1 15 4 16 5 17 6 18 11 19 7 20 10 21 12 22
REMARK SMILES IDX 8 23 9 24 24 25 25 26 26 27 27 28 28 29 29 30 30 31 91 32
REMARK SMILES IDX 31 33 90 34 32 35 33 36 34 37 84 38 35 39 89 40 83 41 85 42
REMARK SMILES IDX 36 43 88 44 82 45 81 46 37 48 69 49 49 50 68 51 50 52 53 53
REMARK SMILES IDX 67 54 86 55 51 56 52 57 66 59 87 60 54 61 38 62 39 63 47 64
REMARK SMILES IDX 40 65 46 66 48 67 45 68 41 69 42 70 43 71 44 72 70 73 71 74
REMARK SMILES IDX 79 75 72 76 78 77 80 78 77 79 73 80 74 81 75 82 76 83 55 84
REMARK SMILES IDX 56 85 64 86 57 87 63 88 65 89 62 90 58 91 59 92 60 93 61 94
REMARK H PARENT 85 47 53 58
REMARK Flexibility Score: inf
ROOT
ATOM      1  O   UNL A   1      32.920  34.755  30.008  1.00  0.00    -0.460 OA
ENDROOT
BRANCH   1   2
ATOM      2  C   UNL A   1      32.955  35.667  31.020  1.00  0.00     0.330 C 
ATOM      3  O   UNL A   1      32.544  36.819  30.896  1.00  0.00    -0.250 OA
BRANCH   2   4
ATOM      4  C   UNL A   1      33.652  35.175  32.282  1.00  0.00     0.213 C 
ATOM      5  C   UNL A   1      33.997  36.365  33.162  1.00  0.00     0.046 C 
BRANCH   4   6
ATOM      6  N   UNL A   1      34.798  34.280  32.096  1.00  0.00    -0.258 N 
ATOM      7  C   UNL A   1      36.877  33.808  32.113  1.00  0.00     0.150 A 
ATOM      8  C   UNL A   1      36.158  32.625  32.410  1.00  0.00     0.056 A 
ATOM      9  N   UNL A   1      36.021  34.815  31.835  1.00  0.00    -0.167 NA
ATOM     10  C   UNL A   1      34.842  32.916  32.153  1.00  0.00     0.110 A 
BRANCH   7  11
ATOM     11  C   UNL A   1      38.342  33.969  32.151  1.00  0.00     0.274 C 
ATOM     12  O   UNL A   1      38.948  34.405  31.173  1.00  0.00    -0.267 OA
BRANCH  11  13
ATOM     13  N   UNL A   1      39.016  33.630  33.345  1.00  0.00    -0.333 N 
BRANCH  13  14
ATOM     14  C   UNL A   1      38.869  34.530  34.490  1.00  0.00     0.117 C 
ATOM     15  C   UNL A   1      37.604  34.289  35.301  1.00  0.00     0.027 C 
ENDBRANCH  13  14
BRANCH  13  16
ATOM     16  C   UNL A   1      40.022  32.575  33.438  1.00  0.00     0.159 C 
BRANCH  16  17
ATOM     17  C   UNL A   1      40.444  32.261  34.840  1.00  0.00     0.012 A 
ATOM     18  C   UNL A   1      41.651  32.641  35.406  1.00  0.00     0.114 A 
ATOM     19  C   UNL A   1      39.825  31.477  35.861  1.00  0.00     0.064 A 
ATOM     20  N   UNL A   1      41.753  31.969  36.587  1.00  0.00    -0.272 N 
ATOM     21  N   UNL A   1      40.623  31.337  36.930  1.00  0.00    -0.178 NA
ATOM     22  C   UNL A   1      38.536  30.739  35.847  1.00  0.00     0.069 C 
BRANCH  20  23
ATOM     23  C   UNL A   1      42.970  31.724  37.337  1.00  0.00     0.141 C 
ATOM     24  C   UNL A   1      43.674  30.437  36.949  1.00  0.00     0.029 C 
ENDBRANCH  20  23
ENDBRANCH  16  17
ENDBRANCH  13  16
ENDBRANCH  11  13
ENDBRANCH   7  11
ENDBRANCH   4   6
ENDBRANCH   2   4
ENDBRANCH   1   2
BRANCH   1  25
ATOM     25  C   UNL A   1      33.892  34.898  28.952  1.00  0.00     0.274 C 
BRANCH  25  26
ATOM     26  C   UNL A   1      34.141  33.582  28.216  1.00  0.00     0.275 C 
BRANCH  26  27
ATOM     27  O   UNL A   1      35.375  32.971  28.601  1.00  0.00    -0.458 OA
BRANCH  27  28
ATOM     28  C   UNL A   1      35.458  31.666  28.257  1.00  0.00     0.338 C 
ATOM     29  O   UNL A   1      34.631  31.040  27.628  1.00  0.00    -0.246 OA
BRANCH  28  30
ATOM     30  C   UNL A   1      36.575  31.001  28.913  1.00  0.00     0.060 A 
ATOM     31  C   UNL A   1      37.692  31.789  29.227  1.00  0.00     0.016 A 
ATOM     32  C   UNL A   1      36.609  29.605  28.945  1.00  0.00     0.016 A 
ATOM     33  C   UNL A   1      38.895  31.161  29.459  1.00  0.00     0.010 A 
ATOM     34  C   UNL A   1      37.816  28.984  29.151  1.00  0.00     0.010 A 
ATOM     35  C   UNL A   1      38.952  29.769  29.359  1.00  0.00    -0.014 A 
BRANCH  35  36
ATOM     36  C   UNL A   1      40.216  29.113  29.607  1.00  0.00     0.031 A 
ATOM     37  C   UNL A   1      40.529  28.965  31.046  1.00  0.00     0.074 A 
ATOM     38  C   UNL A   1      40.923  28.531  28.622  1.00  0.00     0.049 A 
ATOM     39  N   UNL A   1      41.528  29.452  31.701  1.00  0.00    -0.248 NA
ATOM     40  C   UNL A   1      39.515  28.319  31.896  1.00  0.00     0.031 C 
ATOM     41  C   UNL A   1      40.526  28.356  27.223  1.00  0.00     0.029 A 
ATOM     42  N   UNL A   1      42.093  27.844  28.703  1.00  0.00    -0.354 N 
ATOM     43  C   UNL A   1      41.385  28.982  33.002  1.00  0.00     0.074 A 
ATOM     44  C   UNL A   1      40.040  28.491  33.107  1.00  0.00     0.031 C 
ATOM     45  C   UNL A   1      41.320  27.421  26.654  1.00  0.00     0.029 A 
ATOM     46  C   UNL A   1      42.343  27.025  27.610  1.00  0.00     0.049 A 
ATOM     47  H   UNL A   1      42.708  27.921  29.469  1.00  0.00     0.167 HD
ATOM     48  C   UNL A   1      42.466  28.795  33.805  1.00  0.00     0.034 A 
ATOM     49  C   UNL A   1      43.264  26.028  27.537  1.00  0.00     0.034 A 
ATOM     50  C   UNL A   1      43.600  29.557  33.330  1.00  0.00     0.049 A 
ATOM     51  C   UNL A   1      44.268  26.281  28.603  1.00  0.00     0.074 A 
ATOM     52  C   UNL A   1      43.819  30.900  33.080  1.00  0.00     0.029 A 
ATOM     53  N   UNL A   1      44.606  28.891  32.666  1.00  0.00    -0.354 N 
ATOM     54  N   UNL A   1      45.066  27.314  28.614  1.00  0.00    -0.248 NA
ATOM     55  C   UNL A   1      44.071  25.645  29.899  1.00  0.00     0.031 C 
ATOM     56  C   UNL A   1      44.617  30.930  31.900  1.00  0.00     0.029 A 
ATOM     57  C   UNL A   1      44.904  29.612  31.536  1.00  0.00     0.049 A 
ATOM     58  H   UNL A   1      45.034  28.050  32.950  1.00  0.00     0.167 HD
ATOM     59  C   UNL A   1      45.118  27.717  29.939  1.00  0.00     0.074 A 
ATOM     60  C   UNL A   1      44.580  26.589  30.696  1.00  0.00     0.031 C 
ATOM     61  C   UNL A   1      45.325  29.026  30.276  1.00  0.00     0.034 A 
BRANCH  48  62
ATOM     62  C   UNL A   1      42.601  27.648  34.784  1.00  0.00     0.023 A 
ATOM     63  C   UNL A   1      43.405  26.564  34.386  1.00  0.00     0.031 A 
ATOM     64  C   UNL A   1      41.788  27.421  35.922  1.00  0.00     0.131 A 
ATOM     65  C   UNL A   1      43.296  25.314  35.019  1.00  0.00     0.055 A 
ATOM     66  C   UNL A   1      41.740  26.196  36.593  1.00  0.00     0.041 A 
ATOM     67  F   UNL A   1      40.928  28.324  36.400  1.00  0.00    -0.206 F 
ATOM     68  C   UNL A   1      42.469  25.121  36.120  1.00  0.00     0.022 A 
BRANCH  65  69
ATOM     69  S   UNL A   1      44.110  23.895  34.247  1.00  0.00     0.124 S 
ATOM     70  O   UNL A   1      43.509  22.782  34.974  1.00  0.00    -0.237 OA
ATOM     71  O   UNL A   1      43.712  24.045  32.852  1.00  0.00    -0.237 OA
ATOM     72  O   UNL A   1      45.527  24.127  34.520  1.00  0.00    -0.744 OA
ENDBRANCH  65  69
ENDBRANCH  48  62
BRANCH  49  73
ATOM     73  C   UNL A   1      43.116  24.726  26.831  1.00  0.00     0.023 A 
ATOM     74  C   UNL A   1      44.100  24.218  25.960  1.00  0.00     0.031 A 
ATOM     75  C   UNL A   1      42.072  23.843  27.192  1.00  0.00     0.131 A 
ATOM     76  C   UNL A   1      44.011  22.889  25.484  1.00  0.00     0.055 A 
ATOM     77  C   UNL A   1      41.982  22.536  26.710  1.00  0.00     0.041 A 
ATOM     78  F   UNL A   1      41.144  24.190  28.098  1.00  0.00    -0.206 F 
ATOM     79  C   UNL A   1      42.959  22.049  25.858  1.00  0.00     0.022 A 
BRANCH  76  80
ATOM     80  S   UNL A   1      45.332  22.193  24.438  1.00  0.00     0.124 S 
ATOM     81  O   UNL A   1      46.221  21.590  25.422  1.00  0.00    -0.237 OA
ATOM     82  O   UNL A   1      44.596  21.275  23.576  1.00  0.00    -0.237 OA
ATOM     83  O   UNL A   1      45.877  23.367  23.754  1.00  0.00    -0.744 OA
ENDBRANCH  76  80
ENDBRANCH  49  73
BRANCH  61  84
ATOM     84  C   UNL A   1      45.817  29.981  29.205  1.00  0.00     0.023 A 
ATOM     85  C   UNL A   1      44.987  30.703  28.316  1.00  0.00     0.031 A 
ATOM     86  C   UNL A   1      47.196  30.256  29.174  1.00  0.00     0.131 A 
ATOM     87  C   UNL A   1      45.550  31.648  27.434  1.00  0.00     0.055 A 
ATOM     88  C   UNL A   1      47.746  31.208  28.317  1.00  0.00     0.041 A 
ATOM     89  F   UNL A   1      48.036  29.621  30.009  1.00  0.00    -0.206 F 
ATOM     90  C   UNL A   1      46.925  31.904  27.439  1.00  0.00     0.022 A 
BRANCH  87  91
ATOM     91  S   UNL A   1      44.510  32.552  26.240  1.00  0.00     0.124 S 
ATOM     92  O   UNL A   1      43.464  31.593  25.903  1.00  0.00    -0.237 OA
ATOM     93  O   UNL A   1      44.086  33.720  27.005  1.00  0.00    -0.237 OA
ATOM     94  O   UNL A   1      45.434  32.850  25.144  1.00  0.00    -0.744 OA
ENDBRANCH  87  91
ENDBRANCH  61  84
ENDBRANCH  35  36
ENDBRANCH  28  30
ENDBRANCH  27  28
ENDBRANCH  26  27
ENDBRANCH  25  26
ENDBRANCH   1  25
TORSDOF 21
ENDMDL
MODEL 2
REMARK VINA RESULT:      -9.8      4.836      7.822
REMARK SMILES CCN(Cc1cn(CC)nc1C)C(=O)c1ccn([C@@H](C)C(=O)OCCOC(=O)c2ccc(-c3c4nc(c(-c5cc(S(=O)(=O)[O-])ccc5F)c5ccc([nH]5)c(-c5cc(S(=O)(=O)[O-])ccc5F)c5nc(c(-c6cc(S(=O)(=O)[O-])ccc6F)c6ccc3[nH]6)C=C5)C=C4)cc2)n1
REMARK SMILES IDX 23 1 21 2 22 3 19 4 20 5 18 6 15 7 16 8 92 9 17 10 13 11
REMARK SMILES IDX 14 12 3 13 2 14 1 15 4 16 5 17 6 18 11 19 7 20 10 21 12 22
REMARK SMILES IDX 8 23 9 24 24 25 25 26 26 27 27 28 28 29 29 30 30 31 91 32
REMARK SMILES IDX 31 33 90 34 32 35 33 36 34 37 84 38 35 39 89 40 83 41 85 42
REMARK SMILES IDX 36 43 88 44 82 45 81 46 37 48 69 49 49 50 68 51 50 52 53 53
REMARK SMILES IDX 67 54 86 55 51 56 52 57 66 59 87 60 54 61 38 62 39 63 47 64
REMARK SMILES IDX 40 65 46 66 48 67 45 68 41 69 42 70 43 71 44 72 70 73 71 74
REMARK SMILES IDX 79 75 72 76 78 77 80 78 77 79 73 80 74 81 75 82 76 83 55 84
REMARK SMILES IDX 56 85 64 86 57 87 63 88 65 89 62 90 58 91 59 92 60 93 61 94
REMARK H PARENT 85 47 53 58
REMARK Flexibility Score: inf
ROOT
ATOM      1  O   UNL A   1      32.974  29.363  25.762  1.00  0.00    -0.460 OA
ENDROOT
BRANCH   1   2
ATOM      2  C   UNL A   1      31.919  29.652  24.948  1.00  0.00     0.330 C 
ATOM      3  O   UNL A   1      31.010  30.410  25.276  1.00  0.00    -0.250 OA
BRANCH   2   4
ATOM      4  C   UNL A   1      31.903  28.865  23.644  1.00  0.00     0.213 C 
ATOM      5  C   UNL A   1      30.511  28.926  23.038  1.00  0.00     0.046 C 
BRANCH   4   6
ATOM      6  N   UNL A   1      32.420  27.494  23.694  1.00  0.00    -0.258 N 
ATOM      7  C   UNL A   1      32.210  25.376  23.822  1.00  0.00     0.150 A 
ATOM      8  C   UNL A   1      33.373  25.655  23.064  1.00  0.00     0.056 A 
ATOM      9  N   UNL A   1      31.669  26.524  24.284  1.00  0.00    -0.167 NA
ATOM     10  C   UNL A   1      33.598  27.000  23.211  1.00  0.00     0.110 A 
BRANCH   7  11
ATOM     11  C   UNL A   1      31.616  24.046  24.046  1.00  0.00     0.274 C 
ATOM     12  O   UNL A   1      30.622  23.691  23.413  1.00  0.00    -0.267 OA
BRANCH  11  13
ATOM     13  N   UNL A   1      32.233  23.193  24.986  1.00  0.00    -0.333 N 
BRANCH  13  14
ATOM     14  C   UNL A   1      31.934  23.408  26.403  1.00  0.00     0.117 C 
ATOM     15  C   UNL A   1      30.540  22.953  26.811  1.00  0.00     0.027 C 
ENDBRANCH  13  14
BRANCH  13  16
ATOM     16  C   UNL A   1      33.317  22.270  24.656  1.00  0.00     0.159 C 
BRANCH  16  17
ATOM     17  C   UNL A   1      32.877  20.847  24.506  1.00  0.00     0.012 A 
ATOM     18  C   UNL A   1      33.025  19.866  25.475  1.00  0.00     0.114 A 
ATOM     19  C   UNL A   1      32.321  20.141  23.395  1.00  0.00     0.064 A 
ATOM     20  N   UNL A   1      32.728  18.680  24.875  1.00  0.00    -0.272 N 
ATOM     21  N   UNL A   1      32.208  18.828  23.650  1.00  0.00    -0.178 NA
ATOM     22  C   UNL A   1      31.983  20.623  22.032  1.00  0.00     0.069 C 
BRANCH  20  23
ATOM     23  C   UNL A   1      33.109  17.360  25.340  1.00  0.00     0.141 C 
ATOM     24  C   UNL A   1      34.362  16.820  24.676  1.00  0.00     0.029 C 
ENDBRANCH  20  23
ENDBRANCH  16  17
ENDBRANCH  13  16
ENDBRANCH  11  13
ENDBRANCH   7  11
ENDBRANCH   4   6
ENDBRANCH   2   4
ENDBRANCH   1   2
BRANCH   1  25
ATOM     25  C   UNL A   1      32.980  29.957  27.076  1.00  0.00     0.274 C 
BRANCH  25  26
ATOM     26  C   UNL A   1      34.067  31.020  27.223  1.00  0.00     0.275 C 
BRANCH  26  27
ATOM     27  O   UNL A   1      34.606  31.065  28.547  1.00  0.00    -0.458 OA
BRANCH  27  28
ATOM     28  C   UNL A   1      35.707  31.843  28.652  1.00  0.00     0.338 C 
ATOM     29  O   UNL A   1      35.848  32.949  28.174  1.00  0.00    -0.246 OA
BRANCH  28  30
ATOM     30  C   UNL A   1      36.829  31.121  29.237  1.00  0.00     0.060 A 
ATOM     31  C   UNL A   1      38.013  31.842  29.444  1.00  0.00     0.016 A 
ATOM     32  C   UNL A   1      36.777  29.727  29.301  1.00  0.00     0.016 A 
ATOM     33  C   UNL A   1      39.190  31.143  29.598  1.00  0.00     0.010 A 
ATOM     34  C   UNL A   1      37.955  29.033  29.430  1.00  0.00     0.010 A 
ATOM     35  C   UNL A   1      39.151  29.748  29.530  1.00  0.00    -0.014 A 
BRANCH  35  36
ATOM     36  C   UNL A   1      40.387  29.018  29.696  1.00  0.00     0.031 A 
ATOM     37  C   UNL A   1      40.735  28.766  31.113  1.00  0.00     0.074 A 
ATOM     38  C   UNL A   1      41.035  28.464  28.656  1.00  0.00     0.049 A 
ATOM     39  N   UNL A   1      41.776  29.162  31.764  1.00  0.00    -0.248 NA
ATOM     40  C   UNL A   1      39.714  28.118  31.955  1.00  0.00     0.031 C 
ATOM     41  C   UNL A   1      40.588  28.396  27.263  1.00  0.00     0.029 A 
ATOM     42  N   UNL A   1      42.170  27.717  28.657  1.00  0.00    -0.354 N 
ATOM     43  C   UNL A   1      41.648  28.620  33.038  1.00  0.00     0.074 A 
ATOM     44  C   UNL A   1      40.284  28.189  33.156  1.00  0.00     0.031 C 
ATOM     45  C   UNL A   1      41.317  27.460  26.613  1.00  0.00     0.029 A 
ATOM     46  C   UNL A   1      42.346  26.957  27.509  1.00  0.00     0.049 A 
ATOM     47  H   UNL A   1      42.810  27.717  29.406  1.00  0.00     0.167 HD
ATOM     48  C   UNL A   1      42.741  28.331  33.792  1.00  0.00     0.034 A 
ATOM     49  C   UNL A   1      43.213  25.922  27.346  1.00  0.00     0.034 A 
ATOM     50  C   UNL A   1      43.898  29.065  33.328  1.00  0.00     0.049 A 
ATOM     51  C   UNL A   1      44.259  26.059  28.392  1.00  0.00     0.074 A 
ATOM     52  C   UNL A   1      44.176  30.408  33.152  1.00  0.00     0.029 A 
ATOM     53  N   UNL A   1      44.849  28.393  32.593  1.00  0.00    -0.354 N 
ATOM     54  N   UNL A   1      45.109  27.049  28.439  1.00  0.00    -0.248 NA
ATOM     55  C   UNL A   1      44.069  25.355  29.653  1.00  0.00     0.031 C 
ATOM     56  C   UNL A   1      44.940  30.473  31.950  1.00  0.00     0.029 A 
ATOM     57  C   UNL A   1      45.149  29.168  31.499  1.00  0.00     0.049 A 
ATOM     58  H   UNL A   1      45.242  27.516  32.811  1.00  0.00     0.167 HD
ATOM     59  C   UNL A   1      45.220  27.366  29.784  1.00  0.00     0.074 A 
ATOM     60  C   UNL A   1      44.649  26.222  30.489  1.00  0.00     0.031 C 
ATOM     61  C   UNL A   1      45.502  28.641  30.192  1.00  0.00     0.034 A 
BRANCH  48  62
ATOM     62  C   UNL A   1      42.847  27.120  34.695  1.00  0.00     0.023 A 
ATOM     63  C   UNL A   1      43.629  26.047  34.231  1.00  0.00     0.031 A 
ATOM     64  C   UNL A   1      42.023  26.837  35.813  1.00  0.00     0.131 A 
ATOM     65  C   UNL A   1      43.491  24.761  34.781  1.00  0.00     0.055 A 
ATOM     66  C   UNL A   1      41.946  25.573  36.403  1.00  0.00     0.041 A 
ATOM     67  F   UNL A   1      41.179  27.726  36.346  1.00  0.00    -0.206 F 
ATOM     68  C   UNL A   1      42.654  24.515  35.864  1.00  0.00     0.022 A 
BRANCH  65  69
ATOM     69  S   UNL A   1      44.279  23.379  33.922  1.00  0.00     0.124 S 
ATOM     70  O   UNL A   1      45.640  23.877  33.751  1.00  0.00    -0.237 OA
ATOM     71  O   UNL A   1      44.105  22.293  34.881  1.00  0.00    -0.237 OA
ATOM     72  O   UNL A   1      43.500  23.256  32.692  1.00  0.00    -0.744 OA
ENDBRANCH  65  69
ENDBRANCH  48  62
BRANCH  49  73
ATOM     73  C   UNL A   1      42.978  24.675  26.568  1.00  0.00     0.023 A 
ATOM     74  C   UNL A   1      43.880  24.209  25.589  1.00  0.00     0.031 A 
ATOM     75  C   UNL A   1      41.944  23.789  26.949  1.00  0.00     0.131 A 
ATOM     76  C   UNL A   1      43.721  22.918  25.034  1.00  0.00     0.055 A 
ATOM     77  C   UNL A   1      41.785  22.521  26.389  1.00  0.00     0.041 A 
ATOM     78  F   UNL A   1      41.098  24.092  27.947  1.00  0.00    -0.206 F 
ATOM     79  C   UNL A   1      42.681  22.075  25.432  1.00  0.00     0.022 A 
BRANCH  76  80
ATOM     80  S   UNL A   1      44.939  22.271  23.843  1.00  0.00     0.124 S 
ATOM     81  O   UNL A   1      45.239  20.954  24.390  1.00  0.00    -0.237 OA
ATOM     82  O   UNL A   1      44.195  22.300  22.588  1.00  0.00    -0.237 OA
ATOM     83  O   UNL A   1      46.038  23.234  23.922  1.00  0.00    -0.744 OA
ENDBRANCH  76  80
ENDBRANCH  49  73
BRANCH  61  84
ATOM     84  C   UNL A   1      46.010  29.635  29.165  1.00  0.00     0.023 A 
ATOM     85  C   UNL A   1      45.198  30.524  28.423  1.00  0.00     0.031 A 
ATOM     86  C   UNL A   1      47.405  29.762  29.029  1.00  0.00     0.131 A 
ATOM     87  C   UNL A   1      45.791  31.483  27.577  1.00  0.00     0.055 A 
ATOM     88  C   UNL A   1      47.988  30.727  28.209  1.00  0.00     0.041 A 
ATOM     89  F   UNL A   1      48.233  28.963  29.725  1.00  0.00    -0.206 F 
ATOM     90  C   UNL A   1      47.183  31.587  27.475  1.00  0.00     0.022 A 
BRANCH  87  91
ATOM     91  S   UNL A   1      44.766  32.603  26.567  1.00  0.00     0.124 S 
ATOM     92  O   UNL A   1      43.928  31.695  25.792  1.00  0.00    -0.237 OA
ATOM     93  O   UNL A   1      44.081  33.404  27.575  1.00  0.00    -0.237 OA
ATOM     94  O   UNL A   1      45.752  33.342  25.775  1.00  0.00    -0.744 OA
ENDBRANCH  87  91
ENDBRANCH  61  84
ENDBRANCH  35  36
ENDBRANCH  28  30
ENDBRANCH  27  28
ENDBRANCH  26  27
ENDBRANCH  25  26
ENDBRANCH   1  25
TORSDOF 21
ENDMDL
MODEL 3
REMARK VINA RESULT:      -9.7      4.989     11.642
REMARK SMILES CCN(Cc1cn(CC)nc1C)C(=O)c1ccn([C@@H](C)C(=O)OCCOC(=O)c2ccc(-c3c4nc(c(-c5cc(S(=O)(=O)[O-])ccc5F)c5ccc([nH]5)c(-c5cc(S(=O)(=O)[O-])ccc5F)c5nc(c(-c6cc(S(=O)(=O)[O-])ccc6F)c6ccc3[nH]6)C=C5)C=C4)cc2)n1
REMARK SMILES IDX 23 1 21 2 22 3 19 4 20 5 18 6 15 7 16 8 92 9 17 10 13 11
REMARK SMILES IDX 14 12 3 13 2 14 1 15 4 16 5 17 6 18 11 19 7 20 10 21 12 22
REMARK SMILES IDX 8 23 9 24 24 25 25 26 26 27 27 28 28 29 29 30 30 31 91 32
REMARK SMILES IDX 31 33 90 34 32 35 33 36 34 37 84 38 35 39 89 40 83 41 85 42
REMARK SMILES IDX 36 43 88 44 82 45 81 46 37 48 69 49 49 50 68 51 50 52 53 53
REMARK SMILES IDX 67 54 86 55 51 56 52 57 66 59 87 60 54 61 38 62 39 63 47 64
REMARK SMILES IDX 40 65 46 66 48 67 45 68 41 69 42 70 43 71 44 72 70 73 71 74
REMARK SMILES IDX 79 75 72 76 78 77 80 78 77 79 73 80 74 81 75 82 76 83 55 84
REMARK SMILES IDX 56 85 64 86 57 87 63 88 65 89 62 90 58 91 59 92 60 93 61 94
REMARK H PARENT 85 47 53 58
REMARK Flexibility Score: inf
ROOT
ATOM      1  O   UNL A   1      37.365  22.271  25.676  1.00  0.00    -0.460 OA
ENDROOT
BRANCH   1   2
ATOM      2  C   UNL A   1      36.136  22.143  25.101  1.00  0.00     0.330 C 
ATOM      3  O   UNL A   1      35.953  22.240  23.889  1.00  0.00    -0.250 OA
BRANCH   2   4
ATOM      4  C   UNL A   1      34.993  21.986  26.095  1.00  0.00     0.213 C 
ATOM      5  C   UNL A   1      34.207  20.729  25.763  1.00  0.00     0.046 C 
BRANCH   4   6
ATOM      6  N   UNL A   1      34.118  23.147  26.282  1.00  0.00    -0.258 N 
ATOM      7  C   UNL A   1      33.426  25.113  25.830  1.00  0.00     0.150 A 
ATOM      8  C   UNL A   1      32.325  24.360  26.304  1.00  0.00     0.056 A 
ATOM      9  N   UNL A   1      34.557  24.376  25.900  1.00  0.00    -0.167 NA
ATOM     10  C   UNL A   1      32.856  23.198  26.803  1.00  0.00     0.110 A 
BRANCH   7  11
ATOM     11  C   UNL A   1      33.375  26.479  25.278  1.00  0.00     0.274 C 
ATOM     12  O   UNL A   1      34.094  26.798  24.331  1.00  0.00    -0.267 OA
BRANCH  11  13
ATOM     13  N   UNL A   1      32.466  27.393  25.854  1.00  0.00    -0.333 N 
BRANCH  13  14
ATOM     14  C   UNL A   1      32.907  28.145  27.030  1.00  0.00     0.117 C 
ATOM     15  C   UNL A   1      34.274  28.794  26.865  1.00  0.00     0.027 C 
ENDBRANCH  13  14
BRANCH  13  16
ATOM     16  C   UNL A   1      31.052  27.467  25.495  1.00  0.00     0.159 C 
BRANCH  16  17
ATOM     17  C   UNL A   1      30.798  28.090  24.157  1.00  0.00     0.012 A 
ATOM     18  C   UNL A   1      30.412  29.407  23.959  1.00  0.00     0.114 A 
ATOM     19  C   UNL A   1      30.787  27.534  22.841  1.00  0.00     0.064 A 
ATOM     20  N   UNL A   1      30.054  29.512  22.648  1.00  0.00    -0.272 N 
ATOM     21  N   UNL A   1      30.363  28.424  21.932  1.00  0.00    -0.178 NA
ATOM     22  C   UNL A   1      31.055  26.144  22.391  1.00  0.00     0.069 C 
BRANCH  20  23
ATOM     23  C   UNL A   1      29.227  30.549  22.062  1.00  0.00     0.141 C 
ATOM     24  C   UNL A   1      27.747  30.214  22.051  1.00  0.00     0.029 C 
ENDBRANCH  20  23
ENDBRANCH  16  17
ENDBRANCH  13  16
ENDBRANCH  11  13
ENDBRANCH   7  11
ENDBRANCH   4   6
ENDBRANCH   2   4
ENDBRANCH   1   2
BRANCH   1  25
ATOM     25  C   UNL A   1      38.342  21.250  25.390  1.00  0.00     0.274 C 
BRANCH  25  26
ATOM     26  C   UNL A   1      39.670  21.508  26.099  1.00  0.00     0.275 C 
BRANCH  26  27
ATOM     27  O   UNL A   1      39.634  22.689  26.904  1.00  0.00    -0.458 OA
BRANCH  27  28
ATOM     28  C   UNL A   1      40.770  23.420  26.837  1.00  0.00     0.338 C 
ATOM     29  O   UNL A   1      41.794  23.097  26.274  1.00  0.00    -0.246 OA
BRANCH  28  30
ATOM     30  C   UNL A   1      40.720  24.585  27.711  1.00  0.00     0.060 A 
ATOM     31  C   UNL A   1      39.568  25.381  27.646  1.00  0.00     0.016 A 
ATOM     32  C   UNL A   1      41.890  25.008  28.344  1.00  0.00     0.016 A 
ATOM     33  C   UNL A   1      39.634  26.673  28.120  1.00  0.00     0.010 A 
ATOM     34  C   UNL A   1      41.961  26.303  28.792  1.00  0.00     0.010 A 
ATOM     35  C   UNL A   1      40.849  27.133  28.633  1.00  0.00    -0.014 A 
BRANCH  35  36
ATOM     36  C   UNL A   1      40.913  28.488  29.134  1.00  0.00     0.031 A 
ATOM     37  C   UNL A   1      42.016  29.280  28.546  1.00  0.00     0.074 A 
ATOM     38  C   UNL A   1      39.943  29.011  29.905  1.00  0.00     0.049 A 
ATOM     39  N   UNL A   1      43.018  29.827  29.147  1.00  0.00    -0.248 NA
ATOM     40  C   UNL A   1      42.096  29.341  27.076  1.00  0.00     0.031 C 
ATOM     41  C   UNL A   1      38.665  28.395  30.268  1.00  0.00     0.029 A 
ATOM     42  N   UNL A   1      39.839  30.268  30.410  1.00  0.00    -0.354 N 
ATOM     43  C   UNL A   1      43.731  30.492  28.155  1.00  0.00     0.074 A 
ATOM     44  C   UNL A   1      43.252  29.979  26.904  1.00  0.00     0.031 C 
ATOM     45  C   UNL A   1      37.830  29.354  30.728  1.00  0.00     0.029 A 
ATOM     46  C   UNL A   1      38.552  30.615  30.799  1.00  0.00     0.049 A 
ATOM     47  H   UNL A   1      40.608  30.878  30.492  1.00  0.00     0.167 HD
ATOM     48  C   UNL A   1      44.468  31.597  28.441  1.00  0.00     0.034 A 
ATOM     49  C   UNL A   1      38.095  31.867  31.066  1.00  0.00     0.034 A 
ATOM     50  C   UNL A   1      44.774  31.664  29.853  1.00  0.00     0.049 A 
ATOM     51  C   UNL A   1      39.282  32.714  31.353  1.00  0.00     0.074 A 
ATOM     52  C   UNL A   1      45.413  30.814  30.739  1.00  0.00     0.029 A 
ATOM     53  N   UNL A   1      44.067  32.548  30.637  1.00  0.00    -0.354 N 
ATOM     54  N   UNL A   1      40.059  32.542  32.387  1.00  0.00    -0.248 NA
ATOM     55  C   UNL A   1      39.882  33.454  30.252  1.00  0.00     0.031 C 
ATOM     56  C   UNL A   1      44.668  30.916  31.950  1.00  0.00     0.029 A 
ATOM     57  C   UNL A   1      43.666  31.872  31.764  1.00  0.00     0.049 A 
ATOM     58  H   UNL A   1      43.881  33.492  30.428  1.00  0.00     0.167 HD
ATOM     59  C   UNL A   1      41.345  32.753  31.912  1.00  0.00     0.074 A 
ATOM     60  C   UNL A   1      41.165  33.419  30.625  1.00  0.00     0.031 C 
ATOM     61  C   UNL A   1      42.420  32.117  32.468  1.00  0.00     0.034 A 
BRANCH  48  62
ATOM     62  C   UNL A   1      44.587  32.793  27.519  1.00  0.00     0.023 A 
ATOM     63  C   UNL A   1      43.932  33.972  27.919  1.00  0.00     0.031 A 
ATOM     64  C   UNL A   1      45.041  32.772  26.178  1.00  0.00     0.131 A 
ATOM     65  C   UNL A   1      43.652  34.992  26.994  1.00  0.00     0.055 A 
ATOM     66  C   UNL A   1      44.824  33.822  25.282  1.00  0.00     0.041 A 
ATOM     67  F   UNL A   1      45.635  31.711  25.622  1.00  0.00    -0.206 F 
ATOM     68  C   UNL A   1      44.093  34.926  25.677  1.00  0.00     0.022 A 
BRANCH  65  69
ATOM     69  S   UNL A   1      42.526  36.315  27.500  1.00  0.00     0.124 S 
ATOM     70  O   UNL A   1      41.225  35.711  27.231  1.00  0.00    -0.237 OA
ATOM     71  O   UNL A   1      42.880  36.486  28.905  1.00  0.00    -0.237 OA
ATOM     72  O   UNL A   1      42.893  37.425  26.624  1.00  0.00    -0.744 OA
ENDBRANCH  65  69
ENDBRANCH  48  62
BRANCH  49  73
ATOM     73  C   UNL A   1      36.746  32.411  30.748  1.00  0.00     0.023 A 
ATOM     74  C   UNL A   1      35.960  33.093  31.698  1.00  0.00     0.031 A 
ATOM     75  C   UNL A   1      36.302  32.459  29.407  1.00  0.00     0.131 A 
ATOM     76  C   UNL A   1      34.787  33.774  31.293  1.00  0.00     0.055 A 
ATOM     77  C   UNL A   1      35.138  33.121  29.014  1.00  0.00     0.041 A 
ATOM     78  F   UNL A   1      37.033  31.934  28.410  1.00  0.00    -0.206 F 
ATOM     79  C   UNL A   1      34.378  33.791  29.958  1.00  0.00     0.022 A 
BRANCH  76  80
ATOM     80  S   UNL A   1      33.820  34.741  32.498  1.00  0.00     0.124 S 
ATOM     81  O   UNL A   1      33.640  33.789  33.587  1.00  0.00    -0.237 OA
ATOM     82  O   UNL A   1      34.697  35.876  32.764  1.00  0.00    -0.237 OA
ATOM     83  O   UNL A   1      32.598  35.074  31.765  1.00  0.00    -0.744 OA
ENDBRANCH  76  80
ENDBRANCH  49  73
BRANCH  61  84
ATOM     84  C   UNL A   1      42.243  31.430  33.809  1.00  0.00     0.023 A 
ATOM     85  C   UNL A   1      42.045  30.042  33.992  1.00  0.00     0.031 A 
ATOM     86  C   UNL A   1      42.405  32.221  34.961  1.00  0.00     0.131 A 
ATOM     87  C   UNL A   1      42.005  29.500  35.293  1.00  0.00     0.055 A 
ATOM     88  C   UNL A   1      42.388  31.677  36.245  1.00  0.00     0.041 A 
ATOM     89  F   UNL A   1      42.620  33.543  34.856  1.00  0.00    -0.206 F 
ATOM     90  C   UNL A   1      42.181  30.315  36.416  1.00  0.00     0.022 A 
BRANCH  87  91
ATOM     91  S   UNL A   1      41.696  27.723  35.558  1.00  0.00     0.124 S 
ATOM     92  O   UNL A   1      40.778  27.700  36.691  1.00  0.00    -0.237 OA
ATOM     93  O   UNL A   1      41.141  27.300  34.276  1.00  0.00    -0.237 OA
ATOM     94  O   UNL A   1      43.027  27.186  35.846  1.00  0.00    -0.744 OA
ENDBRANCH  87  91
ENDBRANCH  61  84
ENDBRANCH  35  36
ENDBRANCH  28  30
ENDBRANCH  27  28
ENDBRANCH  26  27
ENDBRANCH  25  26
ENDBRANCH   1  25
TORSDOF 21
ENDMDL
