MODEL 1
REMARK VINA RESULT:     -10.6      0.000      0.000
REMARK SMILES CCCC[C@@H](C)[NH2+]Cc1ccc(C(=O)OCCOC(=O)c2ccc(-c3c4nc(c(-c5cc(S(=O)(=O)[O-])ccc5F)c5ccc([nH]5)c(-c5cc(S(=O)(=O)[O-])ccc5F)c5nc(c(-c6cc(S(=O)(=O)[O-])ccc6F)c6ccc3[nH]6)C=C5)C=C4)cc2)cn1
REMARK SMILES IDX 15 1 13 2 14 3 12 4 9 5 10 6 85 7 11 8 84 9 8 10 7 11 5 14
REMARK SMILES IDX 6 15 4 16 3 17 2 18 1 19 16 20 17 21 18 22 19 23 20 24 21 25
REMARK SMILES IDX 22 26 83 27 23 28 82 29 24 30 25 31 26 32 76 33 27 34 81 35
REMARK SMILES IDX 75 36 77 37 28 38 80 39 74 40 73 41 29 43 61 44 41 45 60 46
REMARK SMILES IDX 42 47 45 48 59 49 78 50 43 51 44 52 58 54 79 55 46 56 30 57
REMARK SMILES IDX 31 58 39 59 32 60 38 61 40 62 37 63 33 64 34 65 35 66 36 67
REMARK SMILES IDX 62 68 63 69 71 70 64 71 70 72 72 73 69 74 65 75 66 76 67 77
REMARK SMILES IDX 68 78 47 79 48 80 56 81 49 82 55 83 57 84 54 85 50 86 51 87
REMARK SMILES IDX 52 88 53 89
REMARK H PARENT 7 12 7 13 77 42 45 53
REMARK Flexibility Score: inf
ROOT
ATOM      1  O   UNL A   1      34.405  21.619  24.135  1.00  0.00    -0.458 OA
ENDROOT
BRANCH   1   2
ATOM      2  C   UNL A   1      33.065  21.448  24.041  1.00  0.00     0.339 C 
ATOM      3  O   UNL A   1      32.464  20.395  23.880  1.00  0.00    -0.246 OA
BRANCH   2   4
ATOM      4  C   UNL A   1      32.383  22.732  24.219  1.00  0.00     0.078 A 
ATOM      5  C   UNL A   1      30.972  25.076  24.459  1.00  0.00     0.094 A 
ATOM      6  C   UNL A   1      32.048  24.840  25.319  1.00  0.00     0.031 A 
ATOM      7  N   UNL A   1      30.633  24.216  23.472  1.00  0.00    -0.254 NA
ATOM      8  C   UNL A   1      32.761  23.643  25.201  1.00  0.00     0.019 A 
ATOM      9  C   UNL A   1      31.347  23.078  23.369  1.00  0.00     0.127 A 
BRANCH   5  10
ATOM     10  C   UNL A   1      29.987  26.194  24.720  1.00  0.00     0.318 C 
BRANCH  10  11
ATOM     11  N   UNL A   1      30.573  27.536  24.531  1.00  0.00    -0.339 N 
ATOM     12  H   UNL A   1      30.066  28.196  25.121  1.00  0.00     0.346 HD
ATOM     13  H   UNL A   1      31.559  27.469  24.783  1.00  0.00     0.346 HD
BRANCH  11  14
ATOM     14  C   UNL A   1      30.514  28.014  23.142  1.00  0.00     0.179 C 
ATOM     15  C   UNL A   1      31.746  28.848  22.756  1.00  0.00     0.075 C 
BRANCH  14  16
ATOM     16  C   UNL A   1      29.240  28.867  22.998  1.00  0.00     0.065 C 
BRANCH  16  17
ATOM     17  C   UNL A   1      29.401  30.075  22.064  1.00  0.00     0.006 C 
BRANCH  17  18
ATOM     18  C   UNL A   1      28.277  31.112  22.158  1.00  0.00    -0.003 C 
ATOM     19  C   UNL A   1      27.650  31.187  23.542  1.00  0.00     0.004 C 
ENDBRANCH  17  18
ENDBRANCH  16  17
ENDBRANCH  14  16
ENDBRANCH  11  14
ENDBRANCH  10  11
ENDBRANCH   5  10
ENDBRANCH   2   4
ENDBRANCH   1   2
BRANCH   1  20
ATOM     20  C   UNL A   1      35.101  20.668  24.968  1.00  0.00     0.275 C 
BRANCH  20  21
ATOM     21  C   UNL A   1      36.161  21.342  25.841  1.00  0.00     0.275 C 
BRANCH  21  22
ATOM     22  O   UNL A   1      37.355  21.587  25.078  1.00  0.00    -0.458 OA
BRANCH  22  23
ATOM     23  C   UNL A   1      38.513  21.246  25.690  1.00  0.00     0.338 C 
ATOM     24  O   UNL A   1      39.069  20.163  25.661  1.00  0.00    -0.246 OA
BRANCH  23  25
ATOM     25  C   UNL A   1      39.081  22.411  26.387  1.00  0.00     0.060 A 
ATOM     26  C   UNL A   1      38.623  23.678  26.049  1.00  0.00     0.016 A 
ATOM     27  C   UNL A   1      40.187  22.271  27.220  1.00  0.00     0.016 A 
ATOM     28  C   UNL A   1      39.366  24.803  26.395  1.00  0.00     0.010 A 
ATOM     29  C   UNL A   1      40.839  23.417  27.699  1.00  0.00     0.010 A 
ATOM     30  C   UNL A   1      40.472  24.699  27.249  1.00  0.00    -0.014 A 
BRANCH  30  31
ATOM     31  C   UNL A   1      41.250  25.918  27.640  1.00  0.00     0.031 A 
ATOM     32  C   UNL A   1      40.627  26.970  28.529  1.00  0.00     0.074 A 
ATOM     33  C   UNL A   1      42.521  26.086  27.218  1.00  0.00     0.049 A 
ATOM     34  N   UNL A   1      41.048  28.178  28.808  1.00  0.00    -0.248 NA
ATOM     35  C   UNL A   1      39.349  26.623  29.170  1.00  0.00     0.031 C 
ATOM     36  C   UNL A   1      43.276  25.137  26.394  1.00  0.00     0.029 A 
ATOM     37  N   UNL A   1      43.415  27.107  27.433  1.00  0.00    -0.354 N 
ATOM     38  C   UNL A   1      40.059  28.759  29.597  1.00  0.00     0.074 A 
ATOM     39  C   UNL A   1      39.012  27.770  29.744  1.00  0.00     0.031 C 
ATOM     40  C   UNL A   1      44.526  25.588  26.228  1.00  0.00     0.029 A 
ATOM     41  C   UNL A   1      44.634  26.913  26.822  1.00  0.00     0.049 A 
ATOM     42  H   UNL A   1      43.204  27.904  27.971  1.00  0.00     0.167 HD
ATOM     43  C   UNL A   1      40.026  30.001  30.143  1.00  0.00     0.034 A 
ATOM     44  C   UNL A   1      45.704  27.724  26.698  1.00  0.00     0.034 A 
ATOM     45  C   UNL A   1      41.109  30.953  30.039  1.00  0.00     0.049 A 
ATOM     46  C   UNL A   1      45.638  29.106  27.287  1.00  0.00     0.074 A 
ATOM     47  C   UNL A   1      41.188  32.233  30.564  1.00  0.00     0.029 A 
ATOM     48  N   UNL A   1      42.311  30.724  29.380  1.00  0.00    -0.354 N 
ATOM     49  N   UNL A   1      44.657  29.672  27.950  1.00  0.00    -0.248 NA
ATOM     50  C   UNL A   1      46.814  29.963  27.094  1.00  0.00     0.031 C 
ATOM     51  C   UNL A   1      42.410  32.795  30.178  1.00  0.00     0.029 A 
ATOM     52  C   UNL A   1      43.126  31.843  29.469  1.00  0.00     0.049 A 
ATOM     53  H   UNL A   1      42.549  29.889  28.918  1.00  0.00     0.167 HD
ATOM     54  C   UNL A   1      45.104  30.951  28.264  1.00  0.00     0.074 A 
ATOM     55  C   UNL A   1      46.449  31.064  27.736  1.00  0.00     0.031 C 
ATOM     56  C   UNL A   1      44.459  31.945  28.925  1.00  0.00     0.034 A 
BRANCH  43  57
ATOM     57  C   UNL A   1      38.755  30.427  30.842  1.00  0.00     0.023 A 
ATOM     58  C   UNL A   1      37.690  31.045  30.163  1.00  0.00     0.031 A 
ATOM     59  C   UNL A   1      38.619  30.227  32.229  1.00  0.00     0.131 A 
ATOM     60  C   UNL A   1      36.574  31.505  30.881  1.00  0.00     0.055 A 
ATOM     61  C   UNL A   1      37.471  30.615  32.924  1.00  0.00     0.041 A 
ATOM     62  F   UNL A   1      39.608  29.659  32.938  1.00  0.00    -0.206 F 
ATOM     63  C   UNL A   1      36.447  31.271  32.252  1.00  0.00     0.022 A 
BRANCH  60  64
ATOM     64  S   UNL A   1      35.351  32.535  30.023  1.00  0.00     0.124 S 
ATOM     65  O   UNL A   1      34.971  31.673  28.906  1.00  0.00    -0.237 OA
ATOM     66  O   UNL A   1      34.336  32.739  31.048  1.00  0.00    -0.237 OA
ATOM     67  O   UNL A   1      36.109  33.728  29.648  1.00  0.00    -0.744 OA
ENDBRANCH  60  64
ENDBRANCH  43  57
BRANCH  44  68
ATOM     68  C   UNL A   1      46.895  27.280  25.916  1.00  0.00     0.023 A 
ATOM     69  C   UNL A   1      47.100  27.708  24.595  1.00  0.00     0.031 A 
ATOM     70  C   UNL A   1      47.840  26.402  26.479  1.00  0.00     0.131 A 
ATOM     71  C   UNL A   1      48.208  27.234  23.872  1.00  0.00     0.055 A 
ATOM     72  C   UNL A   1      48.969  25.981  25.776  1.00  0.00     0.041 A 
ATOM     73  F   UNL A   1      47.691  25.960  27.738  1.00  0.00    -0.206 F 
ATOM     74  C   UNL A   1      49.152  26.389  24.459  1.00  0.00     0.022 A 
BRANCH  71  75
ATOM     75  S   UNL A   1      48.360  27.682  22.120  1.00  0.00     0.124 S 
ATOM     76  O   UNL A   1      47.075  28.322  21.863  1.00  0.00    -0.237 OA
ATOM     77  O   UNL A   1      49.524  28.561  22.131  1.00  0.00    -0.237 OA
ATOM     78  O   UNL A   1      48.561  26.395  21.457  1.00  0.00    -0.744 OA
ENDBRANCH  71  75
ENDBRANCH  44  68
BRANCH  56  79
ATOM     79  C   UNL A   1      45.230  33.220  29.149  1.00  0.00     0.023 A 
ATOM     80  C   UNL A   1      45.284  34.230  28.172  1.00  0.00     0.031 A 
ATOM     81  C   UNL A   1      45.939  33.414  30.347  1.00  0.00     0.131 A 
ATOM     82  C   UNL A   1      46.076  35.368  28.389  1.00  0.00     0.055 A 
ATOM     83  C   UNL A   1      46.683  34.571  30.579  1.00  0.00     0.041 A 
ATOM     84  F   UNL A   1      45.921  32.479  31.309  1.00  0.00    -0.206 F 
ATOM     85  C   UNL A   1      46.764  35.551  29.592  1.00  0.00     0.022 A 
BRANCH  82  86
ATOM     86  S   UNL A   1      46.260  36.573  27.046  1.00  0.00     0.124 S 
ATOM     87  O   UNL A   1      47.569  37.149  27.333  1.00  0.00    -0.237 OA
ATOM     88  O   UNL A   1      46.180  35.732  25.857  1.00  0.00    -0.237 OA
ATOM     89  O   UNL A   1      45.127  37.478  27.240  1.00  0.00    -0.744 OA
ENDBRANCH  82  86
ENDBRANCH  56  79
ENDBRANCH  30  31
ENDBRANCH  23  25
ENDBRANCH  22  23
ENDBRANCH  21  22
ENDBRANCH  20  21
ENDBRANCH   1  20
TORSDOF 20
ENDMDL
MODEL 2
REMARK VINA RESULT:      -9.9      3.798      9.377
REMARK SMILES CCCC[C@@H](C)[NH2+]Cc1ccc(C(=O)OCCOC(=O)c2ccc(-c3c4nc(c(-c5cc(S(=O)(=O)[O-])ccc5F)c5ccc([nH]5)c(-c5cc(S(=O)(=O)[O-])ccc5F)c5nc(c(-c6cc(S(=O)(=O)[O-])ccc6F)c6ccc3[nH]6)C=C5)C=C4)cc2)cn1
REMARK SMILES IDX 15 1 13 2 14 3 12 4 9 5 10 6 85 7 11 8 84 9 8 10 7 11 5 14
REMARK SMILES IDX 6 15 4 16 3 17 2 18 1 19 16 20 17 21 18 22 19 23 20 24 21 25
REMARK SMILES IDX 22 26 83 27 23 28 82 29 24 30 25 31 26 32 76 33 27 34 81 35
REMARK SMILES IDX 75 36 77 37 28 38 80 39 74 40 73 41 29 43 61 44 41 45 60 46
REMARK SMILES IDX 42 47 45 48 59 49 78 50 43 51 44 52 58 54 79 55 46 56 30 57
REMARK SMILES IDX 31 58 39 59 32 60 38 61 40 62 37 63 33 64 34 65 35 66 36 67
REMARK SMILES IDX 62 68 63 69 71 70 64 71 70 72 72 73 69 74 65 75 66 76 67 77
REMARK SMILES IDX 68 78 47 79 48 80 56 81 49 82 55 83 57 84 54 85 50 86 51 87
REMARK SMILES IDX 52 88 53 89
REMARK H PARENT 7 12 7 13 77 42 45 53
REMARK Flexibility Score: inf
ROOT
ATOM      1  O   UNL A   1      41.413  20.711  26.286  1.00  0.00    -0.458 OA
ENDROOT
BRANCH   1   2
ATOM      2  C   UNL A   1      41.108  21.773  27.068  1.00  0.00     0.339 C 
ATOM      3  O   UNL A   1      41.772  22.227  27.990  1.00  0.00    -0.246 OA
BRANCH   2   4
ATOM      4  C   UNL A   1      39.851  22.379  26.621  1.00  0.00     0.078 A 
ATOM      5  C   UNL A   1      37.435  23.352  25.749  1.00  0.00     0.094 A 
ATOM      6  C   UNL A   1      38.271  24.183  26.500  1.00  0.00     0.031 A 
ATOM      7  N   UNL A   1      37.796  22.101  25.386  1.00  0.00    -0.254 NA
ATOM      8  C   UNL A   1      39.497  23.684  26.950  1.00  0.00     0.019 A 
ATOM      9  C   UNL A   1      38.991  21.650  25.818  1.00  0.00     0.127 A 
BRANCH   5  10
ATOM     10  C   UNL A   1      35.991  23.718  25.488  1.00  0.00     0.318 C 
BRANCH  10  11
ATOM     11  N   UNL A   1      35.232  22.637  24.828  1.00  0.00    -0.339 N 
ATOM     12  H   UNL A   1      35.048  22.914  23.863  1.00  0.00     0.346 HD
ATOM     13  H   UNL A   1      35.802  21.793  24.887  1.00  0.00     0.346 HD
BRANCH  11  14
ATOM     14  C   UNL A   1      33.948  22.337  25.478  1.00  0.00     0.179 C 
ATOM     15  C   UNL A   1      33.737  23.155  26.763  1.00  0.00     0.075 C 
BRANCH  14  16
ATOM     16  C   UNL A   1      33.936  20.833  25.809  1.00  0.00     0.065 C 
BRANCH  16  17
ATOM     17  C   UNL A   1      32.841  20.043  25.077  1.00  0.00     0.006 C 
BRANCH  17  18
ATOM     18  C   UNL A   1      33.349  18.853  24.258  1.00  0.00    -0.003 C 
ATOM     19  C   UNL A   1      32.518  17.593  24.459  1.00  0.00     0.004 C 
ENDBRANCH  17  18
ENDBRANCH  16  17
ENDBRANCH  14  16
ENDBRANCH  11  14
ENDBRANCH  10  11
ENDBRANCH   5  10
ENDBRANCH   2   4
ENDBRANCH   1   2
BRANCH   1  20
ATOM     20  C   UNL A   1      41.918  19.548  26.975  1.00  0.00     0.275 C 
BRANCH  20  21
ATOM     21  C   UNL A   1      42.639  18.590  26.027  1.00  0.00     0.275 C 
BRANCH  21  22
ATOM     22  O   UNL A   1      44.008  18.993  25.854  1.00  0.00    -0.458 OA
BRANCH  22  23
ATOM     23  C   UNL A   1      44.300  19.551  24.656  1.00  0.00     0.338 C 
ATOM     24  O   UNL A   1      44.154  19.050  23.555  1.00  0.00    -0.246 OA
BRANCH  23  25
ATOM     25  C   UNL A   1      44.789  20.927  24.842  1.00  0.00     0.060 A 
ATOM     26  C   UNL A   1      45.301  21.289  26.081  1.00  0.00     0.016 A 
ATOM     27  C   UNL A   1      44.563  21.899  23.872  1.00  0.00     0.016 A 
ATOM     28  C   UNL A   1      45.427  22.634  26.417  1.00  0.00     0.010 A 
ATOM     29  C   UNL A   1      44.846  23.242  24.162  1.00  0.00     0.010 A 
ATOM     30  C   UNL A   1      45.228  23.636  25.458  1.00  0.00    -0.014 A 
BRANCH  30  31
ATOM     31  C   UNL A   1      45.393  25.080  25.820  1.00  0.00     0.031 A 
ATOM     32  C   UNL A   1      46.732  25.761  25.658  1.00  0.00     0.074 A 
ATOM     33  C   UNL A   1      44.345  25.797  26.278  1.00  0.00     0.049 A 
ATOM     34  N   UNL A   1      47.132  26.927  26.103  1.00  0.00    -0.248 NA
ATOM     35  C   UNL A   1      47.766  25.021  24.918  1.00  0.00     0.031 C 
ATOM     36  C   UNL A   1      42.978  25.293  26.444  1.00  0.00     0.029 A 
ATOM     37  N   UNL A   1      44.255  27.109  26.679  1.00  0.00    -0.354 N 
ATOM     38  C   UNL A   1      48.477  27.030  25.759  1.00  0.00     0.074 A 
ATOM     39  C   UNL A   1      48.826  25.803  25.075  1.00  0.00     0.031 C 
ATOM     40  C   UNL A   1      42.182  26.292  26.848  1.00  0.00     0.029 A 
ATOM     41  C   UNL A   1      42.994  27.476  27.092  1.00  0.00     0.049 A 
ATOM     42  H   UNL A   1      45.021  27.727  26.672  1.00  0.00     0.167 HD
ATOM     43  C   UNL A   1      49.339  28.052  25.996  1.00  0.00     0.034 A 
ATOM     44  C   UNL A   1      42.541  28.613  27.659  1.00  0.00     0.034 A 
ATOM     45  C   UNL A   1      48.958  29.296  26.624  1.00  0.00     0.049 A 
ATOM     46  C   UNL A   1      43.518  29.722  27.937  1.00  0.00     0.074 A 
ATOM     47  C   UNL A   1      49.746  30.402  26.900  1.00  0.00     0.029 A 
ATOM     48  N   UNL A   1      47.676  29.609  27.058  1.00  0.00    -0.354 N 
ATOM     49  N   UNL A   1      44.806  29.767  27.689  1.00  0.00    -0.248 NA
ATOM     50  C   UNL A   1      42.984  30.925  28.587  1.00  0.00     0.031 C 
ATOM     51  C   UNL A   1      48.954  31.358  27.548  1.00  0.00     0.029 A 
ATOM     52  C   UNL A   1      47.656  30.879  27.616  1.00  0.00     0.049 A 
ATOM     53  H   UNL A   1      46.894  29.016  26.981  1.00  0.00     0.167 HD
ATOM     54  C   UNL A   1      45.234  31.008  28.145  1.00  0.00     0.074 A 
ATOM     55  C   UNL A   1      44.064  31.689  28.662  1.00  0.00     0.031 C 
ATOM     56  C   UNL A   1      46.483  31.538  28.140  1.00  0.00     0.034 A 
BRANCH  43  57
ATOM     57  C   UNL A   1      50.793  27.840  25.637  1.00  0.00     0.023 A 
ATOM     58  C   UNL A   1      51.275  27.980  24.324  1.00  0.00     0.031 A 
ATOM     59  C   UNL A   1      51.711  27.464  26.635  1.00  0.00     0.131 A 
ATOM     60  C   UNL A   1      52.615  27.678  24.034  1.00  0.00     0.055 A 
ATOM     61  C   UNL A   1      53.062  27.242  26.353  1.00  0.00     0.041 A 
ATOM     62  F   UNL A   1      51.310  27.295  27.905  1.00  0.00    -0.206 F 
ATOM     63  C   UNL A   1      53.517  27.334  25.044  1.00  0.00     0.022 A 
BRANCH  60  64
ATOM     64  S   UNL A   1      53.135  27.605  22.296  1.00  0.00     0.124 S 
ATOM     65  O   UNL A   1      53.719  28.931  22.108  1.00  0.00    -0.237 OA
ATOM     66  O   UNL A   1      54.070  26.487  22.293  1.00  0.00    -0.237 OA
ATOM     67  O   UNL A   1      51.885  27.376  21.573  1.00  0.00    -0.744 OA
ENDBRANCH  60  64
ENDBRANCH  43  57
BRANCH  44  68
ATOM     68  C   UNL A   1      41.113  28.726  28.076  1.00  0.00     0.023 A 
ATOM     69  C   UNL A   1      40.722  28.495  29.404  1.00  0.00     0.031 A 
ATOM     70  C   UNL A   1      40.113  29.052  27.140  1.00  0.00     0.131 A 
ATOM     71  C   UNL A   1      39.362  28.566  29.752  1.00  0.00     0.055 A 
ATOM     72  C   UNL A   1      38.773  29.177  27.505  1.00  0.00     0.041 A 
ATOM     73  F   UNL A   1      40.432  29.279  25.856  1.00  0.00    -0.206 F 
ATOM     74  C   UNL A   1      38.389  28.922  28.817  1.00  0.00     0.022 A 
BRANCH  71  75
ATOM     75  S   UNL A   1      38.871  28.111  31.439  1.00  0.00     0.124 S 
ATOM     76  O   UNL A   1      38.528  26.702  31.280  1.00  0.00    -0.237 OA
ATOM     77  O   UNL A   1      40.086  28.394  32.196  1.00  0.00    -0.237 OA
ATOM     78  O   UNL A   1      37.745  29.000  31.716  1.00  0.00    -0.744 OA
ENDBRANCH  71  75
ENDBRANCH  44  68
BRANCH  56  79
ATOM     79  C   UNL A   1      46.626  32.941  28.673  1.00  0.00     0.023 A 
ATOM     80  C   UNL A   1      46.427  34.065  27.853  1.00  0.00     0.031 A 
ATOM     81  C   UNL A   1      46.989  33.151  30.014  1.00  0.00     0.131 A 
ATOM     82  C   UNL A   1      46.646  35.351  28.369  1.00  0.00     0.055 A 
ATOM     83  C   UNL A   1      47.154  34.434  30.536  1.00  0.00     0.041 A 
ATOM     84  F   UNL A   1      47.193  32.110  30.837  1.00  0.00    -0.206 F 
ATOM     85  C   UNL A   1      46.994  35.543  29.709  1.00  0.00     0.022 A 
BRANCH  82  86
ATOM     86  S   UNL A   1      46.546  36.772  27.245  1.00  0.00     0.124 S 
ATOM     87  O   UNL A   1      47.249  36.277  26.067  1.00  0.00    -0.237 OA
ATOM     88  O   UNL A   1      45.106  36.954  27.099  1.00  0.00    -0.237 OA
ATOM     89  O   UNL A   1      47.232  37.836  27.977  1.00  0.00    -0.744 OA
ENDBRANCH  82  86
ENDBRANCH  56  79
ENDBRANCH  30  31
ENDBRANCH  23  25
ENDBRANCH  22  23
ENDBRANCH  21  22
ENDBRANCH  20  21
ENDBRANCH   1  20
TORSDOF 20
ENDMDL
MODEL 3
REMARK VINA RESULT:      -9.5      5.156      8.367
REMARK SMILES CCCC[C@@H](C)[NH2+]Cc1ccc(C(=O)OCCOC(=O)c2ccc(-c3c4nc(c(-c5cc(S(=O)(=O)[O-])ccc5F)c5ccc([nH]5)c(-c5cc(S(=O)(=O)[O-])ccc5F)c5nc(c(-c6cc(S(=O)(=O)[O-])ccc6F)c6ccc3[nH]6)C=C5)C=C4)cc2)cn1
REMARK SMILES IDX 15 1 13 2 14 3 12 4 9 5 10 6 85 7 11 8 84 9 8 10 7 11 5 14
REMARK SMILES IDX 6 15 4 16 3 17 2 18 1 19 16 20 17 21 18 22 19 23 20 24 21 25
REMARK SMILES IDX 22 26 83 27 23 28 82 29 24 30 25 31 26 32 76 33 27 34 81 35
REMARK SMILES IDX 75 36 77 37 28 38 80 39 74 40 73 41 29 43 61 44 41 45 60 46
REMARK SMILES IDX 42 47 45 48 59 49 78 50 43 51 44 52 58 54 79 55 46 56 30 57
REMARK SMILES IDX 31 58 39 59 32 60 38 61 40 62 37 63 33 64 34 65 35 66 36 67
REMARK SMILES IDX 62 68 63 69 71 70 64 71 70 72 72 73 69 74 65 75 66 76 67 77
REMARK SMILES IDX 68 78 47 79 48 80 56 81 49 82 55 83 57 84 54 85 50 86 51 87
REMARK SMILES IDX 52 88 53 89
REMARK H PARENT 7 12 7 13 77 42 45 53
REMARK Flexibility Score: inf
ROOT
ATOM      1  O   UNL A   1      31.482  28.758  26.800  1.00  0.00    -0.458 OA
ENDROOT
BRANCH   1   2
ATOM      2  C   UNL A   1      31.625  28.167  25.589  1.00  0.00     0.339 C 
ATOM      3  O   UNL A   1      31.320  28.633  24.500  1.00  0.00    -0.246 OA
BRANCH   2   4
ATOM      4  C   UNL A   1      32.270  26.861  25.743  1.00  0.00     0.078 A 
ATOM      5  C   UNL A   1      33.634  24.493  26.007  1.00  0.00     0.094 A 
ATOM      6  C   UNL A   1      32.309  24.565  26.444  1.00  0.00     0.031 A 
ATOM      7  N   UNL A   1      34.255  25.532  25.404  1.00  0.00    -0.254 NA
ATOM      8  C   UNL A   1      31.618  25.774  26.317  1.00  0.00     0.019 A 
ATOM      9  C   UNL A   1      33.561  26.680  25.278  1.00  0.00     0.127 A 
BRANCH   5  10
ATOM     10  C   UNL A   1      34.523  23.326  26.379  1.00  0.00     0.318 C 
BRANCH  10  11
ATOM     11  N   UNL A   1      33.807  22.034  26.387  1.00  0.00    -0.339 N 
ATOM     12  H   UNL A   1      33.880  21.630  27.321  1.00  0.00     0.346 HD
ATOM     13  H   UNL A   1      32.841  22.227  26.123  1.00  0.00     0.346 HD
BRANCH  11  14
ATOM     14  C   UNL A   1      34.334  21.063  25.418  1.00  0.00     0.179 C 
ATOM     15  C   UNL A   1      35.713  21.469  24.874  1.00  0.00     0.075 C 
BRANCH  14  16
ATOM     16  C   UNL A   1      33.323  20.968  24.260  1.00  0.00     0.065 C 
BRANCH  16  17
ATOM     17  C   UNL A   1      32.718  19.569  24.075  1.00  0.00     0.006 C 
BRANCH  17  18
ATOM     18  C   UNL A   1      33.579  18.422  24.613  1.00  0.00    -0.003 C 
ATOM     19  C   UNL A   1      34.027  17.454  23.528  1.00  0.00     0.004 C 
ENDBRANCH  17  18
ENDBRANCH  16  17
ENDBRANCH  14  16
ENDBRANCH  11  14
ENDBRANCH  10  11
ENDBRANCH   5  10
ENDBRANCH   2   4
ENDBRANCH   1   2
BRANCH   1  20
ATOM     20  C   UNL A   1      31.758  30.174  26.843  1.00  0.00     0.275 C 
BRANCH  20  21
ATOM     21  C   UNL A   1      33.207  30.484  26.465  1.00  0.00     0.275 C 
BRANCH  21  22
ATOM     22  O   UNL A   1      34.079  30.240  27.582  1.00  0.00    -0.458 OA
BRANCH  22  23
ATOM     23  C   UNL A   1      34.797  31.307  28.000  1.00  0.00     0.338 C 
ATOM     24  O   UNL A   1      34.530  32.485  27.834  1.00  0.00    -0.246 OA
BRANCH  23  25
ATOM     25  C   UNL A   1      35.972  30.861  28.765  1.00  0.00     0.060 A 
ATOM     26  C   UNL A   1      37.203  31.447  28.497  1.00  0.00     0.016 A 
ATOM     27  C   UNL A   1      35.900  29.745  29.594  1.00  0.00     0.016 A 
ATOM     28  C   UNL A   1      38.377  30.823  28.910  1.00  0.00     0.010 A 
ATOM     29  C   UNL A   1      37.077  29.215  30.141  1.00  0.00     0.010 A 
ATOM     30  C   UNL A   1      38.338  29.711  29.762  1.00  0.00    -0.014 A 
BRANCH  30  31
ATOM     31  C   UNL A   1      39.606  29.063  30.225  1.00  0.00     0.031 A 
ATOM     32  C   UNL A   1      40.294  29.539  31.484  1.00  0.00     0.074 A 
ATOM     33  C   UNL A   1      40.144  28.035  29.535  1.00  0.00     0.049 A 
ATOM     34  N   UNL A   1      41.491  29.257  31.936  1.00  0.00    -0.248 NA
ATOM     35  C   UNL A   1      39.543  30.475  32.335  1.00  0.00     0.031 C 
ATOM     36  C   UNL A   1      39.573  27.431  28.326  1.00  0.00     0.029 A 
ATOM     37  N   UNL A   1      41.285  27.300  29.752  1.00  0.00    -0.354 N 
ATOM     38  C   UNL A   1      41.662  30.030  33.081  1.00  0.00     0.074 A 
ATOM     39  C   UNL A   1      40.447  30.800  33.248  1.00  0.00     0.031 C 
ATOM     40  C   UNL A   1      40.326  26.389  27.951  1.00  0.00     0.029 A 
ATOM     41  C   UNL A   1      41.500  26.320  28.809  1.00  0.00     0.049 A 
ATOM     42  H   UNL A   1      41.892  27.460  30.511  1.00  0.00     0.167 HD
ATOM     43  C   UNL A   1      42.735  30.094  33.911  1.00  0.00     0.034 A 
ATOM     44  C   UNL A   1      42.547  25.493  28.612  1.00  0.00     0.034 A 
ATOM     45  C   UNL A   1      43.914  29.272  33.765  1.00  0.00     0.049 A 
ATOM     46  C   UNL A   1      43.735  25.598  29.526  1.00  0.00     0.074 A 
ATOM     47  C   UNL A   1      45.052  29.244  34.556  1.00  0.00     0.029 A 
ATOM     48  N   UNL A   1      44.102  28.318  32.773  1.00  0.00    -0.354 N 
ATOM     49  N   UNL A   1      43.920  26.400  30.549  1.00  0.00    -0.248 NA
ATOM     50  C   UNL A   1      44.864  24.700  29.249  1.00  0.00     0.031 C 
ATOM     51  C   UNL A   1      45.946  28.316  34.010  1.00  0.00     0.029 A 
ATOM     52  C   UNL A   1      45.342  27.712  32.920  1.00  0.00     0.049 A 
ATOM     53  H   UNL A   1      43.450  28.102  32.068  1.00  0.00     0.167 HD
ATOM     54  C   UNL A   1      45.183  26.095  31.044  1.00  0.00     0.074 A 
ATOM     55  C   UNL A   1      45.705  25.022  30.221  1.00  0.00     0.031 C 
ATOM     56  C   UNL A   1      45.854  26.653  32.082  1.00  0.00     0.034 A 
BRANCH  43  57
ATOM     57  C   UNL A   1      42.710  31.133  35.009  1.00  0.00     0.023 A 
ATOM     58  C   UNL A   1      43.134  32.458  34.805  1.00  0.00     0.031 A 
ATOM     59  C   UNL A   1      42.271  30.778  36.299  1.00  0.00     0.131 A 
ATOM     60  C   UNL A   1      43.179  33.354  35.885  1.00  0.00     0.055 A 
ATOM     61  C   UNL A   1      42.243  31.696  37.351  1.00  0.00     0.041 A 
ATOM     62  F   UNL A   1      41.870  29.524  36.563  1.00  0.00    -0.206 F 
ATOM     63  C   UNL A   1      42.712  32.989  37.151  1.00  0.00     0.022 A 
BRANCH  60  64
ATOM     64  S   UNL A   1      43.984  34.963  35.650  1.00  0.00     0.124 S 
ATOM     65  O   UNL A   1      44.993  34.945  36.706  1.00  0.00    -0.237 OA
ATOM     66  O   UNL A   1      44.485  34.870  34.284  1.00  0.00    -0.237 OA
ATOM     67  O   UNL A   1      42.899  35.922  35.853  1.00  0.00    -0.744 OA
ENDBRANCH  60  64
ENDBRANCH  43  57
BRANCH  44  68
ATOM     68  C   UNL A   1      42.551  24.552  27.454  1.00  0.00     0.023 A 
ATOM     69  C   UNL A   1      41.815  23.357  27.484  1.00  0.00     0.031 A 
ATOM     70  C   UNL A   1      43.312  24.830  26.302  1.00  0.00     0.131 A 
ATOM     71  C   UNL A   1      41.878  22.471  26.394  1.00  0.00     0.055 A 
ATOM     72  C   UNL A   1      43.324  23.974  25.201  1.00  0.00     0.041 A 
ATOM     73  F   UNL A   1      44.037  25.957  26.222  1.00  0.00    -0.206 F 
ATOM     74  C   UNL A   1      42.613  22.780  25.247  1.00  0.00     0.022 A 
BRANCH  71  75
ATOM     75  S   UNL A   1      41.042  20.867  26.527  1.00  0.00     0.124 S 
ATOM     76  O   UNL A   1      41.970  19.987  25.825  1.00  0.00    -0.237 OA
ATOM     77  O   UNL A   1      40.956  20.687  27.973  1.00  0.00    -0.237 OA
ATOM     78  O   UNL A   1      39.765  21.092  25.853  1.00  0.00    -0.744 OA
ENDBRANCH  71  75
ENDBRANCH  44  68
BRANCH  56  79
ATOM     79  C   UNL A   1      47.206  26.073  32.406  1.00  0.00     0.023 A 
ATOM     80  C   UNL A   1      47.361  25.047  33.354  1.00  0.00     0.031 A 
ATOM     81  C   UNL A   1      48.357  26.573  31.771  1.00  0.00     0.131 A 
ATOM     82  C   UNL A   1      48.647  24.590  33.681  1.00  0.00     0.055 A 
ATOM     83  C   UNL A   1      49.628  26.078  32.062  1.00  0.00     0.041 A 
ATOM     84  F   UNL A   1      48.262  27.554  30.860  1.00  0.00    -0.206 F 
ATOM     85  C   UNL A   1      49.779  25.088  33.031  1.00  0.00     0.022 A 
BRANCH  82  86
ATOM     86  S   UNL A   1      48.829  23.386  35.026  1.00  0.00     0.124 S 
ATOM     87  O   UNL A   1      49.353  24.216  36.106  1.00  0.00    -0.237 OA
ATOM     88  O   UNL A   1      47.464  22.901  35.199  1.00  0.00    -0.237 OA
ATOM     89  O   UNL A   1      49.769  22.406  34.484  1.00  0.00    -0.744 OA
ENDBRANCH  82  86
ENDBRANCH  56  79
ENDBRANCH  30  31
ENDBRANCH  23  25
ENDBRANCH  22  23
ENDBRANCH  21  22
ENDBRANCH  20  21
ENDBRANCH   1  20
TORSDOF 20
ENDMDL
