MODEL 1
REMARK VINA RESULT:     -13.5      0.000      0.000
REMARK SMILES O=C(CN1C(=O)/C(=C2\SC(N3CCN(c4ccccc4F)CC3)=[NH+]C2=O)c2ccccc21)OCCOC(=O)c1ccc(-c2c3nc(c(-c4cc(S(=O)(=O)[O-])ccc4F)c4ccc([nH]4)c(-c4cc(S(=O)(=O)[O-])ccc4F)c4nc(c(-c5cc(S(=O)(=O)[O-])ccc5F)c5ccc2[nH]5)C=C4)C=C3)cc1
REMARK SMILES IDX 35 1 34 2 33 3 2 4 1 5 3 6 4 7 5 8 32 9 6 10 7 11 27 12
REMARK SMILES IDX 31 13 8 14 28 15 30 16 9 17 25 18 29 19 10 20 24 21 26 22
REMARK SMILES IDX 11 23 12 25 23 26 13 27 22 28 14 29 15 30 16 31 20 32 17 33
REMARK SMILES IDX 19 34 21 35 18 36 36 37 37 38 38 39 39 40 40 41 101 42 41 43
REMARK SMILES IDX 100 44 42 45 43 46 44 47 94 48 45 49 99 50 93 51 95 52 46 53
REMARK SMILES IDX 98 54 92 55 91 56 47 58 79 59 59 60 78 61 60 62 63 63 77 64
REMARK SMILES IDX 96 65 61 66 62 67 76 69 97 70 64 71 48 72 49 73 57 74 50 75
REMARK SMILES IDX 56 76 58 77 55 78 51 79 52 80 53 81 54 82 80 83 81 84 89 85
REMARK SMILES IDX 82 86 88 87 90 88 87 89 83 90 84 91 85 92 86 93 65 94 66 95
REMARK SMILES IDX 74 96 67 97 73 98 75 99 72 100 68 101 69 102 70 103 71 104
REMARK H PARENT 24 24 95 57 63 68
REMARK Flexibility Score: inf
ROOT
ATOM      1  C   UNL A   1      39.956  19.097  25.954  1.00  0.00     0.275 C 
ENDROOT
BRANCH   1   2
ATOM      2  C   UNL A   1      38.869  20.007  25.363  1.00  0.00     0.274 C 
BRANCH   2   3
ATOM      3  O   UNL A   1      38.809  21.312  25.953  1.00  0.00    -0.461 OA
BRANCH   3   4
ATOM      4  C   UNL A   1      37.846  22.170  25.508  1.00  0.00     0.326 C 
ATOM      5  O   UNL A   1      37.523  23.145  26.178  1.00  0.00    -0.250 OA
BRANCH   4   6
ATOM      6  C   UNL A   1      37.127  21.745  24.224  1.00  0.00     0.248 C 
BRANCH   6   7
ATOM      7  N   UNL A   1      35.700  21.860  24.305  1.00  0.00    -0.296 N 
ATOM      8  C   UNL A   1      35.041  23.023  23.948  1.00  0.00     0.260 C 
ATOM      9  C   UNL A   1      34.809  20.813  24.551  1.00  0.00     0.053 A 
ATOM     10  O   UNL A   1      35.566  24.079  23.648  1.00  0.00    -0.269 OA
ATOM     11  C   UNL A   1      33.575  22.677  24.053  1.00  0.00     0.071 C 
ATOM     12  C   UNL A   1      33.507  21.221  24.259  1.00  0.00     0.012 A 
ATOM     13  C   UNL A   1      35.103  19.526  24.961  1.00  0.00     0.027 A 
ATOM     14  C   UNL A   1      32.635  23.631  24.115  1.00  0.00     0.122 C 
ATOM     15  C   UNL A   1      32.517  20.261  24.137  1.00  0.00     0.011 A 
ATOM     16  C   UNL A   1      34.099  18.566  24.881  1.00  0.00     0.002 A 
ATOM     17  S   UNL A   1      32.923  25.313  23.896  1.00  0.00     0.007 SA
ATOM     18  C   UNL A   1      31.186  23.467  24.438  1.00  0.00     0.347 C 
ATOM     19  C   UNL A   1      32.826  18.925  24.427  1.00  0.00     0.001 A 
ATOM     20  C   UNL A   1      31.219  25.649  23.970  1.00  0.00     0.319 C 
ATOM     21  N   UNL A   1      30.477  24.636  24.280  1.00  0.00    -0.200 N 
ATOM     22  O   UNL A   1      30.678  22.421  24.819  1.00  0.00    -0.240 OA
ATOM     23  N   UNL A   1      30.781  26.915  23.714  1.00  0.00    -0.252 N 
ATOM     24  H   UNL A   1      29.501  24.696  24.393  1.00  0.00     0.316 HD
ATOM     25  C   UNL A   1      31.552  27.933  22.965  1.00  0.00     0.258 C 
ATOM     26  C   UNL A   1      29.526  27.418  24.286  1.00  0.00     0.258 C 
ATOM     27  C   UNL A   1      30.690  28.623  21.887  1.00  0.00     0.162 C 
ATOM     28  C   UNL A   1      28.641  28.065  23.212  1.00  0.00     0.162 C 
ATOM     29  N   UNL A   1      29.391  29.040  22.431  1.00  0.00    -0.361 N 
BRANCH  29  30
ATOM     30  C   UNL A   1      28.999  30.355  22.273  1.00  0.00     0.073 A 
ATOM     31  C   UNL A   1      28.395  30.793  21.090  1.00  0.00     0.029 A 
ATOM     32  C   UNL A   1      29.132  31.302  23.308  1.00  0.00     0.146 A 
ATOM     33  C   UNL A   1      27.911  32.101  20.959  1.00  0.00     0.002 A 
ATOM     34  C   UNL A   1      28.681  32.613  23.177  1.00  0.00     0.041 A 
ATOM     35  F   UNL A   1      29.745  30.960  24.455  1.00  0.00    -0.205 F 
ATOM     36  C   UNL A   1      28.056  33.011  22.001  1.00  0.00     0.003 A 
ENDBRANCH  29  30
ENDBRANCH   6   7
ENDBRANCH   4   6
ENDBRANCH   3   4
ENDBRANCH   2   3
ENDBRANCH   1   2
BRANCH   1  37
ATOM     37  O   UNL A   1      41.235  19.261  25.321  1.00  0.00    -0.458 OA
BRANCH  37  38
ATOM     38  C   UNL A   1      42.285  19.383  26.181  1.00  0.00     0.338 C 
ATOM     39  O   UNL A   1      43.105  18.518  26.436  1.00  0.00    -0.246 OA
BRANCH  38  40
ATOM     40  C   UNL A   1      42.420  20.809  26.568  1.00  0.00     0.060 A 
ATOM     41  C   UNL A   1      42.393  21.217  27.904  1.00  0.00     0.016 A 
ATOM     42  C   UNL A   1      42.503  21.764  25.546  1.00  0.00     0.016 A 
ATOM     43  C   UNL A   1      42.465  22.581  28.215  1.00  0.00     0.010 A 
ATOM     44  C   UNL A   1      42.559  23.127  25.861  1.00  0.00     0.010 A 
ATOM     45  C   UNL A   1      42.557  23.549  27.198  1.00  0.00    -0.014 A 
BRANCH  45  46
ATOM     46  C   UNL A   1      42.838  24.972  27.529  1.00  0.00     0.031 A 
ATOM     47  C   UNL A   1      41.807  25.891  28.111  1.00  0.00     0.074 A 
ATOM     48  C   UNL A   1      44.059  25.462  27.238  1.00  0.00     0.049 A 
ATOM     49  N   UNL A   1      41.950  27.143  28.470  1.00  0.00    -0.248 NA
ATOM     50  C   UNL A   1      40.458  25.353  28.318  1.00  0.00     0.031 C 
ATOM     51  C   UNL A   1      45.139  24.682  26.639  1.00  0.00     0.029 A 
ATOM     52  N   UNL A   1      44.594  26.719  27.392  1.00  0.00    -0.354 N 
ATOM     53  C   UNL A   1      40.714  27.545  28.956  1.00  0.00     0.074 A 
ATOM     54  C   UNL A   1      39.824  26.410  28.817  1.00  0.00     0.031 C 
ATOM     55  C   UNL A   1      46.207  25.473  26.478  1.00  0.00     0.029 A 
ATOM     56  C   UNL A   1      45.881  26.829  26.923  1.00  0.00     0.049 A 
ATOM     57  H   UNL A   1      44.101  27.468  27.798  1.00  0.00     0.167 HD
ATOM     58  C   UNL A   1      40.364  28.746  29.475  1.00  0.00     0.034 A 
ATOM     59  C   UNL A   1      46.712  27.890  26.840  1.00  0.00     0.034 A 
ATOM     60  C   UNL A   1      41.247  29.882  29.599  1.00  0.00     0.049 A 
ATOM     61  C   UNL A   1      46.286  29.225  27.389  1.00  0.00     0.074 A 
ATOM     62  C   UNL A   1      40.975  31.105  30.194  1.00  0.00     0.029 A 
ATOM     63  N   UNL A   1      42.539  29.964  29.104  1.00  0.00    -0.354 N 
ATOM     64  N   UNL A   1      45.157  29.550  27.970  1.00  0.00    -0.248 NA
ATOM     65  C   UNL A   1      47.245  30.336  27.289  1.00  0.00     0.031 C 
ATOM     66  C   UNL A   1      42.057  31.953  29.972  1.00  0.00     0.029 A 
ATOM     67  C   UNL A   1      43.052  31.233  29.336  1.00  0.00     0.049 A 
ATOM     68  H   UNL A   1      43.021  29.232  28.658  1.00  0.00     0.167 HD
ATOM     69  C   UNL A   1      45.278  30.891  28.328  1.00  0.00     0.074 A 
ATOM     70  C   UNL A   1      46.598  31.315  27.912  1.00  0.00     0.031 C 
ATOM     71  C   UNL A   1      44.368  31.684  28.945  1.00  0.00     0.034 A 
BRANCH  58  72
ATOM     72  C   UNL A   1      38.963  28.938  29.993  1.00  0.00     0.023 A 
ATOM     73  C   UNL A   1      38.024  29.631  29.206  1.00  0.00     0.031 A 
ATOM     74  C   UNL A   1      38.639  28.654  31.329  1.00  0.00     0.131 A 
ATOM     75  C   UNL A   1      36.835  30.084  29.783  1.00  0.00     0.055 A 
ATOM     76  C   UNL A   1      37.436  29.077  31.890  1.00  0.00     0.041 A 
ATOM     77  F   UNL A   1      39.503  27.993  32.117  1.00  0.00    -0.206 F 
ATOM     78  C   UNL A   1      36.543  29.822  31.124  1.00  0.00     0.022 A 
BRANCH  75  79
ATOM     79  S   UNL A   1      35.701  31.134  28.832  1.00  0.00     0.124 S 
ATOM     80  O   UNL A   1      34.983  31.816  29.904  1.00  0.00    -0.237 OA
ATOM     81  O   UNL A   1      36.617  31.958  28.048  1.00  0.00    -0.237 OA
ATOM     82  O   UNL A   1      34.912  30.180  28.061  1.00  0.00    -0.744 OA
ENDBRANCH  75  79
ENDBRANCH  58  72
BRANCH  59  83
ATOM     83  C   UNL A   1      48.067  27.671  26.260  1.00  0.00     0.023 A 
ATOM     84  C   UNL A   1      48.287  27.832  24.879  1.00  0.00     0.031 A 
ATOM     85  C   UNL A   1      49.102  27.134  27.041  1.00  0.00     0.131 A 
ATOM     86  C   UNL A   1      49.473  27.358  24.308  1.00  0.00     0.055 A 
ATOM     87  C   UNL A   1      50.317  26.742  26.479  1.00  0.00     0.041 A 
ATOM     88  F   UNL A   1      48.931  26.953  28.361  1.00  0.00    -0.206 F 
ATOM     89  C   UNL A   1      50.497  26.830  25.101  1.00  0.00     0.022 A 
BRANCH  86  90
ATOM     90  S   UNL A   1      49.654  27.252  22.506  1.00  0.00     0.124 S 
ATOM     91  O   UNL A   1      51.059  26.888  22.360  1.00  0.00    -0.237 OA
ATOM     92  O   UNL A   1      48.691  26.203  22.177  1.00  0.00    -0.237 OA
ATOM     93  O   UNL A   1      49.298  28.590  22.044  1.00  0.00    -0.744 OA
ENDBRANCH  86  90
ENDBRANCH  59  83
BRANCH  71  94
ATOM     94  C   UNL A   1      44.713  33.127  29.247  1.00  0.00     0.023 A 
ATOM     95  C   UNL A   1      44.496  34.119  28.268  1.00  0.00     0.031 A 
ATOM     96  C   UNL A   1      45.432  33.485  30.400  1.00  0.00     0.131 A 
ATOM     97  C   UNL A   1      45.052  35.396  28.428  1.00  0.00     0.055 A 
ATOM     98  C   UNL A   1      45.934  34.775  30.581  1.00  0.00     0.041 A 
ATOM     99  F   UNL A   1      45.678  32.578  31.359  1.00  0.00    -0.206 F 
ATOM    100  C   UNL A   1      45.762  35.732  29.583  1.00  0.00     0.022 A 
BRANCH  97 101
ATOM    101  S   UNL A   1      44.966  36.630  27.098  1.00  0.00     0.124 S 
ATOM    102  O   UNL A   1      45.332  37.858  27.799  1.00  0.00    -0.237 OA
ATOM    103  O   UNL A   1      45.963  36.132  26.154  1.00  0.00    -0.237 OA
ATOM    104  O   UNL A   1      43.581  36.564  26.644  1.00  0.00    -0.744 OA
ENDBRANCH  97 101
ENDBRANCH  71  94
ENDBRANCH  45  46
ENDBRANCH  38  40
ENDBRANCH  37  38
ENDBRANCH   1  37
TORSDOF 16
ENDMDL
MODEL 2
REMARK VINA RESULT:     -12.3      2.077      7.371
REMARK SMILES O=C(CN1C(=O)/C(=C2\SC(N3CCN(c4ccccc4F)CC3)=[NH+]C2=O)c2ccccc21)OCCOC(=O)c1ccc(-c2c3nc(c(-c4cc(S(=O)(=O)[O-])ccc4F)c4ccc([nH]4)c(-c4cc(S(=O)(=O)[O-])ccc4F)c4nc(c(-c5cc(S(=O)(=O)[O-])ccc5F)c5ccc2[nH]5)C=C4)C=C3)cc1
REMARK SMILES IDX 35 1 34 2 33 3 2 4 1 5 3 6 4 7 5 8 32 9 6 10 7 11 27 12
REMARK SMILES IDX 31 13 8 14 28 15 30 16 9 17 25 18 29 19 10 20 24 21 26 22
REMARK SMILES IDX 11 23 12 25 23 26 13 27 22 28 14 29 15 30 16 31 20 32 17 33
REMARK SMILES IDX 19 34 21 35 18 36 36 37 37 38 38 39 39 40 40 41 101 42 41 43
REMARK SMILES IDX 100 44 42 45 43 46 44 47 94 48 45 49 99 50 93 51 95 52 46 53
REMARK SMILES IDX 98 54 92 55 91 56 47 58 79 59 59 60 78 61 60 62 63 63 77 64
REMARK SMILES IDX 96 65 61 66 62 67 76 69 97 70 64 71 48 72 49 73 57 74 50 75
REMARK SMILES IDX 56 76 58 77 55 78 51 79 52 80 53 81 54 82 80 83 81 84 89 85
REMARK SMILES IDX 82 86 88 87 90 88 87 89 83 90 84 91 85 92 86 93 65 94 66 95
REMARK SMILES IDX 74 96 67 97 73 98 75 99 72 100 68 101 69 102 70 103 71 104
REMARK H PARENT 24 24 95 57 63 68
REMARK Flexibility Score: inf
ROOT
ATOM      1  C   UNL A   1      40.258  19.356  26.139  1.00  0.00     0.275 C 
ENDROOT
BRANCH   1   2
ATOM      2  C   UNL A   1      39.051  20.127  25.581  1.00  0.00     0.274 C 
BRANCH   2   3
ATOM      3  O   UNL A   1      38.983  21.496  25.998  1.00  0.00    -0.461 OA
BRANCH   3   4
ATOM      4  C   UNL A   1      37.919  22.239  25.577  1.00  0.00     0.326 C 
ATOM      5  O   UNL A   1      37.505  23.173  26.255  1.00  0.00    -0.250 OA
BRANCH   4   6
ATOM      6  C   UNL A   1      37.222  21.733  24.310  1.00  0.00     0.248 C 
BRANCH   6   7
ATOM      7  N   UNL A   1      35.792  21.820  24.373  1.00  0.00    -0.296 N 
ATOM      8  C   UNL A   1      35.118  22.986  24.058  1.00  0.00     0.260 C 
ATOM      9  C   UNL A   1      34.917  20.747  24.556  1.00  0.00     0.053 A 
ATOM     10  O   UNL A   1      35.628  24.064  23.815  1.00  0.00    -0.269 OA
ATOM     11  C   UNL A   1      33.657  22.610  24.124  1.00  0.00     0.071 C 
ATOM     12  C   UNL A   1      33.612  21.145  24.262  1.00  0.00     0.012 A 
ATOM     13  C   UNL A   1      35.228  19.448  24.913  1.00  0.00     0.027 A 
ATOM     14  C   UNL A   1      32.699  23.543  24.213  1.00  0.00     0.122 C 
ATOM     15  C   UNL A   1      32.642  20.175  24.080  1.00  0.00     0.011 A 
ATOM     16  C   UNL A   1      34.244  18.475  24.772  1.00  0.00     0.002 A 
ATOM     17  S   UNL A   1      32.960  25.239  24.075  1.00  0.00     0.007 SA
ATOM     18  C   UNL A   1      31.248  23.340  24.505  1.00  0.00     0.347 C 
ATOM     19  C   UNL A   1      32.971  18.832  24.315  1.00  0.00     0.001 A 
ATOM     20  C   UNL A   1      31.249  25.541  24.137  1.00  0.00     0.319 C 
ATOM     21  N   UNL A   1      30.521  24.503  24.389  1.00  0.00    -0.200 N 
ATOM     22  O   UNL A   1      30.753  22.268  24.829  1.00  0.00    -0.240 OA
ATOM     23  N   UNL A   1      30.792  26.810  23.931  1.00  0.00    -0.252 N 
ATOM     24  H   UNL A   1      29.542  24.540  24.488  1.00  0.00     0.316 HD
ATOM     25  C   UNL A   1      31.556  27.874  23.242  1.00  0.00     0.258 C 
ATOM     26  C   UNL A   1      29.519  27.263  24.505  1.00  0.00     0.258 C 
ATOM     27  C   UNL A   1      30.699  28.597  22.182  1.00  0.00     0.162 C 
ATOM     28  C   UNL A   1      28.640  27.944  23.447  1.00  0.00     0.162 C 
ATOM     29  N   UNL A   1      29.384  28.966  22.724  1.00  0.00    -0.361 N 
BRANCH  29  30
ATOM     30  C   UNL A   1      28.971  30.281  22.619  1.00  0.00     0.073 A 
ATOM     31  C   UNL A   1      29.273  31.216  23.615  1.00  0.00     0.029 A 
ATOM     32  C   UNL A   1      28.280  30.756  21.488  1.00  0.00     0.146 A 
ATOM     33  C   UNL A   1      28.938  32.567  23.471  1.00  0.00     0.002 A 
ATOM     34  C   UNL A   1      27.916  32.094  21.348  1.00  0.00     0.041 A 
ATOM     35  F   UNL A   1      27.918  29.902  20.514  1.00  0.00    -0.205 F 
ATOM     36  C   UNL A   1      28.258  33.007  22.339  1.00  0.00     0.003 A 
ENDBRANCH  29  30
ENDBRANCH   6   7
ENDBRANCH   4   6
ENDBRANCH   3   4
ENDBRANCH   2   3
ENDBRANCH   1   2
BRANCH   1  37
ATOM     37  O   UNL A   1      41.379  19.334  25.241  1.00  0.00    -0.458 OA
BRANCH  37  38
ATOM     38  C   UNL A   1      42.597  19.355  25.850  1.00  0.00     0.338 C 
ATOM     39  O   UNL A   1      43.367  18.415  25.942  1.00  0.00    -0.246 OA
BRANCH  38  40
ATOM     40  C   UNL A   1      42.949  20.763  26.162  1.00  0.00     0.060 A 
ATOM     41  C   UNL A   1      42.862  21.274  27.460  1.00  0.00     0.016 A 
ATOM     42  C   UNL A   1      43.305  21.605  25.100  1.00  0.00     0.016 A 
ATOM     43  C   UNL A   1      43.148  22.626  27.694  1.00  0.00     0.010 A 
ATOM     44  C   UNL A   1      43.574  22.958  25.337  1.00  0.00     0.010 A 
ATOM     45  C   UNL A   1      43.515  23.479  26.637  1.00  0.00    -0.014 A 
BRANCH  45  46
ATOM     46  C   UNL A   1      44.013  24.854  26.911  1.00  0.00     0.031 A 
ATOM     47  C   UNL A   1      45.453  25.242  26.763  1.00  0.00     0.074 A 
ATOM     48  C   UNL A   1      43.133  25.769  27.363  1.00  0.00     0.049 A 
ATOM     49  N   UNL A   1      45.996  26.421  26.943  1.00  0.00    -0.248 NA
ATOM     50  C   UNL A   1      46.401  24.194  26.368  1.00  0.00     0.031 C 
ATOM     51  C   UNL A   1      41.713  25.510  27.582  1.00  0.00     0.029 A 
ATOM     52  N   UNL A   1      43.298  27.084  27.730  1.00  0.00    -0.354 N 
ATOM     53  C   UNL A   1      47.347  26.264  26.676  1.00  0.00     0.074 A 
ATOM     54  C   UNL A   1      47.548  24.867  26.349  1.00  0.00     0.031 C 
ATOM     55  C   UNL A   1      41.134  26.627  28.041  1.00  0.00     0.029 A 
ATOM     56  C   UNL A   1      42.146  27.674  28.190  1.00  0.00     0.049 A 
ATOM     57  H   UNL A   1      44.160  27.557  27.668  1.00  0.00     0.167 HD
ATOM     58  C   UNL A   1      48.323  27.203  26.695  1.00  0.00     0.034 A 
ATOM     59  C   UNL A   1      41.913  28.907  28.689  1.00  0.00     0.034 A 
ATOM     60  C   UNL A   1      48.127  28.594  27.035  1.00  0.00     0.049 A 
ATOM     61  C   UNL A   1      43.023  29.922  28.736  1.00  0.00     0.074 A 
ATOM     62  C   UNL A   1      49.062  29.616  26.992  1.00  0.00     0.029 A 
ATOM     63  N   UNL A   1      46.952  29.155  27.507  1.00  0.00    -0.354 N 
ATOM     64  N   UNL A   1      44.269  29.794  28.348  1.00  0.00    -0.248 NA
ATOM     65  C   UNL A   1      42.701  31.254  29.270  1.00  0.00     0.031 C 
ATOM     66  C   UNL A   1      48.485  30.764  27.529  1.00  0.00     0.029 A 
ATOM     67  C   UNL A   1      47.157  30.495  27.807  1.00  0.00     0.049 A 
ATOM     68  H   UNL A   1      46.099  28.677  27.613  1.00  0.00     0.167 HD
ATOM     69  C   UNL A   1      44.871  31.030  28.567  1.00  0.00     0.074 A 
ATOM     70  C   UNL A   1      43.849  31.902  29.106  1.00  0.00     0.031 C 
ATOM     71  C   UNL A   1      46.156  31.394  28.334  1.00  0.00     0.034 A 
BRANCH  58  72
ATOM     72  C   UNL A   1      49.726  26.808  26.313  1.00  0.00     0.023 A 
ATOM     73  C   UNL A   1      50.235  27.192  25.058  1.00  0.00     0.031 A 
ATOM     74  C   UNL A   1      50.447  25.873  27.073  1.00  0.00     0.131 A 
ATOM     75  C   UNL A   1      51.393  26.586  24.565  1.00  0.00     0.055 A 
ATOM     76  C   UNL A   1      51.621  25.298  26.591  1.00  0.00     0.041 A 
ATOM     77  F   UNL A   1      50.001  25.479  28.276  1.00  0.00    -0.206 F 
ATOM     78  C   UNL A   1      52.081  25.633  25.319  1.00  0.00     0.022 A 
BRANCH  75  79
ATOM     79  S   UNL A   1      51.958  26.936  22.877  1.00  0.00     0.124 S 
ATOM     80  O   UNL A   1      52.403  28.320  23.011  1.00  0.00    -0.237 OA
ATOM     81  O   UNL A   1      53.009  25.941  22.682  1.00  0.00    -0.237 OA
ATOM     82  O   UNL A   1      50.762  26.741  22.065  1.00  0.00    -0.744 OA
ENDBRANCH  75  79
ENDBRANCH  58  72
BRANCH  59  83
ATOM     83  C   UNL A   1      40.524  29.236  29.116  1.00  0.00     0.023 A 
ATOM     84  C   UNL A   1      40.162  29.176  30.475  1.00  0.00     0.031 A 
ATOM     85  C   UNL A   1      39.512  29.439  28.166  1.00  0.00     0.131 A 
ATOM     86  C   UNL A   1      38.810  29.209  30.832  1.00  0.00     0.055 A 
ATOM     87  C   UNL A   1      38.171  29.558  28.535  1.00  0.00     0.041 A 
ATOM     88  F   UNL A   1      39.811  29.491  26.858  1.00  0.00    -0.206 F 
ATOM     89  C   UNL A   1      37.813  29.417  29.873  1.00  0.00     0.022 A 
BRANCH  86  90
ATOM     90  S   UNL A   1      38.290  28.811  32.525  1.00  0.00     0.124 S 
ATOM     91  O   UNL A   1      36.841  28.967  32.445  1.00  0.00    -0.237 OA
ATOM     92  O   UNL A   1      38.772  27.440  32.664  1.00  0.00    -0.237 OA
ATOM     93  O   UNL A   1      38.986  29.801  33.341  1.00  0.00    -0.744 OA
ENDBRANCH  86  90
ENDBRANCH  59  83
BRANCH  71  94
ATOM     94  C   UNL A   1      46.603  32.807  28.643  1.00  0.00     0.023 A 
ATOM     95  C   UNL A   1      47.289  33.079  29.845  1.00  0.00     0.031 A 
ATOM     96  C   UNL A   1      46.180  33.898  27.865  1.00  0.00     0.131 A 
ATOM     97  C   UNL A   1      47.469  34.404  30.267  1.00  0.00     0.055 A 
ATOM     98  C   UNL A   1      46.412  35.217  28.261  1.00  0.00     0.041 A 
ATOM     99  F   UNL A   1      45.513  33.698  26.716  1.00  0.00    -0.206 F 
ATOM    100  C   UNL A   1      47.042  35.475  29.477  1.00  0.00     0.022 A 
BRANCH  97 101
ATOM    101  S   UNL A   1      48.162  34.783  31.902  1.00  0.00     0.124 S 
ATOM    102  O   UNL A   1      49.113  35.847  31.590  1.00  0.00    -0.237 OA
ATOM    103  O   UNL A   1      46.979  35.204  32.646  1.00  0.00    -0.237 OA
ATOM    104  O   UNL A   1      48.760  33.523  32.332  1.00  0.00    -0.744 OA
ENDBRANCH  97 101
ENDBRANCH  71  94
ENDBRANCH  45  46
ENDBRANCH  38  40
ENDBRANCH  37  38
ENDBRANCH   1  37
TORSDOF 16
ENDMDL
MODEL 3
REMARK VINA RESULT:     -12.1      2.564      7.416
REMARK SMILES O=C(CN1C(=O)/C(=C2\SC(N3CCN(c4ccccc4F)CC3)=[NH+]C2=O)c2ccccc21)OCCOC(=O)c1ccc(-c2c3nc(c(-c4cc(S(=O)(=O)[O-])ccc4F)c4ccc([nH]4)c(-c4cc(S(=O)(=O)[O-])ccc4F)c4nc(c(-c5cc(S(=O)(=O)[O-])ccc5F)c5ccc2[nH]5)C=C4)C=C3)cc1
REMARK SMILES IDX 35 1 34 2 33 3 2 4 1 5 3 6 4 7 5 8 32 9 6 10 7 11 27 12
REMARK SMILES IDX 31 13 8 14 28 15 30 16 9 17 25 18 29 19 10 20 24 21 26 22
REMARK SMILES IDX 11 23 12 25 23 26 13 27 22 28 14 29 15 30 16 31 20 32 17 33
REMARK SMILES IDX 19 34 21 35 18 36 36 37 37 38 38 39 39 40 40 41 101 42 41 43
REMARK SMILES IDX 100 44 42 45 43 46 44 47 94 48 45 49 99 50 93 51 95 52 46 53
REMARK SMILES IDX 98 54 92 55 91 56 47 58 79 59 59 60 78 61 60 62 63 63 77 64
REMARK SMILES IDX 96 65 61 66 62 67 76 69 97 70 64 71 48 72 49 73 57 74 50 75
REMARK SMILES IDX 56 76 58 77 55 78 51 79 52 80 53 81 54 82 80 83 81 84 89 85
REMARK SMILES IDX 82 86 88 87 90 88 87 89 83 90 84 91 85 92 86 93 65 94 66 95
REMARK SMILES IDX 74 96 67 97 73 98 75 99 72 100 68 101 69 102 70 103 71 104
REMARK H PARENT 24 24 95 57 63 68
REMARK Flexibility Score: inf
ROOT
ATOM      1  C   UNL A   1      40.666  21.492  27.451  1.00  0.00     0.275 C 
ENDROOT
BRANCH   1   2
ATOM      2  C   UNL A   1      39.966  21.249  26.105  1.00  0.00     0.274 C 
BRANCH   2   3
ATOM      3  O   UNL A   1      38.536  21.192  26.187  1.00  0.00    -0.461 OA
BRANCH   3   4
ATOM      4  C   UNL A   1      37.821  22.167  25.556  1.00  0.00     0.326 C 
ATOM      5  O   UNL A   1      37.671  23.267  26.080  1.00  0.00    -0.250 OA
BRANCH   4   6
ATOM      6  C   UNL A   1      37.125  21.741  24.260  1.00  0.00     0.248 C 
BRANCH   6   7
ATOM      7  N   UNL A   1      35.696  21.854  24.316  1.00  0.00    -0.296 N 
ATOM      8  C   UNL A   1      35.043  23.022  23.965  1.00  0.00     0.260 C 
ATOM      9  C   UNL A   1      34.803  20.802  24.528  1.00  0.00     0.053 A 
ATOM     10  O   UNL A   1      35.572  24.083  23.693  1.00  0.00    -0.269 OA
ATOM     11  C   UNL A   1      33.576  22.673  24.038  1.00  0.00     0.071 C 
ATOM     12  C   UNL A   1      33.506  21.214  24.220  1.00  0.00     0.012 A 
ATOM     13  C   UNL A   1      35.091  19.509  24.924  1.00  0.00     0.027 A 
ATOM     14  C   UNL A   1      32.633  23.625  24.098  1.00  0.00     0.122 C 
ATOM     15  C   UNL A   1      32.520  20.255  24.063  1.00  0.00     0.011 A 
ATOM     16  C   UNL A   1      34.090  18.550  24.809  1.00  0.00     0.002 A 
ATOM     17  S   UNL A   1      32.923  25.311  23.911  1.00  0.00     0.007 SA
ATOM     18  C   UNL A   1      31.179  23.454  24.392  1.00  0.00     0.347 C 
ATOM     19  C   UNL A   1      32.824  18.915  24.338  1.00  0.00     0.001 A 
ATOM     20  C   UNL A   1      31.218  25.644  23.959  1.00  0.00     0.319 C 
ATOM     21  N   UNL A   1      30.472  24.626  24.239  1.00  0.00    -0.200 N 
ATOM     22  O   UNL A   1      30.665  22.401  24.746  1.00  0.00    -0.240 OA
ATOM     23  N   UNL A   1      30.783  26.913  23.715  1.00  0.00    -0.252 N 
ATOM     24  H   UNL A   1      29.493  24.683  24.335  1.00  0.00     0.316 HD
ATOM     25  C   UNL A   1      31.567  27.944  22.997  1.00  0.00     0.258 C 
ATOM     26  C   UNL A   1      29.517  27.405  24.272  1.00  0.00     0.258 C 
ATOM     27  C   UNL A   1      30.724  28.650  21.915  1.00  0.00     0.162 C 
ATOM     28  C   UNL A   1      28.652  28.069  23.192  1.00  0.00     0.162 C 
ATOM     29  N   UNL A   1      29.415  29.057  22.441  1.00  0.00    -0.361 N 
BRANCH  29  30
ATOM     30  C   UNL A   1      29.024  30.375  22.297  1.00  0.00     0.073 A 
ATOM     31  C   UNL A   1      28.416  30.825  21.120  1.00  0.00     0.029 A 
ATOM     32  C   UNL A   1      29.162  31.311  23.340  1.00  0.00     0.146 A 
ATOM     33  C   UNL A   1      27.934  32.134  21.003  1.00  0.00     0.002 A 
ATOM     34  C   UNL A   1      28.712  32.624  23.223  1.00  0.00     0.041 A 
ATOM     35  F   UNL A   1      29.779  30.957  24.482  1.00  0.00    -0.205 F 
ATOM     36  C   UNL A   1      28.083  33.034  22.054  1.00  0.00     0.003 A 
ENDBRANCH  29  30
ENDBRANCH   6   7
ENDBRANCH   4   6
ENDBRANCH   3   4
ENDBRANCH   2   3
ENDBRANCH   1   2
BRANCH   1  37
ATOM     37  O   UNL A   1      42.094  21.365  27.376  1.00  0.00    -0.458 OA
BRANCH  37  38
ATOM     38  C   UNL A   1      42.689  22.157  26.440  1.00  0.00     0.338 C 
ATOM     39  O   UNL A   1      42.963  21.831  25.298  1.00  0.00    -0.246 OA
BRANCH  38  40
ATOM     40  C   UNL A   1      42.722  23.550  26.947  1.00  0.00     0.060 A 
ATOM     41  C   UNL A   1      42.849  23.837  28.309  1.00  0.00     0.016 A 
ATOM     42  C   UNL A   1      42.547  24.593  26.026  1.00  0.00     0.016 A 
ATOM     43  C   UNL A   1      42.816  25.168  28.745  1.00  0.00     0.010 A 
ATOM     44  C   UNL A   1      42.498  25.920  26.468  1.00  0.00     0.010 A 
ATOM     45  C   UNL A   1      42.649  26.223  27.829  1.00  0.00    -0.014 A 
BRANCH  45  46
ATOM     46  C   UNL A   1      42.817  27.637  28.261  1.00  0.00     0.031 A 
ATOM     47  C   UNL A   1      44.154  28.309  28.341  1.00  0.00     0.074 A 
ATOM     48  C   UNL A   1      41.720  28.317  28.648  1.00  0.00     0.049 A 
ATOM     49  N   UNL A   1      44.417  29.549  28.674  1.00  0.00    -0.248 NA
ATOM     50  C   UNL A   1      45.338  27.508  28.012  1.00  0.00     0.031 C 
ATOM     51  C   UNL A   1      40.367  27.767  28.650  1.00  0.00     0.029 A 
ATOM     52  N   UNL A   1      41.566  29.598  29.121  1.00  0.00    -0.354 N 
ATOM     53  C   UNL A   1      45.794  29.684  28.587  1.00  0.00     0.074 A 
ATOM     54  C   UNL A   1      46.315  28.390  28.198  1.00  0.00     0.031 C 
ATOM     55  C   UNL A   1      39.520  28.701  29.097  1.00  0.00     0.029 A 
ATOM     56  C   UNL A   1      40.269  29.907  29.456  1.00  0.00     0.049 A 
ATOM     57  H   UNL A   1      42.312  30.233  29.212  1.00  0.00     0.167 HD
ATOM     58  C   UNL A   1      46.547  30.789  28.804  1.00  0.00     0.034 A 
ATOM     59  C   UNL A   1      39.729  31.018  30.000  1.00  0.00     0.034 A 
ATOM     60  C   UNL A   1      46.029  32.077  29.207  1.00  0.00     0.049 A 
ATOM     61  C   UNL A   1      40.593  32.221  30.268  1.00  0.00     0.074 A 
ATOM     62  C   UNL A   1      46.733  33.261  29.363  1.00  0.00     0.029 A 
ATOM     63  N   UNL A   1      44.715  32.352  29.548  1.00  0.00    -0.354 N 
ATOM     64  N   UNL A   1      41.876  32.374  30.050  1.00  0.00    -0.248 NA
ATOM     65  C   UNL A   1      39.941  33.409  30.841  1.00  0.00     0.031 C 
ATOM     66  C   UNL A   1      45.871  34.219  29.891  1.00  0.00     0.029 A 
ATOM     67  C   UNL A   1      44.603  33.672  29.964  1.00  0.00     0.049 A 
ATOM     68  H   UNL A   1      43.972  31.709  29.502  1.00  0.00     0.167 HD
ATOM     69  C   UNL A   1      42.180  33.678  30.433  1.00  0.00     0.074 A 
ATOM     70  C   UNL A   1      40.943  34.280  30.882  1.00  0.00     0.031 C 
ATOM     71  C   UNL A   1      43.382  34.306  30.406  1.00  0.00     0.034 A 
BRANCH  58  72
ATOM     72  C   UNL A   1      48.037  30.712  28.596  1.00  0.00     0.023 A 
ATOM     73  C   UNL A   1      48.865  30.328  29.667  1.00  0.00     0.031 A 
ATOM     74  C   UNL A   1      48.634  31.238  27.439  1.00  0.00     0.131 A 
ATOM     75  C   UNL A   1      50.244  30.546  29.590  1.00  0.00     0.055 A 
ATOM     76  C   UNL A   1      50.013  31.420  27.354  1.00  0.00     0.041 A 
ATOM     77  F   UNL A   1      47.884  31.616  26.392  1.00  0.00    -0.206 F 
ATOM     78  C   UNL A   1      50.819  31.101  28.445  1.00  0.00     0.022 A 
BRANCH  75  79
ATOM     79  S   UNL A   1      51.299  30.226  31.030  1.00  0.00     0.124 S 
ATOM     80  O   UNL A   1      51.854  31.554  31.273  1.00  0.00    -0.237 OA
ATOM     81  O   UNL A   1      50.343  29.739  32.021  1.00  0.00    -0.237 OA
ATOM     82  O   UNL A   1      52.250  29.231  30.547  1.00  0.00    -0.744 OA
ENDBRANCH  75  79
ENDBRANCH  58  72
BRANCH  59  83
ATOM     83  C   UNL A   1      38.260  31.029  30.251  1.00  0.00     0.023 A 
ATOM     84  C   UNL A   1      37.366  31.440  29.244  1.00  0.00     0.031 A 
ATOM     85  C   UNL A   1      37.752  30.801  31.539  1.00  0.00     0.131 A 
ATOM     86  C   UNL A   1      36.034  31.714  29.572  1.00  0.00     0.055 A 
ATOM     87  C   UNL A   1      36.404  30.994  31.841  1.00  0.00     0.041 A 
ATOM     88  F   UNL A   1      38.571  30.418  32.532  1.00  0.00    -0.206 F 
ATOM     89  C   UNL A   1      35.542  31.477  30.860  1.00  0.00     0.022 A 
BRANCH  86  90
ATOM     90  S   UNL A   1      34.943  32.550  28.387  1.00  0.00     0.124 S 
ATOM     91  O   UNL A   1      34.303  31.424  27.713  1.00  0.00    -0.237 OA
ATOM     92  O   UNL A   1      34.083  33.325  29.278  1.00  0.00    -0.237 OA
ATOM     93  O   UNL A   1      35.860  33.336  27.568  1.00  0.00    -0.744 OA
ENDBRANCH  86  90
ENDBRANCH  59  83
BRANCH  71  94
ATOM     94  C   UNL A   1      43.488  35.743  30.868  1.00  0.00     0.023 A 
ATOM     95  C   UNL A   1      43.485  36.787  29.919  1.00  0.00     0.031 A 
ATOM     96  C   UNL A   1      43.795  36.066  32.201  1.00  0.00     0.131 A 
ATOM     97  C   UNL A   1      43.849  38.085  30.302  1.00  0.00     0.055 A 
ATOM     98  C   UNL A   1      44.101  37.372  32.588  1.00  0.00     0.041 A 
ATOM     99  F   UNL A   1      43.824  35.111  33.144  1.00  0.00    -0.206 F 
ATOM    100  C   UNL A   1      44.149  38.385  31.633  1.00  0.00     0.022 A 
BRANCH  97 101
ATOM    101  S   UNL A   1      44.054  39.404  29.071  1.00  0.00     0.124 S 
ATOM    102  O   UNL A   1      42.668  39.741  28.753  1.00  0.00    -0.237 OA
ATOM    103  O   UNL A   1      44.783  40.419  29.826  1.00  0.00    -0.237 OA
ATOM    104  O   UNL A   1      44.800  38.767  27.991  1.00  0.00    -0.744 OA
ENDBRANCH  97 101
ENDBRANCH  71  94
ENDBRANCH  45  46
ENDBRANCH  38  40
ENDBRANCH  37  38
ENDBRANCH   1  37
TORSDOF 16
ENDMDL
