MODEL 1
REMARK VINA RESULT:     -13.1      0.000      0.000
REMARK SMILES O=C(OCCOC(=O)C1CC[NH+]([C@@H]2CC(=O)N(c3ccc(Oc4ccccc4)cc3)C2=O)CC1)c1ccc(-c2c3nc(c(-c4cc(S(=O)(=O)[O-])ccc4F)c4ccc([nH]4)c(-c4cc(S(=O)(=O)[O-])ccc4F)c4nc(c(-c5cc(S(=O)(=O)[O-])ccc5F)c5ccc2[nH]5)C=C4)C=C3)cc1
REMARK SMILES IDX 5 1 4 2 3 3 2 4 1 5 35 6 36 7 97 8 37 9 96 10 38 11 39 12
REMARK SMILES IDX 40 13 90 14 41 15 95 16 89 17 91 18 42 19 94 20 88 21 87 22
REMARK SMILES IDX 43 24 75 25 55 26 74 27 56 28 59 29 73 30 92 31 57 32 58 33
REMARK SMILES IDX 72 35 93 36 60 37 44 38 45 39 53 40 46 41 52 42 54 43 51 44
REMARK SMILES IDX 47 45 48 46 49 47 50 48 76 49 77 50 85 51 78 52 84 53 86 54
REMARK SMILES IDX 83 55 79 56 80 57 81 58 82 59 61 60 62 61 70 62 63 63 69 64
REMARK SMILES IDX 71 65 68 66 64 67 65 68 66 69 67 70 6 71 7 72 8 73 9 74
REMARK SMILES IDX 10 75 34 76 11 77 33 78 12 79 13 81 14 82 31 83 15 84 17 85
REMARK SMILES IDX 32 86 16 87 18 88 19 89 30 90 20 91 29 92 21 93 22 94 23 95
REMARK SMILES IDX 24 96 28 97 25 98 27 99 26 100
REMARK H PARENT 91 23 59 34 12 80
REMARK Flexibility Score: inf
ROOT
ATOM      1  C   UNL A   1      31.082  31.606  25.882  1.00  0.00     0.274 C 
ENDROOT
BRANCH   1   2
ATOM      2  C   UNL A   1      31.352  32.251  27.245  1.00  0.00     0.275 C 
BRANCH   2   3
ATOM      3  O   UNL A   1      32.206  33.413  27.194  1.00  0.00    -0.458 OA
BRANCH   3   4
ATOM      4  C   UNL A   1      33.010  33.972  28.133  1.00  0.00     0.338 C 
ATOM      5  O   UNL A   1      32.806  35.144  28.448  1.00  0.00    -0.246 OA
BRANCH   4   6
ATOM      6  C   UNL A   1      34.245  33.315  28.680  1.00  0.00     0.060 A 
ATOM      7  C   UNL A   1      34.277  32.157  29.459  1.00  0.00     0.016 A 
ATOM      8  C   UNL A   1      35.483  33.873  28.287  1.00  0.00     0.016 A 
ATOM      9  C   UNL A   1      35.481  31.512  29.750  1.00  0.00     0.010 A 
ATOM     10  C   UNL A   1      36.699  33.231  28.578  1.00  0.00     0.010 A 
ATOM     11  C   UNL A   1      36.697  32.041  29.316  1.00  0.00    -0.014 A 
BRANCH  11  12
ATOM     12  C   UNL A   1      37.935  31.467  29.894  1.00  0.00     0.031 A 
ATOM     13  C   UNL A   1      38.233  31.827  31.318  1.00  0.00     0.074 A 
ATOM     14  C   UNL A   1      38.666  30.543  29.242  1.00  0.00     0.049 A 
ATOM     15  N   UNL A   1      39.131  31.336  32.126  1.00  0.00    -0.248 NA
ATOM     16  C   UNL A   1      37.374  32.861  31.918  1.00  0.00     0.031 C 
ATOM     17  C   UNL A   1      38.399  30.070  27.887  1.00  0.00     0.029 A 
ATOM     18  N   UNL A   1      39.760  29.811  29.631  1.00  0.00    -0.354 N 
ATOM     19  C   UNL A   1      38.927  31.985  33.337  1.00  0.00     0.074 A 
ATOM     20  C   UNL A   1      37.866  32.944  33.140  1.00  0.00     0.031 C 
ATOM     21  C   UNL A   1      39.294  29.125  27.555  1.00  0.00     0.029 A 
ATOM     22  C   UNL A   1      40.209  28.926  28.673  1.00  0.00     0.049 A 
ATOM     23  H   UNL A   1      40.184  29.908  30.513  1.00  0.00     0.167 HD
ATOM     24  C   UNL A   1      39.557  31.778  34.517  1.00  0.00     0.034 A 
ATOM     25  C   UNL A   1      41.236  28.051  28.708  1.00  0.00     0.034 A 
ATOM     26  C   UNL A   1      40.647  30.852  34.668  1.00  0.00     0.049 A 
ATOM     27  C   UNL A   1      42.016  27.941  29.998  1.00  0.00     0.074 A 
ATOM     28  C   UNL A   1      41.411  30.593  35.789  1.00  0.00     0.029 A 
ATOM     29  N   UNL A   1      41.144  30.047  33.648  1.00  0.00    -0.354 N 
ATOM     30  N   UNL A   1      41.809  28.554  31.142  1.00  0.00    -0.248 NA
ATOM     31  C   UNL A   1      43.149  27.009  30.011  1.00  0.00     0.031 C 
ATOM     32  C   UNL A   1      42.421  29.696  35.426  1.00  0.00     0.029 A 
ATOM     33  C   UNL A   1      42.230  29.319  34.104  1.00  0.00     0.049 A 
ATOM     34  H   UNL A   1      40.778  30.002  32.736  1.00  0.00     0.167 HD
ATOM     35  C   UNL A   1      42.761  28.050  32.023  1.00  0.00     0.074 A 
ATOM     36  C   UNL A   1      43.530  27.072  31.277  1.00  0.00     0.031 C 
ATOM     37  C   UNL A   1      42.979  28.355  33.329  1.00  0.00     0.034 A 
BRANCH  24  38
ATOM     38  C   UNL A   1      39.124  32.649  35.667  1.00  0.00     0.023 A 
ATOM     39  C   UNL A   1      39.544  33.988  35.781  1.00  0.00     0.031 A 
ATOM     40  C   UNL A   1      38.392  32.095  36.730  1.00  0.00     0.131 A 
ATOM     41  C   UNL A   1      39.316  34.692  36.973  1.00  0.00     0.055 A 
ATOM     42  C   UNL A   1      38.088  32.832  37.876  1.00  0.00     0.041 A 
ATOM     43  F   UNL A   1      37.999  30.812  36.694  1.00  0.00    -0.206 F 
ATOM     44  C   UNL A   1      38.567  34.132  38.010  1.00  0.00     0.022 A 
BRANCH  41  45
ATOM     45  S   UNL A   1      40.174  36.272  37.225  1.00  0.00     0.124 S 
ATOM     46  O   UNL A   1      39.382  36.869  38.298  1.00  0.00    -0.237 OA
ATOM     47  O   UNL A   1      41.520  35.847  37.588  1.00  0.00    -0.237 OA
ATOM     48  O   UNL A   1      40.056  36.937  35.929  1.00  0.00    -0.744 OA
ENDBRANCH  41  45
ENDBRANCH  24  38
BRANCH  25  49
ATOM     49  C   UNL A   1      41.602  27.225  27.515  1.00  0.00     0.023 A 
ATOM     50  C   UNL A   1      41.395  25.834  27.487  1.00  0.00     0.031 A 
ATOM     51  C   UNL A   1      42.242  27.807  26.405  1.00  0.00     0.131 A 
ATOM     52  C   UNL A   1      41.867  25.071  26.405  1.00  0.00     0.055 A 
ATOM     53  C   UNL A   1      42.663  27.052  25.307  1.00  0.00     0.041 A 
ATOM     54  F   UNL A   1      42.475  29.129  26.373  1.00  0.00    -0.206 F 
ATOM     55  C   UNL A   1      42.490  25.672  25.309  1.00  0.00     0.022 A 
BRANCH  52  56
ATOM     56  S   UNL A   1      41.746  23.261  26.491  1.00  0.00     0.124 S 
ATOM     57  O   UNL A   1      40.303  23.057  26.440  1.00  0.00    -0.237 OA
ATOM     58  O   UNL A   1      42.494  22.852  25.307  1.00  0.00    -0.237 OA
ATOM     59  O   UNL A   1      42.379  22.936  27.768  1.00  0.00    -0.744 OA
ENDBRANCH  52  56
ENDBRANCH  25  49
BRANCH  37  60
ATOM     60  C   UNL A   1      44.060  27.580  34.039  1.00  0.00     0.023 A 
ATOM     61  C   UNL A   1      43.786  26.386  34.728  1.00  0.00     0.031 A 
ATOM     62  C   UNL A   1      45.385  28.051  34.029  1.00  0.00     0.131 A 
ATOM     63  C   UNL A   1      44.810  25.741  35.435  1.00  0.00     0.055 A 
ATOM     64  C   UNL A   1      46.413  27.363  34.670  1.00  0.00     0.041 A 
ATOM     65  F   UNL A   1      45.702  29.188  33.388  1.00  0.00    -0.206 F 
ATOM     66  C   UNL A   1      46.126  26.210  35.393  1.00  0.00     0.022 A 
BRANCH  63  67
ATOM     67  S   UNL A   1      44.374  24.348  36.510  1.00  0.00     0.124 S 
ATOM     68  O   UNL A   1      43.379  24.947  37.394  1.00  0.00    -0.237 OA
ATOM     69  O   UNL A   1      43.871  23.364  35.556  1.00  0.00    -0.237 OA
ATOM     70  O   UNL A   1      45.642  23.999  37.149  1.00  0.00    -0.744 OA
ENDBRANCH  63  67
ENDBRANCH  37  60
ENDBRANCH  11  12
ENDBRANCH   4   6
ENDBRANCH   3   4
ENDBRANCH   2   3
ENDBRANCH   1   2
BRANCH   1  71
ATOM     71  O   UNL A   1      32.006  30.552  25.585  1.00  0.00    -0.462 OA
BRANCH  71  72
ATOM     72  C   UNL A   1      31.476  29.296  25.571  1.00  0.00     0.309 C 
ATOM     73  O   UNL A   1      30.858  28.816  24.627  1.00  0.00    -0.252 OA
BRANCH  72  74
ATOM     74  C   UNL A   1      31.808  28.565  26.862  1.00  0.00     0.110 C 
ATOM     75  C   UNL A   1      33.287  28.633  27.211  1.00  0.00     0.077 C 
ATOM     76  C   UNL A   1      31.347  27.129  26.866  1.00  0.00     0.077 C 
ATOM     77  C   UNL A   1      34.120  27.801  26.246  1.00  0.00     0.263 C 
ATOM     78  C   UNL A   1      32.129  26.333  25.854  1.00  0.00     0.263 C 
ATOM     79  N   UNL A   1      33.586  26.458  25.990  1.00  0.00    -0.324 N 
ATOM     80  H   UNL A   1      33.771  25.948  26.854  1.00  0.00     0.348 HD
BRANCH  79  81
ATOM     81  C   UNL A   1      34.301  25.824  24.857  1.00  0.00     0.284 C 
ATOM     82  C   UNL A   1      33.751  26.135  23.465  1.00  0.00     0.176 C 
ATOM     83  C   UNL A   1      34.196  24.314  24.958  1.00  0.00     0.292 C 
ATOM     84  C   UNL A   1      33.111  24.858  23.019  1.00  0.00     0.240 C 
ATOM     85  N   UNL A   1      33.370  23.880  23.947  1.00  0.00    -0.245 N 
ATOM     86  O   UNL A   1      34.768  23.639  25.805  1.00  0.00    -0.267 OA
ATOM     87  O   UNL A   1      32.463  24.779  21.983  1.00  0.00    -0.274 OA
BRANCH  85  88
ATOM     88  C   UNL A   1      32.900  22.555  23.857  1.00  0.00     0.052 A 
ATOM     89  C   UNL A   1      32.719  21.779  25.012  1.00  0.00     0.031 A 
ATOM     90  C   UNL A   1      32.619  21.995  22.612  1.00  0.00     0.031 A 
ATOM     91  C   UNL A   1      32.300  20.451  24.915  1.00  0.00     0.049 A 
ATOM     92  C   UNL A   1      32.235  20.661  22.513  1.00  0.00     0.049 A 
ATOM     93  C   UNL A   1      32.103  19.874  23.661  1.00  0.00     0.127 A 
BRANCH  93  94
ATOM     94  O   UNL A   1      31.774  18.535  23.658  1.00  0.00    -0.457 OA
BRANCH  94  95
ATOM     95  C   UNL A   1      32.712  17.664  24.155  1.00  0.00     0.127 A 
ATOM     96  C   UNL A   1      32.442  17.038  25.369  1.00  0.00     0.047 A 
ATOM     97  C   UNL A   1      33.894  17.398  23.457  1.00  0.00     0.047 A 
ATOM     98  C   UNL A   1      33.332  16.086  25.860  1.00  0.00     0.004 A 
ATOM     99  C   UNL A   1      34.776  16.438  23.947  1.00  0.00     0.004 A 
ATOM    100  C   UNL A   1      34.491  15.777  25.143  1.00  0.00     0.000 A 
ENDBRANCH  94  95
ENDBRANCH  93  94
ENDBRANCH  85  88
ENDBRANCH  79  81
ENDBRANCH  72  74
ENDBRANCH  71  72
ENDBRANCH   1  71
TORSDOF 18
ENDMDL
MODEL 2
REMARK VINA RESULT:     -12.8      2.129      3.621
REMARK SMILES O=C(OCCOC(=O)C1CC[NH+]([C@@H]2CC(=O)N(c3ccc(Oc4ccccc4)cc3)C2=O)CC1)c1ccc(-c2c3nc(c(-c4cc(S(=O)(=O)[O-])ccc4F)c4ccc([nH]4)c(-c4cc(S(=O)(=O)[O-])ccc4F)c4nc(c(-c5cc(S(=O)(=O)[O-])ccc5F)c5ccc2[nH]5)C=C4)C=C3)cc1
REMARK SMILES IDX 5 1 4 2 3 3 2 4 1 5 35 6 36 7 97 8 37 9 96 10 38 11 39 12
REMARK SMILES IDX 40 13 90 14 41 15 95 16 89 17 91 18 42 19 94 20 88 21 87 22
REMARK SMILES IDX 43 24 75 25 55 26 74 27 56 28 59 29 73 30 92 31 57 32 58 33
REMARK SMILES IDX 72 35 93 36 60 37 44 38 45 39 53 40 46 41 52 42 54 43 51 44
REMARK SMILES IDX 47 45 48 46 49 47 50 48 76 49 77 50 85 51 78 52 84 53 86 54
REMARK SMILES IDX 83 55 79 56 80 57 81 58 82 59 61 60 62 61 70 62 63 63 69 64
REMARK SMILES IDX 71 65 68 66 64 67 65 68 66 69 67 70 6 71 7 72 8 73 9 74
REMARK SMILES IDX 10 75 34 76 11 77 33 78 12 79 13 81 14 82 31 83 15 84 17 85
REMARK SMILES IDX 32 86 16 87 18 88 19 89 30 90 20 91 29 92 21 93 22 94 23 95
REMARK SMILES IDX 24 96 28 97 25 98 27 99 26 100
REMARK H PARENT 91 23 59 34 12 80
REMARK Flexibility Score: inf
ROOT
ATOM      1  C   UNL A   1      31.763  28.051  26.028  1.00  0.00     0.274 C 
ENDROOT
BRANCH   1   2
ATOM      2  C   UNL A   1      31.918  29.190  27.041  1.00  0.00     0.275 C 
BRANCH   2   3
ATOM      3  O   UNL A   1      32.828  30.231  26.631  1.00  0.00    -0.458 OA
BRANCH   3   4
ATOM      4  C   UNL A   1      33.522  31.146  27.353  1.00  0.00     0.338 C 
ATOM      5  O   UNL A   1      33.095  32.301  27.388  1.00  0.00    -0.246 OA
BRANCH   4   6
ATOM      6  C   UNL A   1      34.871  30.890  27.961  1.00  0.00     0.060 A 
ATOM      7  C   UNL A   1      35.352  29.650  28.385  1.00  0.00     0.016 A 
ATOM      8  C   UNL A   1      35.758  31.990  28.016  1.00  0.00     0.016 A 
ATOM      9  C   UNL A   1      36.689  29.478  28.750  1.00  0.00     0.010 A 
ATOM     10  C   UNL A   1      37.104  31.824  28.384  1.00  0.00     0.010 A 
ATOM     11  C   UNL A   1      37.573  30.558  28.755  1.00  0.00    -0.014 A 
BRANCH  11  12
ATOM     12  C   UNL A   1      38.885  30.363  29.415  1.00  0.00     0.031 A 
ATOM     13  C   UNL A   1      39.013  30.895  30.810  1.00  0.00     0.074 A 
ATOM     14  C   UNL A   1      39.855  29.607  28.866  1.00  0.00     0.049 A 
ATOM     15  N   UNL A   1      39.964  30.711  31.683  1.00  0.00    -0.248 NA
ATOM     16  C   UNL A   1      37.895  31.721  31.293  1.00  0.00     0.031 C 
ATOM     17  C   UNL A   1      39.781  28.978  27.551  1.00  0.00     0.029 A 
ATOM     18  N   UNL A   1      41.076  29.208  29.348  1.00  0.00    -0.354 N 
ATOM     19  C   UNL A   1      39.546  31.378  32.827  1.00  0.00     0.074 A 
ATOM     20  C   UNL A   1      38.289  32.020  32.517  1.00  0.00     0.031 C 
ATOM     21  C   UNL A   1      40.899  28.268  27.328  1.00  0.00     0.029 A 
ATOM     22  C   UNL A   1      41.779  28.394  28.484  1.00  0.00     0.049 A 
ATOM     23  H   UNL A   1      41.420  29.476  30.231  1.00  0.00     0.167 HD
ATOM     24  C   UNL A   1      40.149  31.430  34.037  1.00  0.00     0.034 A 
ATOM     25  C   UNL A   1      42.989  27.812  28.624  1.00  0.00     0.034 A 
ATOM     26  C   UNL A   1      41.426  30.824  34.298  1.00  0.00     0.049 A 
ATOM     27  C   UNL A   1      43.707  28.003  29.940  1.00  0.00     0.074 A 
ATOM     28  C   UNL A   1      42.175  30.855  35.459  1.00  0.00     0.029 A 
ATOM     29  N   UNL A   1      42.159  30.095  33.366  1.00  0.00    -0.354 N 
ATOM     30  N   UNL A   1      43.298  28.631  31.020  1.00  0.00    -0.248 NA
ATOM     31  C   UNL A   1      45.036  27.393  30.066  1.00  0.00     0.031 C 
ATOM     32  C   UNL A   1      43.394  30.217  35.203  1.00  0.00     0.029 A 
ATOM     33  C   UNL A   1      43.368  29.704  33.915  1.00  0.00     0.049 A 
ATOM     34  H   UNL A   1      41.861  29.888  32.452  1.00  0.00     0.167 HD
ATOM     35  C   UNL A   1      44.301  28.454  31.968  1.00  0.00     0.074 A 
ATOM     36  C   UNL A   1      45.326  27.648  31.332  1.00  0.00     0.031 C 
ATOM     37  C   UNL A   1      44.372  28.904  33.248  1.00  0.00     0.034 A 
BRANCH  24  38
ATOM     38  C   UNL A   1      39.456  32.249  35.095  1.00  0.00     0.023 A 
ATOM     39  C   UNL A   1      39.802  33.592  35.336  1.00  0.00     0.031 A 
ATOM     40  C   UNL A   1      38.531  31.641  35.959  1.00  0.00     0.131 A 
ATOM     41  C   UNL A   1      39.305  34.247  36.473  1.00  0.00     0.055 A 
ATOM     42  C   UNL A   1      37.969  32.329  37.036  1.00  0.00     0.041 A 
ATOM     43  F   UNL A   1      38.193  30.352  35.801  1.00  0.00    -0.206 F 
ATOM     44  C   UNL A   1      38.371  33.633  37.309  1.00  0.00     0.022 A 
BRANCH  41  45
ATOM     45  S   UNL A   1      40.044  35.836  36.950  1.00  0.00     0.124 S 
ATOM     46  O   UNL A   1      39.706  36.674  35.801  1.00  0.00    -0.237 OA
ATOM     47  O   UNL A   1      39.348  36.148  38.192  1.00  0.00    -0.237 OA
ATOM     48  O   UNL A   1      41.464  35.525  37.089  1.00  0.00    -0.744 OA
ENDBRANCH  41  45
ENDBRANCH  24  38
BRANCH  25  49
ATOM     49  C   UNL A   1      43.608  27.017  27.518  1.00  0.00     0.023 A 
ATOM     50  C   UNL A   1      43.729  25.618  27.592  1.00  0.00     0.031 A 
ATOM     51  C   UNL A   1      44.165  27.657  26.395  1.00  0.00     0.131 A 
ATOM     52  C   UNL A   1      44.429  24.915  26.596  1.00  0.00     0.055 A 
ATOM     53  C   UNL A   1      44.815  26.949  25.380  1.00  0.00     0.041 A 
ATOM     54  F   UNL A   1      44.089  28.991  26.268  1.00  0.00    -0.206 F 
ATOM     55  C   UNL A   1      44.964  25.570  25.485  1.00  0.00     0.022 A 
BRANCH  52  56
ATOM     56  S   UNL A   1      44.722  23.137  26.821  1.00  0.00     0.124 S 
ATOM     57  O   UNL A   1      46.144  23.028  26.513  1.00  0.00    -0.237 OA
ATOM     58  O   UNL A   1      44.352  22.944  28.219  1.00  0.00    -0.237 OA
ATOM     59  O   UNL A   1      43.824  22.517  25.849  1.00  0.00    -0.744 OA
ENDBRANCH  52  56
ENDBRANCH  25  49
BRANCH  37  60
ATOM     60  C   UNL A   1      45.576  28.484  34.053  1.00  0.00     0.023 A 
ATOM     61  C   UNL A   1      45.587  27.300  34.809  1.00  0.00     0.031 A 
ATOM     62  C   UNL A   1      46.729  29.290  34.065  1.00  0.00     0.131 A 
ATOM     63  C   UNL A   1      46.702  26.992  35.601  1.00  0.00     0.055 A 
ATOM     64  C   UNL A   1      47.863  28.938  34.794  1.00  0.00     0.041 A 
ATOM     65  F   UNL A   1      46.771  30.434  33.362  1.00  0.00    -0.206 F 
ATOM     66  C   UNL A   1      47.848  27.791  35.581  1.00  0.00     0.022 A 
BRANCH  63  67
ATOM     67  S   UNL A   1      46.587  25.593  36.749  1.00  0.00     0.124 S 
ATOM     68  O   UNL A   1      46.093  24.530  35.881  1.00  0.00    -0.237 OA
ATOM     69  O   UNL A   1      47.965  25.454  37.209  1.00  0.00    -0.237 OA
ATOM     70  O   UNL A   1      45.640  26.059  37.762  1.00  0.00    -0.744 OA
ENDBRANCH  63  67
ENDBRANCH  37  60
ENDBRANCH  11  12
ENDBRANCH   4   6
ENDBRANCH   3   4
ENDBRANCH   2   3
ENDBRANCH   1   2
BRANCH   1  71
ATOM     71  O   UNL A   1      31.724  28.525  24.677  1.00  0.00    -0.462 OA
BRANCH  71  72
ATOM     72  C   UNL A   1      32.391  27.760  23.768  1.00  0.00     0.309 C 
ATOM     73  O   UNL A   1      33.530  27.334  23.926  1.00  0.00    -0.252 OA
BRANCH  72  74
ATOM     74  C   UNL A   1      31.506  27.470  22.566  1.00  0.00     0.110 C 
ATOM     75  C   UNL A   1      30.083  27.104  22.961  1.00  0.00     0.077 C 
ATOM     76  C   UNL A   1      32.073  26.409  21.656  1.00  0.00     0.077 C 
ATOM     77  C   UNL A   1      30.031  25.738  23.631  1.00  0.00     0.263 C 
ATOM     78  C   UNL A   1      32.083  25.076  22.357  1.00  0.00     0.263 C 
ATOM     79  N   UNL A   1      30.787  24.692  22.932  1.00  0.00    -0.324 N 
ATOM     80  H   UNL A   1      30.228  24.494  22.101  1.00  0.00     0.348 HD
BRANCH  79  81
ATOM     81  C   UNL A   1      30.897  23.480  23.778  1.00  0.00     0.284 C 
ATOM     82  C   UNL A   1      30.866  23.717  25.288  1.00  0.00     0.176 C 
ATOM     83  C   UNL A   1      32.237  22.807  23.546  1.00  0.00     0.292 C 
ATOM     84  C   UNL A   1      32.268  23.454  25.740  1.00  0.00     0.240 C 
ATOM     85  N   UNL A   1      32.998  22.982  24.678  1.00  0.00    -0.245 N 
ATOM     86  O   UNL A   1      32.542  22.217  22.517  1.00  0.00    -0.267 OA
ATOM     87  O   UNL A   1      32.634  23.663  26.890  1.00  0.00    -0.274 OA
BRANCH  85  88
ATOM     88  C   UNL A   1      34.366  22.651  24.740  1.00  0.00     0.052 A 
ATOM     89  C   UNL A   1      34.795  21.495  25.410  1.00  0.00     0.031 A 
ATOM     90  C   UNL A   1      35.315  23.480  24.142  1.00  0.00     0.031 A 
ATOM     91  C   UNL A   1      36.155  21.197  25.511  1.00  0.00     0.049 A 
ATOM     92  C   UNL A   1      36.672  23.202  24.273  1.00  0.00     0.049 A 
ATOM     93  C   UNL A   1      37.099  22.076  24.984  1.00  0.00     0.127 A 
BRANCH  93  94
ATOM     94  O   UNL A   1      38.421  21.746  25.204  1.00  0.00    -0.457 OA
BRANCH  94  95
ATOM     95  C   UNL A   1      39.078  22.444  26.186  1.00  0.00     0.127 A 
ATOM     96  C   UNL A   1      40.129  21.810  26.844  1.00  0.00     0.047 A 
ATOM     97  C   UNL A   1      38.721  23.757  26.504  1.00  0.00     0.047 A 
ATOM     98  C   UNL A   1      40.873  22.517  27.785  1.00  0.00     0.004 A 
ATOM     99  C   UNL A   1      39.473  24.463  27.439  1.00  0.00     0.004 A 
ATOM    100  C   UNL A   1      40.554  23.846  28.073  1.00  0.00     0.000 A 
ENDBRANCH  94  95
ENDBRANCH  93  94
ENDBRANCH  85  88
ENDBRANCH  79  81
ENDBRANCH  72  74
ENDBRANCH  71  72
ENDBRANCH   1  71
TORSDOF 18
ENDMDL
MODEL 3
REMARK VINA RESULT:     -12.7      1.672      2.183
REMARK SMILES O=C(OCCOC(=O)C1CC[NH+]([C@@H]2CC(=O)N(c3ccc(Oc4ccccc4)cc3)C2=O)CC1)c1ccc(-c2c3nc(c(-c4cc(S(=O)(=O)[O-])ccc4F)c4ccc([nH]4)c(-c4cc(S(=O)(=O)[O-])ccc4F)c4nc(c(-c5cc(S(=O)(=O)[O-])ccc5F)c5ccc2[nH]5)C=C4)C=C3)cc1
REMARK SMILES IDX 5 1 4 2 3 3 2 4 1 5 35 6 36 7 97 8 37 9 96 10 38 11 39 12
REMARK SMILES IDX 40 13 90 14 41 15 95 16 89 17 91 18 42 19 94 20 88 21 87 22
REMARK SMILES IDX 43 24 75 25 55 26 74 27 56 28 59 29 73 30 92 31 57 32 58 33
REMARK SMILES IDX 72 35 93 36 60 37 44 38 45 39 53 40 46 41 52 42 54 43 51 44
REMARK SMILES IDX 47 45 48 46 49 47 50 48 76 49 77 50 85 51 78 52 84 53 86 54
REMARK SMILES IDX 83 55 79 56 80 57 81 58 82 59 61 60 62 61 70 62 63 63 69 64
REMARK SMILES IDX 71 65 68 66 64 67 65 68 66 69 67 70 6 71 7 72 8 73 9 74
REMARK SMILES IDX 10 75 34 76 11 77 33 78 12 79 13 81 14 82 31 83 15 84 17 85
REMARK SMILES IDX 32 86 16 87 18 88 19 89 30 90 20 91 29 92 21 93 22 94 23 95
REMARK SMILES IDX 24 96 28 97 25 98 27 99 26 100
REMARK H PARENT 91 23 59 34 12 80
REMARK Flexibility Score: inf
ROOT
ATOM      1  C   UNL A   1      32.849  31.367  27.060  1.00  0.00     0.274 C 
ENDROOT
BRANCH   1   2
ATOM      2  C   UNL A   1      31.940  32.581  27.278  1.00  0.00     0.275 C 
BRANCH   2   3
ATOM      3  O   UNL A   1      32.639  33.788  27.648  1.00  0.00    -0.458 OA
BRANCH   3   4
ATOM      4  C   UNL A   1      33.318  34.116  28.776  1.00  0.00     0.338 C 
ATOM      5  O   UNL A   1      32.994  35.146  29.369  1.00  0.00    -0.246 OA
BRANCH   4   6
ATOM      6  C   UNL A   1      34.556  33.409  29.247  1.00  0.00     0.060 A 
ATOM      7  C   UNL A   1      34.590  32.320  30.121  1.00  0.00     0.016 A 
ATOM      8  C   UNL A   1      35.779  33.830  28.677  1.00  0.00     0.016 A 
ATOM      9  C   UNL A   1      35.770  31.605  30.342  1.00  0.00     0.010 A 
ATOM     10  C   UNL A   1      36.970  33.117  28.897  1.00  0.00     0.010 A 
ATOM     11  C   UNL A   1      36.965  31.996  29.736  1.00  0.00    -0.014 A 
BRANCH  11  12
ATOM     12  C   UNL A   1      38.216  31.372  30.231  1.00  0.00     0.031 A 
ATOM     13  C   UNL A   1      38.620  31.716  31.633  1.00  0.00     0.074 A 
ATOM     14  C   UNL A   1      38.866  30.423  29.531  1.00  0.00     0.049 A 
ATOM     15  N   UNL A   1      39.550  31.188  32.379  1.00  0.00    -0.248 NA
ATOM     16  C   UNL A   1      37.844  32.780  32.288  1.00  0.00     0.031 C 
ATOM     17  C   UNL A   1      38.491  29.965  28.197  1.00  0.00     0.029 A 
ATOM     18  N   UNL A   1      39.953  29.648  29.847  1.00  0.00    -0.354 N 
ATOM     19  C   UNL A   1      39.451  31.840  33.602  1.00  0.00     0.074 A 
ATOM     20  C   UNL A   1      38.417  32.841  33.475  1.00  0.00     0.031 C 
ATOM     21  C   UNL A   1      39.325  28.987  27.806  1.00  0.00     0.029 A 
ATOM     22  C   UNL A   1      40.303  28.749  28.861  1.00  0.00     0.049 A 
ATOM     23  H   UNL A   1      40.438  29.725  30.699  1.00  0.00     0.167 HD
ATOM     24  C   UNL A   1      40.150  31.605  34.737  1.00  0.00     0.034 A 
ATOM     25  C   UNL A   1      41.296  27.834  28.828  1.00  0.00     0.034 A 
ATOM     26  C   UNL A   1      41.210  30.637  34.815  1.00  0.00     0.049 A 
ATOM     27  C   UNL A   1      42.153  27.690  30.063  1.00  0.00     0.074 A 
ATOM     28  C   UNL A   1      42.035  30.345  35.883  1.00  0.00     0.029 A 
ATOM     29  N   UNL A   1      41.607  29.817  33.764  1.00  0.00    -0.354 N 
ATOM     30  N   UNL A   1      42.046  28.308  31.218  1.00  0.00    -0.248 NA
ATOM     31  C   UNL A   1      43.248  26.715  30.000  1.00  0.00     0.031 C 
ATOM     32  C   UNL A   1      42.983  29.410  35.453  1.00  0.00     0.029 A 
ATOM     33  C   UNL A   1      42.691  29.046  34.147  1.00  0.00     0.049 A 
ATOM     34  H   UNL A   1      41.180  29.788  32.878  1.00  0.00     0.167 HD
ATOM     35  C   UNL A   1      43.034  27.764  32.035  1.00  0.00     0.074 A 
ATOM     36  C   UNL A   1      43.714  26.759  31.239  1.00  0.00     0.031 C 
ATOM     37  C   UNL A   1      43.350  28.056  33.324  1.00  0.00     0.034 A 
BRANCH  24  38
ATOM     38  C   UNL A   1      39.827  32.489  35.914  1.00  0.00     0.023 A 
ATOM     39  C   UNL A   1      38.954  32.070  36.936  1.00  0.00     0.031 A 
ATOM     40  C   UNL A   1      40.294  33.813  35.947  1.00  0.00     0.131 A 
ATOM     41  C   UNL A   1      38.497  32.996  37.886  1.00  0.00     0.055 A 
ATOM     42  C   UNL A   1      39.908  34.704  36.950  1.00  0.00     0.041 A 
ATOM     43  F   UNL A   1      41.098  34.279  34.978  1.00  0.00    -0.206 F 
ATOM     44  C   UNL A   1      38.989  34.303  37.915  1.00  0.00     0.022 A 
BRANCH  41  45
ATOM     45  S   UNL A   1      37.110  32.525  38.958  1.00  0.00     0.124 S 
ATOM     46  O   UNL A   1      35.965  32.997  38.182  1.00  0.00    -0.237 OA
ATOM     47  O   UNL A   1      37.261  31.078  39.055  1.00  0.00    -0.237 OA
ATOM     48  O   UNL A   1      37.364  33.265  40.192  1.00  0.00    -0.744 OA
ENDBRANCH  41  45
ENDBRANCH  24  38
BRANCH  25  49
ATOM     49  C   UNL A   1      41.549  26.999  27.612  1.00  0.00     0.023 A 
ATOM     50  C   UNL A   1      41.262  25.622  27.588  1.00  0.00     0.031 A 
ATOM     51  C   UNL A   1      42.163  27.553  26.473  1.00  0.00     0.131 A 
ATOM     52  C   UNL A   1      41.632  24.843  26.479  1.00  0.00     0.055 A 
ATOM     53  C   UNL A   1      42.480  26.784  25.350  1.00  0.00     0.041 A 
ATOM     54  F   UNL A   1      42.468  28.859  26.435  1.00  0.00    -0.206 F 
ATOM     55  C   UNL A   1      42.229  25.416  25.355  1.00  0.00     0.022 A 
BRANCH  52  56
ATOM     56  S   UNL A   1      41.412  23.042  26.562  1.00  0.00     0.124 S 
ATOM     57  O   UNL A   1      39.961  22.915  26.473  1.00  0.00    -0.237 OA
ATOM     58  O   UNL A   1      42.167  22.592  25.398  1.00  0.00    -0.237 OA
ATOM     59  O   UNL A   1      41.992  22.685  27.855  1.00  0.00    -0.744 OA
ENDBRANCH  52  56
ENDBRANCH  25  49
BRANCH  37  60
ATOM     60  C   UNL A   1      44.445  27.237  33.960  1.00  0.00     0.023 A 
ATOM     61  C   UNL A   1      44.204  25.953  34.479  1.00  0.00     0.031 A 
ATOM     62  C   UNL A   1      45.748  27.756  34.053  1.00  0.00     0.131 A 
ATOM     63  C   UNL A   1      45.235  25.262  35.129  1.00  0.00     0.055 A 
ATOM     64  C   UNL A   1      46.787  27.031  34.631  1.00  0.00     0.041 A 
ATOM     65  F   UNL A   1      46.032  28.980  33.575  1.00  0.00    -0.206 F 
ATOM     66  C   UNL A   1      46.531  25.783  35.189  1.00  0.00     0.022 A 
BRANCH  63  67
ATOM     67  S   UNL A   1      44.831  23.723  35.999  1.00  0.00     0.124 S 
ATOM     68  O   UNL A   1      44.925  24.133  37.396  1.00  0.00    -0.237 OA
ATOM     69  O   UNL A   1      43.488  23.431  35.507  1.00  0.00    -0.237 OA
ATOM     70  O   UNL A   1      45.870  22.796  35.553  1.00  0.00    -0.744 OA
ENDBRANCH  63  67
ENDBRANCH  37  60
ENDBRANCH  11  12
ENDBRANCH   4   6
ENDBRANCH   3   4
ENDBRANCH   2   3
ENDBRANCH   1   2
BRANCH   1  71
ATOM     71  O   UNL A   1      32.110  30.144  26.959  1.00  0.00    -0.462 OA
BRANCH  71  72
ATOM     72  C   UNL A   1      32.754  29.121  26.332  1.00  0.00     0.309 C 
ATOM     73  O   UNL A   1      33.255  28.161  26.908  1.00  0.00    -0.252 OA
BRANCH  72  74
ATOM     74  C   UNL A   1      32.714  29.312  24.824  1.00  0.00     0.110 C 
ATOM     75  C   UNL A   1      31.303  29.526  24.297  1.00  0.00     0.077 C 
ATOM     76  C   UNL A   1      33.379  28.191  24.065  1.00  0.00     0.077 C 
ATOM     77  C   UNL A   1      30.479  28.249  24.397  1.00  0.00     0.263 C 
ATOM     78  C   UNL A   1      32.593  26.917  24.232  1.00  0.00     0.263 C 
ATOM     79  N   UNL A   1      31.166  27.047  23.910  1.00  0.00    -0.324 N 
ATOM     80  H   UNL A   1      31.179  27.160  22.896  1.00  0.00     0.348 HD
BRANCH  79  81
ATOM     81  C   UNL A   1      30.405  25.830  24.281  1.00  0.00     0.284 C 
ATOM     82  C   UNL A   1      30.241  25.579  25.780  1.00  0.00     0.176 C 
ATOM     83  C   UNL A   1      31.131  24.594  23.784  1.00  0.00     0.292 C 
ATOM     84  C   UNL A   1      31.127  24.407  26.065  1.00  0.00     0.240 C 
ATOM     85  N   UNL A   1      31.633  23.932  24.881  1.00  0.00    -0.245 N 
ATOM     86  O   UNL A   1      31.224  24.277  22.606  1.00  0.00    -0.267 OA
ATOM     87  O   UNL A   1      31.330  24.002  27.203  1.00  0.00    -0.274 OA
BRANCH  85  88
ATOM     88  C   UNL A   1      32.524  22.845  24.777  1.00  0.00     0.052 A 
ATOM     89  C   UNL A   1      32.110  21.629  24.213  1.00  0.00     0.031 A 
ATOM     90  C   UNL A   1      33.832  22.965  25.248  1.00  0.00     0.031 A 
ATOM     91  C   UNL A   1      32.982  20.540  24.158  1.00  0.00     0.049 A 
ATOM     92  C   UNL A   1      34.689  21.870  25.225  1.00  0.00     0.049 A 
ATOM     93  C   UNL A   1      34.259  20.644  24.708  1.00  0.00     0.127 A 
BRANCH  93  94
ATOM     94  O   UNL A   1      35.020  19.493  24.685  1.00  0.00    -0.457 OA
BRANCH  94  95
ATOM     95  C   UNL A   1      34.349  18.303  24.809  1.00  0.00     0.127 A 
ATOM     96  C   UNL A   1      33.224  18.272  25.631  1.00  0.00     0.047 A 
ATOM     97  C   UNL A   1      34.765  17.161  24.119  1.00  0.00     0.047 A 
ATOM     98  C   UNL A   1      32.469  17.105  25.713  1.00  0.00     0.004 A 
ATOM     99  C   UNL A   1      34.001  15.999  24.197  1.00  0.00     0.004 A 
ATOM    100  C   UNL A   1      32.851  15.974  24.987  1.00  0.00     0.000 A 
ENDBRANCH  94  95
ENDBRANCH  93  94
ENDBRANCH  85  88
ENDBRANCH  79  81
ENDBRANCH  72  74
ENDBRANCH  71  72
ENDBRANCH   1  71
TORSDOF 18
ENDMDL
