MODEL 1
REMARK VINA RESULT:     -12.0      0.000      0.000
REMARK SMILES O=C(OCCOC(=O)[C@@H]1[C@@H](C(=O)N2CC[NH+](C/C=C/c3ccccc3)CC2)[C@@H]2C=C[C@H]1C2)c1ccc(-c2c3nc(c(-c4cc(S(=O)(=O)[O-])ccc4F)c4ccc([nH]4)c(-c4cc(S(=O)(=O)[O-])ccc4F)c4nc(c(-c5cc(S(=O)(=O)[O-])ccc5F)c5ccc2[nH]5)C=C4)C=C3)cc1
REMARK SMILES IDX 5 1 4 2 3 3 2 4 1 5 33 6 34 7 95 8 35 9 94 10 36 11 37 12
REMARK SMILES IDX 38 13 88 14 39 15 93 16 87 17 89 18 40 19 92 20 86 21 85 22
REMARK SMILES IDX 41 24 73 25 53 26 72 27 54 28 57 29 71 30 90 31 55 32 56 33
REMARK SMILES IDX 70 35 91 36 58 37 42 38 43 39 51 40 44 41 50 42 52 43 49 44
REMARK SMILES IDX 45 45 46 46 47 47 48 48 74 49 75 50 83 51 76 52 82 53 84 54
REMARK SMILES IDX 81 55 77 56 78 57 79 58 80 59 59 60 60 61 68 62 61 63 67 64
REMARK SMILES IDX 69 65 66 66 62 67 63 68 64 69 65 70 6 71 7 72 8 73 9 74
REMARK SMILES IDX 10 75 31 76 28 77 30 78 32 79 29 80 11 81 12 82 13 83 14 84
REMARK SMILES IDX 27 85 15 86 26 87 16 88 17 90 18 91 19 92 20 93 21 94 25 95
REMARK SMILES IDX 22 96 24 97 23 98
REMARK H PARENT 89 23 57 34 16 89
REMARK Flexibility Score: inf
ROOT
ATOM      1  C   UNL A   1      33.519  28.961  23.808  1.00  0.00     0.274 C 
ENDROOT
BRANCH   1   2
ATOM      2  C   UNL A   1      32.746  29.677  24.937  1.00  0.00     0.275 C 
BRANCH   2   3
ATOM      3  O   UNL A   1      33.277  29.488  26.238  1.00  0.00    -0.458 OA
BRANCH   3   4
ATOM      4  C   UNL A   1      33.625  30.503  27.050  1.00  0.00     0.338 C 
ATOM      5  O   UNL A   1      32.794  31.390  27.254  1.00  0.00    -0.246 OA
BRANCH   4   6
ATOM      6  C   UNL A   1      35.019  30.669  27.612  1.00  0.00     0.060 A 
ATOM      7  C   UNL A   1      35.819  31.792  27.830  1.00  0.00     0.016 A 
ATOM      8  C   UNL A   1      35.509  29.474  28.109  1.00  0.00     0.016 A 
ATOM      9  C   UNL A   1      37.044  31.686  28.497  1.00  0.00     0.010 A 
ATOM     10  C   UNL A   1      36.729  29.322  28.724  1.00  0.00     0.010 A 
ATOM     11  C   UNL A   1      37.496  30.445  28.920  1.00  0.00    -0.014 A 
BRANCH  11  12
ATOM     12  C   UNL A   1      38.759  30.232  29.600  1.00  0.00     0.031 A 
ATOM     13  C   UNL A   1      38.681  30.839  31.119  1.00  0.00     0.074 A 
ATOM     14  C   UNL A   1      39.742  29.672  28.824  1.00  0.00     0.049 A 
ATOM     15  N   UNL A   1      39.798  31.100  32.518  1.00  0.00    -0.248 NA
ATOM     16  C   UNL A   1      36.919  31.641  31.804  1.00  0.00     0.031 C 
ATOM     17  C   UNL A   1      39.728  29.136  27.450  1.00  0.00     0.029 A 
ATOM     18  N   UNL A   1      41.057  29.460  29.136  1.00  0.00    -0.354 N 
ATOM     19  C   UNL A   1      39.038  31.929  33.914  1.00  0.00     0.074 A 
ATOM     20  C   UNL A   1      37.219  32.263  33.352  1.00  0.00     0.031 C 
ATOM     21  C   UNL A   1      40.912  28.511  27.195  1.00  0.00     0.029 A 
ATOM     22  C   UNL A   1      41.771  28.605  28.373  1.00  0.00     0.049 A 
ATOM     23  H   UNL A   1      41.474  29.921  29.900  1.00  0.00     0.167 HD
ATOM     24  C   UNL A   1      39.761  31.926  35.065  1.00  0.00     0.034 A 
ATOM     25  C   UNL A   1      42.988  28.119  28.719  1.00  0.00     0.034 A 
ATOM     26  C   UNL A   1      41.072  31.216  35.173  1.00  0.00     0.049 A 
ATOM     27  C   UNL A   1      43.582  28.267  30.179  1.00  0.00     0.074 A 
ATOM     28  C   UNL A   1      41.807  30.875  36.291  1.00  0.00     0.029 A 
ATOM     29  N   UNL A   1      41.820  30.647  34.104  1.00  0.00    -0.354 N 
ATOM     30  N   UNL A   1      43.205  28.994  31.218  1.00  0.00    -0.248 NA
ATOM     31  C   UNL A   1      44.744  27.442  30.510  1.00  0.00     0.031 C 
ATOM     32  C   UNL A   1      42.914  30.080  35.888  1.00  0.00     0.029 A 
ATOM     33  C   UNL A   1      42.908  29.860  34.503  1.00  0.00     0.049 A 
ATOM     34  H   UNL A   1      41.590  30.795  33.157  1.00  0.00     0.167 HD
ATOM     35  C   UNL A   1      43.931  28.628  32.360  1.00  0.00     0.074 A 
ATOM     36  C   UNL A   1      44.884  27.652  31.818  1.00  0.00     0.031 C 
ATOM     37  C   UNL A   1      43.847  28.976  33.705  1.00  0.00     0.034 A 
BRANCH  24  38
ATOM     38  C   UNL A   1      39.059  32.559  36.194  1.00  0.00     0.023 A 
ATOM     39  C   UNL A   1      39.375  33.878  36.537  1.00  0.00     0.031 A 
ATOM     40  C   UNL A   1      38.215  31.825  37.035  1.00  0.00     0.131 A 
ATOM     41  C   UNL A   1      39.000  34.375  37.782  1.00  0.00     0.055 A 
ATOM     42  C   UNL A   1      37.745  32.369  38.230  1.00  0.00     0.041 A 
ATOM     43  F   UNL A   1      37.893  30.554  36.748  1.00  0.00    -0.206 F 
ATOM     44  C   UNL A   1      38.166  33.640  38.627  1.00  0.00     0.022 A 
BRANCH  41  45
ATOM     45  S   UNL A   1      39.801  35.896  38.342  1.00  0.00     0.124 S 
ATOM     46  O   UNL A   1      39.847  36.677  37.106  1.00  0.00    -0.237 OA
ATOM     47  O   UNL A   1      38.881  36.388  39.362  1.00  0.00    -0.237 OA
ATOM     48  O   UNL A   1      41.097  35.437  38.832  1.00  0.00    -0.744 OA
ENDBRANCH  41  45
ENDBRANCH  24  38
BRANCH  25  49
ATOM     49  C   UNL A   1      43.748  27.397  27.670  1.00  0.00     0.023 A 
ATOM     50  C   UNL A   1      43.987  26.019  27.735  1.00  0.00     0.031 A 
ATOM     51  C   UNL A   1      44.304  28.122  26.600  1.00  0.00     0.131 A 
ATOM     52  C   UNL A   1      44.836  25.422  26.792  1.00  0.00     0.055 A 
ATOM     53  C   UNL A   1      45.097  27.511  25.631  1.00  0.00     0.041 A 
ATOM     54  F   UNL A   1      44.087  29.443  26.493  1.00  0.00    -0.206 F 
ATOM     55  C   UNL A   1      45.384  26.155  25.736  1.00  0.00     0.022 A 
BRANCH  52  56
ATOM     56  S   UNL A   1      45.325  23.693  27.046  1.00  0.00     0.124 S 
ATOM     57  O   UNL A   1      44.434  22.998  26.125  1.00  0.00    -0.237 OA
ATOM     58  O   UNL A   1      46.736  23.722  26.676  1.00  0.00    -0.237 OA
ATOM     59  O   UNL A   1      45.059  23.472  28.465  1.00  0.00    -0.744 OA
ENDBRANCH  52  56
ENDBRANCH  25  49
BRANCH  37  60
ATOM     60  C   UNL A   1      44.915  28.270  34.562  1.00  0.00     0.023 A 
ATOM     61  C   UNL A   1      44.691  26.994  35.118  1.00  0.00     0.031 A 
ATOM     62  C   UNL A   1      46.154  28.885  34.835  1.00  0.00     0.131 A 
ATOM     63  C   UNL A   1      45.652  26.409  35.960  1.00  0.00     0.055 A 
ATOM     64  C   UNL A   1      47.147  28.250  35.589  1.00  0.00     0.041 A 
ATOM     65  F   UNL A   1      46.430  30.110  34.362  1.00  0.00    -0.206 F 
ATOM     66  C   UNL A   1      46.894  27.011  36.169  1.00  0.00     0.022 A 
BRANCH  63  67
ATOM     67  S   UNL A   1      45.205  24.918  36.895  1.00  0.00     0.124 S 
ATOM     68  O   UNL A   1      44.201  25.434  37.821  1.00  0.00    -0.237 OA
ATOM     69  O   UNL A   1      44.711  24.028  35.849  1.00  0.00    -0.237 OA
ATOM     70  O   UNL A   1      46.465  24.508  37.512  1.00  0.00    -0.744 OA
ENDBRANCH  63  67
ENDBRANCH  37  60
ENDBRANCH  11  12
ENDBRANCH   4   6
ENDBRANCH   3   4
ENDBRANCH   2   3
ENDBRANCH   1   2
BRANCH   1  71
ATOM     71  O   UNL A   1      32.763  28.527  22.635  1.00  0.00    -0.462 OA
BRANCH  71  72
ATOM     72  C   UNL A   1      31.673  27.710  22.822  1.00  0.00     0.310 C 
ATOM     73  O   UNL A   1      30.735  27.685  22.036  1.00  0.00    -0.252 OA
BRANCH  72  74
ATOM     74  C   UNL A   1      31.761  26.879  24.138  1.00  0.00     0.119 C 
ATOM     75  C   UNL A   1      32.017  25.279  23.980  1.00  0.00     0.100 C 
ATOM     76  C   UNL A   1      30.369  26.962  24.846  1.00  0.00     0.027 C 
ATOM     77  C   UNL A   1      30.672  24.755  24.591  1.00  0.00     0.025 C 
ATOM     78  C   UNL A   1      29.299  26.471  23.900  1.00  0.00    -0.027 C 
ATOM     79  C   UNL A   1      30.399  25.741  25.751  1.00  0.00     0.017 C 
ATOM     80  C   UNL A   1      29.519  25.163  23.703  1.00  0.00    -0.027 C 
BRANCH  75  81
ATOM     81  C   UNL A   1      33.130  24.594  24.874  1.00  0.00     0.227 C 
ATOM     82  O   UNL A   1      33.876  25.334  25.532  1.00  0.00    -0.275 OA
ATOM     83  N   UNL A   1      33.268  23.194  25.059  1.00  0.00    -0.331 N 
ATOM     84  C   UNL A   1      34.214  22.821  26.136  1.00  0.00     0.181 C 
ATOM     85  C   UNL A   1      33.094  22.154  24.015  1.00  0.00     0.181 C 
ATOM     86  C   UNL A   1      34.296  21.324  26.488  1.00  0.00     0.284 C 
ATOM     87  C   UNL A   1      33.293  20.682  24.422  1.00  0.00     0.284 C 
ATOM     88  N   UNL A   1      34.414  20.432  25.339  1.00  0.00    -0.329 N 
ATOM     89  H   UNL A   1      34.298  19.458  25.620  1.00  0.00     0.348 HD
BRANCH  88  90
ATOM     90  C   UNL A   1      35.781  20.325  24.798  1.00  0.00     0.291 C 
BRANCH  90  91
ATOM     91  C   UNL A   1      36.980  20.796  25.604  1.00  0.00     0.034 C 
ATOM     92  C   UNL A   1      37.710  21.939  25.464  1.00  0.00     0.009 C 
BRANCH  92  93
ATOM     93  C   UNL A   1      38.860  22.606  26.468  1.00  0.00    -0.026 A 
ATOM     94  C   UNL A   1      40.662  22.076  27.409  1.00  0.00     0.008 A 
ATOM     95  C   UNL A   1      38.340  24.282  26.631  1.00  0.00     0.008 A 
ATOM     96  C   UNL A   1      41.607  23.252  28.235  1.00  0.00     0.001 A 
ATOM     97  C   UNL A   1      39.349  25.279  27.596  1.00  0.00     0.001 A 
ATOM     98  C   UNL A   1      40.940  24.790  28.296  1.00  0.00     0.000 A 
ENDBRANCH  92  93
ENDBRANCH  90  91
ENDBRANCH  88  90
ENDBRANCH  75  81
ENDBRANCH  72  74
ENDBRANCH  71  72
ENDBRANCH   1  71
TORSDOF 18
ENDMDL
MODEL 2
REMARK VINA RESULT:     -11.8      1.834      8.026
REMARK SMILES O=C(OCCOC(=O)[C@@H]1[C@@H](C(=O)N2CC[NH+](C/C=C/c3ccccc3)CC2)[C@@H]2C=C[C@H]1C2)c1ccc(-c2c3nc(c(-c4cc(S(=O)(=O)[O-])ccc4F)c4ccc([nH]4)c(-c4cc(S(=O)(=O)[O-])ccc4F)c4nc(c(-c5cc(S(=O)(=O)[O-])ccc5F)c5ccc2[nH]5)C=C4)C=C3)cc1
REMARK SMILES IDX 5 1 4 2 3 3 2 4 1 5 33 6 34 7 95 8 35 9 94 10 36 11 37 12
REMARK SMILES IDX 38 13 88 14 39 15 93 16 87 17 89 18 40 19 92 20 86 21 85 22
REMARK SMILES IDX 41 24 73 25 53 26 72 27 54 28 57 29 71 30 90 31 55 32 56 33
REMARK SMILES IDX 70 35 91 36 58 37 42 38 43 39 51 40 44 41 50 42 52 43 49 44
REMARK SMILES IDX 45 45 46 46 47 47 48 48 74 49 75 50 83 51 76 52 82 53 84 54
REMARK SMILES IDX 81 55 77 56 78 57 79 58 80 59 59 60 60 61 68 62 61 63 67 64
REMARK SMILES IDX 69 65 66 66 62 67 63 68 64 69 65 70 6 71 7 72 8 73 9 74
REMARK SMILES IDX 10 75 31 76 28 77 30 78 32 79 29 80 11 81 12 82 13 83 14 84
REMARK SMILES IDX 27 85 15 86 26 87 16 88 17 90 18 91 19 92 20 93 21 94 25 95
REMARK SMILES IDX 22 96 24 97 23 98
REMARK H PARENT 89 23 57 34 16 89
REMARK Flexibility Score: inf
ROOT
ATOM      1  C   UNL A   1      33.573  29.226  23.355  1.00  0.00     0.274 C 
ENDROOT
BRANCH   1   2
ATOM      2  C   UNL A   1      32.814  29.539  24.663  1.00  0.00     0.275 C 
BRANCH   2   3
ATOM      3  O   UNL A   1      33.572  29.365  25.849  1.00  0.00    -0.458 OA
BRANCH   3   4
ATOM      4  C   UNL A   1      33.696  30.315  26.795  1.00  0.00     0.338 C 
ATOM      5  O   UNL A   1      32.749  31.085  26.967  1.00  0.00    -0.246 OA
BRANCH   4   6
ATOM      6  C   UNL A   1      34.980  30.560  27.554  1.00  0.00     0.060 A 
ATOM      7  C   UNL A   1      35.715  31.718  27.813  1.00  0.00     0.016 A 
ATOM      8  C   UNL A   1      35.407  29.417  28.208  1.00  0.00     0.016 A 
ATOM      9  C   UNL A   1      36.821  31.695  28.670  1.00  0.00     0.010 A 
ATOM     10  C   UNL A   1      36.515  29.344  29.017  1.00  0.00     0.010 A 
ATOM     11  C   UNL A   1      37.221  30.499  29.248  1.00  0.00    -0.014 A 
BRANCH  11  12
ATOM     12  C   UNL A   1      38.365  30.370  30.132  1.00  0.00     0.031 A 
ATOM     13  C   UNL A   1      39.591  29.620  29.346  1.00  0.00     0.074 A 
ATOM     14  C   UNL A   1      38.150  30.804  31.415  1.00  0.00     0.049 A 
ATOM     15  N   UNL A   1      41.237  28.978  29.734  1.00  0.00    -0.248 NA
ATOM     16  C   UNL A   1      39.375  29.121  27.366  1.00  0.00     0.031 C 
ATOM     17  C   UNL A   1      37.006  31.486  32.048  1.00  0.00     0.029 A 
ATOM     18  N   UNL A   1      38.982  30.706  32.498  1.00  0.00    -0.354 N 
ATOM     19  C   UNL A   1      42.046  28.165  28.356  1.00  0.00     0.074 A 
ATOM     20  C   UNL A   1      40.773  28.276  26.908  1.00  0.00     0.031 C 
ATOM     21  C   UNL A   1      37.352  31.882  33.305  1.00  0.00     0.029 A 
ATOM     22  C   UNL A   1      38.730  31.480  33.576  1.00  0.00     0.049 A 
ATOM     23  H   UNL A   1      39.745  30.085  32.491  1.00  0.00     0.167 HD
ATOM     24  C   UNL A   1      43.366  27.889  28.529  1.00  0.00     0.034 A 
ATOM     25  C   UNL A   1      39.606  31.664  34.594  1.00  0.00     0.034 A 
ATOM     26  C   UNL A   1      44.105  28.298  29.762  1.00  0.00     0.049 A 
ATOM     27  C   UNL A   1      41.125  31.230  34.502  1.00  0.00     0.074 A 
ATOM     28  C   UNL A   1      45.463  28.352  30.007  1.00  0.00     0.029 A 
ATOM     29  N   UNL A   1      43.536  28.823  30.958  1.00  0.00    -0.354 N 
ATOM     30  N   UNL A   1      41.780  30.481  33.631  1.00  0.00    -0.248 NA
ATOM     31  C   UNL A   1      42.029  31.758  35.524  1.00  0.00     0.031 C 
ATOM     32  C   UNL A   1      45.677  28.944  31.281  1.00  0.00     0.029 A 
ATOM     33  C   UNL A   1      44.466  29.320  31.881  1.00  0.00     0.049 A 
ATOM     34  H   UNL A   1      42.566  28.835  31.123  1.00  0.00     0.167 HD
ATOM     35  C   UNL A   1      43.160  30.556  33.860  1.00  0.00     0.074 A 
ATOM     36  C   UNL A   1      43.224  31.374  35.078  1.00  0.00     0.031 C 
ATOM     37  C   UNL A   1      44.276  30.080  33.178  1.00  0.00     0.034 A 
BRANCH  24  38
ATOM     38  C   UNL A   1      43.994  27.286  27.342  1.00  0.00     0.023 A 
ATOM     39  C   UNL A   1      44.155  25.897  27.289  1.00  0.00     0.031 A 
ATOM     40  C   UNL A   1      44.585  28.073  26.348  1.00  0.00     0.131 A 
ATOM     41  C   UNL A   1      45.039  25.340  26.369  1.00  0.00     0.055 A 
ATOM     42  C   UNL A   1      45.378  27.498  25.355  1.00  0.00     0.041 A 
ATOM     43  F   UNL A   1      44.463  29.410  26.364  1.00  0.00    -0.206 F 
ATOM     44  C   UNL A   1      45.638  26.126  25.383  1.00  0.00     0.022 A 
BRANCH  41  45
ATOM     45  S   UNL A   1      45.538  23.622  26.635  1.00  0.00     0.124 S 
ATOM     46  O   UNL A   1      45.415  23.502  28.087  1.00  0.00    -0.237 OA
ATOM     47  O   UNL A   1      44.554  22.878  25.857  1.00  0.00    -0.237 OA
ATOM     48  O   UNL A   1      46.904  23.583  26.124  1.00  0.00    -0.744 OA
ENDBRANCH  41  45
ENDBRANCH  24  38
BRANCH  25  49
ATOM     49  C   UNL A   1      39.089  32.332  35.813  1.00  0.00     0.023 A 
ATOM     50  C   UNL A   1      38.495  31.620  36.860  1.00  0.00     0.031 A 
ATOM     51  C   UNL A   1      39.139  33.735  35.903  1.00  0.00     0.131 A 
ATOM     52  C   UNL A   1      37.894  32.320  37.917  1.00  0.00     0.055 A 
ATOM     53  C   UNL A   1      38.594  34.423  36.986  1.00  0.00     0.041 A 
ATOM     54  F   UNL A   1      39.713  34.457  34.927  1.00  0.00    -0.206 F 
ATOM     55  C   UNL A   1      37.948  33.714  37.992  1.00  0.00     0.022 A 
BRANCH  52  56
ATOM     56  S   UNL A   1      36.918  31.383  39.126  1.00  0.00     0.124 S 
ATOM     57  O   UNL A   1      37.798  31.399  40.288  1.00  0.00    -0.237 OA
ATOM     58  O   UNL A   1      35.707  32.191  39.227  1.00  0.00    -0.237 OA
ATOM     59  O   UNL A   1      36.745  30.081  38.485  1.00  0.00    -0.744 OA
ENDBRANCH  52  56
ENDBRANCH  25  49
BRANCH  37  60
ATOM     60  C   UNL A   1      45.596  30.450  33.882  1.00  0.00     0.023 A 
ATOM     61  C   UNL A   1      46.169  29.614  34.863  1.00  0.00     0.031 A 
ATOM     62  C   UNL A   1      46.273  31.648  33.580  1.00  0.00     0.131 A 
ATOM     63  C   UNL A   1      47.332  30.014  35.544  1.00  0.00     0.055 A 
ATOM     64  C   UNL A   1      47.487  31.988  34.188  1.00  0.00     0.041 A 
ATOM     65  F   UNL A   1      45.777  32.507  32.675  1.00  0.00    -0.206 F 
ATOM     66  C   UNL A   1      48.015  31.177  35.186  1.00  0.00     0.022 A 
BRANCH  63  67
ATOM     67  S   UNL A   1      47.862  29.067  37.000  1.00  0.00     0.124 S 
ATOM     68  O   UNL A   1      47.670  30.036  38.074  1.00  0.00    -0.237 OA
ATOM     69  O   UNL A   1      46.943  27.934  36.990  1.00  0.00    -0.237 OA
ATOM     70  O   UNL A   1      49.256  28.737  36.705  1.00  0.00    -0.744 OA
ENDBRANCH  63  67
ENDBRANCH  37  60
ENDBRANCH  11  12
ENDBRANCH   4   6
ENDBRANCH   3   4
ENDBRANCH   2   3
ENDBRANCH   1   2
BRANCH   1  71
ATOM     71  O   UNL A   1      33.061  28.146  22.514  1.00  0.00    -0.462 OA
BRANCH  71  72
ATOM     72  C   UNL A   1      31.861  27.566  22.850  1.00  0.00     0.310 C 
ATOM     73  O   UNL A   1      30.855  27.707  22.166  1.00  0.00    -0.252 OA
BRANCH  72  74
ATOM     74  C   UNL A   1      31.930  26.767  24.185  1.00  0.00     0.119 C 
ATOM     75  C   UNL A   1      32.142  25.156  24.068  1.00  0.00     0.100 C 
ATOM     76  C   UNL A   1      30.543  26.905  24.895  1.00  0.00     0.027 C 
ATOM     77  C   UNL A   1      30.785  24.684  24.694  1.00  0.00     0.025 C 
ATOM     78  C   UNL A   1      29.457  26.419  23.963  1.00  0.00    -0.027 C 
ATOM     79  C   UNL A   1      30.542  25.707  25.830  1.00  0.00     0.017 C 
ATOM     80  C   UNL A   1      29.641  25.101  23.799  1.00  0.00    -0.027 C 
BRANCH  75  81
ATOM     81  C   UNL A   1      33.238  24.464  24.977  1.00  0.00     0.227 C 
ATOM     82  O   UNL A   1      33.964  25.199  25.663  1.00  0.00    -0.275 OA
ATOM     83  N   UNL A   1      33.381  23.063  25.143  1.00  0.00    -0.331 N 
ATOM     84  C   UNL A   1      34.304  22.679  26.236  1.00  0.00     0.181 C 
ATOM     85  C   UNL A   1      33.237  22.038  24.080  1.00  0.00     0.181 C 
ATOM     86  C   UNL A   1      34.388  21.177  26.567  1.00  0.00     0.284 C 
ATOM     87  C   UNL A   1      33.437  20.561  24.469  1.00  0.00     0.284 C 
ATOM     88  N   UNL A   1      34.537  20.303  25.408  1.00  0.00    -0.329 N 
ATOM     89  H   UNL A   1      34.422  19.324  25.671  1.00  0.00     0.348 HD
BRANCH  88  90
ATOM     90  C   UNL A   1      35.917  20.213  24.897  1.00  0.00     0.291 C 
BRANCH  90  91
ATOM     91  C   UNL A   1      37.077  20.823  25.666  1.00  0.00     0.034 C 
ATOM     92  C   UNL A   1      37.839  21.909  25.348  1.00  0.00     0.009 C 
BRANCH  92  93
ATOM     93  C   UNL A   1      38.943  22.750  26.270  1.00  0.00    -0.026 A 
ATOM     94  C   UNL A   1      39.146  24.613  27.218  1.00  0.00     0.008 A 
ATOM     95  C   UNL A   1      40.233  21.577  26.535  1.00  0.00     0.008 A 
ATOM     96  C   UNL A   1      40.479  24.937  28.256  1.00  0.00     0.001 A 
ATOM     97  C   UNL A   1      41.541  22.124  27.500  1.00  0.00     0.001 A 
ATOM     98  C   UNL A   1      41.610  23.704  28.371  1.00  0.00     0.000 A 
ENDBRANCH  92  93
ENDBRANCH  90  91
ENDBRANCH  88  90
ENDBRANCH  75  81
ENDBRANCH  72  74
ENDBRANCH  71  72
ENDBRANCH   1  71
TORSDOF 18
ENDMDL
MODEL 3
REMARK VINA RESULT:     -11.4      5.598     10.701
REMARK SMILES O=C(OCCOC(=O)[C@@H]1[C@@H](C(=O)N2CC[NH+](C/C=C/c3ccccc3)CC2)[C@@H]2C=C[C@H]1C2)c1ccc(-c2c3nc(c(-c4cc(S(=O)(=O)[O-])ccc4F)c4ccc([nH]4)c(-c4cc(S(=O)(=O)[O-])ccc4F)c4nc(c(-c5cc(S(=O)(=O)[O-])ccc5F)c5ccc2[nH]5)C=C4)C=C3)cc1
REMARK SMILES IDX 5 1 4 2 3 3 2 4 1 5 33 6 34 7 95 8 35 9 94 10 36 11 37 12
REMARK SMILES IDX 38 13 88 14 39 15 93 16 87 17 89 18 40 19 92 20 86 21 85 22
REMARK SMILES IDX 41 24 73 25 53 26 72 27 54 28 57 29 71 30 90 31 55 32 56 33
REMARK SMILES IDX 70 35 91 36 58 37 42 38 43 39 51 40 44 41 50 42 52 43 49 44
REMARK SMILES IDX 45 45 46 46 47 47 48 48 74 49 75 50 83 51 76 52 82 53 84 54
REMARK SMILES IDX 81 55 77 56 78 57 79 58 80 59 59 60 60 61 68 62 61 63 67 64
REMARK SMILES IDX 69 65 66 66 62 67 63 68 64 69 65 70 6 71 7 72 8 73 9 74
REMARK SMILES IDX 10 75 31 76 28 77 30 78 32 79 29 80 11 81 12 82 13 83 14 84
REMARK SMILES IDX 27 85 15 86 26 87 16 88 17 90 18 91 19 92 20 93 21 94 25 95
REMARK SMILES IDX 22 96 24 97 23 98
REMARK H PARENT 89 23 57 34 16 89
REMARK Flexibility Score: inf
ROOT
ATOM      1  C   UNL A   1      45.536  29.420  26.663  1.00  0.00     0.274 C 
ENDROOT
BRANCH   1   2
ATOM      2  C   UNL A   1      45.699  30.920  26.334  1.00  0.00     0.275 C 
BRANCH   2   3
ATOM      3  O   UNL A   1      44.483  31.621  26.128  1.00  0.00    -0.458 OA
BRANCH   3   4
ATOM      4  C   UNL A   1      44.312  32.916  26.452  1.00  0.00     0.338 C 
ATOM      5  O   UNL A   1      44.661  33.768  25.633  1.00  0.00    -0.246 OA
BRANCH   4   6
ATOM      6  C   UNL A   1      43.837  33.368  27.815  1.00  0.00     0.060 A 
ATOM      7  C   UNL A   1      43.641  34.634  28.371  1.00  0.00     0.016 A 
ATOM      8  C   UNL A   1      43.405  32.300  28.580  1.00  0.00     0.016 A 
ATOM      9  C   UNL A   1      43.058  34.784  29.634  1.00  0.00     0.010 A 
ATOM     10  C   UNL A   1      42.874  32.404  29.844  1.00  0.00     0.010 A 
ATOM     11  C   UNL A   1      42.698  33.662  30.367  1.00  0.00    -0.014 A 
BRANCH  11  12
ATOM     12  C   UNL A   1      42.107  33.715  31.690  1.00  0.00     0.031 A 
ATOM     13  C   UNL A   1      40.498  33.997  31.568  1.00  0.00     0.074 A 
ATOM     14  C   UNL A   1      43.003  33.615  32.724  1.00  0.00     0.049 A 
ATOM     15  N   UNL A   1      39.106  34.326  32.676  1.00  0.00    -0.248 NA
ATOM     16  C   UNL A   1      39.624  34.111  29.714  1.00  0.00     0.031 C 
ATOM     17  C   UNL A   1      44.453  33.348  32.750  1.00  0.00     0.029 A 
ATOM     18  N   UNL A   1      42.773  33.749  34.067  1.00  0.00    -0.354 N 
ATOM     19  C   UNL A   1      37.557  34.637  31.830  1.00  0.00     0.074 A 
ATOM     20  C   UNL A   1      37.993  34.513  29.952  1.00  0.00     0.031 C 
ATOM     21  C   UNL A   1      44.856  33.154  34.037  1.00  0.00     0.029 A 
ATOM     22  C   UNL A   1      43.706  33.290  34.928  1.00  0.00     0.049 A 
ATOM     23  H   UNL A   1      41.947  34.171  34.396  1.00  0.00     0.167 HD
ATOM     24  C   UNL A   1      36.448  34.645  32.617  1.00  0.00     0.034 A 
ATOM     25  C   UNL A   1      43.493  33.131  36.257  1.00  0.00     0.034 A 
ATOM     26  C   UNL A   1      36.514  34.346  34.080  1.00  0.00     0.049 A 
ATOM     27  C   UNL A   1      42.049  33.190  36.903  1.00  0.00     0.074 A 
ATOM     28  C   UNL A   1      35.504  34.046  34.971  1.00  0.00     0.029 A 
ATOM     29  N   UNL A   1      37.694  34.219  34.868  1.00  0.00    -0.354 N 
ATOM     30  N   UNL A   1      40.880  33.580  36.422  1.00  0.00    -0.248 NA
ATOM     31  C   UNL A   1      41.915  32.699  38.275  1.00  0.00     0.031 C 
ATOM     32  C   UNL A   1      36.082  33.697  36.222  1.00  0.00     0.029 A 
ATOM     33  C   UNL A   1      37.484  33.730  36.164  1.00  0.00     0.049 A 
ATOM     34  H   UNL A   1      38.588  34.456  34.528  1.00  0.00     0.167 HD
ATOM     35  C   UNL A   1      39.850  33.250  37.314  1.00  0.00     0.074 A 
ATOM     36  C   UNL A   1      40.595  32.709  38.457  1.00  0.00     0.031 C 
ATOM     37  C   UNL A   1      38.462  33.316  37.246  1.00  0.00     0.034 A 
BRANCH  24  38
ATOM     38  C   UNL A   1      35.200  34.835  31.860  1.00  0.00     0.023 A 
ATOM     39  C   UNL A   1      34.930  33.997  30.772  1.00  0.00     0.031 A 
ATOM     40  C   UNL A   1      34.366  35.935  32.090  1.00  0.00     0.131 A 
ATOM     41  C   UNL A   1      33.961  34.366  29.843  1.00  0.00     0.055 A 
ATOM     42  C   UNL A   1      33.319  36.236  31.218  1.00  0.00     0.041 A 
ATOM     43  F   UNL A   1      34.594  36.769  33.117  1.00  0.00    -0.206 F 
ATOM     44  C   UNL A   1      33.134  35.468  30.066  1.00  0.00     0.022 A 
BRANCH  41  45
ATOM     45  S   UNL A   1      33.963  33.497  28.257  1.00  0.00     0.124 S 
ATOM     46  O   UNL A   1      34.981  34.239  27.515  1.00  0.00    -0.237 OA
ATOM     47  O   UNL A   1      34.328  32.136  28.636  1.00  0.00    -0.237 OA
ATOM     48  O   UNL A   1      32.596  33.669  27.774  1.00  0.00    -0.744 OA
ENDBRANCH  41  45
ENDBRANCH  24  38
BRANCH  25  49
ATOM     49  C   UNL A   1      44.682  32.860  37.102  1.00  0.00     0.023 A 
ATOM     50  C   UNL A   1      45.076  31.562  37.444  1.00  0.00     0.031 A 
ATOM     51  C   UNL A   1      45.410  33.941  37.632  1.00  0.00     0.131 A 
ATOM     52  C   UNL A   1      46.118  31.377  38.365  1.00  0.00     0.055 A 
ATOM     53  C   UNL A   1      46.484  33.750  38.499  1.00  0.00     0.041 A 
ATOM     54  F   UNL A   1      45.074  35.203  37.319  1.00  0.00    -0.206 F 
ATOM     55  C   UNL A   1      46.830  32.460  38.886  1.00  0.00     0.022 A 
BRANCH  52  56
ATOM     56  S   UNL A   1      46.440  29.700  38.976  1.00  0.00     0.124 S 
ATOM     57  O   UNL A   1      46.577  28.955  37.731  1.00  0.00    -0.237 OA
ATOM     58  O   UNL A   1      47.662  29.891  39.749  1.00  0.00    -0.237 OA
ATOM     59  O   UNL A   1      45.248  29.394  39.764  1.00  0.00    -0.744 OA
ENDBRANCH  52  56
ENDBRANCH  25  49
BRANCH  37  60
ATOM     60  C   UNL A   1      37.786  32.818  38.538  1.00  0.00     0.023 A 
ATOM     61  C   UNL A   1      37.662  33.646  39.673  1.00  0.00     0.031 A 
ATOM     62  C   UNL A   1      37.278  31.507  38.637  1.00  0.00     0.131 A 
ATOM     63  C   UNL A   1      37.112  33.139  40.863  1.00  0.00     0.055 A 
ATOM     64  C   UNL A   1      36.637  31.045  39.791  1.00  0.00     0.041 A 
ATOM     65  F   UNL A   1      37.381  30.653  37.606  1.00  0.00    -0.206 F 
ATOM     66  C   UNL A   1      36.564  31.857  40.918  1.00  0.00     0.022 A 
BRANCH  63  67
ATOM     67  S   UNL A   1      37.249  34.128  42.380  1.00  0.00     0.124 S 
ATOM     68  O   UNL A   1      38.213  33.354  43.157  1.00  0.00    -0.237 OA
ATOM     69  O   UNL A   1      37.721  35.414  41.876  1.00  0.00    -0.237 OA
ATOM     70  O   UNL A   1      35.887  34.133  42.910  1.00  0.00    -0.744 OA
ENDBRANCH  63  67
ENDBRANCH  37  60
ENDBRANCH  11  12
ENDBRANCH   4   6
ENDBRANCH   3   4
ENDBRANCH   2   3
ENDBRANCH   1   2
BRANCH   1  71
ATOM     71  O   UNL A   1      45.010  28.547  25.615  1.00  0.00    -0.462 OA
BRANCH  71  72
ATOM     72  C   UNL A   1      44.415  27.363  25.984  1.00  0.00     0.310 C 
ATOM     73  O   UNL A   1      44.443  26.370  25.270  1.00  0.00    -0.252 OA
BRANCH  72  74
ATOM     74  C   UNL A   1      43.692  27.457  27.361  1.00  0.00     0.119 C 
ATOM     75  C   UNL A   1      43.571  26.079  28.222  1.00  0.00     0.100 C 
ATOM     76  C   UNL A   1      42.204  27.853  27.090  1.00  0.00     0.027 C 
ATOM     77  C   UNL A   1      42.011  25.929  28.226  1.00  0.00     0.025 C 
ATOM     78  C   UNL A   1      41.582  26.843  26.155  1.00  0.00    -0.027 C 
ATOM     79  C   UNL A   1      41.513  27.387  28.362  1.00  0.00     0.017 C 
ATOM     80  C   UNL A   1      41.522  25.679  26.817  1.00  0.00    -0.027 C 
BRANCH  75  81
ATOM     81  C   UNL A   1      43.952  26.106  29.758  1.00  0.00     0.227 C 
ATOM     82  O   UNL A   1      43.793  25.062  30.409  1.00  0.00    -0.275 OA
ATOM     83  N   UNL A   1      44.558  27.204  30.420  1.00  0.00    -0.331 N 
ATOM     84  C   UNL A   1      45.046  26.888  31.783  1.00  0.00     0.181 C 
ATOM     85  C   UNL A   1      44.242  28.637  30.204  1.00  0.00     0.181 C 
ATOM     86  C   UNL A   1      45.848  27.993  32.497  1.00  0.00     0.284 C 
ATOM     87  C   UNL A   1      45.016  29.681  31.032  1.00  0.00     0.284 C 
ATOM     88  N   UNL A   1      45.245  29.320  32.438  1.00  0.00    -0.329 N 
ATOM     89  H   UNL A   1      45.893  30.031  32.779  1.00  0.00     0.348 HD
BRANCH  88  90
ATOM     90  C   UNL A   1      44.170  29.538  33.423  1.00  0.00     0.291 C 
BRANCH  90  91
ATOM     91  C   UNL A   1      42.806  30.048  32.991  1.00  0.00     0.034 C 
ATOM     92  C   UNL A   1      41.708  29.335  32.608  1.00  0.00     0.009 C 
BRANCH  92  93
ATOM     93  C   UNL A   1      40.136  29.835  32.367  1.00  0.00    -0.026 A 
ATOM     94  C   UNL A   1      38.443  30.381  33.485  1.00  0.00     0.008 A 
ATOM     95  C   UNL A   1      40.025  30.012  30.617  1.00  0.00     0.008 A 
ATOM     96  C   UNL A   1      37.049  31.032  32.716  1.00  0.00     0.001 A 
ATOM     97  C   UNL A   1      38.512  30.560  30.024  1.00  0.00     0.001 A 
ATOM     98  C   UNL A   1      37.126  31.109  31.042  1.00  0.00     0.000 A 
ENDBRANCH  92  93
ENDBRANCH  90  91
ENDBRANCH  88  90
ENDBRANCH  75  81
ENDBRANCH  72  74
ENDBRANCH  71  72
ENDBRANCH   1  71
TORSDOF 18
ENDMDL
