MODEL 1
REMARK VINA RESULT:     -11.1      0.000      0.000
REMARK SMILES Cc1noc(C)c1[C@@H](C)NC(=O)N[C@H](CO)C(=O)OCCOC(=O)c1ccc(-c2c3nc(c(-c4cc(S(=O)(=O)[O-])ccc4F)c4ccc([nH]4)c(-c4cc(S(=O)(=O)[O-])ccc4F)c4nc(c(-c5cc(S(=O)(=O)[O-])ccc5F)c5ccc2[nH]5)C=C4)C=C3)cc1
REMARK SMILES IDX 20 1 19 2 17 3 18 4 14 5 13 6 10 7 11 8 12 10 8 12 9 13 7 14
REMARK SMILES IDX 1 15 2 16 3 17 4 18 5 19 6 20 15 21 16 22 21 24 22 25 23 26
REMARK SMILES IDX 24 27 25 28 26 29 87 30 27 31 86 32 28 33 29 34 30 35 80 36
REMARK SMILES IDX 31 37 85 38 79 39 81 40 32 41 84 42 78 43 77 44 33 46 65 47
REMARK SMILES IDX 45 48 64 49 46 50 49 51 63 52 82 53 47 54 48 55 62 57 83 58
REMARK SMILES IDX 50 59 34 60 35 61 43 62 36 63 42 64 44 65 41 66 37 67 38 68
REMARK SMILES IDX 39 69 40 70 66 71 67 72 75 73 68 74 74 75 76 76 73 77 69 78
REMARK SMILES IDX 70 79 71 80 72 81 51 82 52 83 60 84 53 85 59 86 61 87 58 88
REMARK SMILES IDX 54 89 55 90 56 91 57 92
REMARK H PARENT 10 9 13 11 16 23 81 45 49 56
REMARK Flexibility Score: inf
ROOT
ATOM      1  C   UNL A   1      35.110  20.648  25.356  1.00  0.00     0.274 C 
ENDROOT
BRANCH   1   2
ATOM      2  O   UNL A   1      34.403  19.516  24.808  1.00  0.00    -0.460 OA
BRANCH   2   3
ATOM      3  C   UNL A   1      33.046  19.573  24.875  1.00  0.00     0.331 C 
ATOM      4  O   UNL A   1      32.337  18.640  25.239  1.00  0.00    -0.250 OA
BRANCH   3   5
ATOM      5  C   UNL A   1      32.468  20.939  24.494  1.00  0.00     0.219 C 
BRANCH   5   6
ATOM      6  N   UNL A   1      31.435  21.447  25.411  1.00  0.00    -0.323 N 
ATOM      7  N   UNL A   1      31.539  23.789  25.773  1.00  0.00    -0.331 N 
ATOM      8  C   UNL A   1      30.988  22.593  25.896  1.00  0.00     0.316 C 
ATOM      9  H   UNL A   1      30.909  24.504  26.018  1.00  0.00     0.165 HD
ATOM     10  O   UNL A   1      29.935  22.539  26.540  1.00  0.00    -0.249 OA
ATOM     11  H   UNL A   1      30.913  20.699  25.780  1.00  0.00     0.166 HD
BRANCH   7  12
ATOM     12  C   UNL A   1      32.828  24.329  25.370  1.00  0.00     0.116 C 
ATOM     13  C   UNL A   1      33.097  25.616  26.152  1.00  0.00     0.036 C 
BRANCH  12  14
ATOM     14  C   UNL A   1      32.857  24.585  23.887  1.00  0.00     0.040 A 
ATOM     15  C   UNL A   1      30.774  26.125  23.377  1.00  0.00     0.071 C 
ATOM     16  C   UNL A   1      31.969  25.318  23.037  1.00  0.00     0.086 A 
ATOM     17  N   UNL A   1      32.356  25.265  21.756  1.00  0.00    -0.085 NA
ATOM     18  O   UNL A   1      33.546  24.580  21.749  1.00  0.00    -0.361 OA
ATOM     19  C   UNL A   1      33.872  24.222  23.016  1.00  0.00     0.139 A 
ATOM     20  C   UNL A   1      35.204  23.600  23.166  1.00  0.00     0.091 C 
ENDBRANCH  12  14
ENDBRANCH   7  12
ENDBRANCH   5   6
BRANCH   5  21
ATOM     21  C   UNL A   1      32.188  21.152  23.006  1.00  0.00     0.193 C 
BRANCH  21  22
ATOM     22  O   UNL A   1      31.893  19.910  22.361  1.00  0.00    -0.394 OA
ATOM     23  H   UNL A   1      31.178  19.460  22.837  1.00  0.00     0.210 HD
ENDBRANCH  21  22
ENDBRANCH   5  21
ENDBRANCH   3   5
ENDBRANCH   2   3
ENDBRANCH   1   2
BRANCH   1  24
ATOM     24  C   UNL A   1      36.604  20.683  25.013  1.00  0.00     0.275 C 
BRANCH  24  25
ATOM     25  O   UNL A   1      37.343  21.688  25.729  1.00  0.00    -0.458 OA
BRANCH  25  26
ATOM     26  C   UNL A   1      38.629  21.371  26.002  1.00  0.00     0.338 C 
ATOM     27  O   UNL A   1      39.192  20.315  25.771  1.00  0.00    -0.246 OA
BRANCH  26  28
ATOM     28  C   UNL A   1      39.346  22.543  26.517  1.00  0.00     0.060 A 
ATOM     29  C   UNL A   1      38.964  23.800  26.043  1.00  0.00     0.016 A 
ATOM     30  C   UNL A   1      40.433  22.401  27.376  1.00  0.00     0.016 A 
ATOM     31  C   UNL A   1      39.672  24.932  26.413  1.00  0.00     0.010 A 
ATOM     32  C   UNL A   1      41.131  23.543  27.771  1.00  0.00     0.010 A 
ATOM     33  C   UNL A   1      40.751  24.808  27.291  1.00  0.00    -0.014 A 
BRANCH  33  34
ATOM     34  C   UNL A   1      41.458  26.021  27.746  1.00  0.00     0.031 A 
ATOM     35  C   UNL A   1      40.720  27.064  28.523  1.00  0.00     0.074 A 
ATOM     36  C   UNL A   1      42.756  26.161  27.426  1.00  0.00     0.049 A 
ATOM     37  N   UNL A   1      41.105  28.263  28.867  1.00  0.00    -0.248 NA
ATOM     38  C   UNL A   1      39.361  26.713  28.963  1.00  0.00     0.031 C 
ATOM     39  C   UNL A   1      43.559  25.158  26.719  1.00  0.00     0.029 A 
ATOM     40  N   UNL A   1      43.623  27.198  27.631  1.00  0.00    -0.354 N 
ATOM     41  C   UNL A   1      40.030  28.826  29.544  1.00  0.00     0.074 A 
ATOM     42  C   UNL A   1      38.971  27.835  29.548  1.00  0.00     0.031 C 
ATOM     43  C   UNL A   1      44.797  25.639  26.534  1.00  0.00     0.029 A 
ATOM     44  C   UNL A   1      44.854  27.000  27.051  1.00  0.00     0.049 A 
ATOM     45  H   UNL A   1      43.390  28.005  28.145  1.00  0.00     0.167 HD
ATOM     46  C   UNL A   1      39.945  30.061  30.097  1.00  0.00     0.034 A 
ATOM     47  C   UNL A   1      45.891  27.847  26.910  1.00  0.00     0.034 A 
ATOM     48  C   UNL A   1      41.024  31.019  30.051  1.00  0.00     0.049 A 
ATOM     49  C   UNL A   1      45.753  29.233  27.478  1.00  0.00     0.074 A 
ATOM     50  C   UNL A   1      41.063  32.309  30.551  1.00  0.00     0.029 A 
ATOM     51  N   UNL A   1      42.262  30.788  29.456  1.00  0.00    -0.354 N 
ATOM     52  N   UNL A   1      44.721  29.772  28.086  1.00  0.00    -0.248 NA
ATOM     53  C   UNL A   1      46.912  30.120  27.347  1.00  0.00     0.031 C 
ATOM     54  C   UNL A   1      42.299  32.872  30.212  1.00  0.00     0.029 A 
ATOM     55  C   UNL A   1      43.061  31.914  29.560  1.00  0.00     0.049 A 
ATOM     56  H   UNL A   1      42.530  29.944  29.024  1.00  0.00     0.167 HD
ATOM     57  C   UNL A   1      45.116  31.058  28.436  1.00  0.00     0.074 A 
ATOM     58  C   UNL A   1      46.484  31.207  27.974  1.00  0.00     0.031 C 
ATOM     59  C   UNL A   1      44.420  32.026  29.083  1.00  0.00     0.034 A 
BRANCH  46  60
ATOM     60  C   UNL A   1      38.626  30.451  30.721  1.00  0.00     0.023 A 
ATOM     61  C   UNL A   1      37.669  31.212  30.025  1.00  0.00     0.031 A 
ATOM     62  C   UNL A   1      38.343  30.100  32.053  1.00  0.00     0.131 A 
ATOM     63  C   UNL A   1      36.514  31.660  30.686  1.00  0.00     0.055 A 
ATOM     64  C   UNL A   1      37.155  30.483  32.681  1.00  0.00     0.041 A 
ATOM     65  F   UNL A   1      39.227  29.396  32.778  1.00  0.00    -0.206 F 
ATOM     66  C   UNL A   1      36.239  31.280  32.003  1.00  0.00     0.022 A 
BRANCH  63  67
ATOM     67  S   UNL A   1      35.445  32.864  29.850  1.00  0.00     0.124 S 
ATOM     68  O   UNL A   1      36.392  33.526  28.955  1.00  0.00    -0.237 OA
ATOM     69  O   UNL A   1      34.450  32.013  29.210  1.00  0.00    -0.237 OA
ATOM     70  O   UNL A   1      34.945  33.697  30.943  1.00  0.00    -0.744 OA
ENDBRANCH  63  67
ENDBRANCH  46  60
BRANCH  47  71
ATOM     71  C   UNL A   1      47.108  27.420  26.166  1.00  0.00     0.023 A 
ATOM     72  C   UNL A   1      47.276  27.730  24.809  1.00  0.00     0.031 A 
ATOM     73  C   UNL A   1      48.128  26.694  26.810  1.00  0.00     0.131 A 
ATOM     74  C   UNL A   1      48.427  27.295  24.132  1.00  0.00     0.055 A 
ATOM     75  C   UNL A   1      49.291  26.304  26.144  1.00  0.00     0.041 A 
ATOM     76  F   UNL A   1      48.021  26.378  28.110  1.00  0.00    -0.206 F 
ATOM     77  C   UNL A   1      49.440  26.597  24.792  1.00  0.00     0.022 A 
BRANCH  74  78
ATOM     78  S   UNL A   1      48.552  27.605  22.349  1.00  0.00     0.124 S 
ATOM     79  O   UNL A   1      48.616  26.250  21.814  1.00  0.00    -0.237 OA
ATOM     80  O   UNL A   1      47.321  28.343  22.084  1.00  0.00    -0.237 OA
ATOM     81  O   UNL A   1      49.782  28.384  22.225  1.00  0.00    -0.744 OA
ENDBRANCH  74  78
ENDBRANCH  47  71
BRANCH  59  82
ATOM     82  C   UNL A   1      45.162  33.303  29.374  1.00  0.00     0.023 A 
ATOM     83  C   UNL A   1      45.135  34.390  28.484  1.00  0.00     0.031 A 
ATOM     84  C   UNL A   1      45.911  33.424  30.556  1.00  0.00     0.131 A 
ATOM     85  C   UNL A   1      45.886  35.539  28.771  1.00  0.00     0.055 A 
ATOM     86  C   UNL A   1      46.615  34.588  30.860  1.00  0.00     0.041 A 
ATOM     87  F   UNL A   1      45.966  32.411  31.435  1.00  0.00    -0.206 F 
ATOM     88  C   UNL A   1      46.614  35.650  29.959  1.00  0.00     0.022 A 
BRANCH  85  89
ATOM     89  S   UNL A   1      45.956  36.863  27.535  1.00  0.00     0.124 S 
ATOM     90  O   UNL A   1      47.067  36.433  26.692  1.00  0.00    -0.237 OA
ATOM     91  O   UNL A   1      44.631  36.795  26.927  1.00  0.00    -0.237 OA
ATOM     92  O   UNL A   1      46.211  38.063  28.330  1.00  0.00    -0.744 OA
ENDBRANCH  85  89
ENDBRANCH  59  82
ENDBRANCH  33  34
ENDBRANCH  26  28
ENDBRANCH  25  26
ENDBRANCH  24  25
ENDBRANCH   1  24
TORSDOF 19
ENDMDL
MODEL 2
REMARK VINA RESULT:     -11.1      5.321     10.269
REMARK SMILES Cc1noc(C)c1[C@@H](C)NC(=O)N[C@H](CO)C(=O)OCCOC(=O)c1ccc(-c2c3nc(c(-c4cc(S(=O)(=O)[O-])ccc4F)c4ccc([nH]4)c(-c4cc(S(=O)(=O)[O-])ccc4F)c4nc(c(-c5cc(S(=O)(=O)[O-])ccc5F)c5ccc2[nH]5)C=C4)C=C3)cc1
REMARK SMILES IDX 20 1 19 2 17 3 18 4 14 5 13 6 10 7 11 8 12 10 8 12 9 13 7 14
REMARK SMILES IDX 1 15 2 16 3 17 4 18 5 19 6 20 15 21 16 22 21 24 22 25 23 26
REMARK SMILES IDX 24 27 25 28 26 29 87 30 27 31 86 32 28 33 29 34 30 35 80 36
REMARK SMILES IDX 31 37 85 38 79 39 81 40 32 41 84 42 78 43 77 44 33 46 65 47
REMARK SMILES IDX 45 48 64 49 46 50 49 51 63 52 82 53 47 54 48 55 62 57 83 58
REMARK SMILES IDX 50 59 34 60 35 61 43 62 36 63 42 64 44 65 41 66 37 67 38 68
REMARK SMILES IDX 39 69 40 70 66 71 67 72 75 73 68 74 74 75 76 76 73 77 69 78
REMARK SMILES IDX 70 79 71 80 72 81 51 82 52 83 60 84 53 85 59 86 61 87 58 88
REMARK SMILES IDX 54 89 55 90 56 91 57 92
REMARK H PARENT 10 9 13 11 16 23 81 45 49 56
REMARK Flexibility Score: inf
ROOT
ATOM      1  C   UNL A   1      31.262  29.557  24.682  1.00  0.00     0.274 C 
ENDROOT
BRANCH   1   2
ATOM      2  O   UNL A   1      30.193  29.920  23.784  1.00  0.00    -0.460 OA
BRANCH   2   3
ATOM      3  C   UNL A   1      30.049  29.136  22.683  1.00  0.00     0.331 C 
ATOM      4  O   UNL A   1      29.779  29.565  21.565  1.00  0.00    -0.250 OA
BRANCH   3   5
ATOM      5  C   UNL A   1      30.301  27.649  22.950  1.00  0.00     0.219 C 
BRANCH   5   6
ATOM      6  N   UNL A   1      31.074  26.959  21.903  1.00  0.00    -0.323 N 
ATOM      7  N   UNL A   1      32.703  25.456  22.745  1.00  0.00    -0.331 N 
ATOM      8  C   UNL A   1      31.998  26.023  21.780  1.00  0.00     0.316 C 
ATOM      9  H   UNL A   1      33.153  24.639  22.432  1.00  0.00     0.165 HD
ATOM     10  O   UNL A   1      32.232  25.635  20.631  1.00  0.00    -0.249 OA
ATOM     11  H   UNL A   1      30.822  27.303  21.016  1.00  0.00     0.166 HD
BRANCH   7  12
ATOM     12  C   UNL A   1      32.989  25.717  24.146  1.00  0.00     0.116 C 
ATOM     13  C   UNL A   1      34.390  25.198  24.476  1.00  0.00     0.036 C 
BRANCH  12  14
ATOM     14  C   UNL A   1      31.955  25.072  25.029  1.00  0.00     0.040 A 
ATOM     15  C   UNL A   1      31.784  22.561  24.229  1.00  0.00     0.071 C 
ATOM     16  C   UNL A   1      31.420  23.745  25.044  1.00  0.00     0.086 A 
ATOM     17  N   UNL A   1      30.482  23.600  25.989  1.00  0.00    -0.085 NA
ATOM     18  O   UNL A   1      30.447  24.792  26.671  1.00  0.00    -0.361 OA
ATOM     19  C   UNL A   1      31.356  25.647  26.139  1.00  0.00     0.139 A 
ATOM     20  C   UNL A   1      31.519  26.919  26.873  1.00  0.00     0.091 C 
ENDBRANCH  12  14
ENDBRANCH   7  12
ENDBRANCH   5   6
BRANCH   5  21
ATOM     21  C   UNL A   1      29.118  26.865  23.519  1.00  0.00     0.193 C 
BRANCH  21  22
ATOM     22  O   UNL A   1      27.908  27.618  23.408  1.00  0.00    -0.394 OA
ATOM     23  H   UNL A   1      27.549  27.787  24.293  1.00  0.00     0.210 HD
ENDBRANCH  21  22
ENDBRANCH   5  21
ENDBRANCH   3   5
ENDBRANCH   2   3
ENDBRANCH   1   2
BRANCH   1  24
ATOM     24  C   UNL A   1      31.571  30.612  25.752  1.00  0.00     0.275 C 
BRANCH  24  25
ATOM     25  O   UNL A   1      32.857  30.451  26.375  1.00  0.00    -0.458 OA
BRANCH  25  26
ATOM     26  C   UNL A   1      33.277  31.506  27.110  1.00  0.00     0.338 C 
ATOM     27  O   UNL A   1      32.709  32.575  27.255  1.00  0.00    -0.246 OA
BRANCH  26  28
ATOM     28  C   UNL A   1      34.491  31.158  27.855  1.00  0.00     0.060 A 
ATOM     29  C   UNL A   1      35.469  32.144  28.004  1.00  0.00     0.016 A 
ATOM     30  C   UNL A   1      34.705  29.861  28.317  1.00  0.00     0.016 A 
ATOM     31  C   UNL A   1      36.680  31.843  28.607  1.00  0.00     0.010 A 
ATOM     32  C   UNL A   1      35.914  29.563  28.948  1.00  0.00     0.010 A 
ATOM     33  C   UNL A   1      36.900  30.553  29.094  1.00  0.00    -0.014 A 
BRANCH  33  34
ATOM     34  C   UNL A   1      38.158  30.252  29.805  1.00  0.00     0.031 A 
ATOM     35  C   UNL A   1      39.131  29.281  29.215  1.00  0.00     0.074 A 
ATOM     36  C   UNL A   1      38.383  30.851  30.987  1.00  0.00     0.049 A 
ATOM     37  N   UNL A   1      40.200  28.757  29.749  1.00  0.00    -0.248 NA
ATOM     38  C   UNL A   1      38.857  28.834  27.841  1.00  0.00     0.031 C 
ATOM     39  C   UNL A   1      37.505  31.854  31.600  1.00  0.00     0.029 A 
ATOM     40  N   UNL A   1      39.397  30.698  31.891  1.00  0.00    -0.354 N 
ATOM     41  C   UNL A   1      40.719  27.895  28.790  1.00  0.00     0.074 A 
ATOM     42  C   UNL A   1      39.834  27.962  27.644  1.00  0.00     0.031 C 
ATOM     43  C   UNL A   1      38.012  32.211  32.789  1.00  0.00     0.029 A 
ATOM     44  C   UNL A   1      39.209  31.420  33.046  1.00  0.00     0.049 A 
ATOM     45  H   UNL A   1      40.184  30.128  31.731  1.00  0.00     0.167 HD
ATOM     46  C   UNL A   1      41.828  27.120  28.876  1.00  0.00     0.034 A 
ATOM     47  C   UNL A   1      39.900  31.402  34.202  1.00  0.00     0.034 A 
ATOM     48  C   UNL A   1      42.668  27.077  30.050  1.00  0.00     0.049 A 
ATOM     49  C   UNL A   1      41.092  30.489  34.297  1.00  0.00     0.074 A 
ATOM     50  C   UNL A   1      43.805  26.321  30.277  1.00  0.00     0.029 A 
ATOM     51  N   UNL A   1      42.452  27.823  31.205  1.00  0.00    -0.354 N 
ATOM     52  N   UNL A   1      41.557  29.651  33.399  1.00  0.00    -0.248 NA
ATOM     53  C   UNL A   1      41.851  30.521  35.550  1.00  0.00     0.031 C 
ATOM     54  C   UNL A   1      44.242  26.570  31.584  1.00  0.00     0.029 A 
ATOM     55  C   UNL A   1      43.420  27.532  32.152  1.00  0.00     0.049 A 
ATOM     56  H   UNL A   1      41.716  28.466  31.330  1.00  0.00     0.167 HD
ATOM     57  C   UNL A   1      42.684  29.071  33.971  1.00  0.00     0.074 A 
ATOM     58  C   UNL A   1      42.827  29.664  35.288  1.00  0.00     0.031 C 
ATOM     59  C   UNL A   1      43.528  28.141  33.457  1.00  0.00     0.034 A 
BRANCH  46  60
ATOM     60  C   UNL A   1      42.134  26.217  27.704  1.00  0.00     0.023 A 
ATOM     61  C   UNL A   1      41.724  24.872  27.674  1.00  0.00     0.031 A 
ATOM     62  C   UNL A   1      42.894  26.696  26.623  1.00  0.00     0.131 A 
ATOM     63  C   UNL A   1      42.140  24.036  26.625  1.00  0.00     0.055 A 
ATOM     64  C   UNL A   1      43.239  25.879  25.543  1.00  0.00     0.041 A 
ATOM     65  F   UNL A   1      43.337  27.964  26.606  1.00  0.00    -0.206 F 
ATOM     66  C   UNL A   1      42.875  24.537  25.547  1.00  0.00     0.022 A 
BRANCH  63  67
ATOM     67  S   UNL A   1      41.831  22.253  26.759  1.00  0.00     0.124 S 
ATOM     68  O   UNL A   1      42.746  21.876  27.834  1.00  0.00    -0.237 OA
ATOM     69  O   UNL A   1      40.411  22.202  27.081  1.00  0.00    -0.237 OA
ATOM     70  O   UNL A   1      42.190  21.742  25.437  1.00  0.00    -0.744 OA
ENDBRANCH  63  67
ENDBRANCH  46  60
BRANCH  47  71
ATOM     71  C   UNL A   1      39.451  32.232  35.353  1.00  0.00     0.023 A 
ATOM     72  C   UNL A   1      38.710  31.674  36.405  1.00  0.00     0.031 A 
ATOM     73  C   UNL A   1      39.764  33.603  35.419  1.00  0.00     0.131 A 
ATOM     74  C   UNL A   1      38.285  32.488  37.467  1.00  0.00     0.055 A 
ATOM     75  C   UNL A   1      39.378  34.398  36.500  1.00  0.00     0.041 A 
ATOM     76  F   UNL A   1      40.478  34.185  34.442  1.00  0.00    -0.206 F 
ATOM     77  C   UNL A   1      38.624  33.841  37.528  1.00  0.00     0.022 A 
BRANCH  74  78
ATOM     78  S   UNL A   1      37.223  31.761  38.745  1.00  0.00     0.124 S 
ATOM     79  O   UNL A   1      38.052  31.898  39.936  1.00  0.00    -0.237 OA
ATOM     80  O   UNL A   1      36.044  32.619  38.682  1.00  0.00    -0.237 OA
ATOM     81  O   UNL A   1      37.020  30.391  38.279  1.00  0.00    -0.744 OA
ENDBRANCH  74  78
ENDBRANCH  47  71
BRANCH  59  82
ATOM     82  C   UNL A   1      44.708  27.763  34.312  1.00  0.00     0.023 A 
ATOM     83  C   UNL A   1      44.667  26.658  35.178  1.00  0.00     0.031 A 
ATOM     84  C   UNL A   1      45.884  28.529  34.259  1.00  0.00     0.131 A 
ATOM     85  C   UNL A   1      45.771  26.377  35.995  1.00  0.00     0.055 A 
ATOM     86  C   UNL A   1      46.997  28.215  35.037  1.00  0.00     0.041 A 
ATOM     87  F   UNL A   1      45.969  29.595  33.446  1.00  0.00    -0.206 F 
ATOM     88  C   UNL A   1      46.940  27.140  35.920  1.00  0.00     0.022 A 
BRANCH  85  89
ATOM     89  S   UNL A   1      45.634  25.041  37.213  1.00  0.00     0.124 S 
ATOM     90  O   UNL A   1      45.279  23.901  36.374  1.00  0.00    -0.237 OA
ATOM     91  O   UNL A   1      46.971  25.012  37.798  1.00  0.00    -0.237 OA
ATOM     92  O   UNL A   1      44.577  25.503  38.111  1.00  0.00    -0.744 OA
ENDBRANCH  85  89
ENDBRANCH  59  82
ENDBRANCH  33  34
ENDBRANCH  26  28
ENDBRANCH  25  26
ENDBRANCH  24  25
ENDBRANCH   1  24
TORSDOF 19
ENDMDL
MODEL 3
REMARK VINA RESULT:     -11.0      4.708      9.882
REMARK SMILES Cc1noc(C)c1[C@@H](C)NC(=O)N[C@H](CO)C(=O)OCCOC(=O)c1ccc(-c2c3nc(c(-c4cc(S(=O)(=O)[O-])ccc4F)c4ccc([nH]4)c(-c4cc(S(=O)(=O)[O-])ccc4F)c4nc(c(-c5cc(S(=O)(=O)[O-])ccc5F)c5ccc2[nH]5)C=C4)C=C3)cc1
REMARK SMILES IDX 20 1 19 2 17 3 18 4 14 5 13 6 10 7 11 8 12 10 8 12 9 13 7 14
REMARK SMILES IDX 1 15 2 16 3 17 4 18 5 19 6 20 15 21 16 22 21 24 22 25 23 26
REMARK SMILES IDX 24 27 25 28 26 29 87 30 27 31 86 32 28 33 29 34 30 35 80 36
REMARK SMILES IDX 31 37 85 38 79 39 81 40 32 41 84 42 78 43 77 44 33 46 65 47
REMARK SMILES IDX 45 48 64 49 46 50 49 51 63 52 82 53 47 54 48 55 62 57 83 58
REMARK SMILES IDX 50 59 34 60 35 61 43 62 36 63 42 64 44 65 41 66 37 67 38 68
REMARK SMILES IDX 39 69 40 70 66 71 67 72 75 73 68 74 74 75 76 76 73 77 69 78
REMARK SMILES IDX 70 79 71 80 72 81 51 82 52 83 60 84 53 85 59 86 61 87 58 88
REMARK SMILES IDX 54 89 55 90 56 91 57 92
REMARK H PARENT 10 9 13 11 16 23 81 45 49 56
REMARK Flexibility Score: inf
ROOT
ATOM      1  C   UNL A   1      31.108  29.333  24.631  1.00  0.00     0.274 C 
ENDROOT
BRANCH   1   2
ATOM      2  O   UNL A   1      31.837  28.143  24.263  1.00  0.00    -0.460 OA
BRANCH   2   3
ATOM      3  C   UNL A   1      31.741  27.766  22.961  1.00  0.00     0.331 C 
ATOM      4  O   UNL A   1      30.681  27.664  22.352  1.00  0.00    -0.250 OA
BRANCH   3   5
ATOM      5  C   UNL A   1      33.097  27.519  22.291  1.00  0.00     0.219 C 
BRANCH   5   6
ATOM      6  N   UNL A   1      33.326  26.130  21.860  1.00  0.00    -0.323 N 
ATOM      7  N   UNL A   1      33.123  24.538  23.606  1.00  0.00    -0.331 N 
ATOM      8  C   UNL A   1      33.279  24.901  22.343  1.00  0.00     0.316 C 
ATOM      9  H   UNL A   1      32.892  23.584  23.681  1.00  0.00     0.165 HD
ATOM     10  O   UNL A   1      33.396  23.987  21.521  1.00  0.00    -0.249 OA
ATOM     11  H   UNL A   1      33.600  26.110  20.915  1.00  0.00     0.166 HD
BRANCH   7  12
ATOM     12  C   UNL A   1      33.200  25.172  24.911  1.00  0.00     0.116 C 
ATOM     13  C   UNL A   1      34.664  25.230  25.354  1.00  0.00     0.036 C 
BRANCH  12  14
ATOM     14  C   UNL A   1      32.364  24.425  25.916  1.00  0.00     0.040 A 
ATOM     15  C   UNL A   1      34.016  22.775  27.149  1.00  0.00     0.071 C 
ATOM     16  C   UNL A   1      32.702  23.386  26.841  1.00  0.00     0.086 A 
ATOM     17  N   UNL A   1      31.634  22.976  27.535  1.00  0.00    -0.085 NA
ATOM     18  O   UNL A   1      30.598  23.794  27.152  1.00  0.00    -0.361 OA
ATOM     19  C   UNL A   1      31.040  24.687  26.232  1.00  0.00     0.139 A 
ATOM     20  C   UNL A   1      30.057  25.718  25.840  1.00  0.00     0.091 C 
ENDBRANCH  12  14
ENDBRANCH   7  12
ENDBRANCH   5   6
BRANCH   5  21
ATOM     21  C   UNL A   1      34.296  28.213  22.939  1.00  0.00     0.193 C 
BRANCH  21  22
ATOM     22  O   UNL A   1      34.004  29.587  23.208  1.00  0.00    -0.394 OA
ATOM     23  H   UNL A   1      33.941  29.723  24.166  1.00  0.00     0.210 HD
ENDBRANCH  21  22
ENDBRANCH   5  21
ENDBRANCH   3   5
ENDBRANCH   2   3
ENDBRANCH   1   2
BRANCH   1  24
ATOM     24  C   UNL A   1      31.513  29.925  25.987  1.00  0.00     0.275 C 
BRANCH  24  25
ATOM     25  O   UNL A   1      32.904  30.282  26.075  1.00  0.00    -0.458 OA
BRANCH  25  26
ATOM     26  C   UNL A   1      33.181  31.315  26.903  1.00  0.00     0.338 C 
ATOM     27  O   UNL A   1      32.450  32.247  27.188  1.00  0.00    -0.246 OA
BRANCH  26  28
ATOM     28  C   UNL A   1      34.480  31.112  27.554  1.00  0.00     0.060 A 
ATOM     29  C   UNL A   1      34.782  29.830  28.019  1.00  0.00     0.016 A 
ATOM     30  C   UNL A   1      35.343  32.180  27.786  1.00  0.00     0.016 A 
ATOM     31  C   UNL A   1      35.947  29.602  28.734  1.00  0.00     0.010 A 
ATOM     32  C   UNL A   1      36.529  31.947  28.483  1.00  0.00     0.010 A 
ATOM     33  C   UNL A   1      36.832  30.659  28.956  1.00  0.00    -0.014 A 
BRANCH  33  34
ATOM     34  C   UNL A   1      38.109  30.402  29.650  1.00  0.00     0.031 A 
ATOM     35  C   UNL A   1      39.119  29.488  29.033  1.00  0.00     0.074 A 
ATOM     36  C   UNL A   1      38.318  30.989  30.841  1.00  0.00     0.049 A 
ATOM     37  N   UNL A   1      40.216  29.003  29.548  1.00  0.00    -0.248 NA
ATOM     38  C   UNL A   1      38.853  29.055  27.653  1.00  0.00     0.031 C 
ATOM     39  C   UNL A   1      37.401  31.939  31.481  1.00  0.00     0.029 A 
ATOM     40  N   UNL A   1      39.346  30.865  31.734  1.00  0.00    -0.354 N 
ATOM     41  C   UNL A   1      40.765  28.184  28.568  1.00  0.00     0.074 A 
ATOM     42  C   UNL A   1      39.867  28.232  27.431  1.00  0.00     0.031 C 
ATOM     43  C   UNL A   1      37.903  32.297  32.672  1.00  0.00     0.029 A 
ATOM     44  C   UNL A   1      39.137  31.557  32.903  1.00  0.00     0.049 A 
ATOM     45  H   UNL A   1      40.157  30.335  31.556  1.00  0.00     0.167 HD
ATOM     46  C   UNL A   1      41.908  27.459  28.630  1.00  0.00     0.034 A 
ATOM     47  C   UNL A   1      39.839  31.549  34.052  1.00  0.00     0.034 A 
ATOM     48  C   UNL A   1      42.762  27.432  29.795  1.00  0.00     0.049 A 
ATOM     49  C   UNL A   1      41.072  30.690  34.120  1.00  0.00     0.074 A 
ATOM     50  C   UNL A   1      43.934  26.725  29.998  1.00  0.00     0.029 A 
ATOM     51  N   UNL A   1      42.523  28.146  30.966  1.00  0.00    -0.354 N 
ATOM     52  N   UNL A   1      41.567  29.890  33.202  1.00  0.00    -0.248 NA
ATOM     53  C   UNL A   1      41.840  30.732  35.367  1.00  0.00     0.031 C 
ATOM     54  C   UNL A   1      44.371  26.969  31.305  1.00  0.00     0.029 A 
ATOM     55  C   UNL A   1      43.512  27.882  31.899  1.00  0.00     0.049 A 
ATOM     56  H   UNL A   1      41.760  28.752  31.110  1.00  0.00     0.167 HD
ATOM     57  C   UNL A   1      42.724  29.352  33.753  1.00  0.00     0.074 A 
ATOM     58  C   UNL A   1      42.852  29.926  35.080  1.00  0.00     0.031 C 
ATOM     59  C   UNL A   1      43.604  28.471  33.215  1.00  0.00     0.034 A 
BRANCH  46  60
ATOM     60  C   UNL A   1      42.245  26.593  27.439  1.00  0.00     0.023 A 
ATOM     61  C   UNL A   1      41.838  25.249  27.357  1.00  0.00     0.031 A 
ATOM     62  C   UNL A   1      43.030  27.106  26.391  1.00  0.00     0.131 A 
ATOM     63  C   UNL A   1      42.280  24.447  26.293  1.00  0.00     0.055 A 
ATOM     64  C   UNL A   1      43.401  26.323  25.295  1.00  0.00     0.041 A 
ATOM     65  F   UNL A   1      43.470  28.374  26.424  1.00  0.00    -0.206 F 
ATOM     66  C   UNL A   1      43.040  24.981  25.249  1.00  0.00     0.022 A 
BRANCH  63  67
ATOM     67  S   UNL A   1      41.971  22.660  26.364  1.00  0.00     0.124 S 
ATOM     68  O   UNL A   1      42.643  22.294  27.609  1.00  0.00    -0.237 OA
ATOM     69  O   UNL A   1      40.515  22.591  26.380  1.00  0.00    -0.237 OA
ATOM     70  O   UNL A   1      42.606  22.152  25.149  1.00  0.00    -0.744 OA
ENDBRANCH  63  67
ENDBRANCH  46  60
BRANCH  47  71
ATOM     71  C   UNL A   1      39.364  32.336  35.223  1.00  0.00     0.023 A 
ATOM     72  C   UNL A   1      38.669  31.723  36.276  1.00  0.00     0.031 A 
ATOM     73  C   UNL A   1      39.605  33.720  35.308  1.00  0.00     0.131 A 
ATOM     74  C   UNL A   1      38.217  32.497  37.357  1.00  0.00     0.055 A 
ATOM     75  C   UNL A   1      39.193  34.477  36.406  1.00  0.00     0.041 A 
ATOM     76  F   UNL A   1      40.272  34.355  34.330  1.00  0.00    -0.206 F 
ATOM     77  C   UNL A   1      38.485  33.865  37.436  1.00  0.00     0.022 A 
BRANCH  74  78
ATOM     78  S   UNL A   1      37.214  31.695  38.637  1.00  0.00     0.124 S 
ATOM     79  O   UNL A   1      36.028  32.543  38.663  1.00  0.00    -0.237 OA
ATOM     80  O   UNL A   1      37.033  30.356  38.085  1.00  0.00    -0.237 OA
ATOM     81  O   UNL A   1      38.059  31.768  39.827  1.00  0.00    -0.744 OA
ENDBRANCH  74  78
ENDBRANCH  47  71
BRANCH  59  82
ATOM     82  C   UNL A   1      44.808  28.131  34.051  1.00  0.00     0.023 A 
ATOM     83  C   UNL A   1      45.995  28.879  33.974  1.00  0.00     0.031 A 
ATOM     84  C   UNL A   1      44.763  27.037  34.932  1.00  0.00     0.131 A 
ATOM     85  C   UNL A   1      47.109  28.491  34.732  1.00  0.00     0.055 A 
ATOM     86  C   UNL A   1      45.857  26.687  35.720  1.00  0.00     0.041 A 
ATOM     87  F   UNL A   1      43.650  26.293  35.039  1.00  0.00    -0.206 F 
ATOM     88  C   UNL A   1      47.043  27.409  35.614  1.00  0.00     0.022 A 
BRANCH  85  89
ATOM     89  S   UNL A   1      48.672  29.378  34.496  1.00  0.00     0.124 S 
ATOM     90  O   UNL A   1      48.498  29.954  33.167  1.00  0.00    -0.237 OA
ATOM     91  O   UNL A   1      48.665  30.325  35.607  1.00  0.00    -0.237 OA
ATOM     92  O   UNL A   1      49.682  28.325  34.589  1.00  0.00    -0.744 OA
ENDBRANCH  85  89
ENDBRANCH  59  82
ENDBRANCH  33  34
ENDBRANCH  26  28
ENDBRANCH  25  26
ENDBRANCH  24  25
ENDBRANCH   1  24
TORSDOF 19
ENDMDL
