MODEL 1
REMARK VINA RESULT:     -11.4      0.000      0.000
REMARK SMILES C[C@@H](Oc1ccc(I)cc1)C(=O)NCc1ccc(C(=O)OCCOC(=O)c2ccc(-c3c4nc(c(-c5cc(S(=O)(=O)[O-])ccc5F)c5ccc([nH]5)c(-c5cc(S(=O)(=O)[O-])ccc5F)c5nc(c(-c6cc(S(=O)(=O)[O-])ccc6F)c6ccc3[nH]6)C=C5)C=C4)cc2)cc1
REMARK SMILES IDX 22 1 21 2 19 3 20 4 18 5 15 6 16 7 91 8 17 9 90 10 14 11
REMARK SMILES IDX 13 12 11 13 12 14 2 16 1 17 3 18 4 19 5 20 10 21 6 22 9 23
REMARK SMILES IDX 7 24 8 25 23 26 24 27 25 28 26 29 27 30 28 31 89 32 29 33
REMARK SMILES IDX 88 34 30 35 31 36 32 37 82 38 33 39 87 40 81 41 83 42 34 43
REMARK SMILES IDX 86 44 80 45 79 46 35 48 67 49 47 50 66 51 48 52 51 53 65 54
REMARK SMILES IDX 84 55 49 56 50 57 64 59 85 60 52 61 36 62 37 63 45 64 38 65
REMARK SMILES IDX 44 66 46 67 43 68 39 69 40 70 41 71 42 72 68 73 69 74 77 75
REMARK SMILES IDX 70 76 76 77 78 78 75 79 71 80 72 81 73 82 74 83 53 84 54 85
REMARK SMILES IDX 62 86 55 87 61 88 63 89 60 90 56 91 57 92 58 93 59 94
REMARK H PARENT 13 15 83 47 51 58
REMARK Flexibility Score: inf
ROOT
ATOM      1  C   UNL A   1      31.307  28.720  24.766  1.00  0.00     0.275 C 
ENDROOT
BRANCH   1   2
ATOM      2  O   UNL A   1      31.844  27.590  25.485  1.00  0.00    -0.458 OA
BRANCH   2   3
ATOM      3  C   UNL A   1      31.032  26.504  25.524  1.00  0.00     0.338 C 
ATOM      4  O   UNL A   1      29.871  26.452  25.153  1.00  0.00    -0.246 OA
BRANCH   3   5
ATOM      5  C   UNL A   1      31.758  25.313  26.020  1.00  0.00     0.060 A 
ATOM      6  C   UNL A   1      33.238  23.047  26.770  1.00  0.00    -0.029 A 
ATOM      7  C   UNL A   1      33.893  24.210  26.356  1.00  0.00     0.006 A 
ATOM      8  C   UNL A   1      31.832  23.038  26.825  1.00  0.00     0.006 A 
ATOM      9  C   UNL A   1      33.156  25.321  25.958  1.00  0.00     0.016 A 
ATOM     10  C   UNL A   1      31.092  24.171  26.468  1.00  0.00     0.016 A 
BRANCH   6  11
ATOM     11  C   UNL A   1      34.031  21.795  27.041  1.00  0.00     0.151 C 
BRANCH  11  12
ATOM     12  N   UNL A   1      33.230  20.587  27.006  1.00  0.00    -0.349 N 
ATOM     13  C   UNL A   1      33.051  19.674  26.009  1.00  0.00     0.261 C 
ATOM     14  O   UNL A   1      32.434  18.639  26.275  1.00  0.00    -0.271 OA
ATOM     15  H   UNL A   1      32.735  20.396  27.835  1.00  0.00     0.163 HD
BRANCH  13  16
ATOM     16  C   UNL A   1      33.540  19.945  24.578  1.00  0.00     0.258 C 
ATOM     17  C   UNL A   1      34.111  18.647  24.014  1.00  0.00     0.064 C 
BRANCH  16  18
ATOM     18  O   UNL A   1      32.433  20.466  23.841  1.00  0.00    -0.481 OA
BRANCH  18  19
ATOM     19  C   UNL A   1      32.589  21.707  23.308  1.00  0.00     0.120 A 
ATOM     20  C   UNL A   1      31.494  22.548  23.131  1.00  0.00     0.047 A 
ATOM     21  C   UNL A   1      33.886  22.197  23.174  1.00  0.00     0.047 A 
ATOM     22  C   UNL A   1      31.692  23.883  22.780  1.00  0.00     0.018 A 
ATOM     23  C   UNL A   1      34.090  23.535  22.832  1.00  0.00     0.018 A 
ATOM     24  C   UNL A   1      32.991  24.373  22.638  1.00  0.00     0.013 A 
ATOM     25  I   UNL A   1      33.287  26.381  22.190  1.00  0.00    -0.044 I 
ENDBRANCH  18  19
ENDBRANCH  16  18
ENDBRANCH  13  16
ENDBRANCH  11  12
ENDBRANCH   6  11
ENDBRANCH   3   5
ENDBRANCH   2   3
ENDBRANCH   1   2
BRANCH   1  26
ATOM     26  C   UNL A   1      31.449  30.003  25.585  1.00  0.00     0.275 C 
BRANCH  26  27
ATOM     27  O   UNL A   1      32.838  30.251  25.859  1.00  0.00    -0.458 OA
BRANCH  27  28
ATOM     28  C   UNL A   1      33.094  31.144  26.846  1.00  0.00     0.338 C 
ATOM     29  O   UNL A   1      32.356  32.037  27.224  1.00  0.00    -0.246 OA
BRANCH  28  30
ATOM     30  C   UNL A   1      34.435  30.887  27.423  1.00  0.00     0.060 A 
ATOM     31  C   UNL A   1      34.859  29.588  27.693  1.00  0.00     0.016 A 
ATOM     32  C   UNL A   1      35.249  31.960  27.784  1.00  0.00     0.016 A 
ATOM     33  C   UNL A   1      36.041  29.357  28.402  1.00  0.00     0.010 A 
ATOM     34  C   UNL A   1      36.487  31.721  28.399  1.00  0.00     0.010 A 
ATOM     35  C   UNL A   1      36.885  30.419  28.755  1.00  0.00    -0.014 A 
BRANCH  35  36
ATOM     36  C   UNL A   1      38.143  30.186  29.537  1.00  0.00     0.031 A 
ATOM     37  C   UNL A   1      39.252  29.342  28.950  1.00  0.00     0.074 A 
ATOM     38  C   UNL A   1      38.317  30.721  30.764  1.00  0.00     0.049 A 
ATOM     39  N   UNL A   1      40.306  28.828  29.533  1.00  0.00    -0.248 NA
ATOM     40  C   UNL A   1      39.142  29.012  27.522  1.00  0.00     0.031 C 
ATOM     41  C   UNL A   1      37.366  31.593  31.457  1.00  0.00     0.029 A 
ATOM     42  N   UNL A   1      39.364  30.615  31.651  1.00  0.00    -0.354 N 
ATOM     43  C   UNL A   1      40.939  28.051  28.566  1.00  0.00     0.074 A 
ATOM     44  C   UNL A   1      40.145  28.162  27.360  1.00  0.00     0.031 C 
ATOM     45  C   UNL A   1      37.893  31.981  32.629  1.00  0.00     0.029 A 
ATOM     46  C   UNL A   1      39.170  31.306  32.826  1.00  0.00     0.049 A 
ATOM     47  H   UNL A   1      40.178  30.092  31.462  1.00  0.00     0.167 HD
ATOM     48  C   UNL A   1      42.072  27.310  28.674  1.00  0.00     0.034 A 
ATOM     49  C   UNL A   1      39.902  31.356  33.957  1.00  0.00     0.034 A 
ATOM     50  C   UNL A   1      42.898  27.265  29.858  1.00  0.00     0.049 A 
ATOM     51  C   UNL A   1      41.153  30.524  34.060  1.00  0.00     0.074 A 
ATOM     52  C   UNL A   1      44.080  26.570  30.062  1.00  0.00     0.029 A 
ATOM     53  N   UNL A   1      42.645  27.960  31.033  1.00  0.00    -0.354 N 
ATOM     54  N   UNL A   1      41.685  29.719  33.170  1.00  0.00    -0.248 NA
ATOM     55  C   UNL A   1      41.888  30.591  35.330  1.00  0.00     0.031 C 
ATOM     56  C   UNL A   1      44.511  26.805  31.373  1.00  0.00     0.029 A 
ATOM     57  C   UNL A   1      43.636  27.696  31.969  1.00  0.00     0.049 A 
ATOM     58  H   UNL A   1      41.874  28.554  31.181  1.00  0.00     0.167 HD
ATOM     59  C   UNL A   1      42.817  29.183  33.776  1.00  0.00     0.074 A 
ATOM     60  C   UNL A   1      42.908  29.779  35.093  1.00  0.00     0.031 C 
ATOM     61  C   UNL A   1      43.700  28.275  33.289  1.00  0.00     0.034 A 
BRANCH  48  62
ATOM     62  C   UNL A   1      42.447  26.433  27.501  1.00  0.00     0.023 A 
ATOM     63  C   UNL A   1      42.013  25.101  27.385  1.00  0.00     0.031 A 
ATOM     64  C   UNL A   1      43.287  26.941  26.491  1.00  0.00     0.131 A 
ATOM     65  C   UNL A   1      42.478  24.304  26.326  1.00  0.00     0.055 A 
ATOM     66  C   UNL A   1      43.681  26.166  25.399  1.00  0.00     0.041 A 
ATOM     67  F   UNL A   1      43.750  28.200  26.557  1.00  0.00    -0.206 F 
ATOM     68  C   UNL A   1      43.288  24.834  25.319  1.00  0.00     0.022 A 
BRANCH  65  69
ATOM     69  S   UNL A   1      42.122  22.525  26.356  1.00  0.00     0.124 S 
ATOM     70  O   UNL A   1      42.697  22.132  27.641  1.00  0.00    -0.237 OA
ATOM     71  O   UNL A   1      40.668  22.493  26.266  1.00  0.00    -0.237 OA
ATOM     72  O   UNL A   1      42.831  22.014  25.184  1.00  0.00    -0.744 OA
ENDBRANCH  65  69
ENDBRANCH  48  62
BRANCH  49  73
ATOM     73  C   UNL A   1      39.432  32.162  35.121  1.00  0.00     0.023 A 
ATOM     74  C   UNL A   1      39.893  33.470  35.334  1.00  0.00     0.031 A 
ATOM     75  C   UNL A   1      38.531  31.619  36.056  1.00  0.00     0.131 A 
ATOM     76  C   UNL A   1      39.471  34.184  36.467  1.00  0.00     0.055 A 
ATOM     77  C   UNL A   1      38.075  32.351  37.152  1.00  0.00     0.041 A 
ATOM     78  F   UNL A   1      38.062  30.370  35.901  1.00  0.00    -0.206 F 
ATOM     79  C   UNL A   1      38.553  33.639  37.368  1.00  0.00     0.022 A 
BRANCH  76  80
ATOM     80  S   UNL A   1      40.188  35.820  36.783  1.00  0.00     0.124 S 
ATOM     81  O   UNL A   1      41.618  35.533  36.739  1.00  0.00    -0.237 OA
ATOM     82  O   UNL A   1      39.657  36.605  35.674  1.00  0.00    -0.237 OA
ATOM     83  O   UNL A   1      39.662  36.173  38.101  1.00  0.00    -0.744 OA
ENDBRANCH  76  80
ENDBRANCH  49  73
BRANCH  61  84
ATOM     84  C   UNL A   1      44.849  27.899  34.187  1.00  0.00     0.023 A 
ATOM     85  C   UNL A   1      44.756  26.825  35.090  1.00  0.00     0.031 A 
ATOM     86  C   UNL A   1      46.040  28.647  34.166  1.00  0.00     0.131 A 
ATOM     87  C   UNL A   1      45.815  26.560  35.972  1.00  0.00     0.055 A 
ATOM     88  C   UNL A   1      47.109  28.348  35.012  1.00  0.00     0.041 A 
ATOM     89  F   UNL A   1      46.179  29.684  33.325  1.00  0.00    -0.206 F 
ATOM     90  C   UNL A   1      46.995  27.308  35.931  1.00  0.00     0.022 A 
BRANCH  87  91
ATOM     91  S   UNL A   1      45.597  25.280  37.239  1.00  0.00     0.124 S 
ATOM     92  O   UNL A   1      46.079  25.955  38.439  1.00  0.00    -0.237 OA
ATOM     93  O   UNL A   1      44.161  25.027  37.183  1.00  0.00    -0.237 OA
ATOM     94  O   UNL A   1      46.437  24.181  36.766  1.00  0.00    -0.744 OA
ENDBRANCH  87  91
ENDBRANCH  61  84
ENDBRANCH  35  36
ENDBRANCH  28  30
ENDBRANCH  27  28
ENDBRANCH  26  27
ENDBRANCH   1  26
TORSDOF 19
ENDMDL
MODEL 2
REMARK VINA RESULT:     -11.2      4.919      7.582
REMARK SMILES C[C@@H](Oc1ccc(I)cc1)C(=O)NCc1ccc(C(=O)OCCOC(=O)c2ccc(-c3c4nc(c(-c5cc(S(=O)(=O)[O-])ccc5F)c5ccc([nH]5)c(-c5cc(S(=O)(=O)[O-])ccc5F)c5nc(c(-c6cc(S(=O)(=O)[O-])ccc6F)c6ccc3[nH]6)C=C5)C=C4)cc2)cc1
REMARK SMILES IDX 22 1 21 2 19 3 20 4 18 5 15 6 16 7 91 8 17 9 90 10 14 11
REMARK SMILES IDX 13 12 11 13 12 14 2 16 1 17 3 18 4 19 5 20 10 21 6 22 9 23
REMARK SMILES IDX 7 24 8 25 23 26 24 27 25 28 26 29 27 30 28 31 89 32 29 33
REMARK SMILES IDX 88 34 30 35 31 36 32 37 82 38 33 39 87 40 81 41 83 42 34 43
REMARK SMILES IDX 86 44 80 45 79 46 35 48 67 49 47 50 66 51 48 52 51 53 65 54
REMARK SMILES IDX 84 55 49 56 50 57 64 59 85 60 52 61 36 62 37 63 45 64 38 65
REMARK SMILES IDX 44 66 46 67 43 68 39 69 40 70 41 71 42 72 68 73 69 74 77 75
REMARK SMILES IDX 70 76 76 77 78 78 75 79 71 80 72 81 73 82 74 83 53 84 54 85
REMARK SMILES IDX 62 86 55 87 61 88 63 89 60 90 56 91 57 92 58 93 59 94
REMARK H PARENT 13 15 83 47 51 58
REMARK Flexibility Score: inf
ROOT
ATOM      1  C   UNL A   1      35.774  19.785  24.793  1.00  0.00     0.275 C 
ENDROOT
BRANCH   1   2
ATOM      2  O   UNL A   1      35.379  21.169  24.689  1.00  0.00    -0.458 OA
BRANCH   2   3
ATOM      3  C   UNL A   1      34.114  21.365  24.240  1.00  0.00     0.338 C 
ATOM      4  O   UNL A   1      33.174  20.597  24.358  1.00  0.00    -0.246 OA
BRANCH   3   5
ATOM      5  C   UNL A   1      33.969  22.704  23.625  1.00  0.00     0.060 A 
ATOM      6  C   UNL A   1      33.693  25.328  22.660  1.00  0.00    -0.029 A 
ATOM      7  C   UNL A   1      34.766  24.992  23.490  1.00  0.00     0.006 A 
ATOM      8  C   UNL A   1      32.769  24.328  22.301  1.00  0.00     0.006 A 
ATOM      9  C   UNL A   1      34.884  23.699  23.989  1.00  0.00     0.016 A 
ATOM     10  C   UNL A   1      32.913  23.017  22.767  1.00  0.00     0.016 A 
BRANCH   6  11
ATOM     11  C   UNL A   1      33.476  26.763  22.256  1.00  0.00     0.151 C 
BRANCH  11  12
ATOM     12  N   UNL A   1      32.109  27.051  21.866  1.00  0.00    -0.349 N 
ATOM     13  C   UNL A   1      31.094  27.634  22.567  1.00  0.00     0.261 C 
ATOM     14  O   UNL A   1      30.056  27.910  21.959  1.00  0.00    -0.271 OA
ATOM     15  H   UNL A   1      31.877  26.782  20.948  1.00  0.00     0.163 HD
BRANCH  13  16
ATOM     16  C   UNL A   1      31.203  27.881  24.078  1.00  0.00     0.258 C 
ATOM     17  C   UNL A   1      30.896  29.351  24.346  1.00  0.00     0.064 C 
BRANCH  16  18
ATOM     18  O   UNL A   1      30.313  26.969  24.725  1.00  0.00    -0.481 OA
BRANCH  18  19
ATOM     19  C   UNL A   1      30.885  26.017  25.509  1.00  0.00     0.120 A 
ATOM     20  C   UNL A   1      30.303  24.758  25.635  1.00  0.00     0.047 A 
ATOM     21  C   UNL A   1      32.174  26.250  25.980  1.00  0.00     0.047 A 
ATOM     22  C   UNL A   1      31.001  23.731  26.270  1.00  0.00     0.018 A 
ATOM     23  C   UNL A   1      32.880  25.224  26.607  1.00  0.00     0.018 A 
ATOM     24  C   UNL A   1      32.291  23.966  26.748  1.00  0.00     0.013 A 
ATOM     25  I   UNL A   1      33.359  22.415  27.626  1.00  0.00    -0.044 I 
ENDBRANCH  18  19
ENDBRANCH  16  18
ENDBRANCH  13  16
ENDBRANCH  11  12
ENDBRANCH   6  11
ENDBRANCH   3   5
ENDBRANCH   2   3
ENDBRANCH   1   2
BRANCH   1  26
ATOM     26  C   UNL A   1      37.294  19.661  24.915  1.00  0.00     0.275 C 
BRANCH  26  27
ATOM     27  O   UNL A   1      37.839  20.884  25.434  1.00  0.00    -0.458 OA
BRANCH  27  28
ATOM     28  C   UNL A   1      39.086  20.799  25.957  1.00  0.00     0.338 C 
ATOM     29  O   UNL A   1      39.764  19.791  26.053  1.00  0.00    -0.246 OA
BRANCH  28  30
ATOM     30  C   UNL A   1      39.535  22.136  26.415  1.00  0.00     0.060 A 
ATOM     31  C   UNL A   1      38.789  23.276  26.124  1.00  0.00     0.016 A 
ATOM     32  C   UNL A   1      40.760  22.268  27.067  1.00  0.00     0.016 A 
ATOM     33  C   UNL A   1      39.300  24.549  26.395  1.00  0.00     0.010 A 
ATOM     34  C   UNL A   1      41.221  23.541  27.435  1.00  0.00     0.010 A 
ATOM     35  C   UNL A   1      40.519  24.705  27.069  1.00  0.00    -0.014 A 
BRANCH  35  36
ATOM     36  C   UNL A   1      41.088  26.065  27.343  1.00  0.00     0.031 A 
ATOM     37  C   UNL A   1      42.428  26.454  26.761  1.00  0.00     0.074 A 
ATOM     38  C   UNL A   1      40.425  26.964  28.101  1.00  0.00     0.049 A 
ATOM     39  N   UNL A   1      43.202  27.470  27.055  1.00  0.00    -0.248 NA
ATOM     40  C   UNL A   1      42.981  25.563  25.731  1.00  0.00     0.031 C 
ATOM     41  C   UNL A   1      39.105  26.765  28.701  1.00  0.00     0.029 A 
ATOM     42  N   UNL A   1      40.771  28.237  28.493  1.00  0.00    -0.354 N 
ATOM     43  C   UNL A   1      44.363  27.296  26.306  1.00  0.00     0.074 A 
ATOM     44  C   UNL A   1      44.191  26.074  25.549  1.00  0.00     0.031 C 
ATOM     45  C   UNL A   1      38.733  27.887  29.337  1.00  0.00     0.029 A 
ATOM     46  C   UNL A   1      39.826  28.851  29.284  1.00  0.00     0.049 A 
ATOM     47  H   UNL A   1      41.617  28.670  28.231  1.00  0.00     0.167 HD
ATOM     48  C   UNL A   1      45.472  28.079  26.259  1.00  0.00     0.034 A 
ATOM     49  C   UNL A   1      39.847  30.029  29.940  1.00  0.00     0.034 A 
ATOM     50  C   UNL A   1      45.605  29.335  26.960  1.00  0.00     0.049 A 
ATOM     51  C   UNL A   1      41.087  30.881  29.879  1.00  0.00     0.074 A 
ATOM     52  C   UNL A   1      46.673  30.218  26.958  1.00  0.00     0.029 A 
ATOM     53  N   UNL A   1      44.632  29.901  27.773  1.00  0.00    -0.354 N 
ATOM     54  N   UNL A   1      42.213  30.656  29.245  1.00  0.00    -0.248 NA
ATOM     55  C   UNL A   1      41.064  32.136  30.643  1.00  0.00     0.031 C 
ATOM     56  C   UNL A   1      46.366  31.288  27.806  1.00  0.00     0.029 A 
ATOM     57  C   UNL A   1      45.081  31.109  28.289  1.00  0.00     0.049 A 
ATOM     58  H   UNL A   1      43.750  29.503  27.956  1.00  0.00     0.167 HD
ATOM     59  C   UNL A   1      43.034  31.741  29.536  1.00  0.00     0.074 A 
ATOM     60  C   UNL A   1      42.263  32.634  30.377  1.00  0.00     0.031 C 
ATOM     61  C   UNL A   1      44.312  31.976  29.148  1.00  0.00     0.034 A 
BRANCH  48  62
ATOM     62  C   UNL A   1      46.657  27.564  25.474  1.00  0.00     0.023 A 
ATOM     63  C   UNL A   1      46.950  28.007  24.172  1.00  0.00     0.031 A 
ATOM     64  C   UNL A   1      47.494  26.582  26.038  1.00  0.00     0.131 A 
ATOM     65  C   UNL A   1      48.003  27.418  23.454  1.00  0.00     0.055 A 
ATOM     66  C   UNL A   1      48.588  26.057  25.346  1.00  0.00     0.041 A 
ATOM     67  F   UNL A   1      47.253  26.105  27.270  1.00  0.00    -0.206 F 
ATOM     68  C   UNL A   1      48.838  26.465  24.040  1.00  0.00     0.022 A 
BRANCH  65  69
ATOM     69  S   UNL A   1      48.180  27.813  21.691  1.00  0.00     0.124 S 
ATOM     70  O   UNL A   1      46.886  28.423  21.395  1.00  0.00    -0.237 OA
ATOM     71  O   UNL A   1      49.329  28.709  21.684  1.00  0.00    -0.237 OA
ATOM     72  O   UNL A   1      48.402  26.508  21.069  1.00  0.00    -0.744 OA
ENDBRANCH  65  69
ENDBRANCH  48  62
BRANCH  49  73
ATOM     73  C   UNL A   1      38.686  30.442  30.781  1.00  0.00     0.023 A 
ATOM     74  C   UNL A   1      37.618  31.174  30.238  1.00  0.00     0.031 A 
ATOM     75  C   UNL A   1      38.644  30.131  32.153  1.00  0.00     0.131 A 
ATOM     76  C   UNL A   1      36.565  31.591  31.068  1.00  0.00     0.055 A 
ATOM     77  C   UNL A   1      37.571  30.504  32.961  1.00  0.00     0.041 A 
ATOM     78  F   UNL A   1      39.642  29.435  32.722  1.00  0.00    -0.206 F 
ATOM     79  C   UNL A   1      36.526  31.247  32.421  1.00  0.00     0.022 A 
BRANCH  76  80
ATOM     80  S   UNL A   1      35.269  32.649  30.365  1.00  0.00     0.124 S 
ATOM     81  O   UNL A   1      34.819  31.853  29.228  1.00  0.00    -0.237 OA
ATOM     82  O   UNL A   1      34.334  32.764  31.478  1.00  0.00    -0.237 OA
ATOM     83  O   UNL A   1      35.981  33.879  30.024  1.00  0.00    -0.744 OA
ENDBRANCH  76  80
ENDBRANCH  49  73
BRANCH  61  84
ATOM     84  C   UNL A   1      44.936  33.265  29.617  1.00  0.00     0.023 A 
ATOM     85  C   UNL A   1      44.826  34.450  28.868  1.00  0.00     0.031 A 
ATOM     86  C   UNL A   1      45.681  33.301  30.809  1.00  0.00     0.131 A 
ATOM     87  C   UNL A   1      45.494  35.609  29.292  1.00  0.00     0.055 A 
ATOM     88  C   UNL A   1      46.303  34.468  31.251  1.00  0.00     0.041 A 
ATOM     89  F   UNL A   1      45.820  32.196  31.560  1.00  0.00    -0.206 F 
ATOM     90  C   UNL A   1      46.222  35.629  30.485  1.00  0.00     0.022 A 
BRANCH  87  91
ATOM     91  S   UNL A   1      45.474  37.071  28.218  1.00  0.00     0.124 S 
ATOM     92  O   UNL A   1      46.431  37.950  28.883  1.00  0.00    -0.237 OA
ATOM     93  O   UNL A   1      45.899  36.521  26.935  1.00  0.00    -0.237 OA
ATOM     94  O   UNL A   1      44.084  37.517  28.270  1.00  0.00    -0.744 OA
ENDBRANCH  87  91
ENDBRANCH  61  84
ENDBRANCH  35  36
ENDBRANCH  28  30
ENDBRANCH  27  28
ENDBRANCH  26  27
ENDBRANCH   1  26
TORSDOF 19
ENDMDL
MODEL 3
REMARK VINA RESULT:     -11.2      4.283      6.959
REMARK SMILES C[C@@H](Oc1ccc(I)cc1)C(=O)NCc1ccc(C(=O)OCCOC(=O)c2ccc(-c3c4nc(c(-c5cc(S(=O)(=O)[O-])ccc5F)c5ccc([nH]5)c(-c5cc(S(=O)(=O)[O-])ccc5F)c5nc(c(-c6cc(S(=O)(=O)[O-])ccc6F)c6ccc3[nH]6)C=C5)C=C4)cc2)cc1
REMARK SMILES IDX 22 1 21 2 19 3 20 4 18 5 15 6 16 7 91 8 17 9 90 10 14 11
REMARK SMILES IDX 13 12 11 13 12 14 2 16 1 17 3 18 4 19 5 20 10 21 6 22 9 23
REMARK SMILES IDX 7 24 8 25 23 26 24 27 25 28 26 29 27 30 28 31 89 32 29 33
REMARK SMILES IDX 88 34 30 35 31 36 32 37 82 38 33 39 87 40 81 41 83 42 34 43
REMARK SMILES IDX 86 44 80 45 79 46 35 48 67 49 47 50 66 51 48 52 51 53 65 54
REMARK SMILES IDX 84 55 49 56 50 57 64 59 85 60 52 61 36 62 37 63 45 64 38 65
REMARK SMILES IDX 44 66 46 67 43 68 39 69 40 70 41 71 42 72 68 73 69 74 77 75
REMARK SMILES IDX 70 76 76 77 78 78 75 79 71 80 72 81 73 82 74 83 53 84 54 85
REMARK SMILES IDX 62 86 55 87 61 88 63 89 60 90 56 91 57 92 58 93 59 94
REMARK H PARENT 13 15 83 47 51 58
REMARK Flexibility Score: inf
ROOT
ATOM      1  C   UNL A   1      36.012  20.581  25.058  1.00  0.00     0.275 C 
ENDROOT
BRANCH   1   2
ATOM      2  O   UNL A   1      35.811  21.960  25.432  1.00  0.00    -0.458 OA
BRANCH   2   3
ATOM      3  C   UNL A   1      34.824  22.164  26.341  1.00  0.00     0.338 C 
ATOM      4  O   UNL A   1      34.536  21.435  27.275  1.00  0.00    -0.246 OA
BRANCH   3   5
ATOM      5  C   UNL A   1      34.149  23.461  26.111  1.00  0.00     0.060 A 
ATOM      6  C   UNL A   1      33.038  26.018  25.769  1.00  0.00    -0.029 A 
ATOM      7  C   UNL A   1      34.301  25.724  25.249  1.00  0.00     0.006 A 
ATOM      8  C   UNL A   1      32.326  25.009  26.445  1.00  0.00     0.006 A 
ATOM      9  C   UNL A   1      34.861  24.466  25.445  1.00  0.00     0.016 A 
ATOM     10  C   UNL A   1      32.870  23.729  26.602  1.00  0.00     0.016 A 
BRANCH   6  11
ATOM     11  C   UNL A   1      32.506  27.426  25.700  1.00  0.00     0.151 C 
BRANCH  11  12
ATOM     12  N   UNL A   1      32.937  28.147  24.518  1.00  0.00    -0.349 N 
ATOM     13  C   UNL A   1      32.284  28.388  23.344  1.00  0.00     0.261 C 
ATOM     14  O   UNL A   1      32.809  29.164  22.540  1.00  0.00    -0.271 OA
ATOM     15  H   UNL A   1      33.845  28.523  24.571  1.00  0.00     0.163 HD
BRANCH  13  16
ATOM     16  C   UNL A   1      30.973  27.670  22.995  1.00  0.00     0.258 C 
ATOM     17  C   UNL A   1      29.967  28.715  22.522  1.00  0.00     0.064 C 
BRANCH  16  18
ATOM     18  O   UNL A   1      31.281  26.670  22.021  1.00  0.00    -0.481 OA
BRANCH  18  19
ATOM     19  C   UNL A   1      31.592  25.436  22.497  1.00  0.00     0.120 A 
ATOM     20  C   UNL A   1      30.655  24.692  23.209  1.00  0.00     0.047 A 
ATOM     21  C   UNL A   1      32.772  24.845  22.050  1.00  0.00     0.047 A 
ATOM     22  C   UNL A   1      30.913  23.355  23.512  1.00  0.00     0.018 A 
ATOM     23  C   UNL A   1      33.030  23.506  22.342  1.00  0.00     0.018 A 
ATOM     24  C   UNL A   1      32.098  22.765  23.070  1.00  0.00     0.013 A 
ATOM     25  I   UNL A   1      32.448  20.753  23.454  1.00  0.00    -0.044 I 
ENDBRANCH  18  19
ENDBRANCH  16  18
ENDBRANCH  13  16
ENDBRANCH  11  12
ENDBRANCH   6  11
ENDBRANCH   3   5
ENDBRANCH   2   3
ENDBRANCH   1   2
BRANCH   1  26
ATOM     26  C   UNL A   1      37.493  20.207  25.133  1.00  0.00     0.275 C 
BRANCH  26  27
ATOM     27  O   UNL A   1      38.281  21.391  25.341  1.00  0.00    -0.458 OA
BRANCH  27  28
ATOM     28  C   UNL A   1      39.281  21.282  26.248  1.00  0.00     0.338 C 
ATOM     29  O   UNL A   1      39.796  20.248  26.638  1.00  0.00    -0.246 OA
BRANCH  28  30
ATOM     30  C   UNL A   1      39.679  22.627  26.726  1.00  0.00     0.060 A 
ATOM     31  C   UNL A   1      39.060  23.772  26.228  1.00  0.00     0.016 A 
ATOM     32  C   UNL A   1      40.743  22.758  27.617  1.00  0.00     0.016 A 
ATOM     33  C   UNL A   1      39.557  25.041  26.539  1.00  0.00     0.010 A 
ATOM     34  C   UNL A   1      41.170  24.034  28.013  1.00  0.00     0.010 A 
ATOM     35  C   UNL A   1      40.611  25.197  27.450  1.00  0.00    -0.014 A 
BRANCH  35  36
ATOM     36  C   UNL A   1      41.167  26.552  27.772  1.00  0.00     0.031 A 
ATOM     37  C   UNL A   1      42.569  26.916  27.338  1.00  0.00     0.074 A 
ATOM     38  C   UNL A   1      40.439  27.469  28.444  1.00  0.00     0.049 A 
ATOM     39  N   UNL A   1      43.320  27.924  27.706  1.00  0.00    -0.248 NA
ATOM     40  C   UNL A   1      43.219  26.007  26.384  1.00  0.00     0.031 C 
ATOM     41  C   UNL A   1      39.057  27.294  28.897  1.00  0.00     0.029 A 
ATOM     42  N   UNL A   1      40.758  28.740  28.860  1.00  0.00    -0.354 N 
ATOM     43  C   UNL A   1      44.555  27.727  27.092  1.00  0.00     0.074 A 
ATOM     44  C   UNL A   1      44.448  26.499  26.331  1.00  0.00     0.031 C 
ATOM     45  C   UNL A   1      38.635  28.428  29.478  1.00  0.00     0.029 A 
ATOM     46  C   UNL A   1      39.741  29.376  29.537  1.00  0.00     0.049 A 
ATOM     47  H   UNL A   1      41.634  29.158  28.690  1.00  0.00     0.167 HD
ATOM     48  C   UNL A   1      45.674  28.493  27.160  1.00  0.00     0.034 A 
ATOM     49  C   UNL A   1      39.708  30.560  30.181  1.00  0.00     0.034 A 
ATOM     50  C   UNL A   1      45.747  29.755  27.860  1.00  0.00     0.049 A 
ATOM     51  C   UNL A   1      40.959  31.395  30.250  1.00  0.00     0.074 A 
ATOM     52  C   UNL A   1      46.823  30.622  27.967  1.00  0.00     0.029 A 
ATOM     53  N   UNL A   1      44.699  30.342  28.555  1.00  0.00    -0.354 N 
ATOM     54  N   UNL A   1      42.145  31.147  29.745  1.00  0.00    -0.248 NA
ATOM     55  C   UNL A   1      40.871  32.657  30.995  1.00  0.00     0.031 C 
ATOM     56  C   UNL A   1      46.440  31.706  28.767  1.00  0.00     0.029 A 
ATOM     57  C   UNL A   1      45.107  31.549  29.107  1.00  0.00     0.049 A 
ATOM     58  H   UNL A   1      43.797  29.959  28.644  1.00  0.00     0.167 HD
ATOM     59  C   UNL A   1      42.945  32.224  30.115  1.00  0.00     0.074 A 
ATOM     60  C   UNL A   1      42.099  33.136  30.858  1.00  0.00     0.031 C 
ATOM     61  C   UNL A   1      44.262  32.436  29.868  1.00  0.00     0.034 A 
BRANCH  48  62
ATOM     62  C   UNL A   1      46.929  27.954  26.515  1.00  0.00     0.023 A 
ATOM     63  C   UNL A   1      47.205  28.118  25.146  1.00  0.00     0.031 A 
ATOM     64  C   UNL A   1      47.857  27.231  27.289  1.00  0.00     0.131 A 
ATOM     65  C   UNL A   1      48.337  27.506  24.582  1.00  0.00     0.055 A 
ATOM     66  C   UNL A   1      49.021  26.693  26.737  1.00  0.00     0.041 A 
ATOM     67  F   UNL A   1      47.639  27.024  28.598  1.00  0.00    -0.206 F 
ATOM     68  C   UNL A   1      49.259  26.817  25.373  1.00  0.00     0.022 A 
BRANCH  65  69
ATOM     69  S   UNL A   1      48.516  27.505  22.777  1.00  0.00     0.124 S 
ATOM     70  O   UNL A   1      48.504  26.075  22.481  1.00  0.00    -0.237 OA
ATOM     71  O   UNL A   1      47.347  28.261  22.344  1.00  0.00    -0.237 OA
ATOM     72  O   UNL A   1      49.802  28.168  22.560  1.00  0.00    -0.744 OA
ENDBRANCH  65  69
ENDBRANCH  48  62
BRANCH  49  73
ATOM     73  C   UNL A   1      38.467  30.998  30.885  1.00  0.00     0.023 A 
ATOM     74  C   UNL A   1      37.506  31.792  30.240  1.00  0.00     0.031 A 
ATOM     75  C   UNL A   1      38.241  30.648  32.229  1.00  0.00     0.131 A 
ATOM     76  C   UNL A   1      36.375  32.231  30.947  1.00  0.00     0.055 A 
ATOM     77  C   UNL A   1      37.090  31.043  32.910  1.00  0.00     0.041 A 
ATOM     78  F   UNL A   1      39.131  29.892  32.893  1.00  0.00    -0.206 F 
ATOM     79  C   UNL A   1      36.153  31.848  32.272  1.00  0.00     0.022 A 
BRANCH  76  80
ATOM     80  S   UNL A   1      35.221  33.365  30.126  1.00  0.00     0.124 S 
ATOM     81  O   UNL A   1      34.681  34.111  31.257  1.00  0.00    -0.237 OA
ATOM     82  O   UNL A   1      36.104  34.104  29.232  1.00  0.00    -0.237 OA
ATOM     83  O   UNL A   1      34.277  32.467  29.462  1.00  0.00    -0.744 OA
ENDBRANCH  76  80
ENDBRANCH  49  73
BRANCH  61  84
ATOM     84  C   UNL A   1      44.849  33.722  30.391  1.00  0.00     0.023 A 
ATOM     85  C   UNL A   1      45.431  33.798  31.669  1.00  0.00     0.031 A 
ATOM     86  C   UNL A   1      44.795  34.893  29.616  1.00  0.00     0.131 A 
ATOM     87  C   UNL A   1      45.888  35.032  32.156  1.00  0.00     0.055 A 
ATOM     88  C   UNL A   1      45.296  36.108  30.086  1.00  0.00     0.041 A 
ATOM     89  F   UNL A   1      44.247  34.876  28.390  1.00  0.00    -0.206 F 
ATOM     90  C   UNL A   1      45.834  36.185  31.368  1.00  0.00     0.022 A 
BRANCH  87  91
ATOM     91  S   UNL A   1      46.474  35.132  33.870  1.00  0.00     0.124 S 
ATOM     92  O   UNL A   1      47.534  36.131  33.771  1.00  0.00    -0.237 OA
ATOM     93  O   UNL A   1      45.273  35.547  34.587  1.00  0.00    -0.237 OA
ATOM     94  O   UNL A   1      46.929  33.773  34.158  1.00  0.00    -0.744 OA
ENDBRANCH  87  91
ENDBRANCH  61  84
ENDBRANCH  35  36
ENDBRANCH  28  30
ENDBRANCH  27  28
ENDBRANCH  26  27
ENDBRANCH   1  26
TORSDOF 19
ENDMDL
