MODEL 1
REMARK VINA RESULT:     -11.0      0.000      0.000
REMARK SMILES O=C(OCCOC(=O)c1ccc(OCc2sccc2Br)cn1)c1ccc(-c2c3nc(c(-c4cc(S(=O)(=O)[O-])ccc4F)c4ccc([nH]4)c(-c4cc(S(=O)(=O)[O-])ccc4F)c4nc(c(-c5cc(S(=O)(=O)[O-])ccc5F)c5ccc2[nH]5)C=C4)C=C3)cc1
REMARK SMILES IDX 4 1 3 2 2 3 1 4 23 5 24 6 85 7 25 8 84 9 26 10 27 11 28 12
REMARK SMILES IDX 78 13 29 14 83 15 77 16 79 17 30 18 82 19 76 20 75 21 31 23
REMARK SMILES IDX 63 24 43 25 62 26 44 27 47 28 61 29 80 30 45 31 46 32 60 34
REMARK SMILES IDX 81 35 48 36 32 37 33 38 41 39 34 40 40 41 42 42 39 43 35 44
REMARK SMILES IDX 36 45 37 46 38 47 64 48 65 49 73 50 66 51 72 52 74 53 71 54
REMARK SMILES IDX 67 55 68 56 69 57 70 58 49 59 50 60 58 61 51 62 57 63 59 64
REMARK SMILES IDX 56 65 52 66 53 67 54 68 55 69 5 70 6 71 7 72 8 73 9 74 10 75
REMARK SMILES IDX 22 76 11 77 21 78 12 79 13 80 14 81 15 82 16 83 19 84 17 85
REMARK SMILES IDX 18 86 20 87
REMARK H PARENT 79 22 47 33
REMARK Flexibility Score: inf
ROOT
ATOM      1  C   UNL A   1      32.762  31.257  26.968  1.00  0.00     0.275 C 
ENDROOT
BRANCH   1   2
ATOM      2  O   UNL A   1      32.429  32.612  27.301  1.00  0.00    -0.458 OA
BRANCH   2   3
ATOM      3  C   UNL A   1      33.128  33.443  28.116  1.00  0.00     0.338 C 
ATOM      4  O   UNL A   1      32.735  34.595  28.288  1.00  0.00    -0.246 OA
BRANCH   3   5
ATOM      5  C   UNL A   1      34.471  33.061  28.648  1.00  0.00     0.060 A 
ATOM      6  C   UNL A   1      35.707  33.429  28.105  1.00  0.00     0.016 A 
ATOM      7  C   UNL A   1      34.470  32.234  29.777  1.00  0.00     0.016 A 
ATOM      8  C   UNL A   1      36.911  33.077  28.733  1.00  0.00     0.010 A 
ATOM      9  C   UNL A   1      35.668  31.869  30.398  1.00  0.00     0.010 A 
ATOM     10  C   UNL A   1      36.901  32.304  29.893  1.00  0.00    -0.014 A 
BRANCH  10  11
ATOM     11  C   UNL A   1      38.163  31.829  30.513  1.00  0.00     0.031 A 
ATOM     12  C   UNL A   1      38.911  30.720  29.835  1.00  0.00     0.074 A 
ATOM     13  C   UNL A   1      38.593  32.328  31.691  1.00  0.00     0.049 A 
ATOM     14  N   UNL A   1      39.964  30.061  30.238  1.00  0.00    -0.248 NA
ATOM     15  C   UNL A   1      38.407  30.305  28.514  1.00  0.00     0.031 C 
ATOM     16  C   UNL A   1      37.987  33.454  32.398  1.00  0.00     0.029 A 
ATOM     17  N   UNL A   1      39.600  31.919  32.533  1.00  0.00    -0.354 N 
ATOM     18  C   UNL A   1      40.244  29.148  29.229  1.00  0.00     0.074 A 
ATOM     19  C   UNL A   1      39.241  29.326  28.202  1.00  0.00     0.031 C 
ATOM     20  C   UNL A   1      38.550  33.568  33.614  1.00  0.00     0.029 A 
ATOM     21  C   UNL A   1      39.550  32.518  33.776  1.00  0.00     0.049 A 
ATOM     22  H   UNL A   1      40.288  31.263  32.276  1.00  0.00     0.167 HD
ATOM     23  C   UNL A   1      41.244  28.238  29.177  1.00  0.00     0.034 A 
ATOM     24  C   UNL A   1      40.187  32.206  34.925  1.00  0.00     0.034 A 
ATOM     25  C   UNL A   1      42.180  28.029  30.250  1.00  0.00     0.049 A 
ATOM     26  C   UNL A   1      41.216  31.092  34.890  1.00  0.00     0.074 A 
ATOM     27  C   UNL A   1      43.246  27.151  30.306  1.00  0.00     0.029 A 
ATOM     28  N   UNL A   1      42.129  28.676  31.480  1.00  0.00    -0.354 N 
ATOM     29  N   UNL A   1      41.591  30.352  33.869  1.00  0.00    -0.248 NA
ATOM     30  C   UNL A   1      41.914  30.773  36.143  1.00  0.00     0.031 C 
ATOM     31  C   UNL A   1      43.773  27.192  31.601  1.00  0.00     0.029 A 
ATOM     32  C   UNL A   1      43.086  28.150  32.331  1.00  0.00     0.049 A 
ATOM     33  H   UNL A   1      41.506  29.403  31.711  1.00  0.00     0.167 HD
ATOM     34  C   UNL A   1      42.586  29.508  34.354  1.00  0.00     0.074 A 
ATOM     35  C   UNL A   1      42.770  29.840  35.750  1.00  0.00     0.031 C 
ATOM     36  C   UNL A   1      43.277  28.532  33.709  1.00  0.00     0.034 A 
BRANCH  23  37
ATOM     37  C   UNL A   1      41.309  27.358  27.956  1.00  0.00     0.023 A 
ATOM     38  C   UNL A   1      40.930  26.005  28.005  1.00  0.00     0.031 A 
ATOM     39  C   UNL A   1      41.798  27.866  26.740  1.00  0.00     0.131 A 
ATOM     40  C   UNL A   1      41.106  25.191  26.876  1.00  0.00     0.055 A 
ATOM     41  C   UNL A   1      41.902  27.067  25.600  1.00  0.00     0.041 A 
ATOM     42  F   UNL A   1      42.202  29.143  26.647  1.00  0.00    -0.206 F 
ATOM     43  C   UNL A   1      41.567  25.717  25.668  1.00  0.00     0.022 A 
BRANCH  40  44
ATOM     44  S   UNL A   1      40.830  23.406  27.044  1.00  0.00     0.124 S 
ATOM     45  O   UNL A   1      41.349  23.153  28.386  1.00  0.00    -0.237 OA
ATOM     46  O   UNL A   1      39.383  23.292  26.890  1.00  0.00    -0.237 OA
ATOM     47  O   UNL A   1      41.619  22.833  25.956  1.00  0.00    -0.744 OA
ENDBRANCH  40  44
ENDBRANCH  23  37
BRANCH  24  48
ATOM     48  C   UNL A   1      39.800  32.842  36.227  1.00  0.00     0.023 A 
ATOM     49  C   UNL A   1      38.859  32.263  37.092  1.00  0.00     0.031 A 
ATOM     50  C   UNL A   1      40.276  34.127  36.561  1.00  0.00     0.131 A 
ATOM     51  C   UNL A   1      38.353  33.000  38.177  1.00  0.00     0.055 A 
ATOM     52  C   UNL A   1      39.796  34.843  37.659  1.00  0.00     0.041 A 
ATOM     53  F   UNL A   1      41.218  34.719  35.811  1.00  0.00    -0.206 F 
ATOM     54  C   UNL A   1      38.809  34.290  38.461  1.00  0.00     0.022 A 
BRANCH  51  55
ATOM     55  S   UNL A   1      36.997  32.291  39.154  1.00  0.00     0.124 S 
ATOM     56  O   UNL A   1      37.252  32.863  40.471  1.00  0.00    -0.237 OA
ATOM     57  O   UNL A   1      35.826  32.800  38.447  1.00  0.00    -0.237 OA
ATOM     58  O   UNL A   1      37.214  30.851  39.042  1.00  0.00    -0.744 OA
ENDBRANCH  51  55
ENDBRANCH  24  48
BRANCH  36  59
ATOM     59  C   UNL A   1      44.342  27.804  34.490  1.00  0.00     0.023 A 
ATOM     60  C   UNL A   1      44.096  26.560  35.093  1.00  0.00     0.031 A 
ATOM     61  C   UNL A   1      45.637  28.344  34.581  1.00  0.00     0.131 A 
ATOM     62  C   UNL A   1      45.127  25.906  35.785  1.00  0.00     0.055 A 
ATOM     63  C   UNL A   1      46.671  27.666  35.227  1.00  0.00     0.041 A 
ATOM     64  F   UNL A   1      45.922  29.530  34.021  1.00  0.00    -0.206 F 
ATOM     65  C   UNL A   1      46.415  26.442  35.839  1.00  0.00     0.022 A 
BRANCH  62  66
ATOM     66  S   UNL A   1      44.746  24.365  36.661  1.00  0.00     0.124 S 
ATOM     67  O   UNL A   1      43.624  23.845  35.888  1.00  0.00    -0.237 OA
ATOM     68  O   UNL A   1      45.999  23.625  36.546  1.00  0.00    -0.237 OA
ATOM     69  O   UNL A   1      44.415  24.813  38.012  1.00  0.00    -0.744 OA
ENDBRANCH  62  66
ENDBRANCH  36  59
ENDBRANCH  10  11
ENDBRANCH   3   5
ENDBRANCH   2   3
ENDBRANCH   1   2
BRANCH   1  70
ATOM     70  C   UNL A   1      31.788  30.576  26.001  1.00  0.00     0.275 C 
BRANCH  70  71
ATOM     71  O   UNL A   1      32.392  29.539  25.214  1.00  0.00    -0.457 OA
BRANCH  71  72
ATOM     72  C   UNL A   1      31.542  28.865  24.386  1.00  0.00     0.357 C 
ATOM     73  O   UNL A   1      30.460  29.266  23.989  1.00  0.00    -0.244 OA
BRANCH  72  74
ATOM     74  C   UNL A   1      32.179  27.583  23.972  1.00  0.00     0.148 A 
ATOM     75  C   UNL A   1      33.408  27.193  24.489  1.00  0.00     0.040 A 
ATOM     76  N   UNL A   1      31.502  26.861  23.046  1.00  0.00    -0.245 NA
ATOM     77  C   UNL A   1      34.006  26.022  23.995  1.00  0.00     0.050 A 
ATOM     78  C   UNL A   1      32.126  25.749  22.580  1.00  0.00     0.158 A 
ATOM     79  C   UNL A   1      33.372  25.288  23.001  1.00  0.00     0.138 A 
BRANCH  79  80
ATOM     80  O   UNL A   1      33.838  24.190  22.345  1.00  0.00    -0.486 OA
BRANCH  80  81
ATOM     81  C   UNL A   1      33.219  22.909  22.528  1.00  0.00     0.277 C 
BRANCH  81  82
ATOM     82  C   UNL A   1      33.664  22.251  23.807  1.00  0.00     0.056 A 
ATOM     83  S   UNL A   1      32.558  21.618  24.959  1.00  0.00    -0.144 S 
ATOM     84  C   UNL A   1      34.956  22.109  24.281  1.00  0.00     0.035 A 
ATOM     85  C   UNL A   1      33.806  21.054  25.978  1.00  0.00     0.066 A 
ATOM     86  C   UNL A   1      35.049  21.397  25.502  1.00  0.00     0.028 A 
ATOM     87  Br  UNL A   1      36.519  22.794  23.467  1.00  0.00    -0.049 Br
ENDBRANCH  81  82
ENDBRANCH  80  81
ENDBRANCH  79  80
ENDBRANCH  72  74
ENDBRANCH  71  72
ENDBRANCH  70  71
ENDBRANCH   1  70
TORSDOF 17
ENDMDL
MODEL 2
REMARK VINA RESULT:     -11.0      5.664     10.385
REMARK SMILES O=C(OCCOC(=O)c1ccc(OCc2sccc2Br)cn1)c1ccc(-c2c3nc(c(-c4cc(S(=O)(=O)[O-])ccc4F)c4ccc([nH]4)c(-c4cc(S(=O)(=O)[O-])ccc4F)c4nc(c(-c5cc(S(=O)(=O)[O-])ccc5F)c5ccc2[nH]5)C=C4)C=C3)cc1
REMARK SMILES IDX 4 1 3 2 2 3 1 4 23 5 24 6 85 7 25 8 84 9 26 10 27 11 28 12
REMARK SMILES IDX 78 13 29 14 83 15 77 16 79 17 30 18 82 19 76 20 75 21 31 23
REMARK SMILES IDX 63 24 43 25 62 26 44 27 47 28 61 29 80 30 45 31 46 32 60 34
REMARK SMILES IDX 81 35 48 36 32 37 33 38 41 39 34 40 40 41 42 42 39 43 35 44
REMARK SMILES IDX 36 45 37 46 38 47 64 48 65 49 73 50 66 51 72 52 74 53 71 54
REMARK SMILES IDX 67 55 68 56 69 57 70 58 49 59 50 60 58 61 51 62 57 63 59 64
REMARK SMILES IDX 56 65 52 66 53 67 54 68 55 69 5 70 6 71 7 72 8 73 9 74 10 75
REMARK SMILES IDX 22 76 11 77 21 78 12 79 13 80 14 81 15 82 16 83 19 84 17 85
REMARK SMILES IDX 18 86 20 87
REMARK H PARENT 79 22 47 33
REMARK Flexibility Score: inf
ROOT
ATOM      1  C   UNL A   1      40.736  20.017  26.446  1.00  0.00     0.275 C 
ENDROOT
BRANCH   1   2
ATOM      2  O   UNL A   1      40.960  21.373  26.859  1.00  0.00    -0.458 OA
BRANCH   2   3
ATOM      3  C   UNL A   1      40.101  22.415  26.720  1.00  0.00     0.338 C 
ATOM      4  O   UNL A   1      39.070  22.267  26.069  1.00  0.00    -0.246 OA
BRANCH   3   5
ATOM      5  C   UNL A   1      40.472  23.793  27.165  1.00  0.00     0.060 A 
ATOM      6  C   UNL A   1      41.089  24.129  28.375  1.00  0.00     0.016 A 
ATOM      7  C   UNL A   1      40.135  24.831  26.288  1.00  0.00     0.016 A 
ATOM      8  C   UNL A   1      41.463  25.451  28.657  1.00  0.00     0.010 A 
ATOM      9  C   UNL A   1      40.495  26.151  26.572  1.00  0.00     0.010 A 
ATOM     10  C   UNL A   1      41.181  26.472  27.752  1.00  0.00    -0.014 A 
BRANCH  10  11
ATOM     11  C   UNL A   1      41.470  27.892  28.076  1.00  0.00     0.031 A 
ATOM     12  C   UNL A   1      42.904  28.307  28.214  1.00  0.00     0.074 A 
ATOM     13  C   UNL A   1      40.473  28.770  28.311  1.00  0.00     0.049 A 
ATOM     14  N   UNL A   1      43.402  29.450  28.603  1.00  0.00    -0.248 NA
ATOM     15  C   UNL A   1      43.914  27.299  27.854  1.00  0.00     0.031 C 
ATOM     16  C   UNL A   1      39.050  28.493  28.134  1.00  0.00     0.029 A 
ATOM     17  N   UNL A   1      40.497  30.053  28.807  1.00  0.00    -0.354 N 
ATOM     18  C   UNL A   1      44.782  29.297  28.543  1.00  0.00     0.074 A 
ATOM     19  C   UNL A   1      45.043  27.946  28.099  1.00  0.00     0.031 C 
ATOM     20  C   UNL A   1      38.334  29.520  28.626  1.00  0.00     0.029 A 
ATOM     21  C   UNL A   1      39.248  30.523  29.163  1.00  0.00     0.049 A 
ATOM     22  H   UNL A   1      41.321  30.582  28.900  1.00  0.00     0.167 HD
ATOM     23  C   UNL A   1      45.740  30.204  28.847  1.00  0.00     0.034 A 
ATOM     24  C   UNL A   1      38.895  31.600  29.896  1.00  0.00     0.034 A 
ATOM     25  C   UNL A   1      45.451  31.515  29.365  1.00  0.00     0.049 A 
ATOM     26  C   UNL A   1      39.991  32.546  30.348  1.00  0.00     0.074 A 
ATOM     27  C   UNL A   1      46.334  32.528  29.691  1.00  0.00     0.029 A 
ATOM     28  N   UNL A   1      44.178  31.978  29.679  1.00  0.00    -0.354 N 
ATOM     29  N   UNL A   1      41.286  32.469  30.128  1.00  0.00    -0.248 NA
ATOM     30  C   UNL A   1      39.592  33.723  31.132  1.00  0.00     0.031 C 
ATOM     31  C   UNL A   1      45.607  33.558  30.297  1.00  0.00     0.029 A 
ATOM     32  C   UNL A   1      44.262  33.223  30.280  1.00  0.00     0.049 A 
ATOM     33  H   UNL A   1      43.340  31.494  29.498  1.00  0.00     0.167 HD
ATOM     34  C   UNL A   1      41.843  33.600  30.718  1.00  0.00     0.074 A 
ATOM     35  C   UNL A   1      40.747  34.355  31.286  1.00  0.00     0.031 C 
ATOM     36  C   UNL A   1      43.146  33.975  30.799  1.00  0.00     0.034 A 
BRANCH  23  37
ATOM     37  C   UNL A   1      47.173  29.765  28.702  1.00  0.00     0.023 A 
ATOM     38  C   UNL A   1      47.846  29.100  29.741  1.00  0.00     0.031 A 
ATOM     39  C   UNL A   1      47.888  30.054  27.527  1.00  0.00     0.131 A 
ATOM     40  C   UNL A   1      49.211  28.803  29.609  1.00  0.00     0.055 A 
ATOM     41  C   UNL A   1      49.227  29.690  27.374  1.00  0.00     0.041 A 
ATOM     42  F   UNL A   1      47.301  30.713  26.515  1.00  0.00    -0.206 F 
ATOM     43  C   UNL A   1      49.900  29.071  28.425  1.00  0.00     0.022 A 
BRANCH  40  44
ATOM     44  S   UNL A   1      50.102  28.161  31.053  1.00  0.00     0.124 S 
ATOM     45  O   UNL A   1      50.428  26.805  30.618  1.00  0.00    -0.237 OA
ATOM     46  O   UNL A   1      51.228  29.081  31.167  1.00  0.00    -0.237 OA
ATOM     47  O   UNL A   1      49.117  28.246  32.129  1.00  0.00    -0.744 OA
ENDBRANCH  40  44
ENDBRANCH  23  37
BRANCH  24  48
ATOM     48  C   UNL A   1      37.484  31.791  30.370  1.00  0.00     0.023 A 
ATOM     49  C   UNL A   1      36.533  32.499  29.619  1.00  0.00     0.031 A 
ATOM     50  C   UNL A   1      37.105  31.377  31.662  1.00  0.00     0.131 A 
ATOM     51  C   UNL A   1      35.302  32.856  30.200  1.00  0.00     0.055 A 
ATOM     52  C   UNL A   1      35.869  31.704  32.224  1.00  0.00     0.041 A 
ATOM     53  F   UNL A   1      37.943  30.648  32.415  1.00  0.00    -0.206 F 
ATOM     54  C   UNL A   1      34.969  32.471  31.500  1.00  0.00     0.022 A 
BRANCH  51  55
ATOM     55  S   UNL A   1      34.182  33.937  29.267  1.00  0.00     0.124 S 
ATOM     56  O   UNL A   1      33.336  34.472  30.328  1.00  0.00    -0.237 OA
ATOM     57  O   UNL A   1      35.117  34.876  28.656  1.00  0.00    -0.237 OA
ATOM     58  O   UNL A   1      33.522  33.024  28.338  1.00  0.00    -0.744 OA
ENDBRANCH  51  55
ENDBRANCH  24  48
BRANCH  36  59
ATOM     59  C   UNL A   1      43.448  35.293  31.467  1.00  0.00     0.023 A 
ATOM     60  C   UNL A   1      43.615  36.475  30.727  1.00  0.00     0.031 A 
ATOM     61  C   UNL A   1      43.514  35.369  32.869  1.00  0.00     0.131 A 
ATOM     62  C   UNL A   1      43.865  37.684  31.395  1.00  0.00     0.055 A 
ATOM     63  C   UNL A   1      43.713  36.582  33.530  1.00  0.00     0.041 A 
ATOM     64  F   UNL A   1      43.360  34.267  33.620  1.00  0.00    -0.206 F 
ATOM     65  C   UNL A   1      43.896  37.746  32.791  1.00  0.00     0.022 A 
BRANCH  62  66
ATOM     66  S   UNL A   1      44.204  39.169  30.411  1.00  0.00     0.124 S 
ATOM     67  O   UNL A   1      45.633  39.040  30.150  1.00  0.00    -0.237 OA
ATOM     68  O   UNL A   1      43.325  38.985  29.260  1.00  0.00    -0.237 OA
ATOM     69  O   UNL A   1      43.832  40.263  31.305  1.00  0.00    -0.744 OA
ENDBRANCH  62  66
ENDBRANCH  36  59
ENDBRANCH  10  11
ENDBRANCH   3   5
ENDBRANCH   2   3
ENDBRANCH   1   2
BRANCH   1  70
ATOM     70  C   UNL A   1      41.995  19.145  26.398  1.00  0.00     0.275 C 
BRANCH  70  71
ATOM     71  O   UNL A   1      42.678  19.194  25.136  1.00  0.00    -0.457 OA
BRANCH  71  72
ATOM     72  C   UNL A   1      44.038  19.103  25.206  1.00  0.00     0.357 C 
ATOM     73  O   UNL A   1      44.677  18.095  25.464  1.00  0.00    -0.244 OA
BRANCH  72  74
ATOM     74  C   UNL A   1      44.635  20.417  24.836  1.00  0.00     0.148 A 
ATOM     75  C   UNL A   1      46.012  20.591  24.785  1.00  0.00     0.040 A 
ATOM     76  N   UNL A   1      43.753  21.418  24.596  1.00  0.00    -0.245 NA
ATOM     77  C   UNL A   1      46.521  21.873  24.523  1.00  0.00     0.050 A 
ATOM     78  C   UNL A   1      44.286  22.645  24.369  1.00  0.00     0.158 A 
ATOM     79  C   UNL A   1      45.649  22.937  24.332  1.00  0.00     0.138 A 
BRANCH  79  80
ATOM     80  O   UNL A   1      45.958  24.252  24.159  1.00  0.00    -0.486 OA
BRANCH  80  81
ATOM     81  C   UNL A   1      45.658  25.216  25.177  1.00  0.00     0.277 C 
BRANCH  81  82
ATOM     82  C   UNL A   1      46.736  25.276  26.225  1.00  0.00     0.056 A 
ATOM     83  S   UNL A   1      48.281  25.968  25.931  1.00  0.00    -0.144 S 
ATOM     84  C   UNL A   1      46.699  24.759  27.508  1.00  0.00     0.035 A 
ATOM     85  C   UNL A   1      48.806  25.694  27.532  1.00  0.00     0.066 A 
ATOM     86  C   UNL A   1      47.862  25.023  28.272  1.00  0.00     0.028 A 
ATOM     87  Br  UNL A   1      45.287  23.750  28.257  1.00  0.00    -0.049 Br
ENDBRANCH  81  82
ENDBRANCH  80  81
ENDBRANCH  79  80
ENDBRANCH  72  74
ENDBRANCH  71  72
ENDBRANCH  70  71
ENDBRANCH   1  70
TORSDOF 17
ENDMDL
MODEL 3
REMARK VINA RESULT:     -11.0      1.847      2.195
REMARK SMILES O=C(OCCOC(=O)c1ccc(OCc2sccc2Br)cn1)c1ccc(-c2c3nc(c(-c4cc(S(=O)(=O)[O-])ccc4F)c4ccc([nH]4)c(-c4cc(S(=O)(=O)[O-])ccc4F)c4nc(c(-c5cc(S(=O)(=O)[O-])ccc5F)c5ccc2[nH]5)C=C4)C=C3)cc1
REMARK SMILES IDX 4 1 3 2 2 3 1 4 23 5 24 6 85 7 25 8 84 9 26 10 27 11 28 12
REMARK SMILES IDX 78 13 29 14 83 15 77 16 79 17 30 18 82 19 76 20 75 21 31 23
REMARK SMILES IDX 63 24 43 25 62 26 44 27 47 28 61 29 80 30 45 31 46 32 60 34
REMARK SMILES IDX 81 35 48 36 32 37 33 38 41 39 34 40 40 41 42 42 39 43 35 44
REMARK SMILES IDX 36 45 37 46 38 47 64 48 65 49 73 50 66 51 72 52 74 53 71 54
REMARK SMILES IDX 67 55 68 56 69 57 70 58 49 59 50 60 58 61 51 62 57 63 59 64
REMARK SMILES IDX 56 65 52 66 53 67 54 68 55 69 5 70 6 71 7 72 8 73 9 74 10 75
REMARK SMILES IDX 22 76 11 77 21 78 12 79 13 80 14 81 15 82 16 83 19 84 17 85
REMARK SMILES IDX 18 86 20 87
REMARK H PARENT 79 22 47 33
REMARK Flexibility Score: inf
ROOT
ATOM      1  C   UNL A   1      32.054  29.181  25.545  1.00  0.00     0.275 C 
ENDROOT
BRANCH   1   2
ATOM      2  O   UNL A   1      32.950  30.290  25.706  1.00  0.00    -0.458 OA
BRANCH   2   3
ATOM      3  C   UNL A   1      33.162  31.004  26.841  1.00  0.00     0.338 C 
ATOM      4  O   UNL A   1      32.324  31.828  27.203  1.00  0.00    -0.246 OA
BRANCH   3   5
ATOM      5  C   UNL A   1      34.475  30.964  27.551  1.00  0.00     0.060 A 
ATOM      6  C   UNL A   1      35.365  32.034  27.698  1.00  0.00     0.016 A 
ATOM      7  C   UNL A   1      34.844  29.724  28.086  1.00  0.00     0.016 A 
ATOM      8  C   UNL A   1      36.539  31.904  28.454  1.00  0.00     0.010 A 
ATOM      9  C   UNL A   1      36.021  29.587  28.829  1.00  0.00     0.010 A 
ATOM     10  C   UNL A   1      36.871  30.682  29.037  1.00  0.00    -0.014 A 
BRANCH  10  11
ATOM     11  C   UNL A   1      38.160  30.492  29.749  1.00  0.00     0.031 A 
ATOM     12  C   UNL A   1      39.105  29.448  29.232  1.00  0.00     0.074 A 
ATOM     13  C   UNL A   1      38.447  31.186  30.869  1.00  0.00     0.049 A 
ATOM     14  N   UNL A   1      40.228  29.020  29.745  1.00  0.00    -0.248 NA
ATOM     15  C   UNL A   1      38.740  28.809  27.957  1.00  0.00     0.031 C 
ATOM     16  C   UNL A   1      37.636  32.272  31.416  1.00  0.00     0.029 A 
ATOM     17  N   UNL A   1      39.463  31.045  31.786  1.00  0.00    -0.354 N 
ATOM     18  C   UNL A   1      40.699  28.055  28.863  1.00  0.00     0.074 A 
ATOM     19  C   UNL A   1      39.732  27.948  27.792  1.00  0.00     0.031 C 
ATOM     20  C   UNL A   1      38.113  32.614  32.626  1.00  0.00     0.029 A 
ATOM     21  C   UNL A   1      39.257  31.766  32.944  1.00  0.00     0.049 A 
ATOM     22  H   UNL A   1      40.257  30.484  31.631  1.00  0.00     0.167 HD
ATOM     23  C   UNL A   1      41.831  27.319  28.952  1.00  0.00     0.034 A 
ATOM     24  C   UNL A   1      39.877  31.696  34.142  1.00  0.00     0.034 A 
ATOM     25  C   UNL A   1      42.733  27.389  30.071  1.00  0.00     0.049 A 
ATOM     26  C   UNL A   1      41.069  30.766  34.274  1.00  0.00     0.074 A 
ATOM     27  C   UNL A   1      43.920  26.708  30.265  1.00  0.00     0.029 A 
ATOM     28  N   UNL A   1      42.520  28.156  31.211  1.00  0.00    -0.354 N 
ATOM     29  N   UNL A   1      41.606  29.985  33.362  1.00  0.00    -0.248 NA
ATOM     30  C   UNL A   1      41.745  30.710  35.577  1.00  0.00     0.031 C 
ATOM     31  C   UNL A   1      44.369  26.982  31.562  1.00  0.00     0.029 A 
ATOM     32  C   UNL A   1      43.504  27.893  32.149  1.00  0.00     0.049 A 
ATOM     33  H   UNL A   1      41.780  28.794  31.333  1.00  0.00     0.167 HD
ATOM     34  C   UNL A   1      42.697  29.374  33.976  1.00  0.00     0.074 A 
ATOM     35  C   UNL A   1      42.756  29.890  35.326  1.00  0.00     0.031 C 
ATOM     36  C   UNL A   1      43.564  28.457  33.476  1.00  0.00     0.034 A 
BRANCH  23  37
ATOM     37  C   UNL A   1      42.094  26.327  27.850  1.00  0.00     0.023 A 
ATOM     38  C   UNL A   1      41.657  24.994  27.941  1.00  0.00     0.031 A 
ATOM     39  C   UNL A   1      42.830  26.707  26.714  1.00  0.00     0.131 A 
ATOM     40  C   UNL A   1      42.014  24.074  26.944  1.00  0.00     0.055 A 
ATOM     41  C   UNL A   1      43.119  25.803  25.690  1.00  0.00     0.041 A 
ATOM     42  F   UNL A   1      43.296  27.960  26.591  1.00  0.00    -0.206 F 
ATOM     43  C   UNL A   1      42.721  24.474  25.808  1.00  0.00     0.022 A 
BRANCH  40  44
ATOM     44  S   UNL A   1      41.638  22.320  27.210  1.00  0.00     0.124 S 
ATOM     45  O   UNL A   1      42.536  21.990  28.313  1.00  0.00    -0.237 OA
ATOM     46  O   UNL A   1      40.215  22.345  27.533  1.00  0.00    -0.237 OA
ATOM     47  O   UNL A   1      41.975  21.699  25.931  1.00  0.00    -0.744 OA
ENDBRANCH  40  44
ENDBRANCH  23  37
BRANCH  24  48
ATOM     48  C   UNL A   1      39.331  32.405  35.345  1.00  0.00     0.023 A 
ATOM     49  C   UNL A   1      39.682  33.727  35.657  1.00  0.00     0.031 A 
ATOM     50  C   UNL A   1      38.544  31.710  36.285  1.00  0.00     0.131 A 
ATOM     51  C   UNL A   1      39.339  34.271  36.908  1.00  0.00     0.055 A 
ATOM     52  C   UNL A   1      38.176  32.263  37.513  1.00  0.00     0.041 A 
ATOM     53  F   UNL A   1      38.123  30.462  36.029  1.00  0.00    -0.206 F 
ATOM     54  C   UNL A   1      38.596  33.544  37.842  1.00  0.00     0.022 A 
BRANCH  51  55
ATOM     55  S   UNL A   1      39.979  35.911  37.350  1.00  0.00     0.124 S 
ATOM     56  O   UNL A   1      41.380  35.616  37.626  1.00  0.00    -0.237 OA
ATOM     57  O   UNL A   1      39.709  36.671  36.134  1.00  0.00    -0.237 OA
ATOM     58  O   UNL A   1      39.177  36.288  38.511  1.00  0.00    -0.744 OA
ENDBRANCH  51  55
ENDBRANCH  24  48
BRANCH  36  59
ATOM     59  C   UNL A   1      44.690  28.006  34.371  1.00  0.00     0.023 A 
ATOM     60  C   UNL A   1      44.576  26.866  35.185  1.00  0.00     0.031 A 
ATOM     61  C   UNL A   1      45.912  28.700  34.364  1.00  0.00     0.131 A 
ATOM     62  C   UNL A   1      45.661  26.468  35.980  1.00  0.00     0.055 A 
ATOM     63  C   UNL A   1      47.004  28.270  35.118  1.00  0.00     0.041 A 
ATOM     64  F   UNL A   1      46.071  29.794  33.602  1.00  0.00    -0.206 F 
ATOM     65  C   UNL A   1      46.879  27.151  35.936  1.00  0.00     0.022 A 
BRANCH  62  66
ATOM     66  S   UNL A   1      45.443  25.071  37.115  1.00  0.00     0.124 S 
ATOM     67  O   UNL A   1      45.256  23.956  36.193  1.00  0.00    -0.237 OA
ATOM     68  O   UNL A   1      46.698  25.079  37.861  1.00  0.00    -0.237 OA
ATOM     69  O   UNL A   1      44.260  25.442  37.890  1.00  0.00    -0.744 OA
ENDBRANCH  62  66
ENDBRANCH  36  59
ENDBRANCH  10  11
ENDBRANCH   3   5
ENDBRANCH   2   3
ENDBRANCH   1   2
BRANCH   1  70
ATOM     70  C   UNL A   1      31.037  29.338  24.409  1.00  0.00     0.275 C 
BRANCH  70  71
ATOM     71  O   UNL A   1      30.245  28.162  24.183  1.00  0.00    -0.457 OA
BRANCH  71  72
ATOM     72  C   UNL A   1      30.210  27.722  22.892  1.00  0.00     0.357 C 
ATOM     73  O   UNL A   1      29.780  28.345  21.933  1.00  0.00    -0.244 OA
BRANCH  72  74
ATOM     74  C   UNL A   1      30.857  26.382  22.816  1.00  0.00     0.148 A 
ATOM     75  C   UNL A   1      30.344  25.297  23.515  1.00  0.00     0.040 A 
ATOM     76  N   UNL A   1      31.980  26.312  22.060  1.00  0.00    -0.245 NA
ATOM     77  C   UNL A   1      31.045  24.081  23.483  1.00  0.00     0.050 A 
ATOM     78  C   UNL A   1      32.639  25.125  22.074  1.00  0.00     0.158 A 
ATOM     79  C   UNL A   1      32.234  23.987  22.770  1.00  0.00     0.138 A 
BRANCH  79  80
ATOM     80  O   UNL A   1      33.087  22.928  22.699  1.00  0.00    -0.486 OA
BRANCH  80  81
ATOM     81  C   UNL A   1      34.374  22.980  23.328  1.00  0.00     0.277 C 
BRANCH  81  82
ATOM     82  C   UNL A   1      34.290  22.676  24.800  1.00  0.00     0.056 A 
ATOM     83  S   UNL A   1      34.228  21.073  25.416  1.00  0.00    -0.144 S 
ATOM     84  C   UNL A   1      34.187  23.576  25.846  1.00  0.00     0.035 A 
ATOM     85  C   UNL A   1      34.208  21.603  27.038  1.00  0.00     0.066 A 
ATOM     86  C   UNL A   1      34.175  22.974  27.128  1.00  0.00     0.028 A 
ATOM     87  Br  UNL A   1      34.037  25.454  25.683  1.00  0.00    -0.049 Br
ENDBRANCH  81  82
ENDBRANCH  80  81
ENDBRANCH  79  80
ENDBRANCH  72  74
ENDBRANCH  71  72
ENDBRANCH  70  71
ENDBRANCH   1  70
TORSDOF 17
ENDMDL
