MODEL 1
REMARK VINA RESULT:     -12.5      0.000      0.000
REMARK SMILES Nc1cc(C(=O)OCCOC(=O)c2ccc(-c3c4nc(c(-c5cc(S(=O)(=O)[O-])ccc5F)c5ccc([nH]5)c(-c5cc(S(=O)(=O)[O-])ccc5F)c5nc(c(-c6cc(S(=O)(=O)[O-])ccc6F)c6ccc3[nH]6)C=C5)C=C4)cc2)ccc1N1CC2(CCOCC2)C1
REMARK SMILES IDX 9 1 8 2 7 3 5 4 6 5 4 6 2 7 3 8 78 9 77 10 76 11 1 12 79 15
REMARK SMILES IDX 80 16 87 17 81 18 82 19 86 20 83 21 85 22 84 23 10 24 11 25
REMARK SMILES IDX 12 26 13 27 14 28 75 29 15 30 74 31 16 32 17 33 18 34 68 35
REMARK SMILES IDX 19 36 73 37 67 38 69 39 20 40 72 41 66 42 65 43 21 45 53 46
REMARK SMILES IDX 33 47 52 48 34 49 37 50 51 51 70 52 35 53 36 54 50 56 71 57
REMARK SMILES IDX 38 58 22 59 23 60 31 61 24 62 30 63 32 64 29 65 25 66 26 67
REMARK SMILES IDX 27 68 28 69 54 70 55 71 63 72 56 73 62 74 64 75 61 76 57 77
REMARK SMILES IDX 58 78 59 79 60 80 39 81 40 82 48 83 41 84 47 85 49 86 46 87
REMARK SMILES IDX 42 88 43 89 44 90 45 91
REMARK H PARENT 1 13 1 14 69 44 37 55
REMARK Flexibility Score: inf
ROOT
ATOM      1  C   UNL A   1      36.509  20.395  24.992  1.00  0.00     0.275 C 
ENDROOT
BRANCH   1   2
ATOM      2  C   UNL A   1      35.026  20.580  25.313  1.00  0.00     0.275 C 
BRANCH   2   3
ATOM      3  O   UNL A   1      34.227  19.592  24.632  1.00  0.00    -0.458 OA
BRANCH   3   4
ATOM      4  C   UNL A   1      32.892  19.673  24.856  1.00  0.00     0.338 C 
ATOM      5  O   UNL A   1      32.186  18.807  25.351  1.00  0.00    -0.246 OA
BRANCH   4   6
ATOM      6  C   UNL A   1      32.388  21.023  24.525  1.00  0.00     0.062 A 
ATOM      7  C   UNL A   1      32.262  22.803  22.846  1.00  0.00     0.056 A 
ATOM      8  C   UNL A   1      32.736  21.560  23.282  1.00  0.00     0.043 A 
ATOM      9  C   UNL A   1      31.559  23.608  23.765  1.00  0.00     0.060 A 
ATOM     10  C   UNL A   1      31.248  23.074  25.036  1.00  0.00     0.029 A 
ATOM     11  C   UNL A   1      31.625  21.779  25.407  1.00  0.00     0.018 A 
BRANCH   7  12
ATOM     12  N   UNL A   1      32.691  23.232  21.594  1.00  0.00    -0.397 N 
ATOM     13  H   UNL A   1      32.047  23.624  20.960  1.00  0.00     0.156 HD
ATOM     14  H   UNL A   1      33.639  23.144  21.342  1.00  0.00     0.156 HD
ENDBRANCH   7  12
BRANCH   9  15
ATOM     15  N   UNL A   1      31.185  24.952  23.535  1.00  0.00    -0.369 N 
ATOM     16  C   UNL A   1      31.940  26.163  23.549  1.00  0.00     0.125 C 
ATOM     17  C   UNL A   1      29.998  25.553  24.079  1.00  0.00     0.125 C 
ATOM     18  C   UNL A   1      30.819  26.818  24.391  1.00  0.00     0.010 C 
ATOM     19  C   UNL A   1      30.257  28.118  23.809  1.00  0.00     0.039 C 
ATOM     20  C   UNL A   1      31.083  27.004  25.894  1.00  0.00     0.039 C 
ATOM     21  C   UNL A   1      31.227  29.253  24.123  1.00  0.00     0.161 C 
ATOM     22  C   UNL A   1      32.006  28.200  26.095  1.00  0.00     0.161 C 
ATOM     23  O   UNL A   1      31.407  29.373  25.536  1.00  0.00    -0.381 OA
ENDBRANCH   9  15
ENDBRANCH   4   6
ENDBRANCH   3   4
ENDBRANCH   2   3
ENDBRANCH   1   2
BRANCH   1  24
ATOM     24  O   UNL A   1      37.260  21.517  25.487  1.00  0.00    -0.458 OA
BRANCH  24  25
ATOM     25  C   UNL A   1      38.546  21.265  25.827  1.00  0.00     0.338 C 
ATOM     26  O   UNL A   1      39.160  20.225  25.658  1.00  0.00    -0.246 OA
BRANCH  25  27
ATOM     27  C   UNL A   1      39.142  22.458  26.461  1.00  0.00     0.060 A 
ATOM     28  C   UNL A   1      38.629  23.720  26.182  1.00  0.00     0.016 A 
ATOM     29  C   UNL A   1      40.290  22.334  27.239  1.00  0.00     0.016 A 
ATOM     30  C   UNL A   1      39.323  24.866  26.575  1.00  0.00     0.010 A 
ATOM     31  C   UNL A   1      40.918  23.485  27.735  1.00  0.00     0.010 A 
ATOM     32  C   UNL A   1      40.474  24.771  27.372  1.00  0.00    -0.014 A 
BRANCH  32  33
ATOM     33  C   UNL A   1      41.236  25.994  27.784  1.00  0.00     0.031 A 
ATOM     34  C   UNL A   1      40.564  27.062  28.618  1.00  0.00     0.074 A 
ATOM     35  C   UNL A   1      42.528  26.164  27.426  1.00  0.00     0.049 A 
ATOM     36  N   UNL A   1      40.969  28.276  28.899  1.00  0.00    -0.248 NA
ATOM     37  C   UNL A   1      39.254  26.722  29.194  1.00  0.00     0.031 C 
ATOM     38  C   UNL A   1      43.332  25.206  26.664  1.00  0.00     0.029 A 
ATOM     39  N   UNL A   1      43.398  27.203  27.660  1.00  0.00    -0.354 N 
ATOM     40  C   UNL A   1      39.935  28.867  29.622  1.00  0.00     0.074 A 
ATOM     41  C   UNL A   1      38.884  27.876  29.731  1.00  0.00     0.031 C 
ATOM     42  C   UNL A   1      44.581  25.677  26.536  1.00  0.00     0.029 A 
ATOM     43  C   UNL A   1      44.646  27.018  27.106  1.00  0.00     0.049 A 
ATOM     44  H   UNL A   1      43.152  28.005  28.176  1.00  0.00     0.167 HD
ATOM     45  C   UNL A   1      39.867  30.119  30.144  1.00  0.00     0.034 A 
ATOM     46  C   UNL A   1      45.707  27.845  27.013  1.00  0.00     0.034 A 
ATOM     47  C   UNL A   1      40.946  31.077  30.085  1.00  0.00     0.049 A 
ATOM     48  C   UNL A   1      45.599  29.240  27.571  1.00  0.00     0.074 A 
ATOM     49  C   UNL A   1      40.990  32.361  30.606  1.00  0.00     0.029 A 
ATOM     50  N   UNL A   1      42.178  30.857  29.483  1.00  0.00    -0.354 N 
ATOM     51  N   UNL A   1      44.588  29.806  28.188  1.00  0.00    -0.248 NA
ATOM     52  C   UNL A   1      46.769  30.112  27.405  1.00  0.00     0.031 C 
ATOM     53  C   UNL A   1      42.221  32.933  30.272  1.00  0.00     0.029 A 
ATOM     54  C   UNL A   1      42.976  31.985  29.602  1.00  0.00     0.049 A 
ATOM     55  H   UNL A   1      42.446  30.021  29.037  1.00  0.00     0.167 HD
ATOM     56  C   UNL A   1      45.009  31.097  28.495  1.00  0.00     0.074 A 
ATOM     57  C   UNL A   1      46.371  31.217  28.018  1.00  0.00     0.031 C 
ATOM     58  C   UNL A   1      44.329  32.096  29.113  1.00  0.00     0.034 A 
BRANCH  45  59
ATOM     59  C   UNL A   1      38.561  30.549  30.771  1.00  0.00     0.023 A 
ATOM     60  C   UNL A   1      37.544  31.178  30.034  1.00  0.00     0.031 A 
ATOM     61  C   UNL A   1      38.339  30.326  32.143  1.00  0.00     0.131 A 
ATOM     62  C   UNL A   1      36.380  31.618  30.685  1.00  0.00     0.055 A 
ATOM     63  C   UNL A   1      37.148  30.699  32.769  1.00  0.00     0.041 A 
ATOM     64  F   UNL A   1      39.283  29.746  32.902  1.00  0.00    -0.206 F 
ATOM     65  C   UNL A   1      36.164  31.360  32.042  1.00  0.00     0.022 A 
BRANCH  62  66
ATOM     66  S   UNL A   1      35.202  32.641  29.761  1.00  0.00     0.124 S 
ATOM     67  O   UNL A   1      34.641  31.671  28.823  1.00  0.00    -0.237 OA
ATOM     68  O   UNL A   1      34.300  33.109  30.808  1.00  0.00    -0.237 OA
ATOM     69  O   UNL A   1      36.041  33.672  29.155  1.00  0.00    -0.744 OA
ENDBRANCH  62  66
ENDBRANCH  45  59
BRANCH  46  70
ATOM     70  C   UNL A   1      46.945  27.411  26.297  1.00  0.00     0.023 A 
ATOM     71  C   UNL A   1      47.168  27.761  24.956  1.00  0.00     0.031 A 
ATOM     72  C   UNL A   1      47.900  26.595  26.931  1.00  0.00     0.131 A 
ATOM     73  C   UNL A   1      48.295  27.265  24.281  1.00  0.00     0.055 A 
ATOM     74  C   UNL A   1      49.050  26.156  26.275  1.00  0.00     0.041 A 
ATOM     75  F   UNL A   1      47.734  26.224  28.211  1.00  0.00    -0.206 F 
ATOM     76  C   UNL A   1      49.246  26.479  24.938  1.00  0.00     0.022 A 
BRANCH  73  77
ATOM     77  S   UNL A   1      48.454  27.582  22.502  1.00  0.00     0.124 S 
ATOM     78  O   UNL A   1      49.687  28.361  22.448  1.00  0.00    -0.237 OA
ATOM     79  O   UNL A   1      48.524  26.230  21.959  1.00  0.00    -0.237 OA
ATOM     80  O   UNL A   1      47.234  28.320  22.179  1.00  0.00    -0.744 OA
ENDBRANCH  73  77
ENDBRANCH  46  70
BRANCH  58  81
ATOM     81  C   UNL A   1      45.076  33.385  29.346  1.00  0.00     0.023 A 
ATOM     82  C   UNL A   1      45.056  34.431  28.405  1.00  0.00     0.031 A 
ATOM     83  C   UNL A   1      45.840  33.557  30.513  1.00  0.00     0.131 A 
ATOM     84  C   UNL A   1      45.833  35.578  28.623  1.00  0.00     0.055 A 
ATOM     85  C   UNL A   1      46.567  34.725  30.749  1.00  0.00     0.041 A 
ATOM     86  F   UNL A   1      45.896  32.589  31.442  1.00  0.00    -0.206 F 
ATOM     87  C   UNL A   1      46.577  35.738  29.795  1.00  0.00     0.022 A 
BRANCH  84  88
ATOM     88  S   UNL A   1      45.929  36.827  27.309  1.00  0.00     0.124 S 
ATOM     89  O   UNL A   1      46.784  37.842  27.917  1.00  0.00    -0.237 OA
ATOM     90  O   UNL A   1      46.517  36.075  26.206  1.00  0.00    -0.237 OA
ATOM     91  O   UNL A   1      44.537  37.226  27.113  1.00  0.00    -0.744 OA
ENDBRANCH  84  88
ENDBRANCH  58  81
ENDBRANCH  32  33
ENDBRANCH  25  27
ENDBRANCH  24  25
ENDBRANCH   1  24
TORSDOF 16
ENDMDL
MODEL 2
REMARK VINA RESULT:     -12.5      1.432      1.753
REMARK SMILES Nc1cc(C(=O)OCCOC(=O)c2ccc(-c3c4nc(c(-c5cc(S(=O)(=O)[O-])ccc5F)c5ccc([nH]5)c(-c5cc(S(=O)(=O)[O-])ccc5F)c5nc(c(-c6cc(S(=O)(=O)[O-])ccc6F)c6ccc3[nH]6)C=C5)C=C4)cc2)ccc1N1CC2(CCOCC2)C1
REMARK SMILES IDX 9 1 8 2 7 3 5 4 6 5 4 6 2 7 3 8 78 9 77 10 76 11 1 12 79 15
REMARK SMILES IDX 80 16 87 17 81 18 82 19 86 20 83 21 85 22 84 23 10 24 11 25
REMARK SMILES IDX 12 26 13 27 14 28 75 29 15 30 74 31 16 32 17 33 18 34 68 35
REMARK SMILES IDX 19 36 73 37 67 38 69 39 20 40 72 41 66 42 65 43 21 45 53 46
REMARK SMILES IDX 33 47 52 48 34 49 37 50 51 51 70 52 35 53 36 54 50 56 71 57
REMARK SMILES IDX 38 58 22 59 23 60 31 61 24 62 30 63 32 64 29 65 25 66 26 67
REMARK SMILES IDX 27 68 28 69 54 70 55 71 63 72 56 73 62 74 64 75 61 76 57 77
REMARK SMILES IDX 58 78 59 79 60 80 39 81 40 82 48 83 41 84 47 85 49 86 46 87
REMARK SMILES IDX 42 88 43 89 44 90 45 91
REMARK H PARENT 1 13 1 14 69 44 37 55
REMARK Flexibility Score: inf
ROOT
ATOM      1  C   UNL A   1      36.391  20.282  24.970  1.00  0.00     0.275 C 
ENDROOT
BRANCH   1   2
ATOM      2  C   UNL A   1      34.952  20.567  25.398  1.00  0.00     0.275 C 
BRANCH   2   3
ATOM      3  O   UNL A   1      34.018  20.069  24.418  1.00  0.00    -0.458 OA
BRANCH   3   4
ATOM      4  C   UNL A   1      32.712  20.318  24.686  1.00  0.00     0.338 C 
ATOM      5  O   UNL A   1      31.880  19.503  25.056  1.00  0.00    -0.246 OA
BRANCH   4   6
ATOM      6  C   UNL A   1      32.424  21.765  24.583  1.00  0.00     0.062 A 
ATOM      7  C   UNL A   1      32.284  23.722  23.116  1.00  0.00     0.056 A 
ATOM      8  C   UNL A   1      32.588  22.373  23.335  1.00  0.00     0.043 A 
ATOM      9  C   UNL A   1      31.975  24.525  24.231  1.00  0.00     0.060 A 
ATOM     10  C   UNL A   1      31.854  23.911  25.498  1.00  0.00     0.029 A 
ATOM     11  C   UNL A   1      32.040  22.536  25.674  1.00  0.00     0.018 A 
BRANCH   7  12
ATOM     12  N   UNL A   1      32.501  24.211  21.832  1.00  0.00    -0.397 N 
ATOM     13  H   UNL A   1      33.380  24.096  21.402  1.00  0.00     0.156 HD
ATOM     14  H   UNL A   1      31.776  24.673  21.352  1.00  0.00     0.156 HD
ENDBRANCH   7  12
BRANCH   9  15
ATOM     15  N   UNL A   1      31.832  25.931  24.195  1.00  0.00    -0.369 N 
ATOM     16  C   UNL A   1      32.704  26.985  24.605  1.00  0.00     0.125 C 
ATOM     17  C   UNL A   1      30.632  26.621  24.583  1.00  0.00     0.125 C 
ATOM     18  C   UNL A   1      31.503  27.668  25.303  1.00  0.00     0.010 C 
ATOM     19  C   UNL A   1      31.258  29.119  24.881  1.00  0.00     0.039 C 
ATOM     20  C   UNL A   1      31.422  27.561  26.834  1.00  0.00     0.039 C 
ATOM     21  C   UNL A   1      32.256  30.015  25.609  1.00  0.00     0.161 C 
ATOM     22  C   UNL A   1      32.409  28.541  27.456  1.00  0.00     0.161 C 
ATOM     23  O   UNL A   1      32.107  29.872  27.023  1.00  0.00    -0.381 OA
ENDBRANCH   9  15
ENDBRANCH   4   6
ENDBRANCH   3   4
ENDBRANCH   2   3
ENDBRANCH   1   2
BRANCH   1  24
ATOM     24  O   UNL A   1      37.231  21.401  25.305  1.00  0.00    -0.458 OA
BRANCH  24  25
ATOM     25  C   UNL A   1      38.486  21.096  25.714  1.00  0.00     0.338 C 
ATOM     26  O   UNL A   1      39.057  20.025  25.598  1.00  0.00    -0.246 OA
BRANCH  25  27
ATOM     27  C   UNL A   1      39.107  22.275  26.350  1.00  0.00     0.060 A 
ATOM     28  C   UNL A   1      38.600  23.546  26.098  1.00  0.00     0.016 A 
ATOM     29  C   UNL A   1      40.270  22.131  27.102  1.00  0.00     0.016 A 
ATOM     30  C   UNL A   1      39.314  24.681  26.492  1.00  0.00     0.010 A 
ATOM     31  C   UNL A   1      40.920  23.269  27.600  1.00  0.00     0.010 A 
ATOM     32  C   UNL A   1      40.481  24.564  27.262  1.00  0.00    -0.014 A 
BRANCH  32  33
ATOM     33  C   UNL A   1      41.263  25.773  27.673  1.00  0.00     0.031 A 
ATOM     34  C   UNL A   1      40.618  26.840  28.530  1.00  0.00     0.074 A 
ATOM     35  C   UNL A   1      42.551  25.933  27.295  1.00  0.00     0.049 A 
ATOM     36  N   UNL A   1      41.041  28.046  28.818  1.00  0.00    -0.248 NA
ATOM     37  C   UNL A   1      39.315  26.509  29.126  1.00  0.00     0.031 C 
ATOM     38  C   UNL A   1      43.331  24.975  26.509  1.00  0.00     0.029 A 
ATOM     39  N   UNL A   1      43.436  26.961  27.525  1.00  0.00    -0.354 N 
ATOM     40  C   UNL A   1      40.026  28.641  29.565  1.00  0.00     0.074 A 
ATOM     41  C   UNL A   1      38.967  27.661  29.682  1.00  0.00     0.031 C 
ATOM     42  C   UNL A   1      44.583  25.434  26.364  1.00  0.00     0.029 A 
ATOM     43  C   UNL A   1      44.672  26.768  26.947  1.00  0.00     0.049 A 
ATOM     44  H   UNL A   1      43.208  27.759  28.053  1.00  0.00     0.167 HD
ATOM     45  C   UNL A   1      39.982  29.888  30.100  1.00  0.00     0.034 A 
ATOM     46  C   UNL A   1      45.741  27.584  26.844  1.00  0.00     0.034 A 
ATOM     47  C   UNL A   1      41.070  30.835  30.033  1.00  0.00     0.049 A 
ATOM     48  C   UNL A   1      45.658  28.974  27.419  1.00  0.00     0.074 A 
ATOM     49  C   UNL A   1      41.137  32.112  30.567  1.00  0.00     0.029 A 
ATOM     50  N   UNL A   1      42.288  30.607  29.407  1.00  0.00    -0.354 N 
ATOM     51  N   UNL A   1      44.664  29.545  28.059  1.00  0.00    -0.248 NA
ATOM     52  C   UNL A   1      46.834  29.836  27.241  1.00  0.00     0.031 C 
ATOM     53  C   UNL A   1      42.368  32.674  30.217  1.00  0.00     0.029 A 
ATOM     54  C   UNL A   1      43.101  31.726  29.524  1.00  0.00     0.049 A 
ATOM     55  H   UNL A   1      42.539  29.774  28.948  1.00  0.00     0.167 HD
ATOM     56  C   UNL A   1      45.105  30.828  28.372  1.00  0.00     0.074 A 
ATOM     57  C   UNL A   1      46.459  30.938  27.873  1.00  0.00     0.031 C 
ATOM     58  C   UNL A   1      44.447  31.827  29.012  1.00  0.00     0.034 A 
BRANCH  45  59
ATOM     59  C   UNL A   1      38.692  30.325  30.755  1.00  0.00     0.023 A 
ATOM     60  C   UNL A   1      37.655  30.942  30.036  1.00  0.00     0.031 A 
ATOM     61  C   UNL A   1      38.506  30.122  32.135  1.00  0.00     0.131 A 
ATOM     62  C   UNL A   1      36.507  31.390  30.710  1.00  0.00     0.055 A 
ATOM     63  C   UNL A   1      37.330  30.502  32.787  1.00  0.00     0.041 A 
ATOM     64  F   UNL A   1      39.470  29.555  32.879  1.00  0.00    -0.206 F 
ATOM     65  C   UNL A   1      36.327  31.152  32.076  1.00  0.00     0.022 A 
BRANCH  62  66
ATOM     66  S   UNL A   1      35.303  32.398  29.803  1.00  0.00     0.124 S 
ATOM     67  O   UNL A   1      36.126  33.530  29.381  1.00  0.00    -0.237 OA
ATOM     68  O   UNL A   1      34.870  31.496  28.742  1.00  0.00    -0.237 OA
ATOM     69  O   UNL A   1      34.290  32.713  30.807  1.00  0.00    -0.744 OA
ENDBRANCH  62  66
ENDBRANCH  45  59
BRANCH  46  70
ATOM     70  C   UNL A   1      46.961  27.145  26.102  1.00  0.00     0.023 A 
ATOM     71  C   UNL A   1      48.014  26.490  26.759  1.00  0.00     0.031 A 
ATOM     72  C   UNL A   1      47.112  27.421  24.730  1.00  0.00     0.131 A 
ATOM     73  C   UNL A   1      49.186  26.169  26.055  1.00  0.00     0.055 A 
ATOM     74  C   UNL A   1      48.253  27.044  24.022  1.00  0.00     0.041 A 
ATOM     75  F   UNL A   1      46.140  28.052  24.053  1.00  0.00    -0.206 F 
ATOM     76  C   UNL A   1      49.305  26.426  24.688  1.00  0.00     0.022 A 
BRANCH  73  77
ATOM     77  S   UNL A   1      50.596  25.495  26.977  1.00  0.00     0.124 S 
ATOM     78  O   UNL A   1      51.537  25.194  25.903  1.00  0.00    -0.237 OA
ATOM     79  O   UNL A   1      50.950  26.610  27.847  1.00  0.00    -0.237 OA
ATOM     80  O   UNL A   1      50.032  24.330  27.656  1.00  0.00    -0.744 OA
ENDBRANCH  73  77
ENDBRANCH  46  70
BRANCH  58  81
ATOM     81  C   UNL A   1      45.211  33.106  29.245  1.00  0.00     0.023 A 
ATOM     82  C   UNL A   1      45.170  34.169  28.327  1.00  0.00     0.031 A 
ATOM     83  C   UNL A   1      46.014  33.249  30.390  1.00  0.00     0.131 A 
ATOM     84  C   UNL A   1      45.964  35.306  28.541  1.00  0.00     0.055 A 
ATOM     85  C   UNL A   1      46.758  34.406  30.626  1.00  0.00     0.041 A 
ATOM     86  F   UNL A   1      46.092  32.262  31.299  1.00  0.00    -0.206 F 
ATOM     87  C   UNL A   1      46.747  35.437  29.691  1.00  0.00     0.022 A 
BRANCH  84  88
ATOM     88  S   UNL A   1      46.028  36.579  27.249  1.00  0.00     0.124 S 
ATOM     89  O   UNL A   1      44.619  36.922  27.090  1.00  0.00    -0.237 OA
ATOM     90  O   UNL A   1      46.869  37.603  27.861  1.00  0.00    -0.237 OA
ATOM     91  O   UNL A   1      46.629  35.884  26.112  1.00  0.00    -0.744 OA
ENDBRANCH  84  88
ENDBRANCH  58  81
ENDBRANCH  32  33
ENDBRANCH  25  27
ENDBRANCH  24  25
ENDBRANCH   1  24
TORSDOF 16
ENDMDL
MODEL 3
REMARK VINA RESULT:     -12.3      1.321      1.588
REMARK SMILES Nc1cc(C(=O)OCCOC(=O)c2ccc(-c3c4nc(c(-c5cc(S(=O)(=O)[O-])ccc5F)c5ccc([nH]5)c(-c5cc(S(=O)(=O)[O-])ccc5F)c5nc(c(-c6cc(S(=O)(=O)[O-])ccc6F)c6ccc3[nH]6)C=C5)C=C4)cc2)ccc1N1CC2(CCOCC2)C1
REMARK SMILES IDX 9 1 8 2 7 3 5 4 6 5 4 6 2 7 3 8 78 9 77 10 76 11 1 12 79 15
REMARK SMILES IDX 80 16 87 17 81 18 82 19 86 20 83 21 85 22 84 23 10 24 11 25
REMARK SMILES IDX 12 26 13 27 14 28 75 29 15 30 74 31 16 32 17 33 18 34 68 35
REMARK SMILES IDX 19 36 73 37 67 38 69 39 20 40 72 41 66 42 65 43 21 45 53 46
REMARK SMILES IDX 33 47 52 48 34 49 37 50 51 51 70 52 35 53 36 54 50 56 71 57
REMARK SMILES IDX 38 58 22 59 23 60 31 61 24 62 30 63 32 64 29 65 25 66 26 67
REMARK SMILES IDX 27 68 28 69 54 70 55 71 63 72 56 73 62 74 64 75 61 76 57 77
REMARK SMILES IDX 58 78 59 79 60 80 39 81 40 82 48 83 41 84 47 85 49 86 46 87
REMARK SMILES IDX 42 88 43 89 44 90 45 91
REMARK H PARENT 1 13 1 14 69 44 37 55
REMARK Flexibility Score: inf
ROOT
ATOM      1  C   UNL A   1      36.522  20.292  24.977  1.00  0.00     0.275 C 
ENDROOT
BRANCH   1   2
ATOM      2  C   UNL A   1      35.053  20.496  25.347  1.00  0.00     0.275 C 
BRANCH   2   3
ATOM      3  O   UNL A   1      34.207  19.597  24.602  1.00  0.00    -0.458 OA
BRANCH   3   4
ATOM      4  C   UNL A   1      32.880  19.705  24.859  1.00  0.00     0.338 C 
ATOM      5  O   UNL A   1      32.168  18.853  25.368  1.00  0.00    -0.246 OA
BRANCH   4   6
ATOM      6  C   UNL A   1      32.396  21.067  24.543  1.00  0.00     0.062 A 
ATOM      7  C   UNL A   1      32.317  22.877  22.894  1.00  0.00     0.056 A 
ATOM      8  C   UNL A   1      32.771  21.621  23.316  1.00  0.00     0.043 A 
ATOM      9  C   UNL A   1      31.609  23.674  23.815  1.00  0.00     0.060 A 
ATOM     10  C   UNL A   1      31.271  23.122  25.072  1.00  0.00     0.029 A 
ATOM     11  C   UNL A   1      31.628  21.816  25.426  1.00  0.00     0.018 A 
BRANCH   7  12
ATOM     12  N   UNL A   1      32.771  23.323  21.657  1.00  0.00    -0.397 N 
ATOM     13  H   UNL A   1      32.548  22.820  20.840  1.00  0.00     0.156 HD
ATOM     14  H   UNL A   1      33.315  24.142  21.598  1.00  0.00     0.156 HD
ENDBRANCH   7  12
BRANCH   9  15
ATOM     15  N   UNL A   1      31.253  25.026  23.603  1.00  0.00    -0.369 N 
ATOM     16  C   UNL A   1      32.013  26.232  23.689  1.00  0.00     0.125 C 
ATOM     17  C   UNL A   1      30.043  25.620  24.102  1.00  0.00     0.125 C 
ATOM     18  C   UNL A   1      30.853  26.871  24.490  1.00  0.00     0.010 C 
ATOM     19  C   UNL A   1      30.328  28.189  23.916  1.00  0.00     0.039 C 
ATOM     20  C   UNL A   1      31.040  27.015  26.009  1.00  0.00     0.039 C 
ATOM     21  C   UNL A   1      31.286  29.309  24.310  1.00  0.00     0.161 C 
ATOM     22  C   UNL A   1      31.957  28.198  26.290  1.00  0.00     0.161 C 
ATOM     23  O   UNL A   1      31.393  29.390  25.733  1.00  0.00    -0.381 OA
ENDBRANCH   9  15
ENDBRANCH   4   6
ENDBRANCH   3   4
ENDBRANCH   2   3
ENDBRANCH   1   2
BRANCH   1  24
ATOM     24  O   UNL A   1      37.300  21.414  25.431  1.00  0.00    -0.458 OA
BRANCH  24  25
ATOM     25  C   UNL A   1      38.565  21.134  25.825  1.00  0.00     0.338 C 
ATOM     26  O   UNL A   1      39.156  20.075  25.702  1.00  0.00    -0.246 OA
BRANCH  25  27
ATOM     27  C   UNL A   1      39.169  22.325  26.457  1.00  0.00     0.060 A 
ATOM     28  C   UNL A   1      38.662  23.590  26.178  1.00  0.00     0.016 A 
ATOM     29  C   UNL A   1      40.318  22.196  27.233  1.00  0.00     0.016 A 
ATOM     30  C   UNL A   1      39.363  24.732  26.569  1.00  0.00     0.010 A 
ATOM     31  C   UNL A   1      40.954  23.344  27.726  1.00  0.00     0.010 A 
ATOM     32  C   UNL A   1      40.516  24.632  27.363  1.00  0.00    -0.014 A 
BRANCH  32  33
ATOM     33  C   UNL A   1      41.285  25.850  27.772  1.00  0.00     0.031 A 
ATOM     34  C   UNL A   1      40.627  26.913  28.624  1.00  0.00     0.074 A 
ATOM     35  C   UNL A   1      42.572  26.022  27.396  1.00  0.00     0.049 A 
ATOM     36  N   UNL A   1      41.038  28.124  28.908  1.00  0.00    -0.248 NA
ATOM     37  C   UNL A   1      39.326  26.571  29.218  1.00  0.00     0.031 C 
ATOM     38  C   UNL A   1      43.363  25.068  26.615  1.00  0.00     0.029 A 
ATOM     39  N   UNL A   1      43.447  27.058  27.624  1.00  0.00    -0.354 N 
ATOM     40  C   UNL A   1      40.015  28.712  29.651  1.00  0.00     0.074 A 
ATOM     41  C   UNL A   1      38.966  27.721  29.768  1.00  0.00     0.031 C 
ATOM     42  C   UNL A   1      44.611  25.539  26.471  1.00  0.00     0.029 A 
ATOM     43  C   UNL A   1      44.686  26.876  27.050  1.00  0.00     0.049 A 
ATOM     44  H   UNL A   1      43.209  27.856  28.149  1.00  0.00     0.167 HD
ATOM     45  C   UNL A   1      39.957  29.960  30.182  1.00  0.00     0.034 A 
ATOM     46  C   UNL A   1      45.747  27.702  26.947  1.00  0.00     0.034 A 
ATOM     47  C   UNL A   1      41.037  30.917  30.114  1.00  0.00     0.049 A 
ATOM     48  C   UNL A   1      45.649  29.093  27.517  1.00  0.00     0.074 A 
ATOM     49  C   UNL A   1      41.089  32.197  30.644  1.00  0.00     0.029 A 
ATOM     50  N   UNL A   1      42.259  30.700  29.492  1.00  0.00    -0.354 N 
ATOM     51  N   UNL A   1      44.648  29.656  28.152  1.00  0.00    -0.248 NA
ATOM     52  C   UNL A   1      46.817  29.966  27.339  1.00  0.00     0.031 C 
ATOM     53  C   UNL A   1      42.316  32.770  30.295  1.00  0.00     0.029 A 
ATOM     54  C   UNL A   1      43.060  31.826  29.607  1.00  0.00     0.049 A 
ATOM     55  H   UNL A   1      42.519  29.867  29.036  1.00  0.00     0.167 HD
ATOM     56  C   UNL A   1      45.075  30.944  28.463  1.00  0.00     0.074 A 
ATOM     57  C   UNL A   1      46.429  31.066  27.966  1.00  0.00     0.031 C 
ATOM     58  C   UNL A   1      44.406  31.940  29.098  1.00  0.00     0.034 A 
BRANCH  45  59
ATOM     59  C   UNL A   1      38.662  30.387  30.832  1.00  0.00     0.023 A 
ATOM     60  C   UNL A   1      37.636  31.026  30.117  1.00  0.00     0.031 A 
ATOM     61  C   UNL A   1      38.458  30.150  32.205  1.00  0.00     0.131 A 
ATOM     62  C   UNL A   1      36.483  31.462  30.789  1.00  0.00     0.055 A 
ATOM     63  C   UNL A   1      37.277  30.518  32.851  1.00  0.00     0.041 A 
ATOM     64  F   UNL A   1      39.411  29.559  32.945  1.00  0.00    -0.206 F 
ATOM     65  C   UNL A   1      36.285  31.191  32.145  1.00  0.00     0.022 A 
BRANCH  62  66
ATOM     66  S   UNL A   1      35.294  32.499  29.893  1.00  0.00     0.124 S 
ATOM     67  O   UNL A   1      34.285  32.745  30.920  1.00  0.00    -0.237 OA
ATOM     68  O   UNL A   1      36.105  33.650  29.509  1.00  0.00    -0.237 OA
ATOM     69  O   UNL A   1      34.857  31.648  28.789  1.00  0.00    -0.744 OA
ENDBRANCH  62  66
ENDBRANCH  45  59
BRANCH  46  70
ATOM     70  C   UNL A   1      46.973  27.273  26.209  1.00  0.00     0.023 A 
ATOM     71  C   UNL A   1      47.203  27.679  24.885  1.00  0.00     0.031 A 
ATOM     72  C   UNL A   1      47.907  26.404  26.802  1.00  0.00     0.131 A 
ATOM     73  C   UNL A   1      48.318  27.188  24.186  1.00  0.00     0.055 A 
ATOM     74  C   UNL A   1      49.046  25.968  26.124  1.00  0.00     0.041 A 
ATOM     75  F   UNL A   1      47.733  25.976  28.063  1.00  0.00    -0.206 F 
ATOM     76  C   UNL A   1      49.249  26.349  24.803  1.00  0.00     0.022 A 
BRANCH  73  77
ATOM     77  S   UNL A   1      48.483  27.586  22.424  1.00  0.00     0.124 S 
ATOM     78  O   UNL A   1      49.721  28.359  22.408  1.00  0.00    -0.237 OA
ATOM     79  O   UNL A   1      48.547  26.260  21.819  1.00  0.00    -0.237 OA
ATOM     80  O   UNL A   1      47.269  28.345  22.131  1.00  0.00    -0.744 OA
ENDBRANCH  73  77
ENDBRANCH  46  70
BRANCH  58  81
ATOM     81  C   UNL A   1      45.157  33.226  29.329  1.00  0.00     0.023 A 
ATOM     82  C   UNL A   1      45.921  33.437  30.490  1.00  0.00     0.031 A 
ATOM     83  C   UNL A   1      45.085  34.265  28.384  1.00  0.00     0.131 A 
ATOM     84  C   UNL A   1      46.535  34.680  30.704  1.00  0.00     0.055 A 
ATOM     85  C   UNL A   1      45.744  35.480  28.577  1.00  0.00     0.041 A 
ATOM     86  F   UNL A   1      44.367  34.117  27.259  1.00  0.00    -0.206 F 
ATOM     87  C   UNL A   1      46.463  35.698  29.749  1.00  0.00     0.022 A 
BRANCH  84  88
ATOM     88  S   UNL A   1      47.359  34.983  32.293  1.00  0.00     0.124 S 
ATOM     89  O   UNL A   1      48.312  36.033  31.945  1.00  0.00    -0.237 OA
ATOM     90  O   UNL A   1      46.249  35.388  33.148  1.00  0.00    -0.237 OA
ATOM     91  O   UNL A   1      47.955  33.689  32.622  1.00  0.00    -0.744 OA
ENDBRANCH  84  88
ENDBRANCH  58  81
ENDBRANCH  32  33
ENDBRANCH  25  27
ENDBRANCH  24  25
ENDBRANCH   1  24
TORSDOF 16
ENDMDL
