MODEL 1
REMARK VINA RESULT:     -11.9      0.000      0.000
REMARK SMILES O=C(OCCOC(=O)c1cccnc1Nc1cccc(C(F)(F)F)c1)c1ccc(-c2c3nc(c(-c4cc(S(=O)(=O)[O-])ccc4F)c4ccc([nH]4)c(-c4cc(S(=O)(=O)[O-])ccc4F)c4nc(c(-c5cc(S(=O)(=O)[O-])ccc5F)c5ccc2[nH]5)C=C4)C=C3)cc1
REMARK SMILES IDX 4 1 3 2 2 3 1 4 26 5 27 6 88 7 28 8 87 9 29 10 30 11 31 12
REMARK SMILES IDX 81 13 32 14 86 15 80 16 82 17 33 18 85 19 79 20 78 21 34 23
REMARK SMILES IDX 66 24 46 25 65 26 47 27 50 28 64 29 83 30 48 31 49 32 63 34
REMARK SMILES IDX 84 35 51 36 35 37 36 38 44 39 37 40 43 41 45 42 42 43 38 44
REMARK SMILES IDX 39 45 40 46 41 47 67 48 68 49 76 50 69 51 75 52 77 53 74 54
REMARK SMILES IDX 70 55 71 56 72 57 73 58 52 59 53 60 61 61 54 62 60 63 62 64
REMARK SMILES IDX 59 65 55 66 56 67 57 68 58 69 5 70 6 71 7 72 8 73 9 74 10 75
REMARK SMILES IDX 14 76 11 77 13 78 12 79 15 80 16 82 17 83 25 84 18 85 20 86
REMARK SMILES IDX 19 87 21 88 22 89 23 90 24 91
REMARK H PARENT 82 22 50 33 15 81
REMARK Flexibility Score: inf
ROOT
ATOM      1  C   UNL A   1      32.221  30.378  26.858  1.00  0.00     0.275 C 
ENDROOT
BRANCH   1   2
ATOM      2  O   UNL A   1      33.610  30.640  26.590  1.00  0.00    -0.458 OA
BRANCH   2   3
ATOM      3  C   UNL A   1      34.559  31.215  27.365  1.00  0.00     0.338 C 
ATOM      4  O   UNL A   1      34.578  32.442  27.456  1.00  0.00    -0.246 OA
BRANCH   3   5
ATOM      5  C   UNL A   1      35.688  30.454  27.979  1.00  0.00     0.060 A 
ATOM      6  C   UNL A   1      35.618  29.679  29.138  1.00  0.00     0.016 A 
ATOM      7  C   UNL A   1      36.930  30.556  27.329  1.00  0.00     0.016 A 
ATOM      8  C   UNL A   1      36.729  28.957  29.583  1.00  0.00     0.010 A 
ATOM      9  C   UNL A   1      38.035  29.820  27.752  1.00  0.00     0.010 A 
ATOM     10  C   UNL A   1      37.944  29.026  28.896  1.00  0.00    -0.014 A 
BRANCH  10  11
ATOM     11  C   UNL A   1      39.162  28.439  29.490  1.00  0.00     0.031 A 
ATOM     12  C   UNL A   1      39.722  29.080  30.725  1.00  0.00     0.074 A 
ATOM     13  C   UNL A   1      39.740  27.353  28.948  1.00  0.00     0.049 A 
ATOM     14  N   UNL A   1      40.746  28.723  31.452  1.00  0.00    -0.248 NA
ATOM     15  C   UNL A   1      39.022  30.281  31.212  1.00  0.00     0.031 C 
ATOM     16  C   UNL A   1      39.250  26.635  27.773  1.00  0.00     0.029 A 
ATOM     17  N   UNL A   1      40.877  26.674  29.299  1.00  0.00    -0.354 N 
ATOM     18  C   UNL A   1      40.785  29.626  32.506  1.00  0.00     0.074 A 
ATOM     19  C   UNL A   1      39.749  30.606  32.266  1.00  0.00     0.031 C 
ATOM     20  C   UNL A   1      40.119  25.660  27.456  1.00  0.00     0.029 A 
ATOM     21  C   UNL A   1      41.218  25.677  28.417  1.00  0.00     0.049 A 
ATOM     22  H   UNL A   1      41.400  26.881  30.107  1.00  0.00     0.167 HD
ATOM     23  C   UNL A   1      41.581  29.609  33.602  1.00  0.00     0.034 A 
ATOM     24  C   UNL A   1      42.302  24.879  28.386  1.00  0.00     0.034 A 
ATOM     25  C   UNL A   1      42.637  28.650  33.786  1.00  0.00     0.049 A 
ATOM     26  C   UNL A   1      43.271  24.958  29.538  1.00  0.00     0.074 A 
ATOM     27  C   UNL A   1      43.514  28.514  34.845  1.00  0.00     0.029 A 
ATOM     28  N   UNL A   1      42.980  27.673  32.856  1.00  0.00    -0.354 N 
ATOM     29  N   UNL A   1      43.247  25.760  30.579  1.00  0.00    -0.248 NA
ATOM     30  C   UNL A   1      44.380  23.998  29.541  1.00  0.00     0.031 C 
ATOM     31  C   UNL A   1      44.428  27.502  34.524  1.00  0.00     0.029 A 
ATOM     32  C   UNL A   1      44.079  26.956  33.298  1.00  0.00     0.049 A 
ATOM     33  H   UNL A   1      42.510  27.514  32.006  1.00  0.00     0.167 HD
ATOM     34  C   UNL A   1      44.309  25.368  31.388  1.00  0.00     0.074 A 
ATOM     35  C   UNL A   1      44.956  24.262  30.706  1.00  0.00     0.031 C 
ATOM     36  C   UNL A   1      44.704  25.860  32.591  1.00  0.00     0.034 A 
BRANCH  23  37
ATOM     37  C   UNL A   1      41.333  30.686  34.631  1.00  0.00     0.023 A 
ATOM     38  C   UNL A   1      40.215  30.630  35.488  1.00  0.00     0.031 A 
ATOM     39  C   UNL A   1      42.143  31.830  34.683  1.00  0.00     0.131 A 
ATOM     40  C   UNL A   1      39.877  31.742  36.272  1.00  0.00     0.055 A 
ATOM     41  C   UNL A   1      41.852  32.898  35.537  1.00  0.00     0.041 A 
ATOM     42  F   UNL A   1      43.209  31.951  33.876  1.00  0.00    -0.206 F 
ATOM     43  C   UNL A   1      40.700  32.868  36.320  1.00  0.00     0.022 A 
BRANCH  40  44
ATOM     44  S   UNL A   1      38.249  31.769  37.075  1.00  0.00     0.124 S 
ATOM     45  O   UNL A   1      37.513  32.699  36.221  1.00  0.00    -0.237 OA
ATOM     46  O   UNL A   1      37.836  30.372  37.000  1.00  0.00    -0.237 OA
ATOM     47  O   UNL A   1      38.536  32.264  38.420  1.00  0.00    -0.744 OA
ENDBRANCH  40  44
ENDBRANCH  23  37
BRANCH  24  48
ATOM     48  C   UNL A   1      42.527  23.960  27.234  1.00  0.00     0.023 A 
ATOM     49  C   UNL A   1      42.068  22.634  27.241  1.00  0.00     0.031 A 
ATOM     50  C   UNL A   1      43.230  24.408  26.100  1.00  0.00     0.131 A 
ATOM     51  C   UNL A   1      42.347  21.792  26.152  1.00  0.00     0.055 A 
ATOM     52  C   UNL A   1      43.478  23.576  25.006  1.00  0.00     0.041 A 
ATOM     53  F   UNL A   1      43.674  25.673  26.032  1.00  0.00    -0.206 F 
ATOM     54  C   UNL A   1      43.043  22.255  25.033  1.00  0.00     0.022 A 
BRANCH  51  55
ATOM     55  S   UNL A   1      41.826  20.055  26.236  1.00  0.00     0.124 S 
ATOM     56  O   UNL A   1      40.377  20.171  26.122  1.00  0.00    -0.237 OA
ATOM     57  O   UNL A   1      42.518  19.480  25.087  1.00  0.00    -0.237 OA
ATOM     58  O   UNL A   1      42.318  19.616  27.539  1.00  0.00    -0.744 OA
ENDBRANCH  51  55
ENDBRANCH  24  48
BRANCH  36  59
ATOM     59  C   UNL A   1      45.856  25.163  33.266  1.00  0.00     0.023 A 
ATOM     60  C   UNL A   1      45.673  23.989  34.015  1.00  0.00     0.031 A 
ATOM     61  C   UNL A   1      47.159  25.681  33.148  1.00  0.00     0.131 A 
ATOM     62  C   UNL A   1      46.769  23.398  34.660  1.00  0.00     0.055 A 
ATOM     63  C   UNL A   1      48.254  25.053  33.739  1.00  0.00     0.041 A 
ATOM     64  F   UNL A   1      47.386  26.803  32.446  1.00  0.00    -0.206 F 
ATOM     65  C   UNL A   1      48.060  23.910  34.510  1.00  0.00     0.022 A 
BRANCH  62  66
ATOM     66  S   UNL A   1      46.470  21.993  35.766  1.00  0.00     0.124 S 
ATOM     67  O   UNL A   1      47.820  21.673  36.217  1.00  0.00    -0.237 OA
ATOM     68  O   UNL A   1      45.582  22.569  36.770  1.00  0.00    -0.237 OA
ATOM     69  O   UNL A   1      45.854  20.995  34.893  1.00  0.00    -0.744 OA
ENDBRANCH  62  66
ENDBRANCH  36  59
ENDBRANCH  10  11
ENDBRANCH   3   5
ENDBRANCH   2   3
ENDBRANCH   1   2
BRANCH   1  70
ATOM     70  C   UNL A   1      31.883  28.924  27.190  1.00  0.00     0.275 C 
BRANCH  70  71
ATOM     71  O   UNL A   1      32.736  27.961  26.556  1.00  0.00    -0.458 OA
BRANCH  71  72
ATOM     72  C   UNL A   1      32.141  26.779  26.238  1.00  0.00     0.342 C 
ATOM     73  O   UNL A   1      31.258  26.230  26.874  1.00  0.00    -0.246 OA
BRANCH  72  74
ATOM     74  C   UNL A   1      32.659  26.291  24.947  1.00  0.00     0.102 A 
ATOM     75  C   UNL A   1      33.314  25.052  24.885  1.00  0.00     0.021 A 
ATOM     76  C   UNL A   1      32.529  27.062  23.782  1.00  0.00     0.144 A 
ATOM     77  C   UNL A   1      33.841  24.616  23.676  1.00  0.00     0.021 A 
ATOM     78  N   UNL A   1      33.041  26.615  22.605  1.00  0.00    -0.238 NA
ATOM     79  C   UNL A   1      33.695  25.433  22.575  1.00  0.00     0.113 A 
BRANCH  76  80
ATOM     80  N   UNL A   1      31.916  28.332  23.798  1.00  0.00    -0.340 N 
ATOM     81  H   UNL A   1      32.496  29.092  24.028  1.00  0.00     0.168 HD
BRANCH  80  82
ATOM     82  C   UNL A   1      30.572  28.639  23.520  1.00  0.00     0.040 A 
ATOM     83  C   UNL A   1      29.622  27.612  23.437  1.00  0.00     0.026 A 
ATOM     84  C   UNL A   1      30.135  29.961  23.415  1.00  0.00     0.039 A 
ATOM     85  C   UNL A   1      28.267  27.902  23.267  1.00  0.00     0.003 A 
ATOM     86  C   UNL A   1      28.784  30.269  23.196  1.00  0.00     0.058 A 
ATOM     87  C   UNL A   1      27.850  29.224  23.140  1.00  0.00     0.013 A 
BRANCH  86  88
ATOM     88  C   UNL A   1      28.343  31.693  22.992  1.00  0.00     0.416 C 
ATOM     89  F   UNL A   1      29.132  32.573  23.675  1.00  0.00    -0.166 F 
ATOM     90  F   UNL A   1      28.400  32.088  21.690  1.00  0.00    -0.166 F 
ATOM     91  F   UNL A   1      27.071  31.951  23.407  1.00  0.00    -0.166 F 
ENDBRANCH  86  88
ENDBRANCH  80  82
ENDBRANCH  76  80
ENDBRANCH  72  74
ENDBRANCH  71  72
ENDBRANCH  70  71
ENDBRANCH   1  70
TORSDOF 17
ENDMDL
MODEL 2
REMARK VINA RESULT:     -11.9      3.813      6.395
REMARK SMILES O=C(OCCOC(=O)c1cccnc1Nc1cccc(C(F)(F)F)c1)c1ccc(-c2c3nc(c(-c4cc(S(=O)(=O)[O-])ccc4F)c4ccc([nH]4)c(-c4cc(S(=O)(=O)[O-])ccc4F)c4nc(c(-c5cc(S(=O)(=O)[O-])ccc5F)c5ccc2[nH]5)C=C4)C=C3)cc1
REMARK SMILES IDX 4 1 3 2 2 3 1 4 26 5 27 6 88 7 28 8 87 9 29 10 30 11 31 12
REMARK SMILES IDX 81 13 32 14 86 15 80 16 82 17 33 18 85 19 79 20 78 21 34 23
REMARK SMILES IDX 66 24 46 25 65 26 47 27 50 28 64 29 83 30 48 31 49 32 63 34
REMARK SMILES IDX 84 35 51 36 35 37 36 38 44 39 37 40 43 41 45 42 42 43 38 44
REMARK SMILES IDX 39 45 40 46 41 47 67 48 68 49 76 50 69 51 75 52 77 53 74 54
REMARK SMILES IDX 70 55 71 56 72 57 73 58 52 59 53 60 61 61 54 62 60 63 62 64
REMARK SMILES IDX 59 65 55 66 56 67 57 68 58 69 5 70 6 71 7 72 8 73 9 74 10 75
REMARK SMILES IDX 14 76 11 77 13 78 12 79 15 80 16 82 17 83 25 84 18 85 20 86
REMARK SMILES IDX 19 87 21 88 22 89 23 90 24 91
REMARK H PARENT 82 22 50 33 15 81
REMARK Flexibility Score: inf
ROOT
ATOM      1  C   UNL A   1      33.816  32.963  27.995  1.00  0.00     0.275 C 
ENDROOT
BRANCH   1   2
ATOM      2  O   UNL A   1      33.859  31.802  27.146  1.00  0.00    -0.458 OA
BRANCH   2   3
ATOM      3  C   UNL A   1      34.186  30.520  27.430  1.00  0.00     0.338 C 
ATOM      4  O   UNL A   1      33.298  29.669  27.404  1.00  0.00    -0.246 OA
BRANCH   3   5
ATOM      5  C   UNL A   1      35.528  30.110  27.940  1.00  0.00     0.060 A 
ATOM      6  C   UNL A   1      36.719  30.124  27.213  1.00  0.00     0.016 A 
ATOM      7  C   UNL A   1      35.573  29.652  29.269  1.00  0.00     0.016 A 
ATOM      8  C   UNL A   1      37.932  29.779  27.819  1.00  0.00     0.010 A 
ATOM      9  C   UNL A   1      36.779  29.330  29.887  1.00  0.00     0.010 A 
ATOM     10  C   UNL A   1      37.968  29.376  29.156  1.00  0.00    -0.014 A 
BRANCH  10  11
ATOM     11  C   UNL A   1      39.208  28.808  29.722  1.00  0.00     0.031 A 
ATOM     12  C   UNL A   1      39.776  29.447  30.955  1.00  0.00     0.074 A 
ATOM     13  C   UNL A   1      39.800  27.741  29.158  1.00  0.00     0.049 A 
ATOM     14  N   UNL A   1      40.819  29.104  31.660  1.00  0.00    -0.248 NA
ATOM     15  C   UNL A   1      39.059  30.628  31.467  1.00  0.00     0.031 C 
ATOM     16  C   UNL A   1      39.305  27.025  27.984  1.00  0.00     0.029 A 
ATOM     17  N   UNL A   1      40.957  27.082  29.483  1.00  0.00    -0.354 N 
ATOM     18  C   UNL A   1      40.857  29.997  32.724  1.00  0.00     0.074 A 
ATOM     19  C   UNL A   1      39.797  30.957  32.512  1.00  0.00     0.031 C 
ATOM     20  C   UNL A   1      40.189  26.073  27.641  1.00  0.00     0.029 A 
ATOM     21  C   UNL A   1      41.304  26.102  28.583  1.00  0.00     0.049 A 
ATOM     22  H   UNL A   1      41.489  27.292  30.284  1.00  0.00     0.167 HD
ATOM     23  C   UNL A   1      41.672  29.985  33.806  1.00  0.00     0.034 A 
ATOM     24  C   UNL A   1      42.404  25.328  28.526  1.00  0.00     0.034 A 
ATOM     25  C   UNL A   1      42.751  29.046  33.961  1.00  0.00     0.049 A 
ATOM     26  C   UNL A   1      43.391  25.415  29.662  1.00  0.00     0.074 A 
ATOM     27  C   UNL A   1      43.648  28.918  35.004  1.00  0.00     0.029 A 
ATOM     28  N   UNL A   1      43.099  28.087  33.014  1.00  0.00    -0.354 N 
ATOM     29  N   UNL A   1      43.367  26.205  30.712  1.00  0.00    -0.248 NA
ATOM     30  C   UNL A   1      44.520  24.479  29.635  1.00  0.00     0.031 C 
ATOM     31  C   UNL A   1      44.578  27.929  34.656  1.00  0.00     0.029 A 
ATOM     32  C   UNL A   1      44.220  27.389  33.430  1.00  0.00     0.049 A 
ATOM     33  H   UNL A   1      42.617  27.927  32.171  1.00  0.00     0.167 HD
ATOM     34  C   UNL A   1      44.451  25.827  31.498  1.00  0.00     0.074 A 
ATOM     35  C   UNL A   1      45.109  24.742  30.793  1.00  0.00     0.031 C 
ATOM     36  C   UNL A   1      44.856  26.315  32.700  1.00  0.00     0.034 A 
BRANCH  23  37
ATOM     37  C   UNL A   1      41.419  31.044  34.851  1.00  0.00     0.023 A 
ATOM     38  C   UNL A   1      40.209  31.080  35.573  1.00  0.00     0.031 A 
ATOM     39  C   UNL A   1      42.332  32.091  35.048  1.00  0.00     0.131 A 
ATOM     40  C   UNL A   1      39.899  32.193  36.367  1.00  0.00     0.055 A 
ATOM     41  C   UNL A   1      42.055  33.153  35.914  1.00  0.00     0.041 A 
ATOM     42  F   UNL A   1      43.491  32.125  34.373  1.00  0.00    -0.206 F 
ATOM     43  C   UNL A   1      40.823  33.221  36.561  1.00  0.00     0.022 A 
BRANCH  40  44
ATOM     44  S   UNL A   1      38.200  32.368  36.983  1.00  0.00     0.124 S 
ATOM     45  O   UNL A   1      37.420  31.916  35.833  1.00  0.00    -0.237 OA
ATOM     46  O   UNL A   1      38.193  31.486  38.144  1.00  0.00    -0.237 OA
ATOM     47  O   UNL A   1      38.088  33.794  37.281  1.00  0.00    -0.744 OA
ENDBRANCH  40  44
ENDBRANCH  23  37
BRANCH  24  48
ATOM     48  C   UNL A   1      42.628  24.426  27.360  1.00  0.00     0.023 A 
ATOM     49  C   UNL A   1      42.171  23.101  27.347  1.00  0.00     0.031 A 
ATOM     50  C   UNL A   1      43.330  24.892  26.232  1.00  0.00     0.131 A 
ATOM     51  C   UNL A   1      42.449  22.275  26.245  1.00  0.00     0.055 A 
ATOM     52  C   UNL A   1      43.577  24.077  25.125  1.00  0.00     0.041 A 
ATOM     53  F   UNL A   1      43.773  26.159  26.182  1.00  0.00    -0.206 F 
ATOM     54  C   UNL A   1      43.144  22.755  25.133  1.00  0.00     0.022 A 
BRANCH  51  55
ATOM     55  S   UNL A   1      41.930  20.536  26.304  1.00  0.00     0.124 S 
ATOM     56  O   UNL A   1      40.493  20.646  26.086  1.00  0.00    -0.237 OA
ATOM     57  O   UNL A   1      42.704  19.957  25.210  1.00  0.00    -0.237 OA
ATOM     58  O   UNL A   1      42.330  20.107  27.642  1.00  0.00    -0.744 OA
ENDBRANCH  51  55
ENDBRANCH  24  48
BRANCH  36  59
ATOM     59  C   UNL A   1      46.034  25.634  33.348  1.00  0.00     0.023 A 
ATOM     60  C   UNL A   1      45.880  24.481  34.134  1.00  0.00     0.031 A 
ATOM     61  C   UNL A   1      47.331  26.148  33.164  1.00  0.00     0.131 A 
ATOM     62  C   UNL A   1      47.001  23.906  34.751  1.00  0.00     0.055 A 
ATOM     63  C   UNL A   1      48.448  25.535  33.729  1.00  0.00     0.041 A 
ATOM     64  F   UNL A   1      47.530  27.251  32.424  1.00  0.00    -0.206 F 
ATOM     65  C   UNL A   1      48.286  24.414  34.538  1.00  0.00     0.022 A 
BRANCH  62  66
ATOM     66  S   UNL A   1      46.746  22.533  35.906  1.00  0.00     0.124 S 
ATOM     67  O   UNL A   1      45.339  22.692  36.258  1.00  0.00    -0.237 OA
ATOM     68  O   UNL A   1      47.070  21.370  35.086  1.00  0.00    -0.237 OA
ATOM     69  O   UNL A   1      47.692  22.812  36.985  1.00  0.00    -0.744 OA
ENDBRANCH  62  66
ENDBRANCH  36  59
ENDBRANCH  10  11
ENDBRANCH   3   5
ENDBRANCH   2   3
ENDBRANCH   1   2
BRANCH   1  70
ATOM     70  C   UNL A   1      35.175  33.469  28.478  1.00  0.00     0.275 C 
BRANCH  70  71
ATOM     71  O   UNL A   1      35.108  34.360  29.599  1.00  0.00    -0.458 OA
BRANCH  71  72
ATOM     72  C   UNL A   1      34.556  33.835  30.727  1.00  0.00     0.342 C 
ATOM     73  O   UNL A   1      34.415  32.648  30.966  1.00  0.00    -0.246 OA
BRANCH  72  74
ATOM     74  C   UNL A   1      34.230  34.916  31.674  1.00  0.00     0.102 A 
ATOM     75  C   UNL A   1      33.202  35.820  31.368  1.00  0.00     0.021 A 
ATOM     76  C   UNL A   1      34.953  35.070  32.866  1.00  0.00     0.144 A 
ATOM     77  C   UNL A   1      32.927  36.865  32.241  1.00  0.00     0.021 A 
ATOM     78  N   UNL A   1      34.665  36.092  33.715  1.00  0.00    -0.238 NA
ATOM     79  C   UNL A   1      33.691  36.969  33.385  1.00  0.00     0.113 A 
BRANCH  76  80
ATOM     80  N   UNL A   1      36.023  34.214  33.201  1.00  0.00    -0.340 N 
ATOM     81  H   UNL A   1      35.790  33.412  33.721  1.00  0.00     0.168 HD
BRANCH  80  82
ATOM     82  C   UNL A   1      37.382  34.373  32.878  1.00  0.00     0.040 A 
ATOM     83  C   UNL A   1      38.313  34.650  33.886  1.00  0.00     0.026 A 
ATOM     84  C   UNL A   1      37.848  34.167  31.577  1.00  0.00     0.039 A 
ATOM     85  C   UNL A   1      39.679  34.708  33.603  1.00  0.00     0.003 A 
ATOM     86  C   UNL A   1      39.213  34.269  31.265  1.00  0.00     0.058 A 
ATOM     87  C   UNL A   1      40.127  34.525  32.297  1.00  0.00     0.013 A 
BRANCH  86  88
ATOM     88  C   UNL A   1      39.688  34.137  29.845  1.00  0.00     0.416 C 
ATOM     89  F   UNL A   1      40.747  33.281  29.739  1.00  0.00    -0.166 F 
ATOM     90  F   UNL A   1      38.735  33.642  29.006  1.00  0.00    -0.166 F 
ATOM     91  F   UNL A   1      40.110  35.305  29.284  1.00  0.00    -0.166 F 
ENDBRANCH  86  88
ENDBRANCH  80  82
ENDBRANCH  76  80
ENDBRANCH  72  74
ENDBRANCH  71  72
ENDBRANCH  70  71
ENDBRANCH   1  70
TORSDOF 17
ENDMDL
MODEL 3
REMARK VINA RESULT:     -11.7      5.871     11.043
REMARK SMILES O=C(OCCOC(=O)c1cccnc1Nc1cccc(C(F)(F)F)c1)c1ccc(-c2c3nc(c(-c4cc(S(=O)(=O)[O-])ccc4F)c4ccc([nH]4)c(-c4cc(S(=O)(=O)[O-])ccc4F)c4nc(c(-c5cc(S(=O)(=O)[O-])ccc5F)c5ccc2[nH]5)C=C4)C=C3)cc1
REMARK SMILES IDX 4 1 3 2 2 3 1 4 26 5 27 6 88 7 28 8 87 9 29 10 30 11 31 12
REMARK SMILES IDX 81 13 32 14 86 15 80 16 82 17 33 18 85 19 79 20 78 21 34 23
REMARK SMILES IDX 66 24 46 25 65 26 47 27 50 28 64 29 83 30 48 31 49 32 63 34
REMARK SMILES IDX 84 35 51 36 35 37 36 38 44 39 37 40 43 41 45 42 42 43 38 44
REMARK SMILES IDX 39 45 40 46 41 47 67 48 68 49 76 50 69 51 75 52 77 53 74 54
REMARK SMILES IDX 70 55 71 56 72 57 73 58 52 59 53 60 61 61 54 62 60 63 62 64
REMARK SMILES IDX 59 65 55 66 56 67 57 68 58 69 5 70 6 71 7 72 8 73 9 74 10 75
REMARK SMILES IDX 14 76 11 77 13 78 12 79 15 80 16 82 17 83 25 84 18 85 20 86
REMARK SMILES IDX 19 87 21 88 22 89 23 90 24 91
REMARK H PARENT 82 22 50 33 15 81
REMARK Flexibility Score: inf
ROOT
ATOM      1  C   UNL A   1      37.654  21.365  25.289  1.00  0.00     0.275 C 
ENDROOT
BRANCH   1   2
ATOM      2  O   UNL A   1      39.072  21.462  25.514  1.00  0.00    -0.458 OA
BRANCH   2   3
ATOM      3  C   UNL A   1      39.760  21.835  26.618  1.00  0.00     0.338 C 
ATOM      4  O   UNL A   1      40.072  20.968  27.435  1.00  0.00    -0.246 OA
BRANCH   3   5
ATOM      5  C   UNL A   1      40.013  23.260  26.985  1.00  0.00     0.060 A 
ATOM      6  C   UNL A   1      39.323  24.367  26.489  1.00  0.00     0.016 A 
ATOM      7  C   UNL A   1      41.057  23.489  27.897  1.00  0.00     0.016 A 
ATOM      8  C   UNL A   1      39.605  25.654  26.957  1.00  0.00     0.010 A 
ATOM      9  C   UNL A   1      41.328  24.765  28.387  1.00  0.00     0.010 A 
ATOM     10  C   UNL A   1      40.611  25.861  27.904  1.00  0.00    -0.014 A 
BRANCH  10  11
ATOM     11  C   UNL A   1      41.048  27.234  28.229  1.00  0.00     0.031 A 
ATOM     12  C   UNL A   1      42.498  27.573  28.045  1.00  0.00     0.074 A 
ATOM     13  C   UNL A   1      40.168  28.155  28.660  1.00  0.00     0.049 A 
ATOM     14  N   UNL A   1      43.109  28.713  28.215  1.00  0.00    -0.248 NA
ATOM     15  C   UNL A   1      43.372  26.477  27.595  1.00  0.00     0.031 C 
ATOM     16  C   UNL A   1      38.734  27.935  28.833  1.00  0.00     0.029 A 
ATOM     17  N   UNL A   1      40.353  29.455  29.052  1.00  0.00    -0.354 N 
ATOM     18  C   UNL A   1      44.430  28.483  27.849  1.00  0.00     0.074 A 
ATOM     19  C   UNL A   1      44.550  27.074  27.550  1.00  0.00     0.031 C 
ATOM     20  C   UNL A   1      38.179  29.037  29.365  1.00  0.00     0.029 A 
ATOM     21  C   UNL A   1      39.218  30.045  29.554  1.00  0.00     0.049 A 
ATOM     22  H   UNL A   1      41.217  29.921  28.980  1.00  0.00     0.167 HD
ATOM     23  C   UNL A   1      45.438  29.379  27.725  1.00  0.00     0.034 A 
ATOM     24  C   UNL A   1      39.045  31.258  30.112  1.00  0.00     0.034 A 
ATOM     25  C   UNL A   1      45.300  30.766  28.081  1.00  0.00     0.049 A 
ATOM     26  C   UNL A   1      40.212  32.212  30.106  1.00  0.00     0.074 A 
ATOM     27  C   UNL A   1      46.234  31.781  28.002  1.00  0.00     0.029 A 
ATOM     28  N   UNL A   1      44.145  31.326  28.621  1.00  0.00    -0.354 N 
ATOM     29  N   UNL A   1      41.437  32.010  29.673  1.00  0.00    -0.248 NA
ATOM     30  C   UNL A   1      39.966  33.567  30.613  1.00  0.00     0.031 C 
ATOM     31  C   UNL A   1      45.667  32.936  28.558  1.00  0.00     0.029 A 
ATOM     32  C   UNL A   1      44.355  32.663  28.916  1.00  0.00     0.049 A 
ATOM     33  H   UNL A   1      43.301  30.843  28.770  1.00  0.00     0.167 HD
ATOM     34  C   UNL A   1      42.095  33.228  29.809  1.00  0.00     0.074 A 
ATOM     35  C   UNL A   1      41.129  34.155  30.372  1.00  0.00     0.031 C 
ATOM     36  C   UNL A   1      43.372  33.560  29.482  1.00  0.00     0.034 A 
BRANCH  23  37
ATOM     37  C   UNL A   1      46.757  28.843  27.222  1.00  0.00     0.023 A 
ATOM     38  C   UNL A   1      46.939  28.521  25.862  1.00  0.00     0.031 A 
ATOM     39  C   UNL A   1      47.797  28.540  28.113  1.00  0.00     0.131 A 
ATOM     40  C   UNL A   1      48.081  27.816  25.455  1.00  0.00     0.055 A 
ATOM     41  C   UNL A   1      48.974  27.920  27.685  1.00  0.00     0.041 A 
ATOM     42  F   UNL A   1      47.673  28.803  29.423  1.00  0.00    -0.206 F 
ATOM     43  C   UNL A   1      49.111  27.532  26.354  1.00  0.00     0.022 A 
BRANCH  40  44
ATOM     44  S   UNL A   1      48.110  27.108  23.784  1.00  0.00     0.124 S 
ATOM     45  O   UNL A   1      47.506  28.181  22.998  1.00  0.00    -0.237 OA
ATOM     46  O   UNL A   1      49.533  26.878  23.563  1.00  0.00    -0.237 OA
ATOM     47  O   UNL A   1      47.294  25.902  23.907  1.00  0.00    -0.744 OA
ENDBRANCH  40  44
ENDBRANCH  23  37
BRANCH  24  48
ATOM     48  C   UNL A   1      37.736  31.625  30.723  1.00  0.00     0.023 A 
ATOM     49  C   UNL A   1      36.767  32.358  30.022  1.00  0.00     0.031 A 
ATOM     50  C   UNL A   1      37.445  31.248  32.049  1.00  0.00     0.131 A 
ATOM     51  C   UNL A   1      35.568  32.721  30.658  1.00  0.00     0.055 A 
ATOM     52  C   UNL A   1      36.238  31.584  32.666  1.00  0.00     0.041 A 
ATOM     53  F   UNL A   1      38.328  30.528  32.759  1.00  0.00    -0.206 F 
ATOM     54  C   UNL A   1      35.295  32.335  31.972  1.00  0.00     0.022 A 
BRANCH  51  55
ATOM     55  S   UNL A   1      34.380  33.755  29.755  1.00  0.00     0.124 S 
ATOM     56  O   UNL A   1      33.646  32.761  28.981  1.00  0.00    -0.237 OA
ATOM     57  O   UNL A   1      33.648  34.389  30.846  1.00  0.00    -0.237 OA
ATOM     58  O   UNL A   1      35.232  34.650  28.976  1.00  0.00    -0.744 OA
ENDBRANCH  51  55
ENDBRANCH  24  48
BRANCH  36  59
ATOM     59  C   UNL A   1      43.771  34.999  29.675  1.00  0.00     0.023 A 
ATOM     60  C   UNL A   1      43.545  35.968  28.684  1.00  0.00     0.031 A 
ATOM     61  C   UNL A   1      44.381  35.404  30.877  1.00  0.00     0.131 A 
ATOM     62  C   UNL A   1      43.972  37.288  28.892  1.00  0.00     0.055 A 
ATOM     63  C   UNL A   1      44.745  36.731  31.102  1.00  0.00     0.041 A 
ATOM     64  F   UNL A   1      44.622  34.515  31.854  1.00  0.00    -0.206 F 
ATOM     65  C   UNL A   1      44.552  37.679  30.102  1.00  0.00     0.022 A 
BRANCH  62  66
ATOM     66  S   UNL A   1      43.833  38.470  27.525  1.00  0.00     0.124 S 
ATOM     67  O   UNL A   1      45.145  38.358  26.896  1.00  0.00    -0.237 OA
ATOM     68  O   UNL A   1      42.712  37.934  26.760  1.00  0.00    -0.237 OA
ATOM     69  O   UNL A   1      43.573  39.741  28.197  1.00  0.00    -0.744 OA
ENDBRANCH  62  66
ENDBRANCH  36  59
ENDBRANCH  10  11
ENDBRANCH   3   5
ENDBRANCH   2   3
ENDBRANCH   1   2
BRANCH   1  70
ATOM     70  C   UNL A   1      37.089  22.340  24.254  1.00  0.00     0.275 C 
BRANCH  70  71
ATOM     71  O   UNL A   1      36.218  23.339  24.800  1.00  0.00    -0.458 OA
BRANCH  71  72
ATOM     72  C   UNL A   1      35.121  23.627  24.046  1.00  0.00     0.342 C 
ATOM     73  O   UNL A   1      35.072  23.625  22.828  1.00  0.00    -0.246 OA
BRANCH  72  74
ATOM     74  C   UNL A   1      33.958  23.857  24.922  1.00  0.00     0.102 A 
ATOM     75  C   UNL A   1      33.464  25.159  25.091  1.00  0.00     0.021 A 
ATOM     76  C   UNL A   1      33.356  22.794  25.612  1.00  0.00     0.144 A 
ATOM     77  C   UNL A   1      32.396  25.378  25.953  1.00  0.00     0.021 A 
ATOM     78  N   UNL A   1      32.306  23.025  26.443  1.00  0.00    -0.238 NA
ATOM     79  C   UNL A   1      31.866  24.291  26.615  1.00  0.00     0.113 A 
BRANCH  76  80
ATOM     80  N   UNL A   1      33.841  21.473  25.509  1.00  0.00    -0.340 N 
ATOM     81  H   UNL A   1      34.579  21.233  26.114  1.00  0.00     0.168 HD
BRANCH  80  82
ATOM     82  C   UNL A   1      33.390  20.460  24.645  1.00  0.00     0.040 A 
ATOM     83  C   UNL A   1      32.495  20.767  23.613  1.00  0.00     0.026 A 
ATOM     84  C   UNL A   1      33.889  19.158  24.730  1.00  0.00     0.039 A 
ATOM     85  C   UNL A   1      32.117  19.799  22.680  1.00  0.00     0.003 A 
ATOM     86  C   UNL A   1      33.484  18.160  23.830  1.00  0.00     0.058 A 
ATOM     87  C   UNL A   1      32.603  18.499  22.792  1.00  0.00     0.013 A 
BRANCH  86  88
ATOM     88  C   UNL A   1      33.958  16.742  23.991  1.00  0.00     0.416 C 
ATOM     89  F   UNL A   1      34.376  16.207  22.807  1.00  0.00    -0.166 F 
ATOM     90  F   UNL A   1      35.019  16.626  24.838  1.00  0.00    -0.166 F 
ATOM     91  F   UNL A   1      33.009  15.883  24.461  1.00  0.00    -0.166 F 
ENDBRANCH  86  88
ENDBRANCH  80  82
ENDBRANCH  76  80
ENDBRANCH  72  74
ENDBRANCH  71  72
ENDBRANCH  70  71
ENDBRANCH   1  70
TORSDOF 17
ENDMDL
