MODEL 1
REMARK VINA RESULT:     -11.9      0.000      0.000
REMARK SMILES Cc1ccc2nc(CC3(CC(=O)OCCOC(=O)c4ccc(-c5c6nc(c(-c7cc(S(=O)(=O)[O-])ccc7F)c7ccc([nH]7)c(-c7cc(S(=O)(=O)[O-])ccc7F)c7nc(c(-c8cc(S(=O)(=O)[O-])ccc8F)c8ccc5[nH]8)C=C7)C=C6)cc4)CCCCC3)sc2c1
REMARK SMILES IDX 14 1 13 2 11 3 12 4 10 5 9 6 82 7 86 8 83 9 85 10 84 11 8 12
REMARK SMILES IDX 7 13 1 14 2 15 3 16 89 17 4 18 88 19 5 20 87 21 6 22 15 23
REMARK SMILES IDX 16 24 17 25 18 26 19 27 20 28 81 29 21 30 80 31 22 32 23 33
REMARK SMILES IDX 24 34 74 35 25 36 79 37 73 38 75 39 26 40 78 41 72 42 71 43
REMARK SMILES IDX 27 45 59 46 39 47 58 48 40 49 43 50 57 51 76 52 41 53 42 54
REMARK SMILES IDX 56 56 77 57 44 58 28 59 29 60 37 61 30 62 36 63 38 64 35 65
REMARK SMILES IDX 31 66 32 67 33 68 34 69 60 70 61 71 69 72 62 73 68 74 70 75
REMARK SMILES IDX 67 76 63 77 64 78 65 79 66 80 45 81 46 82 54 83 47 84 53 85
REMARK SMILES IDX 55 86 52 87 48 88 49 89 50 90 51 91
REMARK H PARENT 75 44 43 55
REMARK Flexibility Score: inf
ROOT
ATOM      1  C   UNL A   1      30.973  29.120  25.368  1.00  0.00     0.274 C 
ENDROOT
BRANCH   1   2
ATOM      2  O   UNL A   1      31.390  28.161  26.359  1.00  0.00    -0.462 OA
BRANCH   2   3
ATOM      3  C   UNL A   1      31.246  26.860  26.018  1.00  0.00     0.306 C 
ATOM      4  O   UNL A   1      30.672  26.022  26.705  1.00  0.00    -0.252 OA
BRANCH   3   5
ATOM      5  C   UNL A   1      31.865  26.484  24.686  1.00  0.00     0.130 C 
BRANCH   5   6
ATOM      6  C   UNL A   1      33.399  26.231  24.527  1.00  0.00    -0.013 C 
ATOM      7  C   UNL A   1      34.103  27.625  24.580  1.00  0.00     0.008 C 
ATOM      8  C   UNL A   1      33.747  25.599  23.155  1.00  0.00     0.008 C 
ATOM      9  C   UNL A   1      33.766  28.535  23.394  1.00  0.00     0.001 C 
ATOM     10  C   UNL A   1      33.327  26.469  21.973  1.00  0.00     0.001 C 
ATOM     11  C   UNL A   1      33.980  27.846  22.048  1.00  0.00     0.000 C 
BRANCH   6  12
ATOM     12  C   UNL A   1      33.886  25.355  25.731  1.00  0.00     0.075 C 
BRANCH  12  13
ATOM     13  C   UNL A   1      33.878  23.868  25.489  1.00  0.00     0.094 A 
ATOM     14  C   UNL A   1      34.470  17.809  24.355  1.00  0.00     0.044 C 
ATOM     15  C   UNL A   1      33.990  19.206  24.627  1.00  0.00    -0.050 A 
ATOM     16  C   UNL A   1      32.624  19.483  24.709  1.00  0.00     0.006 A 
ATOM     17  C   UNL A   1      34.928  20.237  24.813  1.00  0.00     0.024 A 
ATOM     18  C   UNL A   1      32.172  20.780  24.975  1.00  0.00     0.030 A 
ATOM     19  C   UNL A   1      34.460  21.538  25.070  1.00  0.00     0.055 A 
ATOM     20  C   UNL A   1      33.098  21.824  25.158  1.00  0.00     0.082 A 
ATOM     21  S   UNL A   1      35.349  22.994  25.322  1.00  0.00    -0.119 S 
ATOM     22  N   UNL A   1      32.782  23.144  25.419  1.00  0.00    -0.241 NA
ENDBRANCH  12  13
ENDBRANCH   6  12
ENDBRANCH   5   6
ENDBRANCH   3   5
ENDBRANCH   2   3
ENDBRANCH   1   2
BRANCH   1  23
ATOM     23  C   UNL A   1      31.589  30.484  25.660  1.00  0.00     0.275 C 
BRANCH  23  24
ATOM     24  O   UNL A   1      32.839  30.308  26.349  1.00  0.00    -0.458 OA
BRANCH  24  25
ATOM     25  C   UNL A   1      33.254  31.367  27.081  1.00  0.00     0.338 C 
ATOM     26  O   UNL A   1      32.683  32.431  27.234  1.00  0.00    -0.246 OA
BRANCH  25  27
ATOM     27  C   UNL A   1      34.562  31.062  27.684  1.00  0.00     0.060 A 
ATOM     28  C   UNL A   1      34.921  29.745  27.980  1.00  0.00     0.016 A 
ATOM     29  C   UNL A   1      35.401  32.118  28.035  1.00  0.00     0.016 A 
ATOM     30  C   UNL A   1      36.104  29.483  28.670  1.00  0.00     0.010 A 
ATOM     31  C   UNL A   1      36.618  31.849  28.663  1.00  0.00     0.010 A 
ATOM     32  C   UNL A   1      36.971  30.532  29.005  1.00  0.00    -0.014 A 
BRANCH  32  33
ATOM     33  C   UNL A   1      38.249  30.275  29.720  1.00  0.00     0.031 A 
ATOM     34  C   UNL A   1      39.251  29.318  29.138  1.00  0.00     0.074 A 
ATOM     35  C   UNL A   1      38.479  30.858  30.912  1.00  0.00     0.049 A 
ATOM     36  N   UNL A   1      40.313  28.789  29.689  1.00  0.00    -0.248 NA
ATOM     37  C   UNL A   1      39.014  28.885  27.752  1.00  0.00     0.031 C 
ATOM     38  C   UNL A   1      37.600  31.829  31.563  1.00  0.00     0.029 A 
ATOM     39  N   UNL A   1      39.515  30.700  31.800  1.00  0.00    -0.354 N 
ATOM     40  C   UNL A   1      40.850  27.932  28.735  1.00  0.00     0.074 A 
ATOM     41  C   UNL A   1      39.985  28.003  27.575  1.00  0.00     0.031 C 
ATOM     42  C   UNL A   1      38.130  32.179  32.745  1.00  0.00     0.029 A 
ATOM     43  C   UNL A   1      39.343  31.401  32.970  1.00  0.00     0.049 A 
ATOM     44  H   UNL A   1      40.304  30.140  31.616  1.00  0.00     0.167 HD
ATOM     45  C   UNL A   1      41.960  27.156  28.825  1.00  0.00     0.034 A 
ATOM     46  C   UNL A   1      40.052  31.382  34.116  1.00  0.00     0.034 A 
ATOM     47  C   UNL A   1      42.815  27.113  29.988  1.00  0.00     0.049 A 
ATOM     48  C   UNL A   1      41.249  30.476  34.214  1.00  0.00     0.074 A 
ATOM     49  C   UNL A   1      43.974  26.380  30.183  1.00  0.00     0.029 A 
ATOM     50  N   UNL A   1      42.601  27.832  31.159  1.00  0.00    -0.354 N 
ATOM     51  N   UNL A   1      41.729  29.643  33.320  1.00  0.00    -0.248 NA
ATOM     52  C   UNL A   1      41.997  30.504  35.476  1.00  0.00     0.031 C 
ATOM     53  C   UNL A   1      44.427  26.613  31.488  1.00  0.00     0.029 A 
ATOM     54  C   UNL A   1      43.590  27.541  32.087  1.00  0.00     0.049 A 
ATOM     55  H   UNL A   1      41.855  28.456  31.308  1.00  0.00     0.167 HD
ATOM     56  C   UNL A   1      42.847  29.059  33.907  1.00  0.00     0.074 A 
ATOM     57  C   UNL A   1      42.977  29.648  35.226  1.00  0.00     0.031 C 
ATOM     58  C   UNL A   1      43.692  28.124  33.404  1.00  0.00     0.034 A 
BRANCH  45  59
ATOM     59  C   UNL A   1      42.270  26.250  27.658  1.00  0.00     0.023 A 
ATOM     60  C   UNL A   1      41.784  24.932  27.587  1.00  0.00     0.031 A 
ATOM     61  C   UNL A   1      43.094  26.703  26.613  1.00  0.00     0.131 A 
ATOM     62  C   UNL A   1      42.181  24.095  26.532  1.00  0.00     0.055 A 
ATOM     63  C   UNL A   1      43.425  25.889  25.528  1.00  0.00     0.041 A 
ATOM     64  F   UNL A   1      43.605  27.945  26.636  1.00  0.00    -0.206 F 
ATOM     65  C   UNL A   1      42.979  24.572  25.490  1.00  0.00     0.022 A 
BRANCH  62  66
ATOM     66  S   UNL A   1      41.747  22.335  26.608  1.00  0.00     0.124 S 
ATOM     67  O   UNL A   1      40.288  22.390  26.656  1.00  0.00    -0.237 OA
ATOM     68  O   UNL A   1      42.326  21.813  25.375  1.00  0.00    -0.237 OA
ATOM     69  O   UNL A   1      42.386  21.877  27.840  1.00  0.00    -0.744 OA
ENDBRANCH  62  66
ENDBRANCH  45  59
BRANCH  46  70
ATOM     70  C   UNL A   1      39.609  32.196  35.282  1.00  0.00     0.023 A 
ATOM     71  C   UNL A   1      38.825  31.636  36.302  1.00  0.00     0.031 A 
ATOM     72  C   UNL A   1      39.952  33.557  35.382  1.00  0.00     0.131 A 
ATOM     73  C   UNL A   1      38.385  32.440  37.365  1.00  0.00     0.055 A 
ATOM     74  C   UNL A   1      39.552  34.340  36.465  1.00  0.00     0.041 A 
ATOM     75  F   UNL A   1      40.703  34.138  34.434  1.00  0.00    -0.206 F 
ATOM     76  C   UNL A   1      38.755  33.784  37.460  1.00  0.00     0.022 A 
BRANCH  73  77
ATOM     77  S   UNL A   1      37.266  31.717  38.595  1.00  0.00     0.124 S 
ATOM     78  O   UNL A   1      38.070  31.792  39.809  1.00  0.00    -0.237 OA
ATOM     79  O   UNL A   1      36.120  32.618  38.528  1.00  0.00    -0.237 OA
ATOM     80  O   UNL A   1      37.026  30.368  38.086  1.00  0.00    -0.744 OA
ENDBRANCH  73  77
ENDBRANCH  46  70
BRANCH  58  81
ATOM     81  C   UNL A   1      44.852  27.721  34.278  1.00  0.00     0.023 A 
ATOM     82  C   UNL A   1      44.761  26.642  35.173  1.00  0.00     0.031 A 
ATOM     83  C   UNL A   1      46.055  28.448  34.232  1.00  0.00     0.131 A 
ATOM     84  C   UNL A   1      45.836  26.352  36.027  1.00  0.00     0.055 A 
ATOM     85  C   UNL A   1      47.139  28.122  35.047  1.00  0.00     0.041 A 
ATOM     86  F   UNL A   1      46.191  29.490  33.396  1.00  0.00    -0.206 F 
ATOM     87  C   UNL A   1      47.029  27.076  35.959  1.00  0.00     0.022 A 
BRANCH  84  88
ATOM     88  S   UNL A   1      45.625  25.066  37.289  1.00  0.00     0.124 S 
ATOM     89  O   UNL A   1      44.441  25.533  38.002  1.00  0.00    -0.237 OA
ATOM     90  O   UNL A   1      45.452  23.862  36.483  1.00  0.00    -0.237 OA
ATOM     91  O   UNL A   1      46.871  25.126  38.051  1.00  0.00    -0.744 OA
ENDBRANCH  84  88
ENDBRANCH  58  81
ENDBRANCH  32  33
ENDBRANCH  25  27
ENDBRANCH  24  25
ENDBRANCH  23  24
ENDBRANCH   1  23
TORSDOF 17
ENDMDL
MODEL 2
REMARK VINA RESULT:     -11.8      5.309     10.389
REMARK SMILES Cc1ccc2nc(CC3(CC(=O)OCCOC(=O)c4ccc(-c5c6nc(c(-c7cc(S(=O)(=O)[O-])ccc7F)c7ccc([nH]7)c(-c7cc(S(=O)(=O)[O-])ccc7F)c7nc(c(-c8cc(S(=O)(=O)[O-])ccc8F)c8ccc5[nH]8)C=C7)C=C6)cc4)CCCCC3)sc2c1
REMARK SMILES IDX 14 1 13 2 11 3 12 4 10 5 9 6 82 7 86 8 83 9 85 10 84 11 8 12
REMARK SMILES IDX 7 13 1 14 2 15 3 16 89 17 4 18 88 19 5 20 87 21 6 22 15 23
REMARK SMILES IDX 16 24 17 25 18 26 19 27 20 28 81 29 21 30 80 31 22 32 23 33
REMARK SMILES IDX 24 34 74 35 25 36 79 37 73 38 75 39 26 40 78 41 72 42 71 43
REMARK SMILES IDX 27 45 59 46 39 47 58 48 40 49 43 50 57 51 76 52 41 53 42 54
REMARK SMILES IDX 56 56 77 57 44 58 28 59 29 60 37 61 30 62 36 63 38 64 35 65
REMARK SMILES IDX 31 66 32 67 33 68 34 69 60 70 61 71 69 72 62 73 68 74 70 75
REMARK SMILES IDX 67 76 63 77 64 78 65 79 66 80 45 81 46 82 54 83 47 84 53 85
REMARK SMILES IDX 55 86 52 87 48 88 49 89 50 90 51 91
REMARK H PARENT 75 44 43 55
REMARK Flexibility Score: inf
ROOT
ATOM      1  C   UNL A   1      34.736  21.244  25.227  1.00  0.00     0.274 C 
ENDROOT
BRANCH   1   2
ATOM      2  O   UNL A   1      34.268  21.581  23.907  1.00  0.00    -0.462 OA
BRANCH   2   3
ATOM      3  C   UNL A   1      34.362  22.885  23.562  1.00  0.00     0.306 C 
ATOM      4  O   UNL A   1      34.853  23.293  22.515  1.00  0.00    -0.252 OA
BRANCH   3   5
ATOM      5  C   UNL A   1      33.806  23.851  24.590  1.00  0.00     0.130 C 
BRANCH   5   6
ATOM      6  C   UNL A   1      32.437  24.577  24.390  1.00  0.00    -0.013 C 
ATOM      7  C   UNL A   1      32.060  25.235  25.756  1.00  0.00     0.008 C 
ATOM      8  C   UNL A   1      31.297  23.587  24.035  1.00  0.00     0.008 C 
ATOM      9  C   UNL A   1      31.770  24.225  26.871  1.00  0.00     0.001 C 
ATOM     10  C   UNL A   1      31.072  22.526  25.109  1.00  0.00     0.001 C 
ATOM     11  C   UNL A   1      30.748  23.170  26.454  1.00  0.00     0.000 C 
BRANCH   6  12
ATOM     12  C   UNL A   1      32.620  25.693  23.306  1.00  0.00     0.075 C 
BRANCH  12  13
ATOM     13  C   UNL A   1      31.562  26.767  23.305  1.00  0.00     0.094 A 
ATOM     14  C   UNL A   1      27.668  31.576  23.520  1.00  0.00     0.044 C 
ATOM     15  C   UNL A   1      28.324  30.229  23.417  1.00  0.00    -0.050 A 
ATOM     16  C   UNL A   1      27.556  29.080  23.213  1.00  0.00     0.006 A 
ATOM     17  C   UNL A   1      29.723  30.131  23.515  1.00  0.00     0.024 A 
ATOM     18  C   UNL A   1      28.164  27.825  23.104  1.00  0.00     0.030 A 
ATOM     19  C   UNL A   1      30.320  28.861  23.414  1.00  0.00     0.055 A 
ATOM     20  C   UNL A   1      29.563  27.709  23.206  1.00  0.00     0.082 A 
ATOM     21  S   UNL A   1      31.984  28.421  23.510  1.00  0.00    -0.119 S 
ATOM     22  N   UNL A   1      30.281  26.531  23.122  1.00  0.00    -0.241 NA
ENDBRANCH  12  13
ENDBRANCH   6  12
ENDBRANCH   5   6
ENDBRANCH   3   5
ENDBRANCH   2   3
ENDBRANCH   1   2
BRANCH   1  23
ATOM     23  C   UNL A   1      36.202  20.825  25.178  1.00  0.00     0.275 C 
BRANCH  23  24
ATOM     24  O   UNL A   1      37.019  21.874  25.725  1.00  0.00    -0.458 OA
BRANCH  24  25
ATOM     25  C   UNL A   1      38.324  21.566  25.899  1.00  0.00     0.338 C 
ATOM     26  O   UNL A   1      38.864  20.492  25.703  1.00  0.00    -0.246 OA
BRANCH  25  27
ATOM     27  C   UNL A   1      39.043  22.747  26.403  1.00  0.00     0.060 A 
ATOM     28  C   UNL A   1      38.590  24.036  26.111  1.00  0.00     0.016 A 
ATOM     29  C   UNL A   1      40.234  22.559  27.102  1.00  0.00     0.016 A 
ATOM     30  C   UNL A   1      39.353  25.143  26.481  1.00  0.00     0.010 A 
ATOM     31  C   UNL A   1      40.959  23.670  27.535  1.00  0.00     0.010 A 
ATOM     32  C   UNL A   1      40.537  24.971  27.210  1.00  0.00    -0.014 A 
BRANCH  32  33
ATOM     33  C   UNL A   1      41.354  26.138  27.636  1.00  0.00     0.031 A 
ATOM     34  C   UNL A   1      40.739  27.207  28.495  1.00  0.00     0.074 A 
ATOM     35  C   UNL A   1      42.625  26.260  27.206  1.00  0.00     0.049 A 
ATOM     36  N   UNL A   1      41.194  28.396  28.796  1.00  0.00    -0.248 NA
ATOM     37  C   UNL A   1      39.424  26.900  29.079  1.00  0.00     0.031 C 
ATOM     38  C   UNL A   1      43.343  25.274  26.398  1.00  0.00     0.029 A 
ATOM     39  N   UNL A   1      43.531  27.278  27.371  1.00  0.00    -0.354 N 
ATOM     40  C   UNL A   1      40.208  28.996  29.571  1.00  0.00     0.074 A 
ATOM     41  C   UNL A   1      39.124  28.041  29.681  1.00  0.00     0.031 C 
ATOM     42  C   UNL A   1      44.575  25.734  26.135  1.00  0.00     0.029 A 
ATOM     43  C   UNL A   1      44.708  27.077  26.689  1.00  0.00     0.049 A 
ATOM     44  H   UNL A   1      43.356  28.074  27.923  1.00  0.00     0.167 HD
ATOM     45  C   UNL A   1      40.210  30.230  30.133  1.00  0.00     0.034 A 
ATOM     46  C   UNL A   1      45.755  27.901  26.486  1.00  0.00     0.034 A 
ATOM     47  C   UNL A   1      41.309  31.160  30.021  1.00  0.00     0.049 A 
ATOM     48  C   UNL A   1      45.715  29.285  27.074  1.00  0.00     0.074 A 
ATOM     49  C   UNL A   1      41.428  32.428  30.565  1.00  0.00     0.029 A 
ATOM     50  N   UNL A   1      42.481  30.923  29.313  1.00  0.00    -0.354 N 
ATOM     51  N   UNL A   1      44.764  29.856  27.777  1.00  0.00    -0.248 NA
ATOM     52  C   UNL A   1      46.887  30.136  26.840  1.00  0.00     0.031 C 
ATOM     53  C   UNL A   1      42.645  32.977  30.139  1.00  0.00     0.029 A 
ATOM     54  C   UNL A   1      43.316  32.029  29.384  1.00  0.00     0.049 A 
ATOM     55  H   UNL A   1      42.688  30.091  28.829  1.00  0.00     0.167 HD
ATOM     56  C   UNL A   1      45.232  31.130  28.082  1.00  0.00     0.074 A 
ATOM     57  C   UNL A   1      46.555  31.236  27.500  1.00  0.00     0.031 C 
ATOM     58  C   UNL A   1      44.625  32.122  28.781  1.00  0.00     0.034 A 
BRANCH  45  59
ATOM     59  C   UNL A   1      38.960  30.663  30.863  1.00  0.00     0.023 A 
ATOM     60  C   UNL A   1      37.859  31.223  30.190  1.00  0.00     0.031 A 
ATOM     61  C   UNL A   1      38.884  30.542  32.262  1.00  0.00     0.131 A 
ATOM     62  C   UNL A   1      36.761  31.701  30.923  1.00  0.00     0.055 A 
ATOM     63  C   UNL A   1      37.757  30.953  32.977  1.00  0.00     0.041 A 
ATOM     64  F   UNL A   1      39.911  30.035  32.961  1.00  0.00    -0.206 F 
ATOM     65  C   UNL A   1      36.693  31.549  32.309  1.00  0.00     0.022 A 
BRANCH  62  66
ATOM     66  S   UNL A   1      35.480  32.646  30.051  1.00  0.00     0.124 S 
ATOM     67  O   UNL A   1      36.176  33.898  29.767  1.00  0.00    -0.237 OA
ATOM     68  O   UNL A   1      35.192  31.799  28.898  1.00  0.00    -0.237 OA
ATOM     69  O   UNL A   1      34.402  32.750  31.033  1.00  0.00    -0.744 OA
ENDBRANCH  62  66
ENDBRANCH  45  59
BRANCH  46  70
ATOM     70  C   UNL A   1      46.897  27.462  25.635  1.00  0.00     0.023 A 
ATOM     71  C   UNL A   1      47.002  27.867  24.297  1.00  0.00     0.031 A 
ATOM     72  C   UNL A   1      47.894  26.612  26.151  1.00  0.00     0.131 A 
ATOM     73  C   UNL A   1      48.065  27.401  23.508  1.00  0.00     0.055 A 
ATOM     74  C   UNL A   1      48.974  26.189  25.376  1.00  0.00     0.041 A 
ATOM     75  F   UNL A   1      47.839  26.199  27.427  1.00  0.00    -0.206 F 
ATOM     76  C   UNL A   1      49.059  26.576  24.043  1.00  0.00     0.022 A 
BRANCH  73  77
ATOM     77  S   UNL A   1      48.098  27.838  21.749  1.00  0.00     0.124 S 
ATOM     78  O   UNL A   1      46.792  28.462  21.572  1.00  0.00    -0.237 OA
ATOM     79  O   UNL A   1      49.249  28.733  21.681  1.00  0.00    -0.237 OA
ATOM     80  O   UNL A   1      48.272  26.550  21.081  1.00  0.00    -0.744 OA
ENDBRANCH  73  77
ENDBRANCH  46  70
BRANCH  58  81
ATOM     81  C   UNL A   1      45.417  33.389  28.984  1.00  0.00     0.023 A 
ATOM     82  C   UNL A   1      45.213  34.523  28.181  1.00  0.00     0.031 A 
ATOM     83  C   UNL A   1      46.410  33.447  29.977  1.00  0.00     0.131 A 
ATOM     84  C   UNL A   1      46.028  35.652  28.349  1.00  0.00     0.055 A 
ATOM     85  C   UNL A   1      47.183  34.591  30.175  1.00  0.00     0.041 A 
ATOM     86  F   UNL A   1      46.647  32.389  30.769  1.00  0.00    -0.206 F 
ATOM     87  C   UNL A   1      47.003  35.698  29.350  1.00  0.00     0.022 A 
BRANCH  84  88
ATOM     88  S   UNL A   1      45.857  37.033  27.185  1.00  0.00     0.124 S 
ATOM     89  O   UNL A   1      46.733  36.619  26.093  1.00  0.00    -0.237 OA
ATOM     90  O   UNL A   1      44.427  37.023  26.895  1.00  0.00    -0.237 OA
ATOM     91  O   UNL A   1      46.325  38.187  27.950  1.00  0.00    -0.744 OA
ENDBRANCH  84  88
ENDBRANCH  58  81
ENDBRANCH  32  33
ENDBRANCH  25  27
ENDBRANCH  24  25
ENDBRANCH  23  24
ENDBRANCH   1  23
TORSDOF 17
ENDMDL
MODEL 3
REMARK VINA RESULT:     -11.8      1.349      1.575
REMARK SMILES Cc1ccc2nc(CC3(CC(=O)OCCOC(=O)c4ccc(-c5c6nc(c(-c7cc(S(=O)(=O)[O-])ccc7F)c7ccc([nH]7)c(-c7cc(S(=O)(=O)[O-])ccc7F)c7nc(c(-c8cc(S(=O)(=O)[O-])ccc8F)c8ccc5[nH]8)C=C7)C=C6)cc4)CCCCC3)sc2c1
REMARK SMILES IDX 14 1 13 2 11 3 12 4 10 5 9 6 82 7 86 8 83 9 85 10 84 11 8 12
REMARK SMILES IDX 7 13 1 14 2 15 3 16 89 17 4 18 88 19 5 20 87 21 6 22 15 23
REMARK SMILES IDX 16 24 17 25 18 26 19 27 20 28 81 29 21 30 80 31 22 32 23 33
REMARK SMILES IDX 24 34 74 35 25 36 79 37 73 38 75 39 26 40 78 41 72 42 71 43
REMARK SMILES IDX 27 45 59 46 39 47 58 48 40 49 43 50 57 51 76 52 41 53 42 54
REMARK SMILES IDX 56 56 77 57 44 58 28 59 29 60 37 61 30 62 36 63 38 64 35 65
REMARK SMILES IDX 31 66 32 67 33 68 34 69 60 70 61 71 69 72 62 73 68 74 70 75
REMARK SMILES IDX 67 76 63 77 64 78 65 79 66 80 45 81 46 82 54 83 47 84 53 85
REMARK SMILES IDX 55 86 52 87 48 88 49 89 50 90 51 91
REMARK H PARENT 75 44 43 55
REMARK Flexibility Score: inf
ROOT
ATOM      1  C   UNL A   1      31.566  28.685  26.871  1.00  0.00     0.274 C 
ENDROOT
BRANCH   1   2
ATOM      2  O   UNL A   1      30.799  27.796  26.036  1.00  0.00    -0.462 OA
BRANCH   2   3
ATOM      3  C   UNL A   1      31.273  26.534  25.927  1.00  0.00     0.306 C 
ATOM      4  O   UNL A   1      31.196  25.685  26.808  1.00  0.00    -0.252 OA
BRANCH   3   5
ATOM      5  C   UNL A   1      31.935  26.221  24.600  1.00  0.00     0.130 C 
BRANCH   5   6
ATOM      6  C   UNL A   1      33.489  26.167  24.441  1.00  0.00    -0.013 C 
ATOM      7  C   UNL A   1      34.013  27.636  24.544  1.00  0.00     0.008 C 
ATOM      8  C   UNL A   1      33.915  25.630  23.050  1.00  0.00     0.008 C 
ATOM      9  C   UNL A   1      33.566  28.536  23.386  1.00  0.00     0.001 C 
ATOM     10  C   UNL A   1      33.391  26.480  21.896  1.00  0.00     0.001 C 
ATOM     11  C   UNL A   1      33.867  27.924  22.020  1.00  0.00     0.000 C 
BRANCH   6  12
ATOM     12  C   UNL A   1      34.080  25.320  25.619  1.00  0.00     0.075 C 
BRANCH  12  13
ATOM     13  C   UNL A   1      34.046  23.827  25.416  1.00  0.00     0.094 A 
ATOM     14  C   UNL A   1      34.515  17.738  24.391  1.00  0.00     0.044 C 
ATOM     15  C   UNL A   1      34.066  19.144  24.668  1.00  0.00    -0.050 A 
ATOM     16  C   UNL A   1      32.713  19.431  24.859  1.00  0.00     0.006 A 
ATOM     17  C   UNL A   1      35.020  20.174  24.746  1.00  0.00     0.024 A 
ATOM     18  C   UNL A   1      32.290  20.737  25.130  1.00  0.00     0.030 A 
ATOM     19  C   UNL A   1      34.581  21.484  25.009  1.00  0.00     0.055 A 
ATOM     20  C   UNL A   1      33.233  21.780  25.206  1.00  0.00     0.082 A 
ATOM     21  S   UNL A   1      35.493  22.940  25.146  1.00  0.00    -0.119 S 
ATOM     22  N   UNL A   1      32.945  23.108  25.459  1.00  0.00    -0.241 NA
ENDBRANCH  12  13
ENDBRANCH   6  12
ENDBRANCH   5   6
ENDBRANCH   3   5
ENDBRANCH   2   3
ENDBRANCH   1   2
BRANCH   1  23
ATOM     23  C   UNL A   1      31.573  30.091  26.281  1.00  0.00     0.275 C 
BRANCH  23  24
ATOM     24  O   UNL A   1      32.928  30.560  26.177  1.00  0.00    -0.458 OA
BRANCH  24  25
ATOM     25  C   UNL A   1      33.268  31.554  27.029  1.00  0.00     0.338 C 
ATOM     26  O   UNL A   1      32.638  32.567  27.274  1.00  0.00    -0.246 OA
BRANCH  25  27
ATOM     27  C   UNL A   1      34.572  31.250  27.641  1.00  0.00     0.060 A 
ATOM     28  C   UNL A   1      34.907  29.941  27.993  1.00  0.00     0.016 A 
ATOM     29  C   UNL A   1      35.432  32.305  27.943  1.00  0.00     0.016 A 
ATOM     30  C   UNL A   1      36.088  29.687  28.690  1.00  0.00     0.010 A 
ATOM     31  C   UNL A   1      36.647  32.039  28.577  1.00  0.00     0.010 A 
ATOM     32  C   UNL A   1      36.976  30.732  28.975  1.00  0.00    -0.014 A 
BRANCH  32  33
ATOM     33  C   UNL A   1      38.251  30.482  29.697  1.00  0.00     0.031 A 
ATOM     34  C   UNL A   1      39.288  29.577  29.090  1.00  0.00     0.074 A 
ATOM     35  C   UNL A   1      38.451  31.023  30.914  1.00  0.00     0.049 A 
ATOM     36  N   UNL A   1      40.357  29.056  29.634  1.00  0.00    -0.248 NA
ATOM     37  C   UNL A   1      39.079  29.195  27.685  1.00  0.00     0.031 C 
ATOM     38  C   UNL A   1      37.536  31.942  31.592  1.00  0.00     0.029 A 
ATOM     39  N   UNL A   1      39.480  30.857  31.808  1.00  0.00    -0.354 N 
ATOM     40  C   UNL A   1      40.930  28.253  28.654  1.00  0.00     0.074 A 
ATOM     41  C   UNL A   1      40.078  28.347  27.486  1.00  0.00     0.031 C 
ATOM     42  C   UNL A   1      38.041  32.258  32.794  1.00  0.00     0.029 A 
ATOM     43  C   UNL A   1      39.274  31.506  33.004  1.00  0.00     0.049 A 
ATOM     44  H   UNL A   1      40.286  30.327  31.613  1.00  0.00     0.167 HD
ATOM     45  C   UNL A   1      42.059  27.506  28.728  1.00  0.00     0.034 A 
ATOM     46  C   UNL A   1      39.968  31.460  34.157  1.00  0.00     0.034 A 
ATOM     47  C   UNL A   1      42.901  27.439  29.899  1.00  0.00     0.049 A 
ATOM     48  C   UNL A   1      41.189  30.584  34.235  1.00  0.00     0.074 A 
ATOM     49  C   UNL A   1      44.078  26.732  30.080  1.00  0.00     0.029 A 
ATOM     50  N   UNL A   1      42.652  28.104  31.095  1.00  0.00    -0.354 N 
ATOM     51  N   UNL A   1      41.704  29.801  33.314  1.00  0.00    -0.248 NA
ATOM     52  C   UNL A   1      41.921  30.582  35.507  1.00  0.00     0.031 C 
ATOM     53  C   UNL A   1      44.508  26.924  31.399  1.00  0.00     0.029 A 
ATOM     54  C   UNL A   1      43.638  27.804  32.024  1.00  0.00     0.049 A 
ATOM     55  H   UNL A   1      41.887  28.701  31.259  1.00  0.00     0.167 HD
ATOM     56  C   UNL A   1      42.830  29.226  33.893  1.00  0.00     0.074 A 
ATOM     57  C   UNL A   1      42.928  29.764  35.236  1.00  0.00     0.031 C 
ATOM     58  C   UNL A   1      43.707  28.336  33.364  1.00  0.00     0.034 A 
BRANCH  45  59
ATOM     59  C   UNL A   1      42.409  26.656  27.530  1.00  0.00     0.023 A 
ATOM     60  C   UNL A   1      42.066  25.294  27.455  1.00  0.00     0.031 A 
ATOM     61  C   UNL A   1      43.128  27.213  26.457  1.00  0.00     0.131 A 
ATOM     62  C   UNL A   1      42.500  24.522  26.365  1.00  0.00     0.055 A 
ATOM     63  C   UNL A   1      43.493  26.456  25.342  1.00  0.00     0.041 A 
ATOM     64  F   UNL A   1      43.503  28.501  26.481  1.00  0.00    -0.206 F 
ATOM     65  C   UNL A   1      43.191  25.099  25.298  1.00  0.00     0.022 A 
BRANCH  62  66
ATOM     66  S   UNL A   1      42.263  22.724  26.426  1.00  0.00     0.124 S 
ATOM     67  O   UNL A   1      42.515  22.343  25.038  1.00  0.00    -0.237 OA
ATOM     68  O   UNL A   1      43.268  22.305  27.396  1.00  0.00    -0.237 OA
ATOM     69  O   UNL A   1      40.875  22.575  26.862  1.00  0.00    -0.744 OA
ENDBRANCH  62  66
ENDBRANCH  45  59
BRANCH  46  70
ATOM     70  C   UNL A   1      39.488  32.214  35.349  1.00  0.00     0.023 A 
ATOM     71  C   UNL A   1      39.873  33.544  35.569  1.00  0.00     0.031 A 
ATOM     72  C   UNL A   1      38.646  31.602  36.296  1.00  0.00     0.131 A 
ATOM     73  C   UNL A   1      39.440  34.213  36.724  1.00  0.00     0.055 A 
ATOM     74  C   UNL A   1      38.180  32.287  37.419  1.00  0.00     0.041 A 
ATOM     75  F   UNL A   1      38.247  30.331  36.129  1.00  0.00    -0.206 F 
ATOM     76  C   UNL A   1      38.585  33.599  37.643  1.00  0.00     0.022 A 
BRANCH  73  77
ATOM     77  S   UNL A   1      40.063  35.886  37.043  1.00  0.00     0.124 S 
ATOM     78  O   UNL A   1      39.647  36.594  35.838  1.00  0.00    -0.237 OA
ATOM     79  O   UNL A   1      39.359  36.243  38.270  1.00  0.00    -0.237 OA
ATOM     80  O   UNL A   1      41.504  35.692  37.188  1.00  0.00    -0.744 OA
ENDBRANCH  73  77
ENDBRANCH  46  70
BRANCH  58  81
ATOM     81  C   UNL A   1      44.868  27.930  34.237  1.00  0.00     0.023 A 
ATOM     82  C   UNL A   1      44.795  26.815  35.089  1.00  0.00     0.031 A 
ATOM     83  C   UNL A   1      46.051  28.689  34.234  1.00  0.00     0.131 A 
ATOM     84  C   UNL A   1      45.867  26.521  35.945  1.00  0.00     0.055 A 
ATOM     85  C   UNL A   1      47.134  28.360  35.049  1.00  0.00     0.041 A 
ATOM     86  F   UNL A   1      46.169  29.765  33.440  1.00  0.00    -0.206 F 
ATOM     87  C   UNL A   1      47.041  27.278  35.920  1.00  0.00     0.022 A 
BRANCH  84  88
ATOM     88  S   UNL A   1      45.676  25.183  37.155  1.00  0.00     0.124 S 
ATOM     89  O   UNL A   1      44.324  24.710  36.873  1.00  0.00    -0.237 OA
ATOM     90  O   UNL A   1      46.759  24.274  36.791  1.00  0.00    -0.237 OA
ATOM     91  O   UNL A   1      45.840  25.858  38.441  1.00  0.00    -0.744 OA
ENDBRANCH  84  88
ENDBRANCH  58  81
ENDBRANCH  32  33
ENDBRANCH  25  27
ENDBRANCH  24  25
ENDBRANCH  23  24
ENDBRANCH   1  23
TORSDOF 17
ENDMDL
