MODEL 1
REMARK VINA RESULT:     -12.6      0.000      0.000
REMARK SMILES O=C(OCCOC(=O)c1cc(-c2ccccn2)nc2ccc(F)cc12)c1ccc(-c2c3nc(c(-c4cc(S(=O)(=O)[O-])ccc4F)c4ccc([nH]4)c(-c4cc(S(=O)(=O)[O-])ccc4F)c4nc(c(-c5cc(S(=O)(=O)[O-])ccc5F)c5ccc2[nH]5)C=C4)C=C3)cc1
REMARK SMILES IDX 4 1 3 2 2 3 1 4 26 5 27 6 88 7 28 8 87 9 29 10 30 11 31 12
REMARK SMILES IDX 81 13 32 14 86 15 80 16 82 17 33 18 85 19 79 20 78 21 34 23
REMARK SMILES IDX 66 24 46 25 65 26 47 27 50 28 64 29 83 30 48 31 49 32 63 34
REMARK SMILES IDX 84 35 51 36 35 37 36 38 44 39 37 40 43 41 45 42 42 43 38 44
REMARK SMILES IDX 39 45 40 46 41 47 67 48 68 49 76 50 69 51 75 52 77 53 74 54
REMARK SMILES IDX 70 55 71 56 72 57 73 58 52 59 53 60 61 61 54 62 60 63 62 64
REMARK SMILES IDX 59 65 55 66 56 67 57 68 58 69 5 70 6 71 7 72 8 73 9 74 10 75
REMARK SMILES IDX 25 76 11 77 19 78 24 79 18 80 20 81 22 82 21 83 23 84 12 85
REMARK SMILES IDX 13 86 17 87 14 88 16 89 15 90
REMARK H PARENT 82 22 50 33
REMARK Flexibility Score: inf
ROOT
ATOM      1  C   UNL A   1      37.320  21.299  24.595  1.00  0.00     0.275 C 
ENDROOT
BRANCH   1   2
ATOM      2  O   UNL A   1      37.877  21.349  25.919  1.00  0.00    -0.458 OA
BRANCH   2   3
ATOM      3  C   UNL A   1      39.196  21.515  26.207  1.00  0.00     0.338 C 
ATOM      4  O   UNL A   1      39.927  20.541  26.355  1.00  0.00    -0.246 OA
BRANCH   3   5
ATOM      5  C   UNL A   1      39.674  22.858  26.629  1.00  0.00     0.060 A 
ATOM      6  C   UNL A   1      40.739  22.881  27.534  1.00  0.00     0.016 A 
ATOM      7  C   UNL A   1      39.151  24.071  26.173  1.00  0.00     0.016 A 
ATOM      8  C   UNL A   1      41.167  24.087  28.092  1.00  0.00     0.010 A 
ATOM      9  C   UNL A   1      39.603  25.287  26.705  1.00  0.00     0.010 A 
ATOM     10  C   UNL A   1      40.604  25.308  27.683  1.00  0.00    -0.014 A 
BRANCH  10  11
ATOM     11  C   UNL A   1      41.281  26.579  28.055  1.00  0.00     0.031 A 
ATOM     12  C   UNL A   1      42.726  26.876  27.737  1.00  0.00     0.074 A 
ATOM     13  C   UNL A   1      40.518  27.463  28.730  1.00  0.00     0.049 A 
ATOM     14  N   UNL A   1      43.402  27.981  27.929  1.00  0.00    -0.248 NA
ATOM     15  C   UNL A   1      43.531  25.796  27.138  1.00  0.00     0.031 C 
ATOM     16  C   UNL A   1      39.127  27.217  29.134  1.00  0.00     0.029 A 
ATOM     17  N   UNL A   1      40.776  28.721  29.199  1.00  0.00    -0.354 N 
ATOM     18  C   UNL A   1      44.685  27.759  27.423  1.00  0.00     0.074 A 
ATOM     19  C   UNL A   1      44.715  26.384  26.973  1.00  0.00     0.031 C 
ATOM     20  C   UNL A   1      38.655  28.290  29.774  1.00  0.00     0.029 A 
ATOM     21  C   UNL A   1      39.717  29.280  29.877  1.00  0.00     0.049 A 
ATOM     22  H   UNL A   1      41.636  29.183  29.065  1.00  0.00     0.167 HD
ATOM     23  C   UNL A   1      45.709  28.646  27.326  1.00  0.00     0.034 A 
ATOM     24  C   UNL A   1      39.613  30.452  30.530  1.00  0.00     0.034 A 
ATOM     25  C   UNL A   1      45.597  30.010  27.782  1.00  0.00     0.049 A 
ATOM     26  C   UNL A   1      40.777  31.393  30.446  1.00  0.00     0.074 A 
ATOM     27  C   UNL A   1      46.512  31.036  27.630  1.00  0.00     0.029 A 
ATOM     28  N   UNL A   1      44.519  30.533  28.488  1.00  0.00    -0.354 N 
ATOM     29  N   UNL A   1      41.922  31.223  29.821  1.00  0.00    -0.248 NA
ATOM     30  C   UNL A   1      40.646  32.683  31.126  1.00  0.00     0.031 C 
ATOM     31  C   UNL A   1      46.014  32.160  28.292  1.00  0.00     0.029 A 
ATOM     32  C   UNL A   1      44.771  31.853  28.829  1.00  0.00     0.049 A 
ATOM     33  H   UNL A   1      43.698  30.038  28.713  1.00  0.00     0.167 HD
ATOM     34  C   UNL A   1      42.648  32.386  30.030  1.00  0.00     0.074 A 
ATOM     35  C   UNL A   1      41.793  33.268  30.805  1.00  0.00     0.031 C 
ATOM     36  C   UNL A   1      43.907  32.696  29.627  1.00  0.00     0.034 A 
BRANCH  23  37
ATOM     37  C   UNL A   1      47.007  28.254  26.640  1.00  0.00     0.023 A 
ATOM     38  C   UNL A   1      47.168  28.288  25.245  1.00  0.00     0.031 A 
ATOM     39  C   UNL A   1      48.017  27.610  27.372  1.00  0.00     0.131 A 
ATOM     40  C   UNL A   1      48.328  27.731  24.663  1.00  0.00     0.055 A 
ATOM     41  C   UNL A   1      49.203  27.139  26.811  1.00  0.00     0.041 A 
ATOM     42  F   UNL A   1      47.815  27.299  28.649  1.00  0.00    -0.206 F 
ATOM     43  C   UNL A   1      49.364  27.202  25.441  1.00  0.00     0.022 A 
BRANCH  40  44
ATOM     44  S   UNL A   1      48.480  27.495  22.870  1.00  0.00     0.124 S 
ATOM     45  O   UNL A   1      48.501  26.038  22.764  1.00  0.00    -0.237 OA
ATOM     46  O   UNL A   1      47.264  28.137  22.375  1.00  0.00    -0.237 OA
ATOM     47  O   UNL A   1      49.728  28.168  22.535  1.00  0.00    -0.744 OA
ENDBRANCH  40  44
ENDBRANCH  23  37
BRANCH  24  48
ATOM     48  C   UNL A   1      38.342  30.753  31.254  1.00  0.00     0.023 A 
ATOM     49  C   UNL A   1      37.271  31.370  30.574  1.00  0.00     0.031 A 
ATOM     50  C   UNL A   1      38.242  30.610  32.646  1.00  0.00     0.131 A 
ATOM     51  C   UNL A   1      36.201  31.915  31.298  1.00  0.00     0.055 A 
ATOM     52  C   UNL A   1      37.134  31.083  33.356  1.00  0.00     0.041 A 
ATOM     53  F   UNL A   1      39.239  30.043  33.342  1.00  0.00    -0.206 F 
ATOM     54  C   UNL A   1      36.120  31.762  32.685  1.00  0.00     0.022 A 
BRANCH  51  55
ATOM     55  S   UNL A   1      34.983  32.990  30.486  1.00  0.00     0.124 S 
ATOM     56  O   UNL A   1      35.804  34.125  30.079  1.00  0.00    -0.237 OA
ATOM     57  O   UNL A   1      34.504  32.136  29.402  1.00  0.00    -0.237 OA
ATOM     58  O   UNL A   1      34.007  33.261  31.537  1.00  0.00    -0.744 OA
ENDBRANCH  51  55
ENDBRANCH  24  48
BRANCH  36  59
ATOM     59  C   UNL A   1      44.459  34.029  30.061  1.00  0.00     0.023 A 
ATOM     60  C   UNL A   1      44.322  35.159  29.236  1.00  0.00     0.031 A 
ATOM     61  C   UNL A   1      45.213  34.148  31.242  1.00  0.00     0.131 A 
ATOM     62  C   UNL A   1      44.965  36.352  29.585  1.00  0.00     0.055 A 
ATOM     63  C   UNL A   1      45.804  35.354  31.613  1.00  0.00     0.041 A 
ATOM     64  F   UNL A   1      45.375  33.093  32.057  1.00  0.00    -0.206 F 
ATOM     65  C   UNL A   1      45.694  36.459  30.774  1.00  0.00     0.022 A 
BRANCH  62  66
ATOM     66  S   UNL A   1      44.959  37.774  28.461  1.00  0.00     0.124 S 
ATOM     67  O   UNL A   1      46.386  38.050  28.316  1.00  0.00    -0.237 OA
ATOM     68  O   UNL A   1      44.304  37.226  27.276  1.00  0.00    -0.237 OA
ATOM     69  O   UNL A   1      44.197  38.789  29.182  1.00  0.00    -0.744 OA
ENDBRANCH  62  66
ENDBRANCH  36  59
ENDBRANCH  10  11
ENDBRANCH   3   5
ENDBRANCH   2   3
ENDBRANCH   1   2
BRANCH   1  70
ATOM     70  C   UNL A   1      37.032  22.664  23.963  1.00  0.00     0.275 C 
BRANCH  70  71
ATOM     71  O   UNL A   1      35.918  23.346  24.554  1.00  0.00    -0.458 OA
BRANCH  71  72
ATOM     72  C   UNL A   1      34.785  23.373  23.794  1.00  0.00     0.339 C 
ATOM     73  O   UNL A   1      34.626  23.962  22.752  1.00  0.00    -0.246 OA
BRANCH  72  74
ATOM     74  C   UNL A   1      33.772  22.486  24.415  1.00  0.00     0.071 A 
ATOM     75  C   UNL A   1      33.860  21.106  24.193  1.00  0.00     0.047 A 
ATOM     76  C   UNL A   1      32.691  23.047  25.149  1.00  0.00     0.018 A 
ATOM     77  C   UNL A   1      32.856  20.312  24.716  1.00  0.00     0.090 A 
ATOM     78  C   UNL A   1      31.732  22.133  25.618  1.00  0.00     0.072 A 
ATOM     79  C   UNL A   1      32.447  24.424  25.384  1.00  0.00     0.050 A 
ATOM     80  N   UNL A   1      31.834  20.828  25.439  1.00  0.00    -0.246 NA
ATOM     81  C   UNL A   1      30.580  22.567  26.250  1.00  0.00     0.032 A 
ATOM     82  C   UNL A   1      31.283  24.837  26.027  1.00  0.00     0.123 A 
ATOM     83  C   UNL A   1      30.338  23.919  26.454  1.00  0.00     0.041 A 
ATOM     84  F   UNL A   1      31.062  26.143  26.225  1.00  0.00    -0.207 F 
BRANCH  77  85
ATOM     85  C   UNL A   1      32.762  18.863  24.559  1.00  0.00     0.089 A 
ATOM     86  C   UNL A   1      33.118  18.233  23.375  1.00  0.00     0.030 A 
ATOM     87  N   UNL A   1      32.483  18.182  25.704  1.00  0.00    -0.255 NA
ATOM     88  C   UNL A   1      33.305  16.859  23.406  1.00  0.00     0.004 A 
ATOM     89  C   UNL A   1      32.623  16.844  25.690  1.00  0.00     0.112 A 
ATOM     90  C   UNL A   1      33.072  16.153  24.587  1.00  0.00     0.020 A 
ENDBRANCH  77  85
ENDBRANCH  72  74
ENDBRANCH  71  72
ENDBRANCH  70  71
ENDBRANCH   1  70
TORSDOF 15
ENDMDL
MODEL 2
REMARK VINA RESULT:     -12.4      1.755      7.896
REMARK SMILES O=C(OCCOC(=O)c1cc(-c2ccccn2)nc2ccc(F)cc12)c1ccc(-c2c3nc(c(-c4cc(S(=O)(=O)[O-])ccc4F)c4ccc([nH]4)c(-c4cc(S(=O)(=O)[O-])ccc4F)c4nc(c(-c5cc(S(=O)(=O)[O-])ccc5F)c5ccc2[nH]5)C=C4)C=C3)cc1
REMARK SMILES IDX 4 1 3 2 2 3 1 4 26 5 27 6 88 7 28 8 87 9 29 10 30 11 31 12
REMARK SMILES IDX 81 13 32 14 86 15 80 16 82 17 33 18 85 19 79 20 78 21 34 23
REMARK SMILES IDX 66 24 46 25 65 26 47 27 50 28 64 29 83 30 48 31 49 32 63 34
REMARK SMILES IDX 84 35 51 36 35 37 36 38 44 39 37 40 43 41 45 42 42 43 38 44
REMARK SMILES IDX 39 45 40 46 41 47 67 48 68 49 76 50 69 51 75 52 77 53 74 54
REMARK SMILES IDX 70 55 71 56 72 57 73 58 52 59 53 60 61 61 54 62 60 63 62 64
REMARK SMILES IDX 59 65 55 66 56 67 57 68 58 69 5 70 6 71 7 72 8 73 9 74 10 75
REMARK SMILES IDX 25 76 11 77 19 78 24 79 18 80 20 81 22 82 21 83 23 84 12 85
REMARK SMILES IDX 13 86 17 87 14 88 16 89 15 90
REMARK H PARENT 82 22 50 33
REMARK Flexibility Score: inf
ROOT
ATOM      1  C   UNL A   1      39.067  19.981  25.256  1.00  0.00     0.275 C 
ENDROOT
BRANCH   1   2
ATOM      2  O   UNL A   1      40.075  19.421  26.113  1.00  0.00    -0.458 OA
BRANCH   2   3
ATOM      3  C   UNL A   1      41.395  19.748  26.084  1.00  0.00     0.338 C 
ATOM      4  O   UNL A   1      42.248  18.876  25.951  1.00  0.00    -0.246 OA
BRANCH   3   5
ATOM      5  C   UNL A   1      41.805  21.113  26.507  1.00  0.00     0.060 A 
ATOM      6  C   UNL A   1      42.040  22.035  25.484  1.00  0.00     0.016 A 
ATOM      7  C   UNL A   1      41.948  21.528  27.834  1.00  0.00     0.016 A 
ATOM      8  C   UNL A   1      42.559  23.298  25.774  1.00  0.00     0.010 A 
ATOM      9  C   UNL A   1      42.435  22.809  28.131  1.00  0.00     0.010 A 
ATOM     10  C   UNL A   1      42.764  23.702  27.105  1.00  0.00    -0.014 A 
BRANCH  10  11
ATOM     11  C   UNL A   1      43.017  25.139  27.395  1.00  0.00     0.031 A 
ATOM     12  C   UNL A   1      41.960  26.081  27.917  1.00  0.00     0.074 A 
ATOM     13  C   UNL A   1      44.269  25.567  27.136  1.00  0.00     0.049 A 
ATOM     14  N   UNL A   1      42.083  27.330  28.292  1.00  0.00    -0.248 NA
ATOM     15  C   UNL A   1      40.581  25.572  28.024  1.00  0.00     0.031 C 
ATOM     16  C   UNL A   1      45.330  24.727  26.563  1.00  0.00     0.029 A 
ATOM     17  N   UNL A   1      44.871  26.784  27.303  1.00  0.00    -0.354 N 
ATOM     18  C   UNL A   1      40.823  27.739  28.737  1.00  0.00     0.074 A 
ATOM     19  C   UNL A   1      39.929  26.622  28.522  1.00  0.00     0.031 C 
ATOM     20  C   UNL A   1      46.448  25.447  26.441  1.00  0.00     0.029 A 
ATOM     21  C   UNL A   1      46.178  26.810  26.872  1.00  0.00     0.049 A 
ATOM     22  H   UNL A   1      44.414  27.564  27.692  1.00  0.00     0.167 HD
ATOM     23  C   UNL A   1      40.482  28.929  29.297  1.00  0.00     0.034 A 
ATOM     24  C   UNL A   1      47.061  27.823  26.810  1.00  0.00     0.034 A 
ATOM     25  C   UNL A   1      41.436  29.993  29.497  1.00  0.00     0.049 A 
ATOM     26  C   UNL A   1      46.641  29.140  27.393  1.00  0.00     0.074 A 
ATOM     27  C   UNL A   1      41.248  31.191  30.159  1.00  0.00     0.029 A 
ATOM     28  N   UNL A   1      42.744  29.995  29.024  1.00  0.00    -0.354 N 
ATOM     29  N   UNL A   1      45.496  29.456  27.957  1.00  0.00    -0.248 NA
ATOM     30  C   UNL A   1      47.618  30.230  27.358  1.00  0.00     0.031 C 
ATOM     31  C   UNL A   1      42.421  31.940  30.039  1.00  0.00     0.029 A 
ATOM     32  C   UNL A   1      43.358  31.198  29.332  1.00  0.00     0.049 A 
ATOM     33  H   UNL A   1      43.170  29.250  28.541  1.00  0.00     0.167 HD
ATOM     34  C   UNL A   1      45.614  30.781  28.347  1.00  0.00     0.074 A 
ATOM     35  C   UNL A   1      46.959  31.193  27.991  1.00  0.00     0.031 C 
ATOM     36  C   UNL A   1      44.694  31.588  28.938  1.00  0.00     0.034 A 
BRANCH  23  37
ATOM     37  C   UNL A   1      39.076  29.157  29.827  1.00  0.00     0.023 A 
ATOM     38  C   UNL A   1      38.128  29.943  29.151  1.00  0.00     0.031 A 
ATOM     39  C   UNL A   1      38.757  28.782  31.142  1.00  0.00     0.131 A 
ATOM     40  C   UNL A   1      36.912  30.271  29.788  1.00  0.00     0.055 A 
ATOM     41  C   UNL A   1      37.522  29.029  31.741  1.00  0.00     0.041 A 
ATOM     42  F   UNL A   1      39.697  28.277  31.935  1.00  0.00    -0.206 F 
ATOM     43  C   UNL A   1      36.586  29.779  31.057  1.00  0.00     0.022 A 
BRANCH  40  44
ATOM     44  S   UNL A   1      35.767  31.495  29.092  1.00  0.00     0.124 S 
ATOM     45  O   UNL A   1      34.962  30.671  28.194  1.00  0.00    -0.237 OA
ATOM     46  O   UNL A   1      35.073  31.975  30.285  1.00  0.00    -0.237 OA
ATOM     47  O   UNL A   1      36.644  32.461  28.443  1.00  0.00    -0.744 OA
ENDBRANCH  40  44
ENDBRANCH  23  37
BRANCH  24  48
ATOM     48  C   UNL A   1      48.402  27.563  26.208  1.00  0.00     0.023 A 
ATOM     49  C   UNL A   1      48.612  27.781  24.830  1.00  0.00     0.031 A 
ATOM     50  C   UNL A   1      49.419  26.928  26.935  1.00  0.00     0.131 A 
ATOM     51  C   UNL A   1      49.760  27.273  24.206  1.00  0.00     0.055 A 
ATOM     52  C   UNL A   1      50.599  26.494  26.323  1.00  0.00     0.041 A 
ATOM     53  F   UNL A   1      49.264  26.683  28.245  1.00  0.00    -0.206 F 
ATOM     54  C   UNL A   1      50.762  26.643  24.949  1.00  0.00     0.022 A 
BRANCH  51  55
ATOM     55  S   UNL A   1      49.900  27.253  22.395  1.00  0.00     0.124 S 
ATOM     56  O   UNL A   1      49.707  28.660  22.060  1.00  0.00    -0.237 OA
ATOM     57  O   UNL A   1      51.255  26.739  22.206  1.00  0.00    -0.237 OA
ATOM     58  O   UNL A   1      48.833  26.351  21.975  1.00  0.00    -0.744 OA
ENDBRANCH  51  55
ENDBRANCH  24  48
BRANCH  36  59
ATOM     59  C   UNL A   1      45.096  33.018  29.190  1.00  0.00     0.023 A 
ATOM     60  C   UNL A   1      44.739  34.028  28.279  1.00  0.00     0.031 A 
ATOM     61  C   UNL A   1      45.922  33.355  30.276  1.00  0.00     0.131 A 
ATOM     62  C   UNL A   1      45.243  35.322  28.450  1.00  0.00     0.055 A 
ATOM     63  C   UNL A   1      46.373  34.659  30.474  1.00  0.00     0.041 A 
ATOM     64  F   UNL A   1      46.291  32.421  31.167  1.00  0.00    -0.206 F 
ATOM     65  C   UNL A   1      46.046  35.646  29.549  1.00  0.00     0.022 A 
BRANCH  62  66
ATOM     66  S   UNL A   1      44.951  36.606  27.204  1.00  0.00     0.124 S 
ATOM     67  O   UNL A   1      43.778  36.085  26.505  1.00  0.00    -0.237 OA
ATOM     68  O   UNL A   1      44.713  37.788  28.029  1.00  0.00    -0.237 OA
ATOM     69  O   UNL A   1      46.184  36.626  26.423  1.00  0.00    -0.744 OA
ENDBRANCH  62  66
ENDBRANCH  36  59
ENDBRANCH  10  11
ENDBRANCH   3   5
ENDBRANCH   2   3
ENDBRANCH   1   2
BRANCH   1  70
ATOM     70  C   UNL A   1      38.567  21.369  25.666  1.00  0.00     0.275 C 
BRANCH  70  71
ATOM     71  O   UNL A   1      37.537  21.884  24.812  1.00  0.00    -0.458 OA
BRANCH  71  72
ATOM     72  C   UNL A   1      36.482  22.460  25.458  1.00  0.00     0.339 C 
ATOM     73  O   UNL A   1      36.532  23.327  26.297  1.00  0.00    -0.246 OA
BRANCH  72  74
ATOM     74  C   UNL A   1      35.223  21.901  24.909  1.00  0.00     0.071 A 
ATOM     75  C   UNL A   1      34.968  20.534  25.071  1.00  0.00     0.047 A 
ATOM     76  C   UNL A   1      34.342  22.734  24.165  1.00  0.00     0.018 A 
ATOM     77  C   UNL A   1      33.826  20.026  24.479  1.00  0.00     0.090 A 
ATOM     78  C   UNL A   1      33.223  22.092  23.607  1.00  0.00     0.072 A 
ATOM     79  C   UNL A   1      34.518  24.108  23.869  1.00  0.00     0.050 A 
ATOM     80  N   UNL A   1      32.964  20.809  23.789  1.00  0.00    -0.246 NA
ATOM     81  C   UNL A   1      32.353  22.771  22.772  1.00  0.00     0.032 A 
ATOM     82  C   UNL A   1      33.626  24.772  23.031  1.00  0.00     0.123 A 
ATOM     83  C   UNL A   1      32.548  24.112  22.469  1.00  0.00     0.041 A 
ATOM     84  F   UNL A   1      33.819  26.067  22.749  1.00  0.00    -0.207 F 
BRANCH  77  85
ATOM     85  C   UNL A   1      33.414  18.624  24.511  1.00  0.00     0.089 A 
ATOM     86  C   UNL A   1      33.955  17.686  23.645  1.00  0.00     0.030 A 
ATOM     87  N   UNL A   1      32.616  18.289  25.561  1.00  0.00    -0.255 NA
ATOM     88  C   UNL A   1      33.759  16.345  23.942  1.00  0.00     0.004 A 
ATOM     89  C   UNL A   1      32.400  16.981  25.794  1.00  0.00     0.112 A 
ATOM     90  C   UNL A   1      32.984  15.985  25.045  1.00  0.00     0.020 A 
ENDBRANCH  77  85
ENDBRANCH  72  74
ENDBRANCH  71  72
ENDBRANCH  70  71
ENDBRANCH   1  70
TORSDOF 15
ENDMDL
MODEL 3
REMARK VINA RESULT:     -12.4      5.716      9.112
REMARK SMILES O=C(OCCOC(=O)c1cc(-c2ccccn2)nc2ccc(F)cc12)c1ccc(-c2c3nc(c(-c4cc(S(=O)(=O)[O-])ccc4F)c4ccc([nH]4)c(-c4cc(S(=O)(=O)[O-])ccc4F)c4nc(c(-c5cc(S(=O)(=O)[O-])ccc5F)c5ccc2[nH]5)C=C4)C=C3)cc1
REMARK SMILES IDX 4 1 3 2 2 3 1 4 26 5 27 6 88 7 28 8 87 9 29 10 30 11 31 12
REMARK SMILES IDX 81 13 32 14 86 15 80 16 82 17 33 18 85 19 79 20 78 21 34 23
REMARK SMILES IDX 66 24 46 25 65 26 47 27 50 28 64 29 83 30 48 31 49 32 63 34
REMARK SMILES IDX 84 35 51 36 35 37 36 38 44 39 37 40 43 41 45 42 42 43 38 44
REMARK SMILES IDX 39 45 40 46 41 47 67 48 68 49 76 50 69 51 75 52 77 53 74 54
REMARK SMILES IDX 70 55 71 56 72 57 73 58 52 59 53 60 61 61 54 62 60 63 62 64
REMARK SMILES IDX 59 65 55 66 56 67 57 68 58 69 5 70 6 71 7 72 8 73 9 74 10 75
REMARK SMILES IDX 25 76 11 77 19 78 24 79 18 80 20 81 22 82 21 83 23 84 12 85
REMARK SMILES IDX 13 86 17 87 14 88 16 89 15 90
REMARK H PARENT 82 22 50 33
REMARK Flexibility Score: inf
ROOT
ATOM      1  C   UNL A   1      32.192  32.528  27.370  1.00  0.00     0.275 C 
ENDROOT
BRANCH   1   2
ATOM      2  O   UNL A   1      32.782  33.824  27.560  1.00  0.00    -0.458 OA
BRANCH   2   3
ATOM      3  C   UNL A   1      33.272  34.295  28.738  1.00  0.00     0.338 C 
ATOM      4  O   UNL A   1      32.859  35.351  29.206  1.00  0.00    -0.246 OA
BRANCH   3   5
ATOM      5  C   UNL A   1      34.506  33.682  29.298  1.00  0.00     0.060 A 
ATOM      6  C   UNL A   1      34.325  32.744  30.318  1.00  0.00     0.016 A 
ATOM      7  C   UNL A   1      35.804  33.963  28.864  1.00  0.00     0.016 A 
ATOM      8  C   UNL A   1      35.424  32.217  30.998  1.00  0.00     0.010 A 
ATOM      9  C   UNL A   1      36.911  33.407  29.521  1.00  0.00     0.010 A 
ATOM     10  C   UNL A   1      36.735  32.542  30.607  1.00  0.00    -0.014 A 
BRANCH  10  11
ATOM     11  C   UNL A   1      37.869  31.738  31.135  1.00  0.00     0.031 A 
ATOM     12  C   UNL A   1      38.498  30.592  30.382  1.00  0.00     0.074 A 
ATOM     13  C   UNL A   1      38.298  32.085  32.366  1.00  0.00     0.049 A 
ATOM     14  N   UNL A   1      39.548  29.875  30.698  1.00  0.00    -0.248 NA
ATOM     15  C   UNL A   1      37.868  30.178  29.115  1.00  0.00     0.031 C 
ATOM     16  C   UNL A   1      37.692  33.143  33.186  1.00  0.00     0.029 A 
ATOM     17  N   UNL A   1      39.315  31.609  33.146  1.00  0.00    -0.354 N 
ATOM     18  C   UNL A   1      39.746  28.972  29.651  1.00  0.00     0.074 A 
ATOM     19  C   UNL A   1      38.664  29.185  28.715  1.00  0.00     0.031 C 
ATOM     20  C   UNL A   1      38.356  33.243  34.341  1.00  0.00     0.029 A 
ATOM     21  C   UNL A   1      39.397  32.226  34.373  1.00  0.00     0.049 A 
ATOM     22  H   UNL A   1      39.929  30.895  32.859  1.00  0.00     0.167 HD
ATOM     23  C   UNL A   1      40.762  28.084  29.496  1.00  0.00     0.034 A 
ATOM     24  C   UNL A   1      40.206  31.991  35.422  1.00  0.00     0.034 A 
ATOM     25  C   UNL A   1      41.820  27.940  30.467  1.00  0.00     0.049 A 
ATOM     26  C   UNL A   1      41.290  30.970  35.240  1.00  0.00     0.074 A 
ATOM     27  C   UNL A   1      42.964  27.170  30.372  1.00  0.00     0.029 A 
ATOM     28  N   UNL A   1      41.855  28.562  31.711  1.00  0.00    -0.354 N 
ATOM     29  N   UNL A   1      41.558  30.243  34.178  1.00  0.00    -0.248 NA
ATOM     30  C   UNL A   1      42.193  30.743  36.370  1.00  0.00     0.031 C 
ATOM     31  C   UNL A   1      43.661  27.282  31.576  1.00  0.00     0.029 A 
ATOM     32  C   UNL A   1      42.974  28.149  32.416  1.00  0.00     0.049 A 
ATOM     33  H   UNL A   1      41.183  29.201  32.041  1.00  0.00     0.167 HD
ATOM     34  C   UNL A   1      42.662  29.473  34.509  1.00  0.00     0.074 A 
ATOM     35  C   UNL A   1      43.037  29.856  35.858  1.00  0.00     0.031 C 
ATOM     36  C   UNL A   1      43.304  28.530  33.772  1.00  0.00     0.034 A 
BRANCH  23  37
ATOM     37  C   UNL A   1      40.875  27.254  28.228  1.00  0.00     0.023 A 
ATOM     38  C   UNL A   1      40.694  25.861  28.214  1.00  0.00     0.031 A 
ATOM     39  C   UNL A   1      41.406  27.830  27.063  1.00  0.00     0.131 A 
ATOM     40  C   UNL A   1      41.002  25.130  27.046  1.00  0.00     0.055 A 
ATOM     41  C   UNL A   1      41.626  27.125  25.880  1.00  0.00     0.041 A 
ATOM     42  F   UNL A   1      41.855  29.081  27.086  1.00  0.00    -0.206 F 
ATOM     43  C   UNL A   1      41.419  25.760  25.868  1.00  0.00     0.022 A 
BRANCH  40  44
ATOM     44  S   UNL A   1      41.054  23.316  27.038  1.00  0.00     0.124 S 
ATOM     45  O   UNL A   1      39.637  22.979  26.929  1.00  0.00    -0.237 OA
ATOM     46  O   UNL A   1      41.853  23.039  25.847  1.00  0.00    -0.237 OA
ATOM     47  O   UNL A   1      41.684  22.981  28.310  1.00  0.00    -0.744 OA
ENDBRANCH  40  44
ENDBRANCH  23  37
BRANCH  24  48
ATOM     48  C   UNL A   1      40.001  32.782  36.672  1.00  0.00     0.023 A 
ATOM     49  C   UNL A   1      39.115  32.314  37.666  1.00  0.00     0.031 A 
ATOM     50  C   UNL A   1      40.521  34.076  36.812  1.00  0.00     0.131 A 
ATOM     51  C   UNL A   1      38.697  33.172  38.693  1.00  0.00     0.055 A 
ATOM     52  C   UNL A   1      40.164  34.901  37.883  1.00  0.00     0.041 A 
ATOM     53  F   UNL A   1      41.356  34.574  35.887  1.00  0.00    -0.206 F 
ATOM     54  C   UNL A   1      39.228  34.459  38.815  1.00  0.00     0.022 A 
BRANCH  51  55
ATOM     55  S   UNL A   1      37.323  32.710  39.787  1.00  0.00     0.124 S 
ATOM     56  O   UNL A   1      37.748  31.401  40.272  1.00  0.00    -0.237 OA
ATOM     57  O   UNL A   1      37.350  33.787  40.773  1.00  0.00    -0.237 OA
ATOM     58  O   UNL A   1      36.162  32.709  38.903  1.00  0.00    -0.744 OA
ENDBRANCH  51  55
ENDBRANCH  24  48
BRANCH  36  59
ATOM     59  C   UNL A   1      44.451  27.807  34.429  1.00  0.00     0.023 A 
ATOM     60  C   UNL A   1      44.232  26.593  35.104  1.00  0.00     0.031 A 
ATOM     61  C   UNL A   1      45.734  28.379  34.477  1.00  0.00     0.131 A 
ATOM     62  C   UNL A   1      45.275  26.009  35.833  1.00  0.00     0.055 A 
ATOM     63  C   UNL A   1      46.784  27.764  35.156  1.00  0.00     0.041 A 
ATOM     64  F   UNL A   1      45.986  29.540  33.851  1.00  0.00    -0.206 F 
ATOM     65  C   UNL A   1      46.552  26.580  35.851  1.00  0.00     0.022 A 
BRANCH  62  66
ATOM     66  S   UNL A   1      44.985  24.542  36.857  1.00  0.00     0.124 S 
ATOM     67  O   UNL A   1      44.044  25.051  37.852  1.00  0.00    -0.237 OA
ATOM     68  O   UNL A   1      44.426  23.599  35.892  1.00  0.00    -0.237 OA
ATOM     69  O   UNL A   1      46.309  24.202  37.368  1.00  0.00    -0.744 OA
ENDBRANCH  62  66
ENDBRANCH  36  59
ENDBRANCH  10  11
ENDBRANCH   3   5
ENDBRANCH   2   3
ENDBRANCH   1   2
BRANCH   1  70
ATOM     70  C   UNL A   1      33.191  31.371  27.266  1.00  0.00     0.275 C 
BRANCH  70  71
ATOM     71  O   UNL A   1      32.569  30.085  27.147  1.00  0.00    -0.458 OA
BRANCH  71  72
ATOM     72  C   UNL A   1      33.081  29.281  26.171  1.00  0.00     0.339 C 
ATOM     73  O   UNL A   1      34.231  28.936  26.047  1.00  0.00    -0.246 OA
BRANCH  72  74
ATOM     74  C   UNL A   1      31.972  28.819  25.302  1.00  0.00     0.071 A 
ATOM     75  C   UNL A   1      31.223  29.773  24.604  1.00  0.00     0.047 A 
ATOM     76  C   UNL A   1      31.637  27.437  25.253  1.00  0.00     0.018 A 
ATOM     77  C   UNL A   1      30.146  29.320  23.865  1.00  0.00     0.090 A 
ATOM     78  C   UNL A   1      30.514  27.110  24.475  1.00  0.00     0.072 A 
ATOM     79  C   UNL A   1      32.266  26.384  25.963  1.00  0.00     0.050 A 
ATOM     80  N   UNL A   1      29.828  28.007  23.788  1.00  0.00    -0.246 NA
ATOM     81  C   UNL A   1      30.023  25.817  24.436  1.00  0.00     0.032 A 
ATOM     82  C   UNL A   1      31.758  25.089  25.905  1.00  0.00     0.123 A 
ATOM     83  C   UNL A   1      30.632  24.796  25.155  1.00  0.00     0.041 A 
ATOM     84  F   UNL A   1      32.355  24.110  26.596  1.00  0.00    -0.207 F 
BRANCH  77  85
ATOM     85  C   UNL A   1      29.232  30.169  23.102  1.00  0.00     0.089 A 
ATOM     86  C   UNL A   1      28.729  31.351  23.624  1.00  0.00     0.030 A 
ATOM     87  N   UNL A   1      29.071  29.806  21.801  1.00  0.00    -0.255 NA
ATOM     88  C   UNL A   1      28.139  32.245  22.743  1.00  0.00     0.004 A 
ATOM     89  C   UNL A   1      28.447  30.671  20.980  1.00  0.00     0.112 A 
ATOM     90  C   UNL A   1      28.011  31.909  21.395  1.00  0.00     0.020 A 
ENDBRANCH  77  85
ENDBRANCH  72  74
ENDBRANCH  71  72
ENDBRANCH  70  71
ENDBRANCH   1  70
TORSDOF 15
ENDMDL
