MODEL 1
REMARK VINA RESULT:     -11.2      0.000      0.000
REMARK SMILES COc1cc(Br)c(OC)c(C(=O)N2CCC[C@@H]2C(=O)OCCOC(=O)c2ccc(-c3c4nc(c(-c5cc(S(=O)(=O)[O-])ccc5F)c5ccc([nH]5)c(-c5cc(S(=O)(=O)[O-])ccc5F)c5nc(c(-c6cc(S(=O)(=O)[O-])ccc6F)c6ccc3[nH]6)C=C5)C=C4)cc2)c1
REMARK SMILES IDX 21 1 20 2 18 3 19 4 17 5 13 6 14 7 15 8 16 9 11 10 12 11
REMARK SMILES IDX 10 12 3 13 4 14 89 15 5 16 6 17 7 18 2 19 1 20 8 21 9 22
REMARK SMILES IDX 22 23 23 24 24 25 25 26 26 27 27 28 88 29 28 30 87 31 29 32
REMARK SMILES IDX 30 33 31 34 81 35 32 36 86 37 80 38 82 39 33 40 85 41 79 42
REMARK SMILES IDX 78 43 34 45 66 46 46 47 65 48 47 49 50 50 64 51 83 52 48 53
REMARK SMILES IDX 49 54 63 56 84 57 51 58 35 59 36 60 44 61 37 62 43 63 45 64
REMARK SMILES IDX 42 65 38 66 39 67 40 68 41 69 67 70 68 71 76 72 69 73 75 74
REMARK SMILES IDX 77 75 74 76 70 77 71 78 72 79 73 80 52 81 53 82 61 83 54 84
REMARK SMILES IDX 60 85 62 86 59 87 55 88 56 89 57 90 58 91
REMARK H PARENT 82 44 50 55
REMARK Flexibility Score: inf
ROOT
ATOM      1  C   UNL A   1      35.143  21.843  25.820  1.00  0.00     0.274 C 
ENDROOT
BRANCH   1   2
ATOM      2  O   UNL A   1      33.876  21.563  25.196  1.00  0.00    -0.461 OA
BRANCH   2   3
ATOM      3  C   UNL A   1      33.464  22.483  24.280  1.00  0.00     0.328 C 
ATOM      4  O   UNL A   1      34.057  22.708  23.230  1.00  0.00    -0.250 OA
BRANCH   3   5
ATOM      5  C   UNL A   1      32.241  23.290  24.736  1.00  0.00     0.195 C 
ATOM      6  N   UNL A   1      32.620  24.299  25.717  1.00  0.00    -0.325 N 
ATOM      7  C   UNL A   1      31.498  24.535  26.601  1.00  0.00     0.121 C 
ATOM      8  C   UNL A   1      30.910  23.148  26.769  1.00  0.00     0.024 C 
ATOM      9  C   UNL A   1      31.086  22.514  25.388  1.00  0.00     0.039 C 
BRANCH   6  10
ATOM     10  C   UNL A   1      33.467  25.336  25.345  1.00  0.00     0.258 C 
ATOM     11  O   UNL A   1      34.679  25.184  25.290  1.00  0.00    -0.269 OA
BRANCH  10  12
ATOM     12  C   UNL A   1      32.782  26.671  25.170  1.00  0.00     0.086 A 
ATOM     13  C   UNL A   1      32.271  28.847  26.125  1.00  0.00     0.121 A 
ATOM     14  C   UNL A   1      31.636  29.228  24.955  1.00  0.00     0.066 A 
ATOM     15  C   UNL A   1      32.880  27.608  26.218  1.00  0.00     0.064 A 
ATOM     16  C   UNL A   1      31.530  28.320  23.893  1.00  0.00     0.064 A 
ATOM     17  Br  UNL A   1      30.494  28.936  22.420  1.00  0.00    -0.047 Br
ATOM     18  C   UNL A   1      32.094  27.030  23.986  1.00  0.00     0.146 A 
BRANCH  13  19
ATOM     19  O   UNL A   1      32.327  29.674  27.212  1.00  0.00    -0.497 OA
ATOM     20  C   UNL A   1      31.933  30.998  26.844  1.00  0.00     0.278 C 
ENDBRANCH  13  19
BRANCH  18  21
ATOM     21  O   UNL A   1      31.871  26.057  23.047  1.00  0.00    -0.495 OA
ATOM     22  C   UNL A   1      32.732  26.060  21.911  1.00  0.00     0.278 C 
ENDBRANCH  18  21
ENDBRANCH  10  12
ENDBRANCH   6  10
ENDBRANCH   3   5
ENDBRANCH   2   3
ENDBRANCH   1   2
BRANCH   1  23
ATOM     23  C   UNL A   1      36.232  20.887  25.324  1.00  0.00     0.275 C 
BRANCH  23  24
ATOM     24  O   UNL A   1      37.467  21.567  25.034  1.00  0.00    -0.458 OA
BRANCH  24  25
ATOM     25  C   UNL A   1      38.532  21.158  25.766  1.00  0.00     0.338 C 
ATOM     26  O   UNL A   1      38.933  20.017  25.906  1.00  0.00    -0.246 OA
BRANCH  25  27
ATOM     27  C   UNL A   1      39.254  22.329  26.285  1.00  0.00     0.060 A 
ATOM     28  C   UNL A   1      38.815  23.597  25.902  1.00  0.00     0.016 A 
ATOM     29  C   UNL A   1      40.397  22.182  27.072  1.00  0.00     0.016 A 
ATOM     30  C   UNL A   1      39.506  24.733  26.309  1.00  0.00     0.010 A 
ATOM     31  C   UNL A   1      41.088  23.326  27.488  1.00  0.00     0.010 A 
ATOM     32  C   UNL A   1      40.645  24.606  27.112  1.00  0.00    -0.014 A 
BRANCH  32  33
ATOM     33  C   UNL A   1      41.374  25.819  27.553  1.00  0.00     0.031 A 
ATOM     34  C   UNL A   1      40.679  26.848  28.395  1.00  0.00     0.074 A 
ATOM     35  C   UNL A   1      42.662  25.985  27.195  1.00  0.00     0.049 A 
ATOM     36  N   UNL A   1      41.090  28.034  28.760  1.00  0.00    -0.248 NA
ATOM     37  C   UNL A   1      39.341  26.492  28.890  1.00  0.00     0.031 C 
ATOM     38  C   UNL A   1      43.456  25.014  26.439  1.00  0.00     0.029 A 
ATOM     39  N   UNL A   1      43.526  27.027  27.410  1.00  0.00    -0.354 N 
ATOM     40  C   UNL A   1      40.057  28.579  29.513  1.00  0.00     0.074 A 
ATOM     41  C   UNL A   1      38.992  27.596  29.535  1.00  0.00     0.031 C 
ATOM     42  C   UNL A   1      44.688  25.512  26.247  1.00  0.00     0.029 A 
ATOM     43  C   UNL A   1      44.748  26.859  26.804  1.00  0.00     0.049 A 
ATOM     44  H   UNL A   1      43.293  27.819  27.948  1.00  0.00     0.167 HD
ATOM     45  C   UNL A   1      40.008  29.789  30.125  1.00  0.00     0.034 A 
ATOM     46  C   UNL A   1      45.780  27.714  26.666  1.00  0.00     0.034 A 
ATOM     47  C   UNL A   1      41.084  30.749  30.085  1.00  0.00     0.049 A 
ATOM     48  C   UNL A   1      45.657  29.096  27.255  1.00  0.00     0.074 A 
ATOM     49  C   UNL A   1      41.152  31.997  30.681  1.00  0.00     0.029 A 
ATOM     50  N   UNL A   1      42.280  30.576  29.398  1.00  0.00    -0.354 N 
ATOM     51  N   UNL A   1      44.663  29.615  27.940  1.00  0.00    -0.248 NA
ATOM     52  C   UNL A   1      46.785  30.009  27.042  1.00  0.00     0.031 C 
ATOM     53  C   UNL A   1      42.355  32.602  30.298  1.00  0.00     0.029 A 
ATOM     54  C   UNL A   1      43.071  31.708  29.519  1.00  0.00     0.049 A 
ATOM     55  H   UNL A   1      42.529  29.765  28.896  1.00  0.00     0.167 HD
ATOM     56  C   UNL A   1      45.053  30.914  28.247  1.00  0.00     0.074 A 
ATOM     57  C   UNL A   1      46.380  31.091  27.691  1.00  0.00     0.031 C 
ATOM     58  C   UNL A   1      44.379  31.875  28.929  1.00  0.00     0.034 A 
BRANCH  45  59
ATOM     59  C   UNL A   1      38.724  30.158  30.828  1.00  0.00     0.023 A 
ATOM     60  C   UNL A   1      37.689  30.849  30.174  1.00  0.00     0.031 A 
ATOM     61  C   UNL A   1      38.547  29.836  32.185  1.00  0.00     0.131 A 
ATOM     62  C   UNL A   1      36.553  31.253  30.895  1.00  0.00     0.055 A 
ATOM     63  C   UNL A   1      37.384  30.178  32.879  1.00  0.00     0.041 A 
ATOM     64  F   UNL A   1      39.510  29.197  32.867  1.00  0.00    -0.206 F 
ATOM     65  C   UNL A   1      36.384  30.902  32.237  1.00  0.00     0.022 A 
BRANCH  62  66
ATOM     66  S   UNL A   1      35.359  32.357  30.092  1.00  0.00     0.124 S 
ATOM     67  O   UNL A   1      34.885  31.528  28.986  1.00  0.00    -0.237 OA
ATOM     68  O   UNL A   1      34.397  32.611  31.158  1.00  0.00    -0.237 OA
ATOM     69  O   UNL A   1      36.169  33.508  29.695  1.00  0.00    -0.744 OA
ENDBRANCH  62  66
ENDBRANCH  45  59
BRANCH  46  70
ATOM     70  C   UNL A   1      46.979  27.326  25.870  1.00  0.00     0.023 A 
ATOM     71  C   UNL A   1      47.130  27.730  24.535  1.00  0.00     0.031 A 
ATOM     72  C   UNL A   1      47.978  26.506  26.429  1.00  0.00     0.131 A 
ATOM     73  C   UNL A   1      48.238  27.288  23.793  1.00  0.00     0.055 A 
ATOM     74  C   UNL A   1      49.102  26.113  25.704  1.00  0.00     0.041 A 
ATOM     75  F   UNL A   1      47.878  26.085  27.700  1.00  0.00    -0.206 F 
ATOM     76  C   UNL A   1      49.232  26.496  24.373  1.00  0.00     0.022 A 
BRANCH  73  77
ATOM     77  S   UNL A   1      48.322  27.699  22.029  1.00  0.00     0.124 S 
ATOM     78  O   UNL A   1      49.466  28.603  21.988  1.00  0.00    -0.237 OA
ATOM     79  O   UNL A   1      48.519  26.387  21.420  1.00  0.00    -0.237 OA
ATOM     80  O   UNL A   1      47.026  28.319  21.762  1.00  0.00    -0.744 OA
ENDBRANCH  73  77
ENDBRANCH  46  70
BRANCH  58  81
ATOM     81  C   UNL A   1      45.087  33.193  29.116  1.00  0.00     0.023 A 
ATOM     82  C   UNL A   1      44.906  34.258  28.217  1.00  0.00     0.031 A 
ATOM     83  C   UNL A   1      45.966  33.379  30.196  1.00  0.00     0.131 A 
ATOM     84  C   UNL A   1      45.633  35.445  28.386  1.00  0.00     0.055 A 
ATOM     85  C   UNL A   1      46.646  34.581  30.391  1.00  0.00     0.041 A 
ATOM     86  F   UNL A   1      46.178  32.392  31.083  1.00  0.00    -0.206 F 
ATOM     87  C   UNL A   1      46.490  35.620  29.476  1.00  0.00     0.022 A 
BRANCH  84  88
ATOM     88  S   UNL A   1      45.500  36.738  27.121  1.00  0.00     0.124 S 
ATOM     89  O   UNL A   1      46.005  37.909  27.830  1.00  0.00    -0.237 OA
ATOM     90  O   UNL A   1      46.352  36.222  26.053  1.00  0.00    -0.237 OA
ATOM     91  O   UNL A   1      44.072  36.770  26.811  1.00  0.00    -0.744 OA
ENDBRANCH  84  88
ENDBRANCH  58  81
ENDBRANCH  32  33
ENDBRANCH  25  27
ENDBRANCH  24  25
ENDBRANCH  23  24
ENDBRANCH   1  23
TORSDOF 18
ENDMDL
MODEL 2
REMARK VINA RESULT:     -11.0      4.999      9.874
REMARK SMILES COc1cc(Br)c(OC)c(C(=O)N2CCC[C@@H]2C(=O)OCCOC(=O)c2ccc(-c3c4nc(c(-c5cc(S(=O)(=O)[O-])ccc5F)c5ccc([nH]5)c(-c5cc(S(=O)(=O)[O-])ccc5F)c5nc(c(-c6cc(S(=O)(=O)[O-])ccc6F)c6ccc3[nH]6)C=C5)C=C4)cc2)c1
REMARK SMILES IDX 21 1 20 2 18 3 19 4 17 5 13 6 14 7 15 8 16 9 11 10 12 11
REMARK SMILES IDX 10 12 3 13 4 14 89 15 5 16 6 17 7 18 2 19 1 20 8 21 9 22
REMARK SMILES IDX 22 23 23 24 24 25 25 26 26 27 27 28 88 29 28 30 87 31 29 32
REMARK SMILES IDX 30 33 31 34 81 35 32 36 86 37 80 38 82 39 33 40 85 41 79 42
REMARK SMILES IDX 78 43 34 45 66 46 46 47 65 48 47 49 50 50 64 51 83 52 48 53
REMARK SMILES IDX 49 54 63 56 84 57 51 58 35 59 36 60 44 61 37 62 43 63 45 64
REMARK SMILES IDX 42 65 38 66 39 67 40 68 41 69 67 70 68 71 76 72 69 73 75 74
REMARK SMILES IDX 77 75 74 76 70 77 71 78 72 79 73 80 52 81 53 82 61 83 54 84
REMARK SMILES IDX 60 85 62 86 59 87 55 88 56 89 57 90 58 91
REMARK H PARENT 82 44 50 55
REMARK Flexibility Score: inf
ROOT
ATOM      1  C   UNL A   1      33.248  29.212  24.615  1.00  0.00     0.274 C 
ENDROOT
BRANCH   1   2
ATOM      2  O   UNL A   1      32.966  27.873  24.165  1.00  0.00    -0.461 OA
BRANCH   2   3
ATOM      3  C   UNL A   1      33.144  26.897  25.097  1.00  0.00     0.328 C 
ATOM      4  O   UNL A   1      34.101  26.857  25.863  1.00  0.00    -0.250 OA
BRANCH   3   5
ATOM      5  C   UNL A   1      32.085  25.788  25.027  1.00  0.00     0.195 C 
ATOM      6  N   UNL A   1      31.990  25.244  23.678  1.00  0.00    -0.325 N 
ATOM      7  C   UNL A   1      30.638  24.777  23.458  1.00  0.00     0.121 C 
ATOM      8  C   UNL A   1      29.805  25.819  24.176  1.00  0.00     0.024 C 
ATOM      9  C   UNL A   1      30.644  26.164  25.408  1.00  0.00     0.039 C 
BRANCH   6  10
ATOM     10  C   UNL A   1      33.077  24.573  23.129  1.00  0.00     0.258 C 
ATOM     11  O   UNL A   1      33.490  24.835  22.009  1.00  0.00    -0.269 OA
BRANCH  10  12
ATOM     12  C   UNL A   1      33.584  23.420  23.961  1.00  0.00     0.086 A 
ATOM     13  C   UNL A   1      35.301  22.585  25.467  1.00  0.00     0.121 A 
ATOM     14  C   UNL A   1      34.607  21.398  25.624  1.00  0.00     0.066 A 
ATOM     15  C   UNL A   1      34.778  23.604  24.689  1.00  0.00     0.064 A 
ATOM     16  C   UNL A   1      33.414  21.191  24.920  1.00  0.00     0.064 A 
ATOM     17  Br  UNL A   1      32.664  19.452  25.118  1.00  0.00    -0.047 Br
ATOM     18  C   UNL A   1      32.889  22.192  24.076  1.00  0.00     0.146 A 
BRANCH  13  19
ATOM     19  O   UNL A   1      36.507  22.797  26.074  1.00  0.00    -0.497 OA
ATOM     20  C   UNL A   1      37.241  23.804  25.371  1.00  0.00     0.278 C 
ENDBRANCH  13  19
BRANCH  18  21
ATOM     21  O   UNL A   1      31.824  21.972  23.242  1.00  0.00    -0.495 OA
ATOM     22  C   UNL A   1      32.079  21.189  22.078  1.00  0.00     0.278 C 
ENDBRANCH  18  21
ENDBRANCH  10  12
ENDBRANCH   6  10
ENDBRANCH   3   5
ENDBRANCH   2   3
ENDBRANCH   1   2
BRANCH   1  23
ATOM     23  C   UNL A   1      32.076  29.790  25.413  1.00  0.00     0.275 C 
BRANCH  23  24
ATOM     24  O   UNL A   1      32.409  30.005  26.797  1.00  0.00    -0.458 OA
BRANCH  24  25
ATOM     25  C   UNL A   1      32.962  31.212  27.072  1.00  0.00     0.338 C 
ATOM     26  O   UNL A   1      32.444  32.306  26.943  1.00  0.00    -0.246 OA
BRANCH  25  27
ATOM     27  C   UNL A   1      34.278  31.020  27.699  1.00  0.00     0.060 A 
ATOM     28  C   UNL A   1      34.627  29.736  28.120  1.00  0.00     0.016 A 
ATOM     29  C   UNL A   1      35.125  32.101  27.946  1.00  0.00     0.016 A 
ATOM     30  C   UNL A   1      35.830  29.515  28.780  1.00  0.00     0.010 A 
ATOM     31  C   UNL A   1      36.339  31.877  28.605  1.00  0.00     0.010 A 
ATOM     32  C   UNL A   1      36.699  30.584  29.023  1.00  0.00    -0.014 A 
BRANCH  32  33
ATOM     33  C   UNL A   1      37.986  30.344  29.719  1.00  0.00     0.031 A 
ATOM     34  C   UNL A   1      39.014  29.441  29.106  1.00  0.00     0.074 A 
ATOM     35  C   UNL A   1      38.222  30.946  30.900  1.00  0.00     0.049 A 
ATOM     36  N   UNL A   1      40.131  28.992  29.616  1.00  0.00    -0.248 NA
ATOM     37  C   UNL A   1      38.747  28.982  27.735  1.00  0.00     0.031 C 
ATOM     38  C   UNL A   1      37.322  31.900  31.553  1.00  0.00     0.029 A 
ATOM     39  N   UNL A   1      39.281  30.842  31.765  1.00  0.00    -0.354 N 
ATOM     40  C   UNL A   1      40.696  28.181  28.638  1.00  0.00     0.074 A 
ATOM     41  C   UNL A   1      39.784  28.188  27.511  1.00  0.00     0.031 C 
ATOM     42  C   UNL A   1      37.864  32.286  32.718  1.00  0.00     0.029 A 
ATOM     43  C   UNL A   1      39.112  31.558  32.927  1.00  0.00     0.049 A 
ATOM     44  H   UNL A   1      40.085  30.307  31.571  1.00  0.00     0.167 HD
ATOM     45  C   UNL A   1      41.866  27.495  28.684  1.00  0.00     0.034 A 
ATOM     46  C   UNL A   1      39.850  31.582  34.053  1.00  0.00     0.034 A 
ATOM     47  C   UNL A   1      42.753  27.505  29.822  1.00  0.00     0.049 A 
ATOM     48  C   UNL A   1      41.085  30.722  34.126  1.00  0.00     0.074 A 
ATOM     49  C   UNL A   1      43.971  26.864  29.974  1.00  0.00     0.029 A 
ATOM     50  N   UNL A   1      42.514  28.182  31.013  1.00  0.00    -0.354 N 
ATOM     51  N   UNL A   1      41.596  29.934  33.207  1.00  0.00    -0.248 NA
ATOM     52  C   UNL A   1      41.834  30.744  35.388  1.00  0.00     0.031 C 
ATOM     53  C   UNL A   1      44.431  27.096  31.276  1.00  0.00     0.029 A 
ATOM     54  C   UNL A   1      43.536  27.939  31.917  1.00  0.00     0.049 A 
ATOM     55  H   UNL A   1      41.729  28.752  31.188  1.00  0.00     0.167 HD
ATOM     56  C   UNL A   1      42.733  29.373  33.780  1.00  0.00     0.074 A 
ATOM     57  C   UNL A   1      42.843  29.931  35.114  1.00  0.00     0.031 C 
ATOM     58  C   UNL A   1      43.610  28.480  33.254  1.00  0.00     0.034 A 
BRANCH  45  59
ATOM     59  C   UNL A   1      42.209  26.629  27.497  1.00  0.00     0.023 A 
ATOM     60  C   UNL A   1      41.833  25.277  27.426  1.00  0.00     0.031 A 
ATOM     61  C   UNL A   1      42.951  27.164  26.428  1.00  0.00     0.131 A 
ATOM     62  C   UNL A   1      42.257  24.488  26.344  1.00  0.00     0.055 A 
ATOM     63  C   UNL A   1      43.308  26.392  25.320  1.00  0.00     0.041 A 
ATOM     64  F   UNL A   1      43.358  28.443  26.450  1.00  0.00    -0.206 F 
ATOM     65  C   UNL A   1      42.973  25.043  25.280  1.00  0.00     0.022 A 
BRANCH  62  66
ATOM     66  S   UNL A   1      41.973  22.698  26.408  1.00  0.00     0.124 S 
ATOM     67  O   UNL A   1      40.516  22.625  26.332  1.00  0.00    -0.237 OA
ATOM     68  O   UNL A   1      42.699  22.221  25.238  1.00  0.00    -0.237 OA
ATOM     69  O   UNL A   1      42.541  22.306  27.697  1.00  0.00    -0.744 OA
ENDBRANCH  62  66
ENDBRANCH  45  59
BRANCH  46  70
ATOM     70  C   UNL A   1      39.401  32.377  35.231  1.00  0.00     0.023 A 
ATOM     71  C   UNL A   1      39.835  33.696  35.430  1.00  0.00     0.031 A 
ATOM     72  C   UNL A   1      38.553  31.808  36.201  1.00  0.00     0.131 A 
ATOM     73  C   UNL A   1      39.448  34.392  36.587  1.00  0.00     0.055 A 
ATOM     74  C   UNL A   1      38.129  32.521  37.322  1.00  0.00     0.041 A 
ATOM     75  F   UNL A   1      38.114  30.547  36.063  1.00  0.00    -0.206 F 
ATOM     76  C   UNL A   1      38.586  33.819  37.525  1.00  0.00     0.022 A 
BRANCH  73  77
ATOM     77  S   UNL A   1      40.154  36.035  36.890  1.00  0.00     0.124 S 
ATOM     78  O   UNL A   1      41.556  35.716  37.136  1.00  0.00    -0.237 OA
ATOM     79  O   UNL A   1      39.862  36.727  35.639  1.00  0.00    -0.237 OA
ATOM     80  O   UNL A   1      39.410  36.515  38.053  1.00  0.00    -0.744 OA
ENDBRANCH  73  77
ENDBRANCH  46  70
BRANCH  58  81
ATOM     81  C   UNL A   1      44.769  28.075  34.129  1.00  0.00     0.023 A 
ATOM     82  C   UNL A   1      44.699  26.945  34.962  1.00  0.00     0.031 A 
ATOM     83  C   UNL A   1      45.949  28.838  34.143  1.00  0.00     0.131 A 
ATOM     84  C   UNL A   1      45.772  26.638  35.812  1.00  0.00     0.055 A 
ATOM     85  C   UNL A   1      47.034  28.497  34.950  1.00  0.00     0.041 A 
ATOM     86  F   UNL A   1      46.066  29.929  33.369  1.00  0.00    -0.206 F 
ATOM     87  C   UNL A   1      46.945  27.397  35.800  1.00  0.00     0.022 A 
BRANCH  84  88
ATOM     88  S   UNL A   1      45.588  25.271  36.990  1.00  0.00     0.124 S 
ATOM     89  O   UNL A   1      45.418  24.126  36.101  1.00  0.00    -0.237 OA
ATOM     90  O   UNL A   1      46.844  25.323  37.731  1.00  0.00    -0.237 OA
ATOM     91  O   UNL A   1      44.401  25.639  37.760  1.00  0.00    -0.744 OA
ENDBRANCH  84  88
ENDBRANCH  58  81
ENDBRANCH  32  33
ENDBRANCH  25  27
ENDBRANCH  24  25
ENDBRANCH  23  24
ENDBRANCH   1  23
TORSDOF 18
ENDMDL
MODEL 3
REMARK VINA RESULT:     -10.9      1.370      2.007
REMARK SMILES COc1cc(Br)c(OC)c(C(=O)N2CCC[C@@H]2C(=O)OCCOC(=O)c2ccc(-c3c4nc(c(-c5cc(S(=O)(=O)[O-])ccc5F)c5ccc([nH]5)c(-c5cc(S(=O)(=O)[O-])ccc5F)c5nc(c(-c6cc(S(=O)(=O)[O-])ccc6F)c6ccc3[nH]6)C=C5)C=C4)cc2)c1
REMARK SMILES IDX 21 1 20 2 18 3 19 4 17 5 13 6 14 7 15 8 16 9 11 10 12 11
REMARK SMILES IDX 10 12 3 13 4 14 89 15 5 16 6 17 7 18 2 19 1 20 8 21 9 22
REMARK SMILES IDX 22 23 23 24 24 25 25 26 26 27 27 28 88 29 28 30 87 31 29 32
REMARK SMILES IDX 30 33 31 34 81 35 32 36 86 37 80 38 82 39 33 40 85 41 79 42
REMARK SMILES IDX 78 43 34 45 66 46 46 47 65 48 47 49 50 50 64 51 83 52 48 53
REMARK SMILES IDX 49 54 63 56 84 57 51 58 35 59 36 60 44 61 37 62 43 63 45 64
REMARK SMILES IDX 42 65 38 66 39 67 40 68 41 69 67 70 68 71 76 72 69 73 75 74
REMARK SMILES IDX 77 75 74 76 70 77 71 78 72 79 73 80 52 81 53 82 61 83 54 84
REMARK SMILES IDX 60 85 62 86 59 87 55 88 56 89 57 90 58 91
REMARK H PARENT 82 44 50 55
REMARK Flexibility Score: inf
ROOT
ATOM      1  C   UNL A   1      36.696  22.395  24.076  1.00  0.00     0.274 C 
ENDROOT
BRANCH   1   2
ATOM      2  O   UNL A   1      35.904  22.916  25.160  1.00  0.00    -0.461 OA
BRANCH   2   3
ATOM      3  C   UNL A   1      34.806  22.178  25.484  1.00  0.00     0.328 C 
ATOM      4  O   UNL A   1      34.357  22.096  26.623  1.00  0.00    -0.250 OA
BRANCH   3   5
ATOM      5  C   UNL A   1      34.244  21.373  24.305  1.00  0.00     0.195 C 
ATOM      6  N   UNL A   1      33.023  21.983  23.793  1.00  0.00    -0.325 N 
ATOM      7  C   UNL A   1      32.182  20.945  23.236  1.00  0.00     0.121 C 
ATOM      8  C   UNL A   1      32.397  19.792  24.196  1.00  0.00     0.024 C 
ATOM      9  C   UNL A   1      33.877  19.903  24.566  1.00  0.00     0.039 C 
BRANCH   6  10
ATOM     10  C   UNL A   1      33.076  23.246  23.217  1.00  0.00     0.258 C 
ATOM     11  O   UNL A   1      33.931  23.539  22.394  1.00  0.00    -0.269 OA
BRANCH  10  12
ATOM     12  C   UNL A   1      32.100  24.240  23.800  1.00  0.00     0.086 A 
ATOM     13  C   UNL A   1      30.567  24.780  25.609  1.00  0.00     0.121 A 
ATOM     14  C   UNL A   1      30.329  26.026  25.055  1.00  0.00     0.066 A 
ATOM     15  C   UNL A   1      31.476  23.916  25.022  1.00  0.00     0.064 A 
ATOM     16  C   UNL A   1      30.941  26.379  23.845  1.00  0.00     0.064 A 
ATOM     17  Br  UNL A   1      30.391  28.057  23.133  1.00  0.00    -0.047 Br
ATOM     18  C   UNL A   1      31.828  25.492  23.198  1.00  0.00     0.146 A 
BRANCH  13  19
ATOM     19  O   UNL A   1      29.930  24.367  26.745  1.00  0.00    -0.497 OA
ATOM     20  C   UNL A   1      30.142  22.966  26.945  1.00  0.00     0.278 C 
ENDBRANCH  13  19
BRANCH  18  21
ATOM     21  O   UNL A   1      32.315  25.723  21.938  1.00  0.00    -0.495 OA
ATOM     22  C   UNL A   1      33.284  26.761  21.811  1.00  0.00     0.278 C 
ENDBRANCH  18  21
ENDBRANCH  10  12
ENDBRANCH   6  10
ENDBRANCH   3   5
ENDBRANCH   2   3
ENDBRANCH   1   2
BRANCH   1  23
ATOM     23  C   UNL A   1      37.704  21.354  24.573  1.00  0.00     0.275 C 
BRANCH  23  24
ATOM     24  O   UNL A   1      37.990  21.495  25.977  1.00  0.00    -0.458 OA
BRANCH  24  25
ATOM     25  C   UNL A   1      39.278  21.258  26.326  1.00  0.00     0.338 C 
ATOM     26  O   UNL A   1      39.903  20.224  26.175  1.00  0.00    -0.246 OA
BRANCH  25  27
ATOM     27  C   UNL A   1      39.895  22.501  26.810  1.00  0.00     0.060 A 
ATOM     28  C   UNL A   1      39.452  23.711  26.272  1.00  0.00     0.016 A 
ATOM     29  C   UNL A   1      40.952  22.476  27.720  1.00  0.00     0.016 A 
ATOM     30  C   UNL A   1      40.051  24.908  26.645  1.00  0.00     0.010 A 
ATOM     31  C   UNL A   1      41.551  23.683  28.102  1.00  0.00     0.010 A 
ATOM     32  C   UNL A   1      41.102  24.904  27.569  1.00  0.00    -0.014 A 
BRANCH  32  33
ATOM     33  C   UNL A   1      41.733  26.183  27.972  1.00  0.00     0.031 A 
ATOM     34  C   UNL A   1      40.945  27.197  28.747  1.00  0.00     0.074 A 
ATOM     35  C   UNL A   1      43.016  26.422  27.641  1.00  0.00     0.049 A 
ATOM     36  N   UNL A   1      41.263  28.424  29.068  1.00  0.00    -0.248 NA
ATOM     37  C   UNL A   1      39.621  26.771  29.223  1.00  0.00     0.031 C 
ATOM     38  C   UNL A   1      43.897  25.477  26.951  1.00  0.00     0.029 A 
ATOM     39  N   UNL A   1      43.800  27.531  27.830  1.00  0.00    -0.354 N 
ATOM     40  C   UNL A   1      40.173  28.928  29.768  1.00  0.00     0.074 A 
ATOM     41  C   UNL A   1      39.178  27.875  29.807  1.00  0.00     0.031 C 
ATOM     42  C   UNL A   1      45.096  26.051  26.769  1.00  0.00     0.029 A 
ATOM     43  C   UNL A   1      45.049  27.422  27.264  1.00  0.00     0.049 A 
ATOM     44  H   UNL A   1      43.498  28.328  28.325  1.00  0.00     0.167 HD
ATOM     45  C   UNL A   1      40.023  30.157  30.322  1.00  0.00     0.034 A 
ATOM     46  C   UNL A   1      46.023  28.340  27.114  1.00  0.00     0.034 A 
ATOM     47  C   UNL A   1      41.032  31.188  30.266  1.00  0.00     0.049 A 
ATOM     48  C   UNL A   1      45.788  29.734  27.636  1.00  0.00     0.074 A 
ATOM     49  C   UNL A   1      40.997  32.463  30.806  1.00  0.00     0.029 A 
ATOM     50  N   UNL A   1      42.257  31.069  29.619  1.00  0.00    -0.354 N 
ATOM     51  N   UNL A   1      44.741  30.212  28.270  1.00  0.00    -0.248 NA
ATOM     52  C   UNL A   1      46.857  30.714  27.410  1.00  0.00     0.031 C 
ATOM     53  C   UNL A   1      42.166  33.133  30.426  1.00  0.00     0.029 A 
ATOM     54  C   UNL A   1      42.964  32.258  29.708  1.00  0.00     0.049 A 
ATOM     55  H   UNL A   1      42.575  30.256  29.162  1.00  0.00     0.167 HD
ATOM     56  C   UNL A   1      45.032  31.548  28.527  1.00  0.00     0.074 A 
ATOM     57  C   UNL A   1      46.360  31.792  27.998  1.00  0.00     0.031 C 
ATOM     58  C   UNL A   1      44.274  32.489  29.145  1.00  0.00     0.034 A 
BRANCH  45  59
ATOM     59  C   UNL A   1      38.697  30.467  30.973  1.00  0.00     0.023 A 
ATOM     60  C   UNL A   1      37.671  31.142  30.290  1.00  0.00     0.031 A 
ATOM     61  C   UNL A   1      38.469  30.103  32.313  1.00  0.00     0.131 A 
ATOM     62  C   UNL A   1      36.491  31.490  30.967  1.00  0.00     0.055 A 
ATOM     63  C   UNL A   1      37.265  30.389  32.959  1.00  0.00     0.041 A 
ATOM     64  F   UNL A   1      39.420  29.477  33.022  1.00  0.00    -0.206 F 
ATOM     65  C   UNL A   1      36.272  31.099  32.290  1.00  0.00     0.022 A 
BRANCH  62  66
ATOM     66  S   UNL A   1      35.298  32.577  30.137  1.00  0.00     0.124 S 
ATOM     67  O   UNL A   1      35.003  31.821  28.922  1.00  0.00    -0.237 OA
ATOM     68  O   UNL A   1      34.219  32.666  31.113  1.00  0.00    -0.237 OA
ATOM     69  O   UNL A   1      36.051  33.813  29.924  1.00  0.00    -0.744 OA
ENDBRANCH  62  66
ENDBRANCH  45  59
BRANCH  46  70
ATOM     70  C   UNL A   1      47.268  28.001  26.368  1.00  0.00     0.023 A 
ATOM     71  C   UNL A   1      47.324  28.079  24.969  1.00  0.00     0.031 A 
ATOM     72  C   UNL A   1      48.416  27.556  27.052  1.00  0.00     0.131 A 
ATOM     73  C   UNL A   1      48.491  27.685  24.294  1.00  0.00     0.055 A 
ATOM     74  C   UNL A   1      49.590  27.216  26.380  1.00  0.00     0.041 A 
ATOM     75  F   UNL A   1      48.413  27.457  28.391  1.00  0.00    -0.206 F 
ATOM     76  C   UNL A   1      49.628  27.270  24.991  1.00  0.00     0.022 A 
BRANCH  73  77
ATOM     77  S   UNL A   1      48.476  27.648  22.481  1.00  0.00     0.124 S 
ATOM     78  O   UNL A   1      49.686  28.395  22.158  1.00  0.00    -0.237 OA
ATOM     79  O   UNL A   1      48.514  26.215  22.206  1.00  0.00    -0.237 OA
ATOM     80  O   UNL A   1      47.221  28.313  22.137  1.00  0.00    -0.744 OA
ENDBRANCH  73  77
ENDBRANCH  46  70
BRANCH  58  81
ATOM     81  C   UNL A   1      44.884  33.860  29.290  1.00  0.00     0.023 A 
ATOM     82  C   UNL A   1      44.486  34.931  28.471  1.00  0.00     0.031 A 
ATOM     83  C   UNL A   1      45.888  34.093  30.246  1.00  0.00     0.131 A 
ATOM     84  C   UNL A   1      45.124  36.175  28.590  1.00  0.00     0.055 A 
ATOM     85  C   UNL A   1      46.482  35.346  30.396  1.00  0.00     0.041 A 
ATOM     86  F   UNL A   1      46.308  33.103  31.050  1.00  0.00    -0.206 F 
ATOM     87  C   UNL A   1      46.108  36.393  29.558  1.00  0.00     0.022 A 
BRANCH  84  88
ATOM     88  S   UNL A   1      44.702  37.488  27.413  1.00  0.00     0.124 S 
ATOM     89  O   UNL A   1      43.598  36.886  26.672  1.00  0.00    -0.237 OA
ATOM     90  O   UNL A   1      44.350  38.598  28.292  1.00  0.00    -0.237 OA
ATOM     91  O   UNL A   1      45.934  37.672  26.648  1.00  0.00    -0.744 OA
ENDBRANCH  84  88
ENDBRANCH  58  81
ENDBRANCH  32  33
ENDBRANCH  25  27
ENDBRANCH  24  25
ENDBRANCH  23  24
ENDBRANCH   1  23
TORSDOF 18
ENDMDL
