MODEL 1
REMARK VINA RESULT:      -9.7      0.000      0.000
REMARK SMILES O=C(OCCOC(=O)[C@H](S)c1ccccc1)c1ccc(-c2c3nc(c(-c4cc(S(=O)(=O)[O-])ccc4F)c4ccc([nH]4)c(-c4cc(S(=O)(=O)[O-])ccc4F)c4nc(c(-c5cc(S(=O)(=O)[O-])ccc5F)c5ccc2[nH]5)C=C4)C=C3)cc1
REMARK SMILES IDX 4 1 3 2 2 3 1 4 17 5 18 6 79 7 19 8 78 9 20 10 21 11 22 12
REMARK SMILES IDX 72 13 23 14 77 15 71 16 73 17 24 18 76 19 70 20 69 21 25 23
REMARK SMILES IDX 57 24 37 25 56 26 38 27 41 28 55 29 74 30 39 31 40 32 54 34
REMARK SMILES IDX 75 35 42 36 26 37 27 38 35 39 28 40 34 41 36 42 33 43 29 44
REMARK SMILES IDX 30 45 31 46 32 47 58 48 59 49 67 50 60 51 66 52 68 53 65 54
REMARK SMILES IDX 61 55 62 56 63 57 64 58 43 59 44 60 52 61 45 62 51 63 53 64
REMARK SMILES IDX 50 65 46 66 47 67 48 68 49 69 5 70 6 71 7 72 8 73 9 74 11 75
REMARK SMILES IDX 12 76 16 77 13 78 15 79 14 80 10 81
REMARK H PARENT 73 22 41 33 10 82
REMARK Flexibility Score: inf
ROOT
ATOM      1  C   UNL A   1      40.768  19.930  26.268  1.00  0.00     0.275 C 
ENDROOT
BRANCH   1   2
ATOM      2  O   UNL A   1      39.700  20.689  25.666  1.00  0.00    -0.458 OA
BRANCH   2   3
ATOM      3  C   UNL A   1      38.959  21.723  26.132  1.00  0.00     0.338 C 
ATOM      4  O   UNL A   1      37.744  21.682  25.929  1.00  0.00    -0.246 OA
BRANCH   3   5
ATOM      5  C   UNL A   1      39.509  22.978  26.757  1.00  0.00     0.060 A 
ATOM      6  C   UNL A   1      40.435  23.056  27.797  1.00  0.00     0.016 A 
ATOM      7  C   UNL A   1      39.077  24.201  26.193  1.00  0.00     0.016 A 
ATOM      8  C   UNL A   1      40.972  24.287  28.202  1.00  0.00     0.010 A 
ATOM      9  C   UNL A   1      39.596  25.439  26.608  1.00  0.00     0.010 A 
ATOM     10  C   UNL A   1      40.571  25.486  27.603  1.00  0.00    -0.014 A 
BRANCH  10  11
ATOM     11  C   UNL A   1      41.137  26.756  28.124  1.00  0.00     0.031 A 
ATOM     12  C   UNL A   1      42.491  27.179  27.649  1.00  0.00     0.074 A 
ATOM     13  C   UNL A   1      40.426  27.555  28.943  1.00  0.00     0.049 A 
ATOM     14  N   UNL A   1      43.119  28.303  27.846  1.00  0.00    -0.248 NA
ATOM     15  C   UNL A   1      43.250  26.179  26.882  1.00  0.00     0.031 C 
ATOM     16  C   UNL A   1      39.153  27.188  29.544  1.00  0.00     0.029 A 
ATOM     17  N   UNL A   1      40.637  28.844  29.380  1.00  0.00    -0.354 N 
ATOM     18  C   UNL A   1      44.378  28.129  27.289  1.00  0.00     0.074 A 
ATOM     19  C   UNL A   1      44.401  26.807  26.697  1.00  0.00     0.031 C 
ATOM     20  C   UNL A   1      38.641  28.259  30.172  1.00  0.00     0.029 A 
ATOM     21  C   UNL A   1      39.548  29.390  30.035  1.00  0.00     0.049 A 
ATOM     22  H   UNL A   1      41.481  29.329  29.239  1.00  0.00     0.167 HD
ATOM     23  C   UNL A   1      45.433  28.975  27.332  1.00  0.00     0.034 A 
ATOM     24  C   UNL A   1      39.310  30.658  30.445  1.00  0.00     0.034 A 
ATOM     25  C   UNL A   1      45.395  30.265  27.975  1.00  0.00     0.049 A 
ATOM     26  C   UNL A   1      40.460  31.638  30.338  1.00  0.00     0.074 A 
ATOM     27  C   UNL A   1      46.418  31.183  28.125  1.00  0.00     0.029 A 
ATOM     28  N   UNL A   1      44.276  30.810  28.591  1.00  0.00    -0.354 N 
ATOM     29  N   UNL A   1      41.641  31.465  29.786  1.00  0.00    -0.248 NA
ATOM     30  C   UNL A   1      40.276  32.957  30.959  1.00  0.00     0.031 C 
ATOM     31  C   UNL A   1      45.936  32.251  28.888  1.00  0.00     0.029 A 
ATOM     32  C   UNL A   1      44.591  32.042  29.142  1.00  0.00     0.049 A 
ATOM     33  H   UNL A   1      43.389  30.385  28.632  1.00  0.00     0.167 HD
ATOM     34  C   UNL A   1      42.352  32.634  30.044  1.00  0.00     0.074 A 
ATOM     35  C   UNL A   1      41.434  33.542  30.700  1.00  0.00     0.031 C 
ATOM     36  C   UNL A   1      43.660  32.913  29.819  1.00  0.00     0.034 A 
BRANCH  23  37
ATOM     37  C   UNL A   1      46.737  28.461  26.784  1.00  0.00     0.023 A 
ATOM     38  C   UNL A   1      47.002  28.422  25.406  1.00  0.00     0.031 A 
ATOM     39  C   UNL A   1      47.700  27.933  27.662  1.00  0.00     0.131 A 
ATOM     40  C   UNL A   1      48.171  27.803  24.943  1.00  0.00     0.055 A 
ATOM     41  C   UNL A   1      48.898  27.392  27.197  1.00  0.00     0.041 A 
ATOM     42  F   UNL A   1      47.480  27.911  28.986  1.00  0.00    -0.206 F 
ATOM     43  C   UNL A   1      49.135  27.312  25.829  1.00  0.00     0.022 A 
BRANCH  40  44
ATOM     44  S   UNL A   1      48.351  27.519  23.161  1.00  0.00     0.124 S 
ATOM     45  O   UNL A   1      47.188  28.230  22.633  1.00  0.00    -0.237 OA
ATOM     46  O   UNL A   1      49.648  28.119  22.873  1.00  0.00    -0.237 OA
ATOM     47  O   UNL A   1      48.295  26.065  23.037  1.00  0.00    -0.744 OA
ENDBRANCH  40  44
ENDBRANCH  23  37
BRANCH  24  48
ATOM     48  C   UNL A   1      37.988  31.107  31.011  1.00  0.00     0.023 A 
ATOM     49  C   UNL A   1      37.008  31.688  30.177  1.00  0.00     0.031 A 
ATOM     50  C   UNL A   1      37.703  31.067  32.387  1.00  0.00     0.131 A 
ATOM     51  C   UNL A   1      35.842  32.254  30.728  1.00  0.00     0.055 A 
ATOM     52  C   UNL A   1      36.495  31.536  32.918  1.00  0.00     0.041 A 
ATOM     53  F   UNL A   1      38.605  30.591  33.260  1.00  0.00    -0.206 F 
ATOM     54  C   UNL A   1      35.565  32.152  32.090  1.00  0.00     0.022 A 
BRANCH  51  55
ATOM     55  S   UNL A   1      34.785  33.292  29.672  1.00  0.00     0.124 S 
ATOM     56  O   UNL A   1      35.763  34.187  29.062  1.00  0.00    -0.237 OA
ATOM     57  O   UNL A   1      34.177  32.305  28.788  1.00  0.00    -0.237 OA
ATOM     58  O   UNL A   1      33.872  33.924  30.623  1.00  0.00    -0.744 OA
ENDBRANCH  51  55
ENDBRANCH  24  48
BRANCH  36  59
ATOM     59  C   UNL A   1      44.165  34.242  30.323  1.00  0.00     0.023 A 
ATOM     60  C   UNL A   1      44.128  35.391  29.513  1.00  0.00     0.031 A 
ATOM     61  C   UNL A   1      44.687  34.364  31.622  1.00  0.00     0.131 A 
ATOM     62  C   UNL A   1      44.658  36.598  29.986  1.00  0.00     0.055 A 
ATOM     63  C   UNL A   1      45.153  35.584  32.111  1.00  0.00     0.041 A 
ATOM     64  F   UNL A   1      44.747  33.298  32.437  1.00  0.00    -0.206 F 
ATOM     65  C   UNL A   1      45.154  36.706  31.288  1.00  0.00     0.022 A 
BRANCH  62  66
ATOM     66  S   UNL A   1      44.779  38.004  28.846  1.00  0.00     0.124 S 
ATOM     67  O   UNL A   1      44.906  39.131  29.766  1.00  0.00    -0.237 OA
ATOM     68  O   UNL A   1      45.970  37.677  28.070  1.00  0.00    -0.237 OA
ATOM     69  O   UNL A   1      43.522  37.951  28.102  1.00  0.00    -0.744 OA
ENDBRANCH  62  66
ENDBRANCH  36  59
ENDBRANCH  10  11
ENDBRANCH   3   5
ENDBRANCH   2   3
ENDBRANCH   1   2
BRANCH   1  70
ATOM     70  C   UNL A   1      42.094  20.690  26.269  1.00  0.00     0.274 C 
BRANCH  70  71
ATOM     71  O   UNL A   1      43.137  19.890  25.697  1.00  0.00    -0.461 OA
BRANCH  71  72
ATOM     72  C   UNL A   1      44.348  20.487  25.483  1.00  0.00     0.323 C 
ATOM     73  O   UNL A   1      45.387  19.864  25.275  1.00  0.00    -0.251 OA
BRANCH  72  74
ATOM     74  C   UNL A   1      44.202  22.017  25.428  1.00  0.00     0.183 C 
BRANCH  74  75
ATOM     75  C   UNL A   1      44.926  22.772  26.540  1.00  0.00    -0.024 A 
ATOM     76  C   UNL A   1      44.324  22.869  27.813  1.00  0.00     0.005 A 
ATOM     77  C   UNL A   1      46.115  23.493  26.345  1.00  0.00     0.005 A 
ATOM     78  C   UNL A   1      44.875  23.643  28.836  1.00  0.00     0.000 A 
ATOM     79  C   UNL A   1      46.675  24.261  27.372  1.00  0.00     0.000 A 
ATOM     80  C   UNL A   1      46.054  24.340  28.615  1.00  0.00     0.000 A 
ENDBRANCH  74  75
BRANCH  74  81
ATOM     81  S   UNL A   1      44.533  22.586  23.706  1.00  0.00    -0.159 SA
ATOM     82  H   UNL A   1      44.022  21.685  22.825  1.00  0.00     0.103 HD
ENDBRANCH  74  81
ENDBRANCH  72  74
ENDBRANCH  71  72
ENDBRANCH  70  71
ENDBRANCH   1  70
TORSDOF 16
ENDMDL
MODEL 2
REMARK VINA RESULT:      -9.6      4.651     11.902
REMARK SMILES O=C(OCCOC(=O)[C@H](S)c1ccccc1)c1ccc(-c2c3nc(c(-c4cc(S(=O)(=O)[O-])ccc4F)c4ccc([nH]4)c(-c4cc(S(=O)(=O)[O-])ccc4F)c4nc(c(-c5cc(S(=O)(=O)[O-])ccc5F)c5ccc2[nH]5)C=C4)C=C3)cc1
REMARK SMILES IDX 4 1 3 2 2 3 1 4 17 5 18 6 79 7 19 8 78 9 20 10 21 11 22 12
REMARK SMILES IDX 72 13 23 14 77 15 71 16 73 17 24 18 76 19 70 20 69 21 25 23
REMARK SMILES IDX 57 24 37 25 56 26 38 27 41 28 55 29 74 30 39 31 40 32 54 34
REMARK SMILES IDX 75 35 42 36 26 37 27 38 35 39 28 40 34 41 36 42 33 43 29 44
REMARK SMILES IDX 30 45 31 46 32 47 58 48 59 49 67 50 60 51 66 52 68 53 65 54
REMARK SMILES IDX 61 55 62 56 63 57 64 58 43 59 44 60 52 61 45 62 51 63 53 64
REMARK SMILES IDX 50 65 46 66 47 67 48 68 49 69 5 70 6 71 7 72 8 73 9 74 11 75
REMARK SMILES IDX 12 76 16 77 13 78 15 79 14 80 10 81
REMARK H PARENT 73 22 41 33 10 82
REMARK Flexibility Score: inf
ROOT
ATOM      1  C   UNL A   1      33.249  33.808  28.004  1.00  0.00     0.275 C 
ENDROOT
BRANCH   1   2
ATOM      2  O   UNL A   1      33.984  32.794  28.717  1.00  0.00    -0.458 OA
BRANCH   2   3
ATOM      3  C   UNL A   1      34.526  31.621  28.309  1.00  0.00     0.338 C 
ATOM      4  O   UNL A   1      33.834  30.901  27.588  1.00  0.00    -0.246 OA
BRANCH   3   5
ATOM      5  C   UNL A   1      35.848  31.065  28.769  1.00  0.00     0.060 A 
ATOM      6  C   UNL A   1      36.072  29.812  29.340  1.00  0.00     0.016 A 
ATOM      7  C   UNL A   1      36.982  31.880  28.549  1.00  0.00     0.016 A 
ATOM      8  C   UNL A   1      37.372  29.356  29.604  1.00  0.00     0.010 A 
ATOM      9  C   UNL A   1      38.286  31.436  28.829  1.00  0.00     0.010 A 
ATOM     10  C   UNL A   1      38.490  30.155  29.337  1.00  0.00    -0.014 A 
BRANCH  10  11
ATOM     11  C   UNL A   1      39.832  29.630  29.697  1.00  0.00     0.031 A 
ATOM     12  C   UNL A   1      40.454  30.084  30.979  1.00  0.00     0.074 A 
ATOM     13  C   UNL A   1      40.449  28.708  28.933  1.00  0.00     0.049 A 
ATOM     14  N   UNL A   1      41.535  29.656  31.567  1.00  0.00    -0.248 NA
ATOM     15  C   UNL A   1      39.782  31.197  31.666  1.00  0.00     0.031 C 
ATOM     16  C   UNL A   1      39.981  28.282  27.622  1.00  0.00     0.029 A 
ATOM     17  N   UNL A   1      41.565  27.931  29.151  1.00  0.00    -0.354 N 
ATOM     18  C   UNL A   1      41.720  30.491  32.659  1.00  0.00     0.074 A 
ATOM     19  C   UNL A   1      40.603  31.414  32.681  1.00  0.00     0.031 C 
ATOM     20  C   UNL A   1      40.729  27.248  27.206  1.00  0.00     0.029 A 
ATOM     21  C   UNL A   1      41.740  26.936  28.206  1.00  0.00     0.049 A 
ATOM     22  H   UNL A   1      42.178  28.070  29.908  1.00  0.00     0.167 HD
ATOM     23  C   UNL A   1      42.763  30.517  33.520  1.00  0.00     0.034 A 
ATOM     24  C   UNL A   1      42.597  25.889  28.176  1.00  0.00     0.034 A 
ATOM     25  C   UNL A   1      43.886  29.618  33.442  1.00  0.00     0.049 A 
ATOM     26  C   UNL A   1      43.667  25.850  29.248  1.00  0.00     0.074 A 
ATOM     27  C   UNL A   1      45.023  29.587  34.228  1.00  0.00     0.029 A 
ATOM     28  N   UNL A   1      44.020  28.598  32.507  1.00  0.00    -0.354 N 
ATOM     29  N   UNL A   1      43.816  26.636  30.293  1.00  0.00    -0.248 NA
ATOM     30  C   UNL A   1      44.717  24.832  29.110  1.00  0.00     0.031 C 
ATOM     31  C   UNL A   1      45.873  28.596  33.728  1.00  0.00     0.029 A 
ATOM     32  C   UNL A   1      45.232  27.949  32.684  1.00  0.00     0.049 A 
ATOM     33  H   UNL A   1      43.353  28.370  31.819  1.00  0.00     0.167 HD
ATOM     34  C   UNL A   1      45.004  26.236  30.898  1.00  0.00     0.074 A 
ATOM     35  C   UNL A   1      45.470  25.075  30.170  1.00  0.00     0.031 C 
ATOM     36  C   UNL A   1      45.684  26.810  31.922  1.00  0.00     0.034 A 
BRANCH  23  37
ATOM     37  C   UNL A   1      42.785  31.640  34.522  1.00  0.00     0.023 A 
ATOM     38  C   UNL A   1      42.088  31.567  35.738  1.00  0.00     0.031 A 
ATOM     39  C   UNL A   1      43.461  32.835  34.213  1.00  0.00     0.131 A 
ATOM     40  C   UNL A   1      42.026  32.694  36.570  1.00  0.00     0.055 A 
ATOM     41  C   UNL A   1      43.461  33.924  35.084  1.00  0.00     0.041 A 
ATOM     42  F   UNL A   1      44.110  32.971  33.047  1.00  0.00    -0.206 F 
ATOM     43  C   UNL A   1      42.730  33.863  36.265  1.00  0.00     0.022 A 
BRANCH  40  44
ATOM     44  S   UNL A   1      40.895  32.661  37.987  1.00  0.00     0.124 S 
ATOM     45  O   UNL A   1      39.744  31.956  37.426  1.00  0.00    -0.237 OA
ATOM     46  O   UNL A   1      41.662  31.929  38.989  1.00  0.00    -0.237 OA
ATOM     47  O   UNL A   1      40.671  34.074  38.282  1.00  0.00    -0.744 OA
ENDBRANCH  40  44
ENDBRANCH  23  37
BRANCH  24  48
ATOM     48  C   UNL A   1      42.541  24.808  27.129  1.00  0.00     0.023 A 
ATOM     49  C   UNL A   1      41.629  23.736  27.250  1.00  0.00     0.031 A 
ATOM     50  C   UNL A   1      43.441  24.752  26.051  1.00  0.00     0.131 A 
ATOM     51  C   UNL A   1      41.686  22.643  26.363  1.00  0.00     0.055 A 
ATOM     52  C   UNL A   1      43.423  23.716  25.110  1.00  0.00     0.041 A 
ATOM     53  F   UNL A   1      44.383  25.696  25.897  1.00  0.00    -0.206 F 
ATOM     54  C   UNL A   1      42.555  22.643  25.274  1.00  0.00     0.022 A 
BRANCH  51  55
ATOM     55  S   UNL A   1      40.743  21.139  26.759  1.00  0.00     0.124 S 
ATOM     56  O   UNL A   1      40.749  21.160  28.218  1.00  0.00    -0.237 OA
ATOM     57  O   UNL A   1      39.462  21.406  26.118  1.00  0.00    -0.237 OA
ATOM     58  O   UNL A   1      41.535  20.072  26.150  1.00  0.00    -0.744 OA
ENDBRANCH  51  55
ENDBRANCH  24  48
BRANCH  36  59
ATOM     59  C   UNL A   1      47.017  26.199  32.275  1.00  0.00     0.023 A 
ATOM     60  C   UNL A   1      47.123  25.206  33.265  1.00  0.00     0.031 A 
ATOM     61  C   UNL A   1      48.190  26.611  31.621  1.00  0.00     0.131 A 
ATOM     62  C   UNL A   1      48.381  24.699  33.615  1.00  0.00     0.055 A 
ATOM     63  C   UNL A   1      49.432  26.055  31.928  1.00  0.00     0.041 A 
ATOM     64  F   UNL A   1      48.145  27.558  30.669  1.00  0.00    -0.206 F 
ATOM     65  C   UNL A   1      49.535  25.104  32.939  1.00  0.00     0.022 A 
BRANCH  62  66
ATOM     66  S   UNL A   1      48.504  23.570  35.030  1.00  0.00     0.124 S 
ATOM     67  O   UNL A   1      49.886  23.109  34.931  1.00  0.00    -0.237 OA
ATOM     68  O   UNL A   1      48.204  24.447  36.157  1.00  0.00    -0.237 OA
ATOM     69  O   UNL A   1      47.491  22.556  34.748  1.00  0.00    -0.744 OA
ENDBRANCH  62  66
ENDBRANCH  36  59
ENDBRANCH  10  11
ENDBRANCH   3   5
ENDBRANCH   2   3
ENDBRANCH   1   2
BRANCH   1  70
ATOM     70  C   UNL A   1      33.246  35.150  28.737  1.00  0.00     0.274 C 
BRANCH  70  71
ATOM     71  O   UNL A   1      32.722  35.002  30.063  1.00  0.00    -0.461 OA
BRANCH  71  72
ATOM     72  C   UNL A   1      32.992  35.993  30.965  1.00  0.00     0.323 C 
ATOM     73  O   UNL A   1      32.761  37.182  30.759  1.00  0.00    -0.251 OA
BRANCH  72  74
ATOM     74  C   UNL A   1      33.509  35.403  32.288  1.00  0.00     0.183 C 
BRANCH  74  75
ATOM     75  C   UNL A   1      34.639  34.387  32.141  1.00  0.00    -0.024 A 
ATOM     76  C   UNL A   1      34.361  33.016  32.321  1.00  0.00     0.005 A 
ATOM     77  C   UNL A   1      35.985  34.743  31.955  1.00  0.00     0.005 A 
ATOM     78  C   UNL A   1      35.369  32.049  32.318  1.00  0.00     0.000 A 
ATOM     79  C   UNL A   1      36.996  33.775  31.941  1.00  0.00     0.000 A 
ATOM     80  C   UNL A   1      36.690  32.430  32.126  1.00  0.00     0.000 A 
ENDBRANCH  74  75
BRANCH  74  81
ATOM     81  S   UNL A   1      33.797  36.778  33.481  1.00  0.00    -0.159 SA
ATOM     82  H   UNL A   1      32.678  36.973  34.228  1.00  0.00     0.103 HD
ENDBRANCH  74  81
ENDBRANCH  72  74
ENDBRANCH  71  72
ENDBRANCH  70  71
ENDBRANCH   1  70
TORSDOF 16
ENDMDL
MODEL 3
REMARK VINA RESULT:      -9.6      4.559     11.865
REMARK SMILES O=C(OCCOC(=O)[C@H](S)c1ccccc1)c1ccc(-c2c3nc(c(-c4cc(S(=O)(=O)[O-])ccc4F)c4ccc([nH]4)c(-c4cc(S(=O)(=O)[O-])ccc4F)c4nc(c(-c5cc(S(=O)(=O)[O-])ccc5F)c5ccc2[nH]5)C=C4)C=C3)cc1
REMARK SMILES IDX 4 1 3 2 2 3 1 4 17 5 18 6 79 7 19 8 78 9 20 10 21 11 22 12
REMARK SMILES IDX 72 13 23 14 77 15 71 16 73 17 24 18 76 19 70 20 69 21 25 23
REMARK SMILES IDX 57 24 37 25 56 26 38 27 41 28 55 29 74 30 39 31 40 32 54 34
REMARK SMILES IDX 75 35 42 36 26 37 27 38 35 39 28 40 34 41 36 42 33 43 29 44
REMARK SMILES IDX 30 45 31 46 32 47 58 48 59 49 67 50 60 51 66 52 68 53 65 54
REMARK SMILES IDX 61 55 62 56 63 57 64 58 43 59 44 60 52 61 45 62 51 63 53 64
REMARK SMILES IDX 50 65 46 66 47 67 48 68 49 69 5 70 6 71 7 72 8 73 9 74 11 75
REMARK SMILES IDX 12 76 16 77 13 78 15 79 14 80 10 81
REMARK H PARENT 73 22 41 33 10 82
REMARK Flexibility Score: inf
ROOT
ATOM      1  C   UNL A   1      33.036  33.849  27.988  1.00  0.00     0.275 C 
ENDROOT
BRANCH   1   2
ATOM      2  O   UNL A   1      33.884  32.827  28.548  1.00  0.00    -0.458 OA
BRANCH   2   3
ATOM      3  C   UNL A   1      34.480  31.747  27.990  1.00  0.00     0.338 C 
ATOM      4  O   UNL A   1      33.808  31.073  27.208  1.00  0.00    -0.246 OA
BRANCH   3   5
ATOM      5  C   UNL A   1      35.848  31.226  28.344  1.00  0.00     0.060 A 
ATOM      6  C   UNL A   1      37.041  31.950  28.352  1.00  0.00     0.016 A 
ATOM      7  C   UNL A   1      35.917  29.876  28.760  1.00  0.00     0.016 A 
ATOM      8  C   UNL A   1      38.231  31.384  28.831  1.00  0.00     0.010 A 
ATOM      9  C   UNL A   1      37.111  29.297  29.223  1.00  0.00     0.010 A 
ATOM     10  C   UNL A   1      38.275  30.061  29.285  1.00  0.00    -0.014 A 
BRANCH  10  11
ATOM     11  C   UNL A   1      39.583  29.510  29.722  1.00  0.00     0.031 A 
ATOM     12  C   UNL A   1      40.118  29.923  31.057  1.00  0.00     0.074 A 
ATOM     13  C   UNL A   1      40.243  28.601  28.979  1.00  0.00     0.049 A 
ATOM     14  N   UNL A   1      41.151  29.467  31.707  1.00  0.00    -0.248 NA
ATOM     15  C   UNL A   1      39.411  31.026  31.725  1.00  0.00     0.031 C 
ATOM     16  C   UNL A   1      39.864  28.216  27.628  1.00  0.00     0.029 A 
ATOM     17  N   UNL A   1      41.333  27.806  29.254  1.00  0.00    -0.354 N 
ATOM     18  C   UNL A   1      41.267  30.271  32.832  1.00  0.00     0.074 A 
ATOM     19  C   UNL A   1      40.162  31.207  32.801  1.00  0.00     0.031 C 
ATOM     20  C   UNL A   1      40.629  27.184  27.237  1.00  0.00     0.029 A 
ATOM     21  C   UNL A   1      41.564  26.834  28.297  1.00  0.00     0.049 A 
ATOM     22  H   UNL A   1      41.893  27.917  30.055  1.00  0.00     0.167 HD
ATOM     23  C   UNL A   1      42.248  30.262  33.764  1.00  0.00     0.034 A 
ATOM     24  C   UNL A   1      42.410  25.778  28.299  1.00  0.00     0.034 A 
ATOM     25  C   UNL A   1      43.364  29.351  33.740  1.00  0.00     0.049 A 
ATOM     26  C   UNL A   1      43.401  25.698  29.442  1.00  0.00     0.074 A 
ATOM     27  C   UNL A   1      44.443  29.287  34.603  1.00  0.00     0.029 A 
ATOM     28  N   UNL A   1      43.553  28.355  32.790  1.00  0.00    -0.354 N 
ATOM     29  N   UNL A   1      43.485  26.454  30.514  1.00  0.00    -0.248 NA
ATOM     30  C   UNL A   1      44.448  24.671  29.349  1.00  0.00     0.031 C 
ATOM     31  C   UNL A   1      45.315  28.298  34.136  1.00  0.00     0.029 A 
ATOM     32  C   UNL A   1      44.743  27.687  33.033  1.00  0.00     0.049 A 
ATOM     33  H   UNL A   1      42.934  28.153  32.051  1.00  0.00     0.167 HD
ATOM     34  C   UNL A   1      44.623  26.024  31.190  1.00  0.00     0.074 A 
ATOM     35  C   UNL A   1      45.128  24.876  30.466  1.00  0.00     0.031 C 
ATOM     36  C   UNL A   1      45.236  26.563  32.274  1.00  0.00     0.034 A 
BRANCH  23  37
ATOM     37  C   UNL A   1      42.211  31.358  34.795  1.00  0.00     0.023 A 
ATOM     38  C   UNL A   1      41.234  31.402  35.802  1.00  0.00     0.031 A 
ATOM     39  C   UNL A   1      43.133  32.418  34.716  1.00  0.00     0.131 A 
ATOM     40  C   UNL A   1      41.159  32.517  36.647  1.00  0.00     0.055 A 
ATOM     41  C   UNL A   1      43.102  33.485  35.614  1.00  0.00     0.041 A 
ATOM     42  F   UNL A   1      44.063  32.445  33.749  1.00  0.00    -0.206 F 
ATOM     43  C   UNL A   1      42.103  33.547  36.579  1.00  0.00     0.022 A 
BRANCH  40  44
ATOM     44  S   UNL A   1      39.726  32.674  37.746  1.00  0.00     0.124 S 
ATOM     45  O   UNL A   1      38.867  31.594  37.263  1.00  0.00    -0.237 OA
ATOM     46  O   UNL A   1      40.314  32.476  39.066  1.00  0.00    -0.237 OA
ATOM     47  O   UNL A   1      39.233  34.023  37.478  1.00  0.00    -0.744 OA
ENDBRANCH  40  44
ENDBRANCH  23  37
BRANCH  24  48
ATOM     48  C   UNL A   1      42.416  24.725  27.221  1.00  0.00     0.023 A 
ATOM     49  C   UNL A   1      41.526  23.629  27.281  1.00  0.00     0.031 A 
ATOM     50  C   UNL A   1      43.355  24.719  26.175  1.00  0.00     0.131 A 
ATOM     51  C   UNL A   1      41.640  22.564  26.367  1.00  0.00     0.055 A 
ATOM     52  C   UNL A   1      43.394  23.709  25.207  1.00  0.00     0.041 A 
ATOM     53  F   UNL A   1      44.279  25.688  26.080  1.00  0.00    -0.206 F 
ATOM     54  C   UNL A   1      42.547  22.613  25.310  1.00  0.00     0.022 A 
BRANCH  51  55
ATOM     55  S   UNL A   1      40.720  21.028  26.689  1.00  0.00     0.124 S 
ATOM     56  O   UNL A   1      40.711  20.987  28.147  1.00  0.00    -0.237 OA
ATOM     57  O   UNL A   1      39.440  21.301  26.046  1.00  0.00    -0.237 OA
ATOM     58  O   UNL A   1      41.536  20.001  26.043  1.00  0.00    -0.744 OA
ENDBRANCH  51  55
ENDBRANCH  24  48
BRANCH  36  59
ATOM     59  C   UNL A   1      46.535  25.927  32.703  1.00  0.00     0.023 A 
ATOM     60  C   UNL A   1      47.742  26.221  32.044  1.00  0.00     0.031 A 
ATOM     61  C   UNL A   1      46.568  25.022  33.777  1.00  0.00     0.131 A 
ATOM     62  C   UNL A   1      48.923  25.570  32.425  1.00  0.00     0.055 A 
ATOM     63  C   UNL A   1      47.759  24.427  34.194  1.00  0.00     0.041 A 
ATOM     64  F   UNL A   1      45.444  24.706  34.440  1.00  0.00    -0.206 F 
ATOM     65  C   UNL A   1      48.942  24.688  33.509  1.00  0.00     0.022 A 
BRANCH  62  66
ATOM     66  S   UNL A   1      50.416  25.818  31.427  1.00  0.00     0.124 S 
ATOM     67  O   UNL A   1      51.432  26.041  32.451  1.00  0.00    -0.237 OA
ATOM     68  O   UNL A   1      50.516  24.561  30.694  1.00  0.00    -0.237 OA
ATOM     69  O   UNL A   1      50.092  26.986  30.610  1.00  0.00    -0.744 OA
ENDBRANCH  62  66
ENDBRANCH  36  59
ENDBRANCH  10  11
ENDBRANCH   3   5
ENDBRANCH   2   3
ENDBRANCH   1   2
BRANCH   1  70
ATOM     70  C   UNL A   1      33.154  35.178  28.734  1.00  0.00     0.274 C 
BRANCH  70  71
ATOM     71  O   UNL A   1      32.731  35.035  30.096  1.00  0.00    -0.461 OA
BRANCH  71  72
ATOM     72  C   UNL A   1      33.025  36.051  30.961  1.00  0.00     0.323 C 
ATOM     73  O   UNL A   1      32.882  37.241  30.688  1.00  0.00    -0.251 OA
BRANCH  72  74
ATOM     74  C   UNL A   1      33.446  35.498  32.332  1.00  0.00     0.183 C 
BRANCH  74  75
ATOM     75  C   UNL A   1      34.513  34.408  32.287  1.00  0.00    -0.024 A 
ATOM     76  C   UNL A   1      35.865  34.757  32.492  1.00  0.00     0.005 A 
ATOM     77  C   UNL A   1      34.250  33.075  31.929  1.00  0.00     0.005 A 
ATOM     78  C   UNL A   1      36.900  33.831  32.347  1.00  0.00     0.000 A 
ATOM     79  C   UNL A   1      35.285  32.143  31.794  1.00  0.00     0.000 A 
ATOM     80  C   UNL A   1      36.609  32.521  31.998  1.00  0.00     0.000 A 
ENDBRANCH  74  75
BRANCH  74  81
ATOM     81  S   UNL A   1      33.769  36.911  33.471  1.00  0.00    -0.159 SA
ATOM     82  H   UNL A   1      32.796  37.847  33.320  1.00  0.00     0.103 HD
ENDBRANCH  74  81
ENDBRANCH  72  74
ENDBRANCH  71  72
ENDBRANCH  70  71
ENDBRANCH   1  70
TORSDOF 16
ENDMDL
