MODEL 1
REMARK VINA RESULT:     -12.6      0.000      0.000
REMARK SMILES COc1ccc(-c2ncn(CC(=O)OCCOC(=O)c3ccc(-c4c5nc(c(-c6cc(S(=O)(=O)[O-])ccc6F)c6ccc([nH]6)c(-c6cc(S(=O)(=O)[O-])ccc6F)c6nc(c(-c7cc(S(=O)(=O)[O-])ccc7F)c7ccc4[nH]7)C=C6)C=C5)cc3)c2-c2ccc(OC)cc2)cc1
REMARK SMILES IDX 15 1 14 2 12 3 13 4 11 5 10 6 7 7 8 8 83 9 9 10 6 11 3 12
REMARK SMILES IDX 4 13 93 14 5 15 92 16 2 17 1 18 84 19 85 20 91 21 86 22
REMARK SMILES IDX 90 23 87 24 88 25 89 26 16 27 17 28 18 29 19 30 20 31 21 32
REMARK SMILES IDX 82 33 22 34 81 35 23 36 24 37 25 38 75 39 26 40 80 41 74 42
REMARK SMILES IDX 76 43 27 44 79 45 73 46 72 47 28 49 60 50 40 51 59 52 41 53
REMARK SMILES IDX 44 54 58 55 77 56 42 57 43 58 57 60 78 61 45 62 29 63 30 64
REMARK SMILES IDX 38 65 31 66 37 67 39 68 36 69 32 70 33 71 34 72 35 73 61 74
REMARK SMILES IDX 62 75 70 76 63 77 69 78 71 79 68 80 64 81 65 82 66 83 67 84
REMARK SMILES IDX 46 85 47 86 55 87 48 88 54 89 56 90 53 91 49 92 50 93 51 94
REMARK SMILES IDX 52 95
REMARK H PARENT 76 48 44 59
REMARK Flexibility Score: inf
ROOT
ATOM      1  C   UNL A   1      33.299  28.985  26.660  1.00  0.00     0.274 C 
ENDROOT
BRANCH   1   2
ATOM      2  O   UNL A   1      33.981  28.314  25.591  1.00  0.00    -0.461 OA
BRANCH   2   3
ATOM      3  C   UNL A   1      33.370  28.310  24.385  1.00  0.00     0.326 C 
ATOM      4  O   UNL A   1      32.731  29.261  23.937  1.00  0.00    -0.250 OA
BRANCH   3   5
ATOM      5  C   UNL A   1      33.652  27.072  23.576  1.00  0.00     0.246 C 
BRANCH   5   6
ATOM      6  N   UNL A   1      33.015  25.816  23.970  1.00  0.00    -0.319 N 
ATOM      7  C   UNL A   1      32.458  23.698  23.850  1.00  0.00     0.096 A 
ATOM      8  N   UNL A   1      31.284  24.405  23.853  1.00  0.00    -0.236 NA
ATOM      9  C   UNL A   1      33.554  24.544  23.980  1.00  0.00     0.076 A 
ATOM     10  C   UNL A   1      31.648  25.662  23.985  1.00  0.00     0.201 A 
BRANCH   7  11
ATOM     11  C   UNL A   1      32.578  22.254  23.706  1.00  0.00     0.003 A 
ATOM     12  C   UNL A   1      32.246  19.472  23.566  1.00  0.00     0.118 A 
ATOM     13  C   UNL A   1      32.119  20.248  22.416  1.00  0.00     0.047 A 
ATOM     14  C   UNL A   1      32.595  20.077  24.773  1.00  0.00     0.047 A 
ATOM     15  C   UNL A   1      32.308  21.628  22.480  1.00  0.00     0.014 A 
ATOM     16  C   UNL A   1      32.755  21.466  24.846  1.00  0.00     0.014 A 
BRANCH  12  17
ATOM     17  O   UNL A   1      32.106  18.128  23.390  1.00  0.00    -0.497 OA
ATOM     18  C   UNL A   1      33.317  17.403  23.181  1.00  0.00     0.278 C 
ENDBRANCH  12  17
ENDBRANCH   7  11
BRANCH   9  19
ATOM     19  C   UNL A   1      34.912  24.153  24.331  1.00  0.00     0.001 A 
ATOM     20  C   UNL A   1      35.257  24.235  25.679  1.00  0.00     0.014 A 
ATOM     21  C   UNL A   1      35.732  23.406  23.484  1.00  0.00     0.014 A 
ATOM     22  C   UNL A   1      36.455  23.721  26.145  1.00  0.00     0.047 A 
ATOM     23  C   UNL A   1      36.921  22.837  23.981  1.00  0.00     0.047 A 
ATOM     24  C   UNL A   1      37.332  23.085  25.291  1.00  0.00     0.118 A 
BRANCH  24  25
ATOM     25  O   UNL A   1      38.539  22.870  25.892  1.00  0.00    -0.497 OA
ATOM     26  C   UNL A   1      39.008  23.829  26.809  1.00  0.00     0.278 C 
ENDBRANCH  24  25
ENDBRANCH   9  19
ENDBRANCH   5   6
ENDBRANCH   3   5
ENDBRANCH   2   3
ENDBRANCH   1   2
BRANCH   1  27
ATOM     27  C   UNL A   1      34.302  29.598  27.640  1.00  0.00     0.275 C 
BRANCH  27  28
ATOM     28  O   UNL A   1      35.377  30.419  27.124  1.00  0.00    -0.458 OA
BRANCH  28  29
ATOM     29  C   UNL A   1      36.181  31.135  27.955  1.00  0.00     0.338 C 
ATOM     30  O   UNL A   1      36.018  32.295  28.267  1.00  0.00    -0.246 OA
BRANCH  29  31
ATOM     31  C   UNL A   1      37.323  30.295  28.437  1.00  0.00     0.060 A 
ATOM     32  C   UNL A   1      38.434  30.891  29.057  1.00  0.00     0.016 A 
ATOM     33  C   UNL A   1      37.366  28.931  28.151  1.00  0.00     0.016 A 
ATOM     34  C   UNL A   1      39.632  30.165  29.222  1.00  0.00     0.010 A 
ATOM     35  C   UNL A   1      38.560  28.226  28.294  1.00  0.00     0.010 A 
ATOM     36  C   UNL A   1      39.738  28.849  28.739  1.00  0.00    -0.014 A 
BRANCH  36  37
ATOM     37  C   UNL A   1      40.884  27.963  29.079  1.00  0.00     0.031 A 
ATOM     38  C   UNL A   1      41.096  28.083  30.532  1.00  0.00     0.074 A 
ATOM     39  C   UNL A   1      41.597  27.064  28.341  1.00  0.00     0.049 A 
ATOM     40  N   UNL A   1      42.073  28.747  31.057  1.00  0.00    -0.248 NA
ATOM     41  C   UNL A   1      40.010  27.773  31.480  1.00  0.00     0.031 C 
ATOM     42  C   UNL A   1      41.666  26.905  26.895  1.00  0.00     0.029 A 
ATOM     43  N   UNL A   1      42.367  25.985  28.738  1.00  0.00    -0.354 N 
ATOM     44  C   UNL A   1      41.896  28.564  32.412  1.00  0.00     0.074 A 
ATOM     45  C   UNL A   1      40.496  28.317  32.597  1.00  0.00     0.031 C 
ATOM     46  C   UNL A   1      42.054  25.654  26.550  1.00  0.00     0.029 A 
ATOM     47  C   UNL A   1      42.518  24.983  27.751  1.00  0.00     0.049 A 
ATOM     48  H   UNL A   1      42.774  25.920  29.631  1.00  0.00     0.167 HD
ATOM     49  C   UNL A   1      42.952  28.133  33.147  1.00  0.00     0.034 A 
ATOM     50  C   UNL A   1      43.158  23.775  27.799  1.00  0.00     0.034 A 
ATOM     51  C   UNL A   1      44.205  28.394  32.457  1.00  0.00     0.049 A 
ATOM     52  C   UNL A   1      44.242  23.941  28.780  1.00  0.00     0.074 A 
ATOM     53  C   UNL A   1      44.775  29.512  31.877  1.00  0.00     0.029 A 
ATOM     54  N   UNL A   1      44.872  27.307  31.942  1.00  0.00    -0.354 N 
ATOM     55  N   UNL A   1      45.276  24.699  28.555  1.00  0.00    -0.248 NA
ATOM     56  C   UNL A   1      43.981  23.634  30.175  1.00  0.00     0.031 C 
ATOM     57  C   UNL A   1      45.523  29.034  30.765  1.00  0.00     0.029 A 
ATOM     58  C   UNL A   1      45.488  27.639  30.762  1.00  0.00     0.049 A 
ATOM     59  H   UNL A   1      44.905  26.417  32.362  1.00  0.00     0.167 HD
ATOM     60  C   UNL A   1      45.465  25.367  29.749  1.00  0.00     0.074 A 
ATOM     61  C   UNL A   1      44.768  24.553  30.742  1.00  0.00     0.031 C 
ATOM     62  C   UNL A   1      45.872  26.671  29.744  1.00  0.00     0.034 A 
BRANCH  49  63
ATOM     63  C   UNL A   1      42.819  27.070  34.215  1.00  0.00     0.023 A 
ATOM     64  C   UNL A   1      43.589  25.914  34.036  1.00  0.00     0.031 A 
ATOM     65  C   UNL A   1      41.810  26.991  35.210  1.00  0.00     0.131 A 
ATOM     66  C   UNL A   1      43.291  24.741  34.747  1.00  0.00     0.055 A 
ATOM     67  C   UNL A   1      41.569  25.846  35.967  1.00  0.00     0.041 A 
ATOM     68  F   UNL A   1      40.931  27.969  35.452  1.00  0.00    -0.206 F 
ATOM     69  C   UNL A   1      42.293  24.699  35.718  1.00  0.00     0.022 A 
BRANCH  66  70
ATOM     70  S   UNL A   1      44.128  23.222  34.251  1.00  0.00     0.124 S 
ATOM     71  O   UNL A   1      45.392  23.748  33.751  1.00  0.00    -0.237 OA
ATOM     72  O   UNL A   1      44.184  22.488  35.511  1.00  0.00    -0.237 OA
ATOM     73  O   UNL A   1      43.233  22.661  33.242  1.00  0.00    -0.744 OA
ENDBRANCH  66  70
ENDBRANCH  49  63
BRANCH  50  74
ATOM     74  C   UNL A   1      42.866  22.450  27.154  1.00  0.00     0.023 A 
ATOM     75  C   UNL A   1      43.724  21.855  26.188  1.00  0.00     0.031 A 
ATOM     76  C   UNL A   1      41.887  21.604  27.716  1.00  0.00     0.131 A 
ATOM     77  C   UNL A   1      43.607  20.478  25.858  1.00  0.00     0.055 A 
ATOM     78  C   UNL A   1      41.782  20.244  27.392  1.00  0.00     0.041 A 
ATOM     79  F   UNL A   1      41.058  22.052  28.672  1.00  0.00    -0.206 F 
ATOM     80  C   UNL A   1      42.654  19.670  26.475  1.00  0.00     0.022 A 
BRANCH  77  81
ATOM     81  S   UNL A   1      44.788  19.672  24.712  1.00  0.00     0.124 S 
ATOM     82  O   UNL A   1      44.454  20.288  23.433  1.00  0.00    -0.237 OA
ATOM     83  O   UNL A   1      46.081  20.022  25.287  1.00  0.00    -0.237 OA
ATOM     84  O   UNL A   1      44.444  18.251  24.814  1.00  0.00    -0.744 OA
ENDBRANCH  77  81
ENDBRANCH  50  74
BRANCH  62  85
ATOM     85  C   UNL A   1      46.636  27.183  28.531  1.00  0.00     0.023 A 
ATOM     86  C   UNL A   1      46.136  27.290  27.214  1.00  0.00     0.031 A 
ATOM     87  C   UNL A   1      47.951  27.637  28.755  1.00  0.00     0.131 A 
ATOM     88  C   UNL A   1      46.954  27.800  26.184  1.00  0.00     0.055 A 
ATOM     89  C   UNL A   1      48.735  28.193  27.746  1.00  0.00     0.041 A 
ATOM     90  F   UNL A   1      48.495  27.570  29.981  1.00  0.00    -0.206 F 
ATOM     91  C   UNL A   1      48.243  28.270  26.452  1.00  0.00     0.022 A 
BRANCH  88  92
ATOM     92  S   UNL A   1      46.337  27.870  24.474  1.00  0.00     0.124 S 
ATOM     93  O   UNL A   1      46.776  29.185  24.022  1.00  0.00    -0.237 OA
ATOM     94  O   UNL A   1      46.995  26.724  23.854  1.00  0.00    -0.237 OA
ATOM     95  O   UNL A   1      44.888  27.726  24.632  1.00  0.00    -0.744 OA
ENDBRANCH  88  92
ENDBRANCH  62  85
ENDBRANCH  36  37
ENDBRANCH  29  31
ENDBRANCH  28  29
ENDBRANCH  27  28
ENDBRANCH   1  27
TORSDOF 19
ENDMDL
MODEL 2
REMARK VINA RESULT:     -12.3      4.775     10.378
REMARK SMILES COc1ccc(-c2ncn(CC(=O)OCCOC(=O)c3ccc(-c4c5nc(c(-c6cc(S(=O)(=O)[O-])ccc6F)c6ccc([nH]6)c(-c6cc(S(=O)(=O)[O-])ccc6F)c6nc(c(-c7cc(S(=O)(=O)[O-])ccc7F)c7ccc4[nH]7)C=C6)C=C5)cc3)c2-c2ccc(OC)cc2)cc1
REMARK SMILES IDX 15 1 14 2 12 3 13 4 11 5 10 6 7 7 8 8 83 9 9 10 6 11 3 12
REMARK SMILES IDX 4 13 93 14 5 15 92 16 2 17 1 18 84 19 85 20 91 21 86 22
REMARK SMILES IDX 90 23 87 24 88 25 89 26 16 27 17 28 18 29 19 30 20 31 21 32
REMARK SMILES IDX 82 33 22 34 81 35 23 36 24 37 25 38 75 39 26 40 80 41 74 42
REMARK SMILES IDX 76 43 27 44 79 45 73 46 72 47 28 49 60 50 40 51 59 52 41 53
REMARK SMILES IDX 44 54 58 55 77 56 42 57 43 58 57 60 78 61 45 62 29 63 30 64
REMARK SMILES IDX 38 65 31 66 37 67 39 68 36 69 32 70 33 71 34 72 35 73 61 74
REMARK SMILES IDX 62 75 70 76 63 77 69 78 71 79 68 80 64 81 65 82 66 83 67 84
REMARK SMILES IDX 46 85 47 86 55 87 48 88 54 89 56 90 53 91 49 92 50 93 51 94
REMARK SMILES IDX 52 95
REMARK H PARENT 76 48 44 59
REMARK Flexibility Score: inf
ROOT
ATOM      1  C   UNL A   1      36.321  23.668  25.210  1.00  0.00     0.274 C 
ENDROOT
BRANCH   1   2
ATOM      2  O   UNL A   1      35.085  22.945  25.128  1.00  0.00    -0.461 OA
BRANCH   2   3
ATOM      3  C   UNL A   1      34.212  23.109  26.148  1.00  0.00     0.326 C 
ATOM      4  O   UNL A   1      34.542  23.437  27.286  1.00  0.00    -0.250 OA
BRANCH   3   5
ATOM      5  C   UNL A   1      32.772  22.978  25.730  1.00  0.00     0.246 C 
BRANCH   5   6
ATOM      6  N   UNL A   1      32.247  23.894  24.719  1.00  0.00    -0.319 N 
ATOM      7  C   UNL A   1      30.916  25.397  23.837  1.00  0.00     0.096 A 
ATOM      8  N   UNL A   1      30.860  24.303  23.013  1.00  0.00    -0.236 NA
ATOM      9  C   UNL A   1      31.815  25.197  24.878  1.00  0.00     0.076 A 
ATOM     10  C   UNL A   1      31.710  23.446  23.534  1.00  0.00     0.201 A 
BRANCH   7  11
ATOM     11  C   UNL A   1      30.131  26.614  23.684  1.00  0.00     0.003 A 
ATOM     12  C   UNL A   1      28.558  28.779  22.844  1.00  0.00     0.118 A 
ATOM     13  C   UNL A   1      27.957  27.669  23.432  1.00  0.00     0.047 A 
ATOM     14  C   UNL A   1      29.947  28.834  22.727  1.00  0.00     0.047 A 
ATOM     15  C   UNL A   1      28.741  26.603  23.873  1.00  0.00     0.014 A 
ATOM     16  C   UNL A   1      30.733  27.752  23.140  1.00  0.00     0.014 A 
BRANCH  12  17
ATOM     17  O   UNL A   1      27.716  29.796  22.504  1.00  0.00    -0.497 OA
ATOM     18  C   UNL A   1      28.089  30.546  21.348  1.00  0.00     0.278 C 
ENDBRANCH  12  17
ENDBRANCH   7  11
BRANCH   9  19
ATOM     19  C   UNL A   1      32.373  26.222  25.749  1.00  0.00     0.001 A 
ATOM     20  C   UNL A   1      33.567  26.809  25.337  1.00  0.00     0.014 A 
ATOM     21  C   UNL A   1      31.632  26.860  26.745  1.00  0.00     0.014 A 
ATOM     22  C   UNL A   1      34.088  27.912  25.993  1.00  0.00     0.047 A 
ATOM     23  C   UNL A   1      32.143  28.016  27.367  1.00  0.00     0.047 A 
ATOM     24  C   UNL A   1      33.422  28.480  27.059  1.00  0.00     0.118 A 
BRANCH  24  25
ATOM     25  O   UNL A   1      34.208  29.392  27.704  1.00  0.00    -0.497 OA
ATOM     26  C   UNL A   1      35.563  29.482  27.337  1.00  0.00     0.278 C 
ENDBRANCH  24  25
ENDBRANCH   9  19
ENDBRANCH   5   6
ENDBRANCH   3   5
ENDBRANCH   2   3
ENDBRANCH   1   2
BRANCH   1  27
ATOM     27  C   UNL A   1      37.421  22.791  25.812  1.00  0.00     0.275 C 
BRANCH  27  28
ATOM     28  O   UNL A   1      38.793  23.250  25.761  1.00  0.00    -0.458 OA
BRANCH  28  29
ATOM     29  C   UNL A   1      39.522  23.427  26.895  1.00  0.00     0.338 C 
ATOM     30  O   UNL A   1      40.106  22.554  27.501  1.00  0.00    -0.246 OA
BRANCH  29  31
ATOM     31  C   UNL A   1      39.503  24.864  27.316  1.00  0.00     0.060 A 
ATOM     32  C   UNL A   1      40.072  25.854  26.496  1.00  0.00     0.016 A 
ATOM     33  C   UNL A   1      39.054  25.223  28.586  1.00  0.00     0.016 A 
ATOM     34  C   UNL A   1      40.343  27.138  27.013  1.00  0.00     0.010 A 
ATOM     35  C   UNL A   1      39.346  26.485  29.099  1.00  0.00     0.010 A 
ATOM     36  C   UNL A   1      40.079  27.431  28.363  1.00  0.00    -0.014 A 
BRANCH  36  37
ATOM     37  C   UNL A   1      40.131  28.816  28.904  1.00  0.00     0.031 A 
ATOM     38  C   UNL A   1      41.401  29.404  28.444  1.00  0.00     0.074 A 
ATOM     39  C   UNL A   1      39.217  29.571  29.580  1.00  0.00     0.049 A 
ATOM     40  N   UNL A   1      42.426  29.577  29.212  1.00  0.00    -0.248 NA
ATOM     41  C   UNL A   1      41.714  29.488  27.006  1.00  0.00     0.031 C 
ATOM     42  C   UNL A   1      37.999  29.153  30.261  1.00  0.00     0.029 A 
ATOM     43  N   UNL A   1      39.115  30.943  29.725  1.00  0.00    -0.354 N 
ATOM     44  C   UNL A   1      43.354  30.171  28.382  1.00  0.00     0.074 A 
ATOM     45  C   UNL A   1      43.022  29.749  27.053  1.00  0.00     0.031 C 
ATOM     46  C   UNL A   1      37.119  30.177  30.381  1.00  0.00     0.029 A 
ATOM     47  C   UNL A   1      37.809  31.402  30.016  1.00  0.00     0.049 A 
ATOM     48  H   UNL A   1      39.885  31.548  29.632  1.00  0.00     0.167 HD
ATOM     49  C   UNL A   1      43.952  31.315  28.799  1.00  0.00     0.034 A 
ATOM     50  C   UNL A   1      37.326  32.672  30.176  1.00  0.00     0.034 A 
ATOM     51  C   UNL A   1      43.856  31.454  30.243  1.00  0.00     0.049 A 
ATOM     52  C   UNL A   1      38.460  33.465  30.676  1.00  0.00     0.074 A 
ATOM     53  C   UNL A   1      44.161  30.636  31.316  1.00  0.00     0.029 A 
ATOM     54  N   UNL A   1      43.002  32.421  30.722  1.00  0.00    -0.354 N 
ATOM     55  N   UNL A   1      38.958  33.295  31.867  1.00  0.00    -0.248 NA
ATOM     56  C   UNL A   1      39.329  34.129  29.722  1.00  0.00     0.031 C 
ATOM     57  C   UNL A   1      43.195  30.933  32.317  1.00  0.00     0.029 A 
ATOM     58  C   UNL A   1      42.403  31.996  31.881  1.00  0.00     0.049 A 
ATOM     59  H   UNL A   1      42.844  33.293  30.295  1.00  0.00     0.167 HD
ATOM     60  C   UNL A   1      40.323  33.344  31.667  1.00  0.00     0.074 A 
ATOM     61  C   UNL A   1      40.484  34.027  30.386  1.00  0.00     0.031 C 
ATOM     62  C   UNL A   1      41.148  32.531  32.391  1.00  0.00     0.034 A 
BRANCH  49  63
ATOM     63  C   UNL A   1      44.171  32.499  27.882  1.00  0.00     0.023 A 
ATOM     64  C   UNL A   1      43.521  33.686  28.239  1.00  0.00     0.031 A 
ATOM     65  C   UNL A   1      44.719  32.465  26.573  1.00  0.00     0.131 A 
ATOM     66  C   UNL A   1      43.360  34.720  27.305  1.00  0.00     0.055 A 
ATOM     67  C   UNL A   1      44.621  33.526  25.676  1.00  0.00     0.041 A 
ATOM     68  F   UNL A   1      45.296  31.383  26.039  1.00  0.00    -0.206 F 
ATOM     69  C   UNL A   1      43.912  34.655  26.028  1.00  0.00     0.022 A 
BRANCH  66  70
ATOM     70  S   UNL A   1      42.264  36.085  27.742  1.00  0.00     0.124 S 
ATOM     71  O   UNL A   1      40.960  35.507  27.440  1.00  0.00    -0.237 OA
ATOM     72  O   UNL A   1      42.576  36.278  29.153  1.00  0.00    -0.237 OA
ATOM     73  O   UNL A   1      42.698  37.160  26.853  1.00  0.00    -0.744 OA
ENDBRANCH  66  70
ENDBRANCH  49  63
BRANCH  50  74
ATOM     74  C   UNL A   1      36.003  33.299  29.843  1.00  0.00     0.023 A 
ATOM     75  C   UNL A   1      35.238  34.039  30.787  1.00  0.00     0.031 A 
ATOM     76  C   UNL A   1      35.619  33.439  28.493  1.00  0.00     0.131 A 
ATOM     77  C   UNL A   1      34.185  34.894  30.365  1.00  0.00     0.055 A 
ATOM     78  C   UNL A   1      34.584  34.291  28.081  1.00  0.00     0.041 A 
ATOM     79  F   UNL A   1      36.304  32.823  27.517  1.00  0.00    -0.206 F 
ATOM     80  C   UNL A   1      33.875  35.036  29.014  1.00  0.00     0.022 A 
BRANCH  77  81
ATOM     81  S   UNL A   1      33.281  35.949  31.559  1.00  0.00     0.124 S 
ATOM     82  O   UNL A   1      32.255  35.044  32.062  1.00  0.00    -0.237 OA
ATOM     83  O   UNL A   1      34.326  36.338  32.498  1.00  0.00    -0.237 OA
ATOM     84  O   UNL A   1      32.775  37.045  30.728  1.00  0.00    -0.744 OA
ENDBRANCH  77  81
ENDBRANCH  50  74
BRANCH  62  85
ATOM     85  C   UNL A   1      40.660  32.027  33.742  1.00  0.00     0.023 A 
ATOM     86  C   UNL A   1      40.741  32.721  34.970  1.00  0.00     0.031 A 
ATOM     87  C   UNL A   1      40.026  30.770  33.759  1.00  0.00     0.131 A 
ATOM     88  C   UNL A   1      40.232  32.138  36.149  1.00  0.00     0.055 A 
ATOM     89  C   UNL A   1      39.473  30.222  34.916  1.00  0.00     0.041 A 
ATOM     90  F   UNL A   1      39.909  30.051  32.631  1.00  0.00    -0.206 F 
ATOM     91  C   UNL A   1      39.581  30.901  36.120  1.00  0.00     0.022 A 
BRANCH  88  92
ATOM     92  S   UNL A   1      40.401  32.998  37.744  1.00  0.00     0.124 S 
ATOM     93  O   UNL A   1      41.402  32.200  38.441  1.00  0.00    -0.237 OA
ATOM     94  O   UNL A   1      40.814  34.338  37.338  1.00  0.00    -0.237 OA
ATOM     95  O   UNL A   1      39.053  32.925  38.311  1.00  0.00    -0.744 OA
ENDBRANCH  88  92
ENDBRANCH  62  85
ENDBRANCH  36  37
ENDBRANCH  29  31
ENDBRANCH  28  29
ENDBRANCH  27  28
ENDBRANCH   1  27
TORSDOF 19
ENDMDL
MODEL 3
REMARK VINA RESULT:     -12.2      3.085      7.025
REMARK SMILES COc1ccc(-c2ncn(CC(=O)OCCOC(=O)c3ccc(-c4c5nc(c(-c6cc(S(=O)(=O)[O-])ccc6F)c6ccc([nH]6)c(-c6cc(S(=O)(=O)[O-])ccc6F)c6nc(c(-c7cc(S(=O)(=O)[O-])ccc7F)c7ccc4[nH]7)C=C6)C=C5)cc3)c2-c2ccc(OC)cc2)cc1
REMARK SMILES IDX 15 1 14 2 12 3 13 4 11 5 10 6 7 7 8 8 83 9 9 10 6 11 3 12
REMARK SMILES IDX 4 13 93 14 5 15 92 16 2 17 1 18 84 19 85 20 91 21 86 22
REMARK SMILES IDX 90 23 87 24 88 25 89 26 16 27 17 28 18 29 19 30 20 31 21 32
REMARK SMILES IDX 82 33 22 34 81 35 23 36 24 37 25 38 75 39 26 40 80 41 74 42
REMARK SMILES IDX 76 43 27 44 79 45 73 46 72 47 28 49 60 50 40 51 59 52 41 53
REMARK SMILES IDX 44 54 58 55 77 56 42 57 43 58 57 60 78 61 45 62 29 63 30 64
REMARK SMILES IDX 38 65 31 66 37 67 39 68 36 69 32 70 33 71 34 72 35 73 61 74
REMARK SMILES IDX 62 75 70 76 63 77 69 78 71 79 68 80 64 81 65 82 66 83 67 84
REMARK SMILES IDX 46 85 47 86 55 87 48 88 54 89 56 90 53 91 49 92 50 93 51 94
REMARK SMILES IDX 52 95
REMARK H PARENT 76 48 44 59
REMARK Flexibility Score: inf
ROOT
ATOM      1  C   UNL A   1      33.942  22.109  24.394  1.00  0.00     0.274 C 
ENDROOT
BRANCH   1   2
ATOM      2  O   UNL A   1      33.146  23.074  23.691  1.00  0.00    -0.461 OA
BRANCH   2   3
ATOM      3  C   UNL A   1      32.008  22.625  23.117  1.00  0.00     0.326 C 
ATOM      4  O   UNL A   1      31.933  21.587  22.462  1.00  0.00    -0.250 OA
BRANCH   3   5
ATOM      5  C   UNL A   1      30.798  23.452  23.462  1.00  0.00     0.246 C 
BRANCH   5   6
ATOM      6  N   UNL A   1      30.843  24.301  24.652  1.00  0.00    -0.319 N 
ATOM      7  C   UNL A   1      31.636  25.785  26.058  1.00  0.00     0.096 A 
ATOM      8  N   UNL A   1      31.474  24.627  26.772  1.00  0.00    -0.236 NA
ATOM      9  C   UNL A   1      31.197  25.633  24.747  1.00  0.00     0.076 A 
ATOM     10  C   UNL A   1      30.944  23.777  25.920  1.00  0.00     0.201 A 
BRANCH   7  11
ATOM     11  C   UNL A   1      32.210  27.022  26.567  1.00  0.00     0.003 A 
ATOM     12  C   UNL A   1      33.228  29.599  27.009  1.00  0.00     0.118 A 
ATOM     13  C   UNL A   1      31.893  29.320  27.290  1.00  0.00     0.047 A 
ATOM     14  C   UNL A   1      34.068  28.580  26.562  1.00  0.00     0.047 A 
ATOM     15  C   UNL A   1      31.392  28.033  27.094  1.00  0.00     0.014 A 
ATOM     16  C   UNL A   1      33.561  27.295  26.335  1.00  0.00     0.014 A 
BRANCH  12  17
ATOM     17  O   UNL A   1      33.639  30.868  27.293  1.00  0.00    -0.497 OA
ATOM     18  C   UNL A   1      34.999  30.999  27.702  1.00  0.00     0.278 C 
ENDBRANCH  12  17
ENDBRANCH   7  11
BRANCH   9  19
ATOM     19  C   UNL A   1      30.916  26.701  23.798  1.00  0.00     0.001 A 
ATOM     20  C   UNL A   1      29.634  27.247  23.836  1.00  0.00     0.014 A 
ATOM     21  C   UNL A   1      31.915  27.407  23.129  1.00  0.00     0.014 A 
ATOM     22  C   UNL A   1      29.317  28.381  23.107  1.00  0.00     0.047 A 
ATOM     23  C   UNL A   1      31.595  28.592  22.438  1.00  0.00     0.047 A 
ATOM     24  C   UNL A   1      30.270  29.021  22.343  1.00  0.00     0.118 A 
BRANCH  24  25
ATOM     25  O   UNL A   1      29.704  29.959  21.529  1.00  0.00    -0.497 OA
ATOM     26  C   UNL A   1      28.302  30.086  21.530  1.00  0.00     0.278 C 
ENDBRANCH  24  25
ENDBRANCH   9  19
ENDBRANCH   5   6
ENDBRANCH   3   5
ENDBRANCH   2   3
ENDBRANCH   1   2
BRANCH   1  27
ATOM     27  C   UNL A   1      35.162  22.776  25.032  1.00  0.00     0.275 C 
BRANCH  27  28
ATOM     28  O   UNL A   1      36.074  21.971  25.816  1.00  0.00    -0.458 OA
BRANCH  28  29
ATOM     29  C   UNL A   1      37.282  21.587  25.323  1.00  0.00     0.338 C 
ATOM     30  O   UNL A   1      37.463  20.704  24.512  1.00  0.00    -0.246 OA
BRANCH  29  31
ATOM     31  C   UNL A   1      38.383  22.401  25.928  1.00  0.00     0.060 A 
ATOM     32  C   UNL A   1      39.514  21.774  26.479  1.00  0.00     0.016 A 
ATOM     33  C   UNL A   1      38.238  23.779  26.083  1.00  0.00     0.016 A 
ATOM     34  C   UNL A   1      40.387  22.493  27.321  1.00  0.00     0.010 A 
ATOM     35  C   UNL A   1      39.091  24.479  26.935  1.00  0.00     0.010 A 
ATOM     36  C   UNL A   1      40.119  23.835  27.645  1.00  0.00    -0.014 A 
BRANCH  36  37
ATOM     37  C   UNL A   1      41.110  24.704  28.335  1.00  0.00     0.031 A 
ATOM     38  C   UNL A   1      40.500  26.041  28.440  1.00  0.00     0.074 A 
ATOM     39  C   UNL A   1      42.308  24.435  28.929  1.00  0.00     0.049 A 
ATOM     40  N   UNL A   1      40.851  27.044  27.703  1.00  0.00    -0.248 NA
ATOM     41  C   UNL A   1      39.207  26.229  29.123  1.00  0.00     0.031 C 
ATOM     42  C   UNL A   1      43.153  23.255  28.808  1.00  0.00     0.029 A 
ATOM     43  N   UNL A   1      43.014  25.138  29.890  1.00  0.00    -0.354 N 
ATOM     44  C   UNL A   1      40.054  28.073  28.158  1.00  0.00     0.074 A 
ATOM     45  C   UNL A   1      38.883  27.453  28.705  1.00  0.00     0.031 C 
ATOM     46  C   UNL A   1      43.977  23.121  29.875  1.00  0.00     0.029 A 
ATOM     47  C   UNL A   1      43.910  24.349  30.647  1.00  0.00     0.049 A 
ATOM     48  H   UNL A   1      42.901  26.104  30.033  1.00  0.00     0.167 HD
ATOM     49  C   UNL A   1      40.648  29.245  28.499  1.00  0.00     0.034 A 
ATOM     50  C   UNL A   1      44.724  24.683  31.695  1.00  0.00     0.034 A 
ATOM     51  C   UNL A   1      41.957  29.362  27.878  1.00  0.00     0.049 A 
ATOM     52  C   UNL A   1      45.056  26.102  31.499  1.00  0.00     0.074 A 
ATOM     53  C   UNL A   1      42.428  29.239  26.583  1.00  0.00     0.029 A 
ATOM     54  N   UNL A   1      43.053  29.246  28.702  1.00  0.00    -0.354 N 
ATOM     55  N   UNL A   1      45.816  26.513  30.525  1.00  0.00    -0.248 NA
ATOM     56  C   UNL A   1      44.204  27.113  32.098  1.00  0.00     0.031 C 
ATOM     57  C   UNL A   1      43.738  28.695  26.697  1.00  0.00     0.029 A 
ATOM     58  C   UNL A   1      44.077  28.609  28.048  1.00  0.00     0.049 A 
ATOM     59  H   UNL A   1      43.096  29.574  29.629  1.00  0.00     0.167 HD
ATOM     60  C   UNL A   1      45.178  27.645  30.060  1.00  0.00     0.074 A 
ATOM     61  C   UNL A   1      44.310  28.059  31.160  1.00  0.00     0.031 C 
ATOM     62  C   UNL A   1      45.170  27.923  28.722  1.00  0.00     0.034 A 
BRANCH  49  63
ATOM     63  C   UNL A   1      40.267  30.018  29.742  1.00  0.00     0.023 A 
ATOM     64  C   UNL A   1      40.776  29.532  30.953  1.00  0.00     0.031 A 
ATOM     65  C   UNL A   1      39.242  30.993  29.852  1.00  0.00     0.131 A 
ATOM     66  C   UNL A   1      40.218  29.937  32.175  1.00  0.00     0.055 A 
ATOM     67  C   UNL A   1      38.745  31.448  31.071  1.00  0.00     0.041 A 
ATOM     68  F   UNL A   1      38.586  31.500  28.801  1.00  0.00    -0.206 F 
ATOM     69  C   UNL A   1      39.212  30.898  32.246  1.00  0.00     0.022 A 
BRANCH  66  70
ATOM     70  S   UNL A   1      40.722  29.052  33.664  1.00  0.00     0.124 S 
ATOM     71  O   UNL A   1      39.968  29.767  34.686  1.00  0.00    -0.237 OA
ATOM     72  O   UNL A   1      40.283  27.693  33.366  1.00  0.00    -0.237 OA
ATOM     73  O   UNL A   1      42.170  29.247  33.695  1.00  0.00    -0.744 OA
ENDBRANCH  66  70
ENDBRANCH  49  63
BRANCH  50  74
ATOM     74  C   UNL A   1      45.167  23.923  32.912  1.00  0.00     0.023 A 
ATOM     75  C   UNL A   1      46.346  24.247  33.640  1.00  0.00     0.031 A 
ATOM     76  C   UNL A   1      44.261  23.057  33.559  1.00  0.00     0.131 A 
ATOM     77  C   UNL A   1      46.553  23.749  34.954  1.00  0.00     0.055 A 
ATOM     78  C   UNL A   1      44.467  22.574  34.860  1.00  0.00     0.041 A 
ATOM     79  F   UNL A   1      43.095  22.725  32.981  1.00  0.00    -0.206 F 
ATOM     80  C   UNL A   1      45.605  22.933  35.570  1.00  0.00     0.022 A 
BRANCH  77  81
ATOM     81  S   UNL A   1      48.004  24.263  35.947  1.00  0.00     0.124 S 
ATOM     82  O   UNL A   1      48.457  25.457  35.245  1.00  0.00    -0.237 OA
ATOM     83  O   UNL A   1      47.430  24.464  37.272  1.00  0.00    -0.237 OA
ATOM     84  O   UNL A   1      48.908  23.114  35.848  1.00  0.00    -0.744 OA
ENDBRANCH  77  81
ENDBRANCH  50  74
BRANCH  62  85
ATOM     85  C   UNL A   1      46.285  27.348  27.859  1.00  0.00     0.023 A 
ATOM     86  C   UNL A   1      47.579  27.890  27.700  1.00  0.00     0.031 A 
ATOM     87  C   UNL A   1      46.012  26.136  27.196  1.00  0.00     0.131 A 
ATOM     88  C   UNL A   1      48.523  27.240  26.877  1.00  0.00     0.055 A 
ATOM     89  C   UNL A   1      46.966  25.467  26.430  1.00  0.00     0.041 A 
ATOM     90  F   UNL A   1      44.805  25.558  27.301  1.00  0.00    -0.206 F 
ATOM     91  C   UNL A   1      48.226  26.022  26.260  1.00  0.00     0.022 A 
BRANCH  88  92
ATOM     92  S   UNL A   1      50.167  27.975  26.611  1.00  0.00     0.124 S 
ATOM     93  O   UNL A   1      49.921  28.954  25.559  1.00  0.00    -0.237 OA
ATOM     94  O   UNL A   1      50.489  28.514  27.929  1.00  0.00    -0.237 OA
ATOM     95  O   UNL A   1      50.987  26.831  26.207  1.00  0.00    -0.744 OA
ENDBRANCH  88  92
ENDBRANCH  62  85
ENDBRANCH  36  37
ENDBRANCH  29  31
ENDBRANCH  28  29
ENDBRANCH  27  28
ENDBRANCH   1  27
TORSDOF 19
ENDMDL
