MODEL 1
REMARK VINA RESULT:     -12.4      0.000      0.000
REMARK SMILES CC(C)C[C@H](NC(=O)[C@H](C)NC(=O)[C@@H](NC(=O)CNC(=O)OCc1ccccc1)C(C)C)C(=O)OCCOC(=O)c1ccc(-c2c3nc(c(-c4cc(S(=O)(=O)[O-])ccc4F)c4ccc([nH]4)c(-c4cc(S(=O)(=O)[O-])ccc4F)c4nc(c(-c5cc(S(=O)(=O)[O-])ccc5F)c5ccc2[nH]5)C=C4)C=C3)cc1
REMARK SMILES IDX 5 1 4 2 2 3 1 4 3 5 33 6 34 7 35 8 36 9 37 10 38 11 39 12
REMARK SMILES IDX 40 13 41 14 42 15 103 16 43 17 102 18 44 19 45 20 46 21
REMARK SMILES IDX 96 22 47 23 101 24 95 25 97 26 48 27 100 28 94 29 93 30
REMARK SMILES IDX 49 32 81 33 61 34 80 35 62 36 65 37 79 38 98 39 63 40 64 41
REMARK SMILES IDX 78 43 99 44 66 45 50 46 51 47 59 48 52 49 58 50 60 51 57 52
REMARK SMILES IDX 53 53 54 54 55 55 56 56 82 57 83 58 91 59 84 60 90 61 92 62
REMARK SMILES IDX 89 63 85 64 86 65 87 66 88 67 67 68 68 69 76 70 69 71 75 72
REMARK SMILES IDX 77 73 74 74 70 75 71 76 72 77 73 78 6 79 7 80 8 82 9 83
REMARK SMILES IDX 10 84 11 85 12 86 13 88 14 89 15 90 16 91 17 93 18 94 19 95
REMARK SMILES IDX 20 96 21 98 22 99 23 100 24 101 25 102 29 103 26 104 28 105
REMARK SMILES IDX 27 106 30 107 31 108 32 109
REMARK H PARENT 97 31 65 42 6 81 11 87 15 92 19 97
REMARK Flexibility Score: inf
ROOT
ATOM      1  C   UNL A   1      32.516  25.298  25.302  1.00  0.00     0.192 C 
ENDROOT
BRANCH   1   2
ATOM      2  C   UNL A   1      33.258  26.391  24.258  1.00  0.00     0.040 C 
BRANCH   2   3
ATOM      3  C   UNL A   1      32.739  27.267  22.857  1.00  0.00    -0.015 C 
ATOM      4  C   UNL A   1      33.800  28.216  22.241  1.00  0.00     0.007 C 
ATOM      5  C   UNL A   1      32.032  26.508  21.710  1.00  0.00     0.007 C 
ENDBRANCH   2   3
ENDBRANCH   1   2
BRANCH   1   6
ATOM      6  C   UNL A   1      31.661  25.527  26.740  1.00  0.00     0.328 C 
ATOM      7  O   UNL A   1      31.185  24.513  27.278  1.00  0.00    -0.250 OA
BRANCH   6   8
ATOM      8  O   UNL A   1      31.442  26.702  27.421  1.00  0.00    -0.461 OA
BRANCH   8   9
ATOM      9  C   UNL A   1      31.487  28.252  27.512  1.00  0.00     0.274 C 
BRANCH   9  10
ATOM     10  C   UNL A   1      32.415  29.404  26.547  1.00  0.00     0.275 C 
BRANCH  10  11
ATOM     11  O   UNL A   1      33.105  31.210  27.209  1.00  0.00    -0.458 OA
BRANCH  11  12
ATOM     12  C   UNL A   1      34.034  32.128  27.766  1.00  0.00     0.338 C 
ATOM     13  O   UNL A   1      33.841  33.311  28.064  1.00  0.00    -0.246 OA
BRANCH  12  14
ATOM     14  C   UNL A   1      35.359  31.597  28.152  1.00  0.00     0.060 A 
ATOM     15  C   UNL A   1      35.485  30.404  28.877  1.00  0.00     0.016 A 
ATOM     16  C   UNL A   1      36.424  32.502  28.136  1.00  0.00     0.016 A 
ATOM     17  C   UNL A   1      36.678  30.098  29.548  1.00  0.00     0.010 A 
ATOM     18  C   UNL A   1      37.614  32.200  28.803  1.00  0.00     0.010 A 
ATOM     19  C   UNL A   1      37.746  31.004  29.528  1.00  0.00    -0.014 A 
BRANCH  19  20
ATOM     20  C   UNL A   1      38.969  30.800  30.346  1.00  0.00     0.031 A 
ATOM     21  C   UNL A   1      40.035  29.862  29.850  1.00  0.00     0.074 A 
ATOM     22  C   UNL A   1      39.089  31.383  31.552  1.00  0.00     0.049 A 
ATOM     23  N   UNL A   1      41.033  29.319  30.496  1.00  0.00    -0.248 NA
ATOM     24  C   UNL A   1      39.952  29.481  28.432  1.00  0.00     0.031 C 
ATOM     25  C   UNL A   1      38.165  32.371  32.107  1.00  0.00     0.029 A 
ATOM     26  N   UNL A   1      40.021  31.200  32.544  1.00  0.00    -0.354 N 
ATOM     27  C   UNL A   1      41.683  28.506  29.574  1.00  0.00     0.074 A 
ATOM     28  C   UNL A   1      40.955  28.621  28.328  1.00  0.00     0.031 C 
ATOM     29  C   UNL A   1      38.563  32.687  33.352  1.00  0.00     0.029 A 
ATOM     30  C   UNL A   1      39.722  31.872  33.707  1.00  0.00     0.049 A 
ATOM     31  H   UNL A   1      40.825  30.643  32.433  1.00  0.00     0.167 HD
ATOM     32  C   UNL A   1      42.781  27.730  29.758  1.00  0.00     0.034 A 
ATOM     33  C   UNL A   1      40.284  31.792  34.931  1.00  0.00     0.034 A 
ATOM     34  C   UNL A   1      43.485  27.626  31.014  1.00  0.00     0.049 A 
ATOM     35  C   UNL A   1      41.437  30.837  35.144  1.00  0.00     0.074 A 
ATOM     36  C   UNL A   1      44.599  26.864  31.321  1.00  0.00     0.029 A 
ATOM     37  N   UNL A   1      43.139  28.303  32.178  1.00  0.00    -0.354 N 
ATOM     38  N   UNL A   1      42.020  30.036  34.283  1.00  0.00    -0.248 NA
ATOM     39  C   UNL A   1      42.005  30.775  36.498  1.00  0.00     0.031 C 
ATOM     40  C   UNL A   1      44.879  27.022  32.682  1.00  0.00     0.029 A 
ATOM     41  C   UNL A   1      43.997  27.952  33.209  1.00  0.00     0.049 A 
ATOM     42  H   UNL A   1      42.392  28.940  32.259  1.00  0.00     0.167 HD
ATOM     43  C   UNL A   1      43.048  29.406  34.983  1.00  0.00     0.074 A 
ATOM     44  C   UNL A   1      43.011  29.928  36.332  1.00  0.00     0.031 C 
ATOM     45  C   UNL A   1      43.948  28.485  34.550  1.00  0.00     0.034 A 
BRANCH  32  46
ATOM     46  C   UNL A   1      43.236  26.878  28.597  1.00  0.00     0.023 A 
ATOM     47  C   UNL A   1      44.347  27.226  27.809  1.00  0.00     0.031 A 
ATOM     48  C   UNL A   1      42.527  25.712  28.256  1.00  0.00     0.131 A 
ATOM     49  C   UNL A   1      44.672  26.457  26.680  1.00  0.00     0.055 A 
ATOM     50  C   UNL A   1      42.904  24.906  27.180  1.00  0.00     0.041 A 
ATOM     51  F   UNL A   1      41.443  25.341  28.955  1.00  0.00    -0.206 F 
ATOM     52  C   UNL A   1      43.974  25.285  26.375  1.00  0.00     0.022 A 
BRANCH  49  53
ATOM     53  S   UNL A   1      45.928  27.086  25.533  1.00  0.00     0.124 S 
ATOM     54  O   UNL A   1      45.290  28.302  25.036  1.00  0.00    -0.237 OA
ATOM     55  O   UNL A   1      47.082  27.278  26.403  1.00  0.00    -0.237 OA
ATOM     56  O   UNL A   1      46.061  26.014  24.548  1.00  0.00    -0.744 OA
ENDBRANCH  49  53
ENDBRANCH  32  46
BRANCH  33  57
ATOM     57  C   UNL A   1      39.732  32.576  36.076  1.00  0.00     0.023 A 
ATOM     58  C   UNL A   1      38.847  31.989  36.994  1.00  0.00     0.031 A 
ATOM     59  C   UNL A   1      40.019  33.946  36.226  1.00  0.00     0.131 A 
ATOM     60  C   UNL A   1      38.234  32.778  37.979  1.00  0.00     0.055 A 
ATOM     61  C   UNL A   1      39.456  34.712  37.248  1.00  0.00     0.041 A 
ATOM     62  F   UNL A   1      40.855  34.563  35.375  1.00  0.00    -0.206 F 
ATOM     63  C   UNL A   1      38.543  34.132  38.122  1.00  0.00     0.022 A 
BRANCH  60  64
ATOM     64  S   UNL A   1      36.935  32.033  39.004  1.00  0.00     0.124 S 
ATOM     65  O   UNL A   1      36.987  30.639  38.577  1.00  0.00    -0.237 OA
ATOM     66  O   UNL A   1      37.418  32.311  40.352  1.00  0.00    -0.237 OA
ATOM     67  O   UNL A   1      35.732  32.763  38.612  1.00  0.00    -0.744 OA
ENDBRANCH  60  64
ENDBRANCH  33  57
BRANCH  45  68
ATOM     68  C   UNL A   1      45.008  28.037  35.530  1.00  0.00     0.023 A 
ATOM     69  C   UNL A   1      44.791  26.988  36.441  1.00  0.00     0.031 A 
ATOM     70  C   UNL A   1      46.261  28.678  35.549  1.00  0.00     0.131 A 
ATOM     71  C   UNL A   1      45.790  26.645  37.365  1.00  0.00     0.055 A 
ATOM     72  C   UNL A   1      47.275  28.289  36.426  1.00  0.00     0.041 A 
ATOM     73  F   UNL A   1      46.524  29.688  34.705  1.00  0.00    -0.206 F 
ATOM     74  C   UNL A   1      47.038  27.277  37.350  1.00  0.00     0.022 A 
BRANCH  71  75
ATOM     75  S   UNL A   1      45.408  25.427  38.653  1.00  0.00     0.124 S 
ATOM     76  O   UNL A   1      44.687  24.406  37.902  1.00  0.00    -0.237 OA
ATOM     77  O   UNL A   1      46.736  25.050  39.129  1.00  0.00    -0.237 OA
ATOM     78  O   UNL A   1      44.599  26.181  39.609  1.00  0.00    -0.744 OA
ENDBRANCH  71  75
ENDBRANCH  45  68
ENDBRANCH  19  20
ENDBRANCH  12  14
ENDBRANCH  11  12
ENDBRANCH  10  11
ENDBRANCH   9  10
ENDBRANCH   8   9
ENDBRANCH   6   8
ENDBRANCH   1   6
BRANCH   1  79
ATOM     79  N   UNL A   1      31.584  24.326  24.610  1.00  0.00    -0.341 N 
ATOM     80  C   UNL A   1      31.755  23.431  23.586  1.00  0.00     0.242 C 
ATOM     81  H   UNL A   1      30.667  24.339  24.968  1.00  0.00     0.164 HD
ATOM     82  O   UNL A   1      30.842  23.322  22.767  1.00  0.00    -0.273 OA
BRANCH  80  83
ATOM     83  C   UNL A   1      32.879  22.421  23.673  1.00  0.00     0.168 C 
ATOM     84  C   UNL A   1      34.134  22.741  22.877  1.00  0.00     0.041 C 
BRANCH  83  85
ATOM     85  N   UNL A   1      32.304  21.211  23.133  1.00  0.00    -0.343 N 
ATOM     86  C   UNL A   1      32.633  19.932  23.394  1.00  0.00     0.243 C 
ATOM     87  H   UNL A   1      31.573  21.338  22.487  1.00  0.00     0.164 HD
ATOM     88  O   UNL A   1      32.097  19.073  22.686  1.00  0.00    -0.273 OA
BRANCH  86  89
ATOM     89  C   UNL A   1      33.546  19.531  24.590  1.00  0.00     0.174 C 
BRANCH  89  90
ATOM     90  N   UNL A   1      33.711  20.460  25.846  1.00  0.00    -0.343 N 
ATOM     91  C   UNL A   1      34.276  21.414  26.630  1.00  0.00     0.240 C 
ATOM     92  H   UNL A   1      32.942  20.184  26.396  1.00  0.00     0.164 HD
ATOM     93  O   UNL A   1      33.608  21.482  27.692  1.00  0.00    -0.273 OA
BRANCH  91  94
ATOM     94  C   UNL A   1      35.528  22.518  26.615  1.00  0.00     0.219 C 
BRANCH  94  95
ATOM     95  N   UNL A   1      36.973  22.593  26.140  1.00  0.00    -0.312 N 
ATOM     96  C   UNL A   1      37.771  21.643  25.467  1.00  0.00     0.407 C 
ATOM     97  H   UNL A   1      37.426  23.444  26.336  1.00  0.00     0.167 HD
ATOM     98  O   UNL A   1      37.343  21.148  24.425  1.00  0.00    -0.225 OA
BRANCH  96  99
ATOM     99  O   UNL A   1      39.141  21.443  25.801  1.00  0.00    -0.445 OA
BRANCH  99 100
ATOM    100  C   UNL A   1      40.482  21.834  26.635  1.00  0.00     0.270 C 
BRANCH 100 101
ATOM    101  C   UNL A   1      41.887  21.158  26.556  1.00  0.00    -0.011 A 
ATOM    102  C   UNL A   1      43.350  21.694  25.560  1.00  0.00     0.007 A 
ATOM    103  C   UNL A   1      41.789  19.450  27.110  1.00  0.00     0.007 A 
ATOM    104  C   UNL A   1      44.504  20.463  24.935  1.00  0.00     0.000 A 
ATOM    105  C   UNL A   1      42.995  18.267  26.544  1.00  0.00     0.000 A 
ATOM    106  C   UNL A   1      44.319  18.751  25.459  1.00  0.00     0.000 A 
ENDBRANCH 100 101
ENDBRANCH  99 100
ENDBRANCH  96  99
ENDBRANCH  94  95
ENDBRANCH  91  94
ENDBRANCH  89  90
BRANCH  89 107
ATOM    107  C   UNL A   1      33.694  17.991  24.804  1.00  0.00     0.015 C 
ATOM    108  C   UNL A   1      32.595  17.208  25.572  1.00  0.00     0.010 C 
ATOM    109  C   UNL A   1      34.122  17.251  23.532  1.00  0.00     0.010 C 
ENDBRANCH  89 107
ENDBRANCH  86  89
ENDBRANCH  83  85
ENDBRANCH  80  83
ENDBRANCH   1  79
TORSDOF 27
ENDMDL
MODEL 2
REMARK VINA RESULT:     -11.9      1.861      2.265
REMARK SMILES CC(C)C[C@H](NC(=O)[C@H](C)NC(=O)[C@@H](NC(=O)CNC(=O)OCc1ccccc1)C(C)C)C(=O)OCCOC(=O)c1ccc(-c2c3nc(c(-c4cc(S(=O)(=O)[O-])ccc4F)c4ccc([nH]4)c(-c4cc(S(=O)(=O)[O-])ccc4F)c4nc(c(-c5cc(S(=O)(=O)[O-])ccc5F)c5ccc2[nH]5)C=C4)C=C3)cc1
REMARK SMILES IDX 5 1 4 2 2 3 1 4 3 5 33 6 34 7 35 8 36 9 37 10 38 11 39 12
REMARK SMILES IDX 40 13 41 14 42 15 103 16 43 17 102 18 44 19 45 20 46 21
REMARK SMILES IDX 96 22 47 23 101 24 95 25 97 26 48 27 100 28 94 29 93 30
REMARK SMILES IDX 49 32 81 33 61 34 80 35 62 36 65 37 79 38 98 39 63 40 64 41
REMARK SMILES IDX 78 43 99 44 66 45 50 46 51 47 59 48 52 49 58 50 60 51 57 52
REMARK SMILES IDX 53 53 54 54 55 55 56 56 82 57 83 58 91 59 84 60 90 61 92 62
REMARK SMILES IDX 89 63 85 64 86 65 87 66 88 67 67 68 68 69 76 70 69 71 75 72
REMARK SMILES IDX 77 73 74 74 70 75 71 76 72 77 73 78 6 79 7 80 8 82 9 83
REMARK SMILES IDX 10 84 11 85 12 86 13 88 14 89 15 90 16 91 17 93 18 94 19 95
REMARK SMILES IDX 20 96 21 98 22 99 23 100 24 101 25 102 29 103 26 104 28 105
REMARK SMILES IDX 27 106 30 107 31 108 32 109
REMARK H PARENT 97 31 65 42 6 81 11 87 15 92 19 97
REMARK Flexibility Score: inf
ROOT
ATOM      1  C   UNL A   1      32.274  25.440  25.226  1.00  0.00     0.192 C 
ENDROOT
BRANCH   1   2
ATOM      2  C   UNL A   1      33.343  26.160  24.143  1.00  0.00     0.040 C 
BRANCH   2   3
ATOM      3  C   UNL A   1      33.514  27.758  23.497  1.00  0.00    -0.015 C 
ATOM      4  C   UNL A   1      33.945  27.827  22.009  1.00  0.00     0.007 C 
ATOM      5  C   UNL A   1      32.390  28.794  23.733  1.00  0.00     0.007 C 
ENDBRANCH   2   3
ENDBRANCH   1   2
BRANCH   1   6
ATOM      6  C   UNL A   1      31.203  26.101  26.351  1.00  0.00     0.328 C 
ATOM      7  O   UNL A   1      30.061  25.614  26.394  1.00  0.00    -0.250 OA
BRANCH   6   8
ATOM      8  O   UNL A   1      31.440  27.106  27.262  1.00  0.00    -0.461 OA
BRANCH   8   9
ATOM      9  C   UNL A   1      31.671  28.602  27.609  1.00  0.00     0.274 C 
BRANCH   9  10
ATOM     10  C   UNL A   1      31.617  30.018  26.555  1.00  0.00     0.275 C 
BRANCH  10  11
ATOM     11  O   UNL A   1      32.479  31.825  26.964  1.00  0.00    -0.458 OA
BRANCH  11  12
ATOM     12  C   UNL A   1      33.400  32.728  27.558  1.00  0.00     0.338 C 
ATOM     13  O   UNL A   1      33.181  33.877  27.954  1.00  0.00    -0.246 OA
BRANCH  12  14
ATOM     14  C   UNL A   1      34.754  32.213  27.854  1.00  0.00     0.060 A 
ATOM     15  C   UNL A   1      34.964  30.875  28.211  1.00  0.00     0.016 A 
ATOM     16  C   UNL A   1      35.731  33.165  28.162  1.00  0.00     0.016 A 
ATOM     17  C   UNL A   1      36.156  30.481  28.837  1.00  0.00     0.010 A 
ATOM     18  C   UNL A   1      36.919  32.776  28.784  1.00  0.00     0.010 A 
ATOM     19  C   UNL A   1      37.136  31.435  29.141  1.00  0.00    -0.014 A 
BRANCH  19  20
ATOM     20  C   UNL A   1      38.344  31.098  29.938  1.00  0.00     0.031 A 
ATOM     21  C   UNL A   1      39.362  30.153  29.362  1.00  0.00     0.074 A 
ATOM     22  C   UNL A   1      38.488  31.568  31.190  1.00  0.00     0.049 A 
ATOM     23  N   UNL A   1      40.328  29.505  29.959  1.00  0.00    -0.248 NA
ATOM     24  C   UNL A   1      39.265  29.900  27.917  1.00  0.00     0.031 C 
ATOM     25  C   UNL A   1      37.615  32.551  31.828  1.00  0.00     0.029 A 
ATOM     26  N   UNL A   1      39.406  31.252  32.162  1.00  0.00    -0.354 N 
ATOM     27  C   UNL A   1      40.939  28.742  28.970  1.00  0.00     0.074 A 
ATOM     28  C   UNL A   1      40.223  29.001  27.739  1.00  0.00     0.031 C 
ATOM     29  C   UNL A   1      38.023  32.737  33.096  1.00  0.00     0.029 A 
ATOM     30  C   UNL A   1      39.138  31.836  33.379  1.00  0.00     0.049 A 
ATOM     31  H   UNL A   1      40.181  30.666  32.003  1.00  0.00     0.167 HD
ATOM     32  C   UNL A   1      41.995  27.897  29.086  1.00  0.00     0.034 A 
ATOM     33  C   UNL A   1      39.689  31.622  34.592  1.00  0.00     0.034 A 
ATOM     34  C   UNL A   1      42.687  27.649  30.328  1.00  0.00     0.049 A 
ATOM     35  C   UNL A   1      40.791  30.594  34.721  1.00  0.00     0.074 A 
ATOM     36  C   UNL A   1      43.760  26.807  30.568  1.00  0.00     0.029 A 
ATOM     37  N   UNL A   1      42.372  28.240  31.546  1.00  0.00    -0.354 N 
ATOM     38  N   UNL A   1      41.336  29.840  33.793  1.00  0.00    -0.248 NA
ATOM     39  C   UNL A   1      41.350  30.386  36.064  1.00  0.00     0.031 C 
ATOM     40  C   UNL A   1      44.042  26.832  31.937  1.00  0.00     0.029 A 
ATOM     41  C   UNL A   1      43.207  27.758  32.542  1.00  0.00     0.049 A 
ATOM     42  H   UNL A   1      41.658  28.905  31.682  1.00  0.00     0.167 HD
ATOM     43  C   UNL A   1      42.327  29.101  34.436  1.00  0.00     0.074 A 
ATOM     44  C   UNL A   1      42.311  29.506  35.825  1.00  0.00     0.031 C 
ATOM     45  C   UNL A   1      43.180  28.175  33.925  1.00  0.00     0.034 A 
BRANCH  32  46
ATOM     46  C   UNL A   1      42.410  27.126  27.856  1.00  0.00     0.023 A 
ATOM     47  C   UNL A   1      43.729  27.152  27.370  1.00  0.00     0.031 A 
ATOM     48  C   UNL A   1      41.461  26.376  27.139  1.00  0.00     0.131 A 
ATOM     49  C   UNL A   1      44.045  26.501  26.168  1.00  0.00     0.055 A 
ATOM     50  C   UNL A   1      41.799  25.662  25.987  1.00  0.00     0.041 A 
ATOM     51  F   UNL A   1      40.180  26.332  27.538  1.00  0.00    -0.206 F 
ATOM     52  C   UNL A   1      43.095  25.734  25.486  1.00  0.00     0.022 A 
BRANCH  49  53
ATOM     53  S   UNL A   1      45.677  26.785  25.429  1.00  0.00     0.124 S 
ATOM     54  O   UNL A   1      46.554  26.639  26.588  1.00  0.00    -0.237 OA
ATOM     55  O   UNL A   1      45.758  25.730  24.426  1.00  0.00    -0.237 OA
ATOM     56  O   UNL A   1      45.581  28.144  24.898  1.00  0.00    -0.744 OA
ENDBRANCH  49  53
ENDBRANCH  32  46
BRANCH  33  57
ATOM     57  C   UNL A   1      39.175  32.331  35.800  1.00  0.00     0.023 A 
ATOM     58  C   UNL A   1      39.594  33.636  36.105  1.00  0.00     0.031 A 
ATOM     59  C   UNL A   1      38.317  31.688  36.712  1.00  0.00     0.131 A 
ATOM     60  C   UNL A   1      39.207  34.231  37.316  1.00  0.00     0.055 A 
ATOM     61  C   UNL A   1      37.883  32.310  37.884  1.00  0.00     0.041 A 
ATOM     62  F   UNL A   1      37.887  30.438  36.476  1.00  0.00    -0.206 F 
ATOM     63  C   UNL A   1      38.343  33.584  38.200  1.00  0.00     0.022 A 
BRANCH  60  64
ATOM     64  S   UNL A   1      39.943  35.826  37.773  1.00  0.00     0.124 S 
ATOM     65  O   UNL A   1      39.837  36.568  36.522  1.00  0.00    -0.237 OA
ATOM     66  O   UNL A   1      39.069  36.261  38.857  1.00  0.00    -0.237 OA
ATOM     67  O   UNL A   1      41.302  35.469  38.175  1.00  0.00    -0.744 OA
ENDBRANCH  60  64
ENDBRANCH  33  57
BRANCH  45  68
ATOM     68  C   UNL A   1      44.212  27.590  34.862  1.00  0.00     0.023 A 
ATOM     69  C   UNL A   1      45.456  28.205  35.084  1.00  0.00     0.031 A 
ATOM     70  C   UNL A   1      43.937  26.391  35.547  1.00  0.00     0.131 A 
ATOM     71  C   UNL A   1      46.399  27.594  35.925  1.00  0.00     0.055 A 
ATOM     72  C   UNL A   1      44.853  25.822  36.432  1.00  0.00     0.041 A 
ATOM     73  F   UNL A   1      42.766  25.757  35.372  1.00  0.00    -0.206 F 
ATOM     74  C   UNL A   1      46.097  26.416  36.616  1.00  0.00     0.022 A 
BRANCH  71  75
ATOM     75  S   UNL A   1      48.064  28.305  36.034  1.00  0.00     0.124 S 
ATOM     76  O   UNL A   1      48.846  27.374  35.229  1.00  0.00    -0.237 OA
ATOM     77  O   UNL A   1      47.872  29.636  35.464  1.00  0.00    -0.237 OA
ATOM     78  O   UNL A   1      48.354  28.282  37.467  1.00  0.00    -0.744 OA
ENDBRANCH  71  75
ENDBRANCH  45  68
ENDBRANCH  19  20
ENDBRANCH  12  14
ENDBRANCH  11  12
ENDBRANCH  10  11
ENDBRANCH   9  10
ENDBRANCH   8   9
ENDBRANCH   6   8
ENDBRANCH   1   6
BRANCH   1  79
ATOM     79  N   UNL A   1      31.365  24.407  24.594  1.00  0.00    -0.341 N 
ATOM     80  C   UNL A   1      31.540  23.495  23.585  1.00  0.00     0.242 C 
ATOM     81  H   UNL A   1      30.463  24.385  24.988  1.00  0.00     0.164 HD
ATOM     82  O   UNL A   1      30.602  23.322  22.806  1.00  0.00    -0.273 OA
BRANCH  80  83
ATOM     83  C   UNL A   1      32.715  22.543  23.651  1.00  0.00     0.168 C 
ATOM     84  C   UNL A   1      33.935  22.924  22.828  1.00  0.00     0.041 C 
BRANCH  83  85
ATOM     85  N   UNL A   1      32.190  21.304  23.125  1.00  0.00    -0.343 N 
ATOM     86  C   UNL A   1      32.546  20.042  23.427  1.00  0.00     0.243 C 
ATOM     87  H   UNL A   1      31.474  21.395  22.455  1.00  0.00     0.164 HD
ATOM     88  O   UNL A   1      32.056  19.152  22.725  1.00  0.00    -0.273 OA
BRANCH  86  89
ATOM     89  C   UNL A   1      33.436  19.697  24.657  1.00  0.00     0.174 C 
BRANCH  89  90
ATOM     90  N   UNL A   1      33.555  20.670  25.884  1.00  0.00    -0.343 N 
ATOM     91  C   UNL A   1      34.115  21.620  26.676  1.00  0.00     0.240 C 
ATOM     92  H   UNL A   1      32.726  20.469  26.375  1.00  0.00     0.164 HD
ATOM     93  O   UNL A   1      33.365  21.780  27.671  1.00  0.00    -0.273 OA
BRANCH  91  94
ATOM     94  C   UNL A   1      35.436  22.639  26.727  1.00  0.00     0.219 C 
BRANCH  94  95
ATOM     95  N   UNL A   1      36.806  22.760  26.073  1.00  0.00    -0.312 N 
ATOM     96  C   UNL A   1      37.763  21.772  25.751  1.00  0.00     0.407 C 
ATOM     97  H   UNL A   1      37.070  23.678  25.836  1.00  0.00     0.167 HD
ATOM     98  O   UNL A   1      37.407  20.807  25.076  1.00  0.00    -0.225 OA
BRANCH  96  99
ATOM     99  O   UNL A   1      39.156  21.986  25.949  1.00  0.00    -0.445 OA
BRANCH  99 100
ATOM    100  C   UNL A   1      40.633  21.473  26.399  1.00  0.00     0.270 C 
BRANCH 100 101
ATOM    101  C   UNL A   1      41.915  22.335  26.629  1.00  0.00    -0.011 A 
ATOM    102  C   UNL A   1      43.505  22.281  25.686  1.00  0.00     0.007 A 
ATOM    103  C   UNL A   1      41.911  23.025  28.290  1.00  0.00     0.007 A 
ATOM    104  C   UNL A   1      45.053  22.661  26.522  1.00  0.00     0.000 A 
ATOM    105  C   UNL A   1      43.452  23.473  29.064  1.00  0.00     0.000 A 
ATOM    106  C   UNL A   1      45.001  23.278  28.211  1.00  0.00     0.000 A 
ENDBRANCH 100 101
ENDBRANCH  99 100
ENDBRANCH  96  99
ENDBRANCH  94  95
ENDBRANCH  91  94
ENDBRANCH  89  90
BRANCH  89 107
ATOM    107  C   UNL A   1      33.602  18.167  24.927  1.00  0.00     0.015 C 
ATOM    108  C   UNL A   1      32.357  17.303  25.267  1.00  0.00     0.010 C 
ATOM    109  C   UNL A   1      34.499  17.474  23.896  1.00  0.00     0.010 C 
ENDBRANCH  89 107
ENDBRANCH  86  89
ENDBRANCH  83  85
ENDBRANCH  80  83
ENDBRANCH   1  79
TORSDOF 27
ENDMDL
MODEL 3
REMARK VINA RESULT:     -10.2      2.294      7.687
REMARK SMILES CC(C)C[C@H](NC(=O)[C@H](C)NC(=O)[C@@H](NC(=O)CNC(=O)OCc1ccccc1)C(C)C)C(=O)OCCOC(=O)c1ccc(-c2c3nc(c(-c4cc(S(=O)(=O)[O-])ccc4F)c4ccc([nH]4)c(-c4cc(S(=O)(=O)[O-])ccc4F)c4nc(c(-c5cc(S(=O)(=O)[O-])ccc5F)c5ccc2[nH]5)C=C4)C=C3)cc1
REMARK SMILES IDX 5 1 4 2 2 3 1 4 3 5 33 6 34 7 35 8 36 9 37 10 38 11 39 12
REMARK SMILES IDX 40 13 41 14 42 15 103 16 43 17 102 18 44 19 45 20 46 21
REMARK SMILES IDX 96 22 47 23 101 24 95 25 97 26 48 27 100 28 94 29 93 30
REMARK SMILES IDX 49 32 81 33 61 34 80 35 62 36 65 37 79 38 98 39 63 40 64 41
REMARK SMILES IDX 78 43 99 44 66 45 50 46 51 47 59 48 52 49 58 50 60 51 57 52
REMARK SMILES IDX 53 53 54 54 55 55 56 56 82 57 83 58 91 59 84 60 90 61 92 62
REMARK SMILES IDX 89 63 85 64 86 65 87 66 88 67 67 68 68 69 76 70 69 71 75 72
REMARK SMILES IDX 77 73 74 74 70 75 71 76 72 77 73 78 6 79 7 80 8 82 9 83
REMARK SMILES IDX 10 84 11 85 12 86 13 88 14 89 15 90 16 91 17 93 18 94 19 95
REMARK SMILES IDX 20 96 21 98 22 99 23 100 24 101 25 102 29 103 26 104 28 105
REMARK SMILES IDX 27 106 30 107 31 108 32 109
REMARK H PARENT 97 31 65 42 6 81 11 87 15 92 19 97
REMARK Flexibility Score: inf
ROOT
ATOM      1  C   UNL A   1      30.883  28.120  23.131  1.00  0.00     0.192 C 
ENDROOT
BRANCH   1   2
ATOM      2  C   UNL A   1      29.334  27.469  23.227  1.00  0.00     0.040 C 
BRANCH   2   3
ATOM      3  C   UNL A   1      27.737  28.122  23.069  1.00  0.00    -0.015 C 
ATOM      4  C   UNL A   1      26.664  27.467  23.977  1.00  0.00     0.007 C 
ATOM      5  C   UNL A   1      27.540  29.655  23.100  1.00  0.00     0.007 C 
ENDBRANCH   2   3
ENDBRANCH   1   2
BRANCH   1   6
ATOM      6  C   UNL A   1      31.602  29.423  23.928  1.00  0.00     0.328 C 
ATOM      7  O   UNL A   1      32.784  29.678  23.638  1.00  0.00    -0.250 OA
BRANCH   6   8
ATOM      8  O   UNL A   1      31.036  30.273  24.852  1.00  0.00    -0.461 OA
BRANCH   8   9
ATOM      9  C   UNL A   1      31.080  31.551  25.732  1.00  0.00     0.274 C 
BRANCH   9  10
ATOM     10  C   UNL A   1      31.763  31.778  27.345  1.00  0.00     0.275 C 
BRANCH  10  11
ATOM     11  O   UNL A   1      33.223  33.124  27.828  1.00  0.00    -0.458 OA
BRANCH  11  12
ATOM     12  C   UNL A   1      34.505  33.732  27.782  1.00  0.00     0.338 C 
ATOM     13  O   UNL A   1      34.769  34.922  27.581  1.00  0.00    -0.246 OA
BRANCH  12  14
ATOM     14  C   UNL A   1      35.667  32.886  28.128  1.00  0.00     0.060 A 
ATOM     15  C   UNL A   1      35.515  31.527  28.433  1.00  0.00     0.016 A 
ATOM     16  C   UNL A   1      36.827  33.552  28.532  1.00  0.00     0.016 A 
ATOM     17  C   UNL A   1      36.529  30.828  29.104  1.00  0.00     0.010 A 
ATOM     18  C   UNL A   1      37.839  32.859  29.200  1.00  0.00     0.010 A 
ATOM     19  C   UNL A   1      37.693  31.496  29.506  1.00  0.00    -0.014 A 
BRANCH  19  20
ATOM     20  C   UNL A   1      38.726  30.843  30.351  1.00  0.00     0.031 A 
ATOM     21  C   UNL A   1      38.810  31.197  31.810  1.00  0.00     0.074 A 
ATOM     22  C   UNL A   1      39.627  30.007  29.805  1.00  0.00     0.049 A 
ATOM     23  N   UNL A   1      39.775  30.981  32.665  1.00  0.00    -0.248 NA
ATOM     24  C   UNL A   1      37.647  31.899  32.373  1.00  0.00     0.031 C 
ATOM     25  C   UNL A   1      39.602  29.525  28.425  1.00  0.00     0.029 A 
ATOM     26  N   UNL A   1      40.760  29.442  30.338  1.00  0.00    -0.354 N 
ATOM     27  C   UNL A   1      39.352  31.546  33.864  1.00  0.00     0.074 A 
ATOM     28  C   UNL A   1      38.048  32.125  33.616  1.00  0.00     0.031 C 
ATOM     29  C   UNL A   1      40.686  28.759  28.212  1.00  0.00     0.029 A 
ATOM     30  C   UNL A   1      41.515  28.756  29.415  1.00  0.00     0.049 A 
ATOM     31  H   UNL A   1      41.006  29.521  31.288  1.00  0.00     0.167 HD
ATOM     32  C   UNL A   1      40.001  31.585  35.055  1.00  0.00     0.034 A 
ATOM     33  C   UNL A   1      42.758  28.238  29.515  1.00  0.00     0.034 A 
ATOM     34  C   UNL A   1      41.305  31.006  35.274  1.00  0.00     0.049 A 
ATOM     35  C   UNL A   1      43.509  28.388  30.819  1.00  0.00     0.074 A 
ATOM     36  C   UNL A   1      42.062  30.994  36.433  1.00  0.00     0.029 A 
ATOM     37  N   UNL A   1      42.051  30.339  34.310  1.00  0.00    -0.354 N 
ATOM     38  N   UNL A   1      43.126  28.964  31.935  1.00  0.00    -0.248 NA
ATOM     39  C   UNL A   1      44.863  27.821  30.873  1.00  0.00     0.031 C 
ATOM     40  C   UNL A   1      43.291  30.390  36.149  1.00  0.00     0.029 A 
ATOM     41  C   UNL A   1      43.270  29.942  34.838  1.00  0.00     0.049 A 
ATOM     42  H   UNL A   1      41.757  30.174  33.384  1.00  0.00     0.167 HD
ATOM     43  C   UNL A   1      44.177  28.791  32.834  1.00  0.00     0.074 A 
ATOM     44  C   UNL A   1      45.203  28.050  32.133  1.00  0.00     0.031 C 
ATOM     45  C   UNL A   1      44.283  29.200  34.126  1.00  0.00     0.034 A 
BRANCH  32  46
ATOM     46  C   UNL A   1      39.341  32.339  36.184  1.00  0.00     0.023 A 
ATOM     47  C   UNL A   1      39.714  33.652  36.522  1.00  0.00     0.031 A 
ATOM     48  C   UNL A   1      38.340  31.722  36.956  1.00  0.00     0.131 A 
ATOM     49  C   UNL A   1      39.143  34.277  37.642  1.00  0.00     0.055 A 
ATOM     50  C   UNL A   1      37.716  32.379  38.020  1.00  0.00     0.041 A 
ATOM     51  F   UNL A   1      37.957  30.462  36.699  1.00  0.00    -0.206 F 
ATOM     52  C   UNL A   1      38.127  33.659  38.378  1.00  0.00     0.022 A 
BRANCH  49  53
ATOM     53  S   UNL A   1      39.844  35.849  38.211  1.00  0.00     0.124 S 
ATOM     54  O   UNL A   1      39.722  36.677  37.014  1.00  0.00    -0.237 OA
ATOM     55  O   UNL A   1      38.970  36.200  39.324  1.00  0.00    -0.237 OA
ATOM     56  O   UNL A   1      41.215  35.499  38.580  1.00  0.00    -0.744 OA
ENDBRANCH  49  53
ENDBRANCH  32  46
BRANCH  33  57
ATOM     57  C   UNL A   1      43.411  27.592  28.338  1.00  0.00     0.023 A 
ATOM     58  C   UNL A   1      43.727  26.224  28.348  1.00  0.00     0.031 A 
ATOM     59  C   UNL A   1      43.803  28.347  27.217  1.00  0.00     0.131 A 
ATOM     60  C   UNL A   1      44.464  25.667  27.291  1.00  0.00     0.055 A 
ATOM     61  C   UNL A   1      44.480  27.774  26.139  1.00  0.00     0.041 A 
ATOM     62  F   UNL A   1      43.533  29.661  27.154  1.00  0.00    -0.206 F 
ATOM     63  C   UNL A   1      44.830  26.429  26.180  1.00  0.00     0.022 A 
BRANCH  60  64
ATOM     64  S   UNL A   1      45.039  23.953  27.443  1.00  0.00     0.124 S 
ATOM     65  O   UNL A   1      44.370  23.526  28.667  1.00  0.00    -0.237 OA
ATOM     66  O   UNL A   1      44.550  23.361  26.203  1.00  0.00    -0.237 OA
ATOM     67  O   UNL A   1      46.490  24.088  27.538  1.00  0.00    -0.744 OA
ENDBRANCH  60  64
ENDBRANCH  33  57
BRANCH  45  68
ATOM     68  C   UNL A   1      45.527  28.792  34.882  1.00  0.00     0.023 A 
ATOM     69  C   UNL A   1      45.610  27.580  35.589  1.00  0.00     0.031 A 
ATOM     70  C   UNL A   1      46.651  29.639  34.890  1.00  0.00     0.131 A 
ATOM     71  C   UNL A   1      46.769  27.272  36.317  1.00  0.00     0.055 A 
ATOM     72  C   UNL A   1      47.826  29.298  35.562  1.00  0.00     0.041 A 
ATOM     73  F   UNL A   1      46.629  30.811  34.235  1.00  0.00    -0.206 F 
ATOM     74  C   UNL A   1      47.885  28.115  36.292  1.00  0.00     0.022 A 
BRANCH  71  75
ATOM     75  S   UNL A   1      46.770  25.801  37.378  1.00  0.00     0.124 S 
ATOM     76  O   UNL A   1      45.380  25.740  37.816  1.00  0.00    -0.237 OA
ATOM     77  O   UNL A   1      47.195  24.752  36.456  1.00  0.00    -0.237 OA
ATOM     78  O   UNL A   1      47.736  26.133  38.424  1.00  0.00    -0.744 OA
ENDBRANCH  71  75
ENDBRANCH  45  68
ENDBRANCH  19  20
ENDBRANCH  12  14
ENDBRANCH  11  12
ENDBRANCH  10  11
ENDBRANCH   9  10
ENDBRANCH   8   9
ENDBRANCH   6   8
ENDBRANCH   1   6
BRANCH   1  79
ATOM     79  N   UNL A   1      31.988  27.096  23.279  1.00  0.00    -0.341 N 
ATOM     80  C   UNL A   1      32.982  26.917  24.206  1.00  0.00     0.242 C 
ATOM     81  H   UNL A   1      31.996  26.421  22.563  1.00  0.00     0.164 HD
ATOM     82  O   UNL A   1      34.087  26.562  23.795  1.00  0.00    -0.273 OA
BRANCH  80  83
ATOM     83  C   UNL A   1      32.615  26.856  25.674  1.00  0.00     0.168 C 
ATOM     84  C   UNL A   1      33.031  28.048  26.520  1.00  0.00     0.041 C 
BRANCH  83  85
ATOM     85  N   UNL A   1      33.319  25.693  26.162  1.00  0.00    -0.343 N 
ATOM     86  C   UNL A   1      32.881  24.424  26.265  1.00  0.00     0.243 C 
ATOM     87  H   UNL A   1      34.244  25.849  26.460  1.00  0.00     0.164 HD
ATOM     88  O   UNL A   1      33.622  23.636  26.861  1.00  0.00    -0.273 OA
BRANCH  86  89
ATOM     89  C   UNL A   1      31.571  23.934  25.579  1.00  0.00     0.174 C 
BRANCH  89  90
ATOM     90  N   UNL A   1      31.599  22.899  24.399  1.00  0.00    -0.343 N 
ATOM     91  C   UNL A   1      31.926  21.751  23.750  1.00  0.00     0.240 C 
ATOM     92  H   UNL A   1      31.051  23.357  23.722  1.00  0.00     0.164 HD
ATOM     93  O   UNL A   1      31.432  21.809  22.596  1.00  0.00    -0.273 OA
BRANCH  91  94
ATOM     94  C   UNL A   1      32.730  20.311  24.007  1.00  0.00     0.219 C 
BRANCH  94  95
ATOM     95  N   UNL A   1      34.106  19.841  24.461  1.00  0.00    -0.312 N 
ATOM     96  C   UNL A   1      35.087  20.488  25.243  1.00  0.00     0.407 C 
ATOM     97  H   UNL A   1      34.352  18.938  24.159  1.00  0.00     0.167 HD
ATOM     98  O   UNL A   1      34.761  20.940  26.340  1.00  0.00    -0.225 OA
BRANCH  96  99
ATOM     99  O   UNL A   1      36.473  20.399  24.929  1.00  0.00    -0.445 OA
BRANCH  99 100
ATOM    100  C   UNL A   1      38.001  20.951  25.026  1.00  0.00     0.270 C 
BRANCH 100 101
ATOM    101  C   UNL A   1      38.583  21.977  26.049  1.00  0.00    -0.011 A 
ATOM    102  C   UNL A   1      38.147  23.764  26.238  1.00  0.00     0.007 A 
ATOM    103  C   UNL A   1      40.158  21.393  26.690  1.00  0.00     0.007 A 
ATOM    104  C   UNL A   1      39.393  24.932  26.806  1.00  0.00     0.000 A 
ATOM    105  C   UNL A   1      41.342  22.563  27.325  1.00  0.00     0.000 A 
ATOM    106  C   UNL A   1      40.983  24.305  27.366  1.00  0.00     0.000 A 
ENDBRANCH 100 101
ENDBRANCH  99 100
ENDBRANCH  96  99
ENDBRANCH  94  95
ENDBRANCH  91  94
ENDBRANCH  89  90
BRANCH  89 107
ATOM    107  C   UNL A   1      30.313  23.943  26.506  1.00  0.00     0.015 C 
ATOM    108  C   UNL A   1      29.167  24.957  26.243  1.00  0.00     0.010 C 
ATOM    109  C   UNL A   1      29.765  22.538  26.779  1.00  0.00     0.010 C 
ENDBRANCH  89 107
ENDBRANCH  86  89
ENDBRANCH  83  85
ENDBRANCH  80  83
ENDBRANCH   1  79
TORSDOF 27
ENDMDL
