MODEL 1
REMARK VINA RESULT:     -13.2      0.000      0.000
REMARK SMILES O=C(OCCOC(=O)c1cc(S(=O)(=O)NCc2ccncc2)c(Cl)cc1Cl)c1ccc(-c2c3nc(c(-c4cc(S(=O)(=O)[O-])ccc4F)c4ccc([nH]4)c(-c4cc(S(=O)(=O)[O-])ccc4F)c4nc(c(-c5cc(S(=O)(=O)[O-])ccc5F)c5ccc2[nH]5)C=C4)C=C3)cc1
REMARK SMILES IDX 5 1 4 2 3 3 2 4 1 5 28 6 29 7 90 8 30 9 89 10 31 11 32 12
REMARK SMILES IDX 33 13 83 14 34 15 88 16 82 17 84 18 35 19 87 20 81 21 80 22
REMARK SMILES IDX 36 24 68 25 48 26 67 27 49 28 52 29 66 30 85 31 50 32 51 33
REMARK SMILES IDX 65 35 86 36 53 37 37 38 38 39 46 40 39 41 45 42 47 43 44 44
REMARK SMILES IDX 40 45 41 46 42 47 43 48 69 49 70 50 78 51 71 52 77 53 79 54
REMARK SMILES IDX 76 55 72 56 73 57 74 58 75 59 54 60 55 61 63 62 56 63 62 64
REMARK SMILES IDX 64 65 61 66 57 67 58 68 59 69 60 70 6 71 7 72 8 73 9 74
REMARK SMILES IDX 10 75 26 76 11 77 25 78 27 79 23 80 24 81 12 82 13 83 14 84
REMARK SMILES IDX 15 85 16 87 17 88 18 89 22 90 19 91 21 92 20 93
REMARK H PARENT 84 23 52 34 15 86
REMARK Flexibility Score: inf
ROOT
ATOM      1  C   UNL A   1      36.405  21.748  24.804  1.00  0.00     0.275 C 
ENDROOT
BRANCH   1   2
ATOM      2  C   UNL A   1      37.176  22.233  26.044  1.00  0.00     0.275 C 
BRANCH   2   3
ATOM      3  O   UNL A   1      38.611  22.238  25.908  1.00  0.00    -0.458 OA
BRANCH   3   4
ATOM      4  C   UNL A   1      39.480  22.640  26.874  1.00  0.00     0.338 C 
ATOM      5  O   UNL A   1      40.036  21.831  27.608  1.00  0.00    -0.246 OA
BRANCH   4   6
ATOM      6  C   UNL A   1      39.535  24.083  27.198  1.00  0.00     0.060 A 
ATOM      7  C   UNL A   1      39.204  24.628  28.449  1.00  0.00     0.016 A 
ATOM      8  C   UNL A   1      40.003  24.913  26.186  1.00  0.00     0.016 A 
ATOM      9  C   UNL A   1      39.518  25.959  28.757  1.00  0.00     0.010 A 
ATOM     10  C   UNL A   1      40.276  26.239  26.481  1.00  0.00     0.010 A 
ATOM     11  C   UNL A   1      40.090  26.764  27.780  1.00  0.00    -0.014 A 
BRANCH  11  12
ATOM     12  C   UNL A   1      40.282  28.233  27.909  1.00  0.00     0.031 A 
ATOM     13  C   UNL A   1      41.979  28.496  27.940  1.00  0.00     0.074 A 
ATOM     14  C   UNL A   1      39.149  29.024  28.140  1.00  0.00     0.049 A 
ATOM     15  N   UNL A   1      42.755  29.378  28.539  1.00  0.00    -0.248 NA
ATOM     16  C   UNL A   1      42.850  27.489  27.295  1.00  0.00     0.031 C 
ATOM     17  C   UNL A   1      37.676  28.944  27.947  1.00  0.00     0.029 A 
ATOM     18  N   UNL A   1      39.110  30.225  28.784  1.00  0.00    -0.354 N 
ATOM     19  C   UNL A   1      44.094  29.205  28.252  1.00  0.00     0.074 A 
ATOM     20  C   UNL A   1      44.085  27.888  27.628  1.00  0.00     0.031 C 
ATOM     21  C   UNL A   1      37.044  30.104  28.386  1.00  0.00     0.029 A 
ATOM     22  C   UNL A   1      38.027  31.068  28.901  1.00  0.00     0.049 A 
ATOM     23  H   UNL A   1      39.945  30.520  29.213  1.00  0.00     0.167 HD
ATOM     24  C   UNL A   1      45.153  30.102  28.361  1.00  0.00     0.034 A 
ATOM     25  C   UNL A   1      38.108  32.364  29.431  1.00  0.00     0.034 A 
ATOM     26  C   UNL A   1      45.123  31.558  28.804  1.00  0.00     0.049 A 
ATOM     27  C   UNL A   1      39.472  33.389  29.675  1.00  0.00     0.074 A 
ATOM     28  C   UNL A   1      45.858  32.613  28.268  1.00  0.00     0.029 A 
ATOM     29  N   UNL A   1      44.252  32.237  29.724  1.00  0.00    -0.354 N 
ATOM     30  N   UNL A   1      40.757  33.177  29.959  1.00  0.00    -0.248 NA
ATOM     31  C   UNL A   1      39.259  34.848  29.540  1.00  0.00     0.031 C 
ATOM     32  C   UNL A   1      45.227  33.840  28.613  1.00  0.00     0.029 A 
ATOM     33  C   UNL A   1      44.047  33.589  29.329  1.00  0.00     0.049 A 
ATOM     34  H   UNL A   1      43.850  31.822  30.522  1.00  0.00     0.167 HD
ATOM     35  C   UNL A   1      41.527  34.338  29.762  1.00  0.00     0.074 A 
ATOM     36  C   UNL A   1      40.493  35.364  29.635  1.00  0.00     0.031 C 
ATOM     37  C   UNL A   1      42.891  34.555  29.551  1.00  0.00     0.034 A 
BRANCH  24  38
ATOM     38  C   UNL A   1      46.433  29.646  27.658  1.00  0.00     0.023 A 
ATOM     39  C   UNL A   1      46.440  29.215  26.312  1.00  0.00     0.031 A 
ATOM     40  C   UNL A   1      47.664  29.643  28.331  1.00  0.00     0.131 A 
ATOM     41  C   UNL A   1      47.578  28.614  25.759  1.00  0.00     0.055 A 
ATOM     42  C   UNL A   1      48.833  29.159  27.729  1.00  0.00     0.041 A 
ATOM     43  F   UNL A   1      47.753  30.090  29.593  1.00  0.00    -0.206 F 
ATOM     44  C   UNL A   1      48.785  28.600  26.454  1.00  0.00     0.022 A 
BRANCH  41  45
ATOM     45  S   UNL A   1      47.386  27.628  24.242  1.00  0.00     0.124 S 
ATOM     46  O   UNL A   1      46.953  28.639  23.277  1.00  0.00    -0.237 OA
ATOM     47  O   UNL A   1      48.726  27.090  24.044  1.00  0.00    -0.237 OA
ATOM     48  O   UNL A   1      46.360  26.652  24.601  1.00  0.00    -0.744 OA
ENDBRANCH  41  45
ENDBRANCH  24  38
BRANCH  25  49
ATOM     49  C   UNL A   1      36.859  33.006  29.907  1.00  0.00     0.023 A 
ATOM     50  C   UNL A   1      36.516  33.091  31.258  1.00  0.00     0.031 A 
ATOM     51  C   UNL A   1      35.900  33.387  28.949  1.00  0.00     0.131 A 
ATOM     52  C   UNL A   1      35.235  33.550  31.610  1.00  0.00     0.055 A 
ATOM     53  C   UNL A   1      34.664  33.917  29.306  1.00  0.00     0.041 A 
ATOM     54  F   UNL A   1      36.114  33.162  27.644  1.00  0.00    -0.206 F 
ATOM     55  C   UNL A   1      34.322  33.997  30.648  1.00  0.00     0.022 A 
BRANCH  52  56
ATOM     56  S   UNL A   1      34.730  33.463  33.347  1.00  0.00     0.124 S 
ATOM     57  O   UNL A   1      33.338  33.042  33.223  1.00  0.00    -0.237 OA
ATOM     58  O   UNL A   1      35.653  32.470  33.885  1.00  0.00    -0.237 OA
ATOM     59  O   UNL A   1      34.934  34.827  33.829  1.00  0.00    -0.744 OA
ENDBRANCH  52  56
ENDBRANCH  25  49
BRANCH  37  60
ATOM     60  C   UNL A   1      43.248  36.020  29.210  1.00  0.00     0.023 A 
ATOM     61  C   UNL A   1      43.712  36.926  30.181  1.00  0.00     0.031 A 
ATOM     62  C   UNL A   1      43.194  36.479  27.874  1.00  0.00     0.131 A 
ATOM     63  C   UNL A   1      44.107  38.230  29.803  1.00  0.00     0.055 A 
ATOM     64  C   UNL A   1      43.614  37.761  27.501  1.00  0.00     0.041 A 
ATOM     65  F   UNL A   1      42.779  35.662  26.893  1.00  0.00    -0.206 F 
ATOM     66  C   UNL A   1      44.077  38.646  28.469  1.00  0.00     0.022 A 
BRANCH  63  67
ATOM     67  S   UNL A   1      44.685  39.392  31.079  1.00  0.00     0.124 S 
ATOM     68  O   UNL A   1      43.432  39.824  31.688  1.00  0.00    -0.237 OA
ATOM     69  O   UNL A   1      45.540  38.548  31.907  1.00  0.00    -0.237 OA
ATOM     70  O   UNL A   1      45.392  40.422  30.318  1.00  0.00    -0.744 OA
ENDBRANCH  63  67
ENDBRANCH  37  60
ENDBRANCH  11  12
ENDBRANCH   4   6
ENDBRANCH   3   4
ENDBRANCH   2   3
ENDBRANCH   1   2
BRANCH   1  71
ATOM     71  O   UNL A   1      35.053  22.253  24.741  1.00  0.00    -0.458 OA
BRANCH  71  72
ATOM     72  C   UNL A   1      34.785  23.185  23.791  1.00  0.00     0.339 C 
ATOM     73  O   UNL A   1      35.423  23.359  22.752  1.00  0.00    -0.246 OA
BRANCH  72  74
ATOM     74  C   UNL A   1      33.520  23.900  24.115  1.00  0.00     0.080 A 
ATOM     75  C   UNL A   1      33.493  25.161  24.772  1.00  0.00     0.040 A 
ATOM     76  C   UNL A   1      32.311  23.332  23.722  1.00  0.00     0.057 A 
ATOM     77  C   UNL A   1      32.265  25.807  25.172  1.00  0.00     0.102 A 
ATOM     78  C   UNL A   1      31.109  23.973  24.050  1.00  0.00     0.043 A 
ATOM     79  Cl  UNL A   1      32.225  21.841  22.846  1.00  0.00    -0.083 Cl
ATOM     80  C   UNL A   1      31.077  25.187  24.778  1.00  0.00     0.062 A 
ATOM     81  Cl  UNL A   1      29.509  25.790  25.158  1.00  0.00    -0.083 Cl
BRANCH  77  82
ATOM     82  S   UNL A   1      32.296  27.587  25.570  1.00  0.00     0.242 S 
ATOM     83  O   UNL A   1      31.878  27.571  26.956  1.00  0.00    -0.207 OA
ATOM     84  O   UNL A   1      33.650  28.042  25.313  1.00  0.00    -0.207 OA
BRANCH  82  85
ATOM     85  N   UNL A   1      31.251  28.749  24.744  1.00  0.00    -0.207 NA
ATOM     86  H   UNL A   1      31.890  29.529  24.586  1.00  0.00     0.141 HD
BRANCH  85  87
ATOM     87  C   UNL A   1      30.276  28.818  23.369  1.00  0.00     0.134 C 
BRANCH  87  88
ATOM     88  C   UNL A   1      29.329  30.199  22.653  1.00  0.00    -0.030 A 
ATOM     89  C   UNL A   1      28.714  30.537  21.416  1.00  0.00     0.025 A 
ATOM     90  C   UNL A   1      29.175  31.321  23.437  1.00  0.00     0.025 A 
ATOM     91  C   UNL A   1      28.107  31.779  21.113  1.00  0.00     0.111 A 
ATOM     92  C   UNL A   1      28.533  32.531  23.142  1.00  0.00     0.111 A 
ATOM     93  N   UNL A   1      27.998  32.798  21.959  1.00  0.00    -0.265 NA
ENDBRANCH  87  88
ENDBRANCH  85  87
ENDBRANCH  82  85
ENDBRANCH  77  82
ENDBRANCH  72  74
ENDBRANCH  71  72
ENDBRANCH   1  71
TORSDOF 18
ENDMDL
MODEL 2
REMARK VINA RESULT:     -13.1      5.025     10.478
REMARK SMILES O=C(OCCOC(=O)c1cc(S(=O)(=O)NCc2ccncc2)c(Cl)cc1Cl)c1ccc(-c2c3nc(c(-c4cc(S(=O)(=O)[O-])ccc4F)c4ccc([nH]4)c(-c4cc(S(=O)(=O)[O-])ccc4F)c4nc(c(-c5cc(S(=O)(=O)[O-])ccc5F)c5ccc2[nH]5)C=C4)C=C3)cc1
REMARK SMILES IDX 5 1 4 2 3 3 2 4 1 5 28 6 29 7 90 8 30 9 89 10 31 11 32 12
REMARK SMILES IDX 33 13 83 14 34 15 88 16 82 17 84 18 35 19 87 20 81 21 80 22
REMARK SMILES IDX 36 24 68 25 48 26 67 27 49 28 52 29 66 30 85 31 50 32 51 33
REMARK SMILES IDX 65 35 86 36 53 37 37 38 38 39 46 40 39 41 45 42 47 43 44 44
REMARK SMILES IDX 40 45 41 46 42 47 43 48 69 49 70 50 78 51 71 52 77 53 79 54
REMARK SMILES IDX 76 55 72 56 73 57 74 58 75 59 54 60 55 61 63 62 56 63 62 64
REMARK SMILES IDX 64 65 61 66 57 67 58 68 59 69 60 70 6 71 7 72 8 73 9 74
REMARK SMILES IDX 10 75 26 76 11 77 25 78 27 79 23 80 24 81 12 82 13 83 14 84
REMARK SMILES IDX 15 85 16 87 17 88 18 89 22 90 19 91 21 92 20 93
REMARK H PARENT 84 23 52 34 15 86
REMARK Flexibility Score: inf
ROOT
ATOM      1  C   UNL A   1      31.825  31.371  26.918  1.00  0.00     0.275 C 
ENDROOT
BRANCH   1   2
ATOM      2  C   UNL A   1      32.355  32.795  26.673  1.00  0.00     0.275 C 
BRANCH   2   3
ATOM      3  O   UNL A   1      32.186  33.709  27.775  1.00  0.00    -0.458 OA
BRANCH   3   4
ATOM      4  C   UNL A   1      33.202  34.335  28.426  1.00  0.00     0.338 C 
ATOM      5  O   UNL A   1      33.200  35.549  28.594  1.00  0.00    -0.246 OA
BRANCH   4   6
ATOM      6  C   UNL A   1      34.436  33.561  28.688  1.00  0.00     0.060 A 
ATOM      7  C   UNL A   1      35.709  33.911  28.212  1.00  0.00     0.016 A 
ATOM      8  C   UNL A   1      34.290  32.451  29.512  1.00  0.00     0.016 A 
ATOM      9  C   UNL A   1      36.859  33.279  28.705  1.00  0.00     0.010 A 
ATOM     10  C   UNL A   1      35.426  31.801  29.968  1.00  0.00     0.010 A 
ATOM     11  C   UNL A   1      36.723  32.239  29.615  1.00  0.00    -0.014 A 
BRANCH  11  12
ATOM     12  C   UNL A   1      37.837  31.358  30.056  1.00  0.00     0.031 A 
ATOM     13  C   UNL A   1      38.388  31.991  31.553  1.00  0.00     0.074 A 
ATOM     14  C   UNL A   1      38.293  30.382  29.161  1.00  0.00     0.049 A 
ATOM     15  N   UNL A   1      39.568  32.048  32.141  1.00  0.00    -0.248 NA
ATOM     16  C   UNL A   1      37.437  32.779  32.368  1.00  0.00     0.031 C 
ATOM     17  C   UNL A   1      37.794  29.639  27.971  1.00  0.00     0.029 A 
ATOM     18  N   UNL A   1      39.548  29.851  29.102  1.00  0.00    -0.354 N 
ATOM     19  C   UNL A   1      39.527  32.655  33.380  1.00  0.00     0.074 A 
ATOM     20  C   UNL A   1      38.200  33.256  33.361  1.00  0.00     0.031 C 
ATOM     21  C   UNL A   1      38.751  28.749  27.492  1.00  0.00     0.029 A 
ATOM     22  C   UNL A   1      39.968  28.801  28.315  1.00  0.00     0.049 A 
ATOM     23  H   UNL A   1      40.225  30.261  29.686  1.00  0.00     0.167 HD
ATOM     24  C   UNL A   1      40.425  32.578  34.441  1.00  0.00     0.034 A 
ATOM     25  C   UNL A   1      41.229  28.200  28.435  1.00  0.00     0.034 A 
ATOM     26  C   UNL A   1      41.708  31.765  34.543  1.00  0.00     0.049 A 
ATOM     27  C   UNL A   1      42.374  28.249  29.723  1.00  0.00     0.074 A 
ATOM     28  C   UNL A   1      42.183  31.086  35.662  1.00  0.00     0.029 A 
ATOM     29  N   UNL A   1      42.637  31.354  33.526  1.00  0.00    -0.354 N 
ATOM     30  N   UNL A   1      42.703  29.156  30.642  1.00  0.00    -0.248 NA
ATOM     31  C   UNL A   1      43.207  27.044  29.937  1.00  0.00     0.031 C 
ATOM     32  C   UNL A   1      43.117  30.099  35.244  1.00  0.00     0.029 A 
ATOM     33  C   UNL A   1      43.215  30.093  33.844  1.00  0.00     0.049 A 
ATOM     34  H   UNL A   1      42.845  31.875  32.717  1.00  0.00     0.167 HD
ATOM     35  C   UNL A   1      43.498  28.595  31.658  1.00  0.00     0.074 A 
ATOM     36  C   UNL A   1      43.877  27.312  31.067  1.00  0.00     0.031 C 
ATOM     37  C   UNL A   1      43.777  28.977  32.973  1.00  0.00     0.034 A 
BRANCH  24  38
ATOM     38  C   UNL A   1      39.885  33.139  35.759  1.00  0.00     0.023 A 
ATOM     39  C   UNL A   1      39.226  32.327  36.709  1.00  0.00     0.031 A 
ATOM     40  C   UNL A   1      40.031  34.497  36.078  1.00  0.00     0.131 A 
ATOM     41  C   UNL A   1      38.566  32.900  37.805  1.00  0.00     0.055 A 
ATOM     42  C   UNL A   1      39.481  35.045  37.244  1.00  0.00     0.041 A 
ATOM     43  F   UNL A   1      40.695  35.324  35.256  1.00  0.00    -0.206 F 
ATOM     44  C   UNL A   1      38.705  34.255  38.091  1.00  0.00     0.022 A 
BRANCH  41  45
ATOM     45  S   UNL A   1      37.326  31.902  38.686  1.00  0.00     0.124 S 
ATOM     46  O   UNL A   1      37.327  30.663  37.910  1.00  0.00    -0.237 OA
ATOM     47  O   UNL A   1      37.888  31.816  40.028  1.00  0.00    -0.237 OA
ATOM     48  O   UNL A   1      36.105  32.696  38.563  1.00  0.00    -0.744 OA
ENDBRANCH  41  45
ENDBRANCH  24  38
BRANCH  25  49
ATOM     49  C   UNL A   1      41.738  27.403  27.292  1.00  0.00     0.023 A 
ATOM     50  C   UNL A   1      41.652  26.011  27.239  1.00  0.00     0.031 A 
ATOM     51  C   UNL A   1      42.493  28.065  26.305  1.00  0.00     0.131 A 
ATOM     52  C   UNL A   1      42.320  25.325  26.210  1.00  0.00     0.055 A 
ATOM     53  C   UNL A   1      43.083  27.386  25.243  1.00  0.00     0.041 A 
ATOM     54  F   UNL A   1      42.750  29.377  26.409  1.00  0.00    -0.206 F 
ATOM     55  C   UNL A   1      43.002  26.002  25.194  1.00  0.00     0.022 A 
BRANCH  52  56
ATOM     56  S   UNL A   1      42.373  23.515  26.268  1.00  0.00     0.124 S 
ATOM     57  O   UNL A   1      43.290  23.288  27.380  1.00  0.00    -0.237 OA
ATOM     58  O   UNL A   1      40.975  23.175  26.511  1.00  0.00    -0.237 OA
ATOM     59  O   UNL A   1      42.881  23.147  24.948  1.00  0.00    -0.744 OA
ENDBRANCH  52  56
ENDBRANCH  25  49
BRANCH  37  60
ATOM     60  C   UNL A   1      44.587  27.931  33.772  1.00  0.00     0.023 A 
ATOM     61  C   UNL A   1      43.986  26.806  34.364  1.00  0.00     0.031 A 
ATOM     62  C   UNL A   1      45.995  28.034  33.867  1.00  0.00     0.131 A 
ATOM     63  C   UNL A   1      44.782  25.833  35.011  1.00  0.00     0.055 A 
ATOM     64  C   UNL A   1      46.781  27.053  34.484  1.00  0.00     0.041 A 
ATOM     65  F   UNL A   1      46.637  29.072  33.309  1.00  0.00    -0.206 F 
ATOM     66  C   UNL A   1      46.175  25.942  35.059  1.00  0.00     0.022 A 
BRANCH  63  67
ATOM     67  S   UNL A   1      43.981  24.395  35.787  1.00  0.00     0.124 S 
ATOM     68  O   UNL A   1      44.965  23.341  35.564  1.00  0.00    -0.237 OA
ATOM     69  O   UNL A   1      43.818  24.835  37.169  1.00  0.00    -0.237 OA
ATOM     70  O   UNL A   1      42.733  24.246  35.039  1.00  0.00    -0.744 OA
ENDBRANCH  63  67
ENDBRANCH  37  60
ENDBRANCH  11  12
ENDBRANCH   4   6
ENDBRANCH   3   4
ENDBRANCH   2   3
ENDBRANCH   1   2
BRANCH   1  71
ATOM     71  O   UNL A   1      31.889  30.530  25.746  1.00  0.00    -0.458 OA
BRANCH  71  72
ATOM     72  C   UNL A   1      32.845  29.566  25.729  1.00  0.00     0.339 C 
ATOM     73  O   UNL A   1      33.976  29.664  26.207  1.00  0.00    -0.246 OA
BRANCH  72  74
ATOM     74  C   UNL A   1      32.294  28.306  25.159  1.00  0.00     0.080 A 
ATOM     75  C   UNL A   1      32.526  27.901  23.815  1.00  0.00     0.040 A 
ATOM     76  C   UNL A   1      31.554  27.465  25.986  1.00  0.00     0.057 A 
ATOM     77  C   UNL A   1      31.912  26.729  23.236  1.00  0.00     0.102 A 
ATOM     78  C   UNL A   1      30.997  26.293  25.457  1.00  0.00     0.043 A 
ATOM     79  Cl  UNL A   1      31.275  27.815  27.659  1.00  0.00    -0.083 Cl
ATOM     80  C   UNL A   1      31.157  25.930  24.098  1.00  0.00     0.062 A 
ATOM     81  Cl  UNL A   1      30.339  24.496  23.605  1.00  0.00    -0.083 Cl
BRANCH  77  82
ATOM     82  S   UNL A   1      32.613  26.036  21.701  1.00  0.00     0.242 S 
ATOM     83  O   UNL A   1      31.514  26.231  20.779  1.00  0.00    -0.207 OA
ATOM     84  O   UNL A   1      33.823  26.789  21.426  1.00  0.00    -0.207 OA
BRANCH  82  85
ATOM     85  N   UNL A   1      33.083  24.337  21.571  1.00  0.00    -0.207 NA
ATOM     86  H   UNL A   1      33.973  24.404  21.077  1.00  0.00     0.141 HD
BRANCH  85  87
ATOM     87  C   UNL A   1      33.350  23.018  22.587  1.00  0.00     0.134 C 
BRANCH  87  88
ATOM     88  C   UNL A   1      34.634  22.729  23.846  1.00  0.00    -0.030 A 
ATOM     89  C   UNL A   1      35.173  21.639  24.583  1.00  0.00     0.025 A 
ATOM     90  C   UNL A   1      35.275  23.841  24.348  1.00  0.00     0.025 A 
ATOM     91  C   UNL A   1      36.143  21.740  25.608  1.00  0.00     0.111 A 
ATOM     92  C   UNL A   1      36.267  23.926  25.334  1.00  0.00     0.111 A 
ATOM     93  N   UNL A   1      36.713  22.874  26.006  1.00  0.00    -0.265 NA
ENDBRANCH  87  88
ENDBRANCH  85  87
ENDBRANCH  82  85
ENDBRANCH  77  82
ENDBRANCH  72  74
ENDBRANCH  71  72
ENDBRANCH   1  71
TORSDOF 18
ENDMDL
MODEL 3
REMARK VINA RESULT:     -12.9      5.610     11.193
REMARK SMILES O=C(OCCOC(=O)c1cc(S(=O)(=O)NCc2ccncc2)c(Cl)cc1Cl)c1ccc(-c2c3nc(c(-c4cc(S(=O)(=O)[O-])ccc4F)c4ccc([nH]4)c(-c4cc(S(=O)(=O)[O-])ccc4F)c4nc(c(-c5cc(S(=O)(=O)[O-])ccc5F)c5ccc2[nH]5)C=C4)C=C3)cc1
REMARK SMILES IDX 5 1 4 2 3 3 2 4 1 5 28 6 29 7 90 8 30 9 89 10 31 11 32 12
REMARK SMILES IDX 33 13 83 14 34 15 88 16 82 17 84 18 35 19 87 20 81 21 80 22
REMARK SMILES IDX 36 24 68 25 48 26 67 27 49 28 52 29 66 30 85 31 50 32 51 33
REMARK SMILES IDX 65 35 86 36 53 37 37 38 38 39 46 40 39 41 45 42 47 43 44 44
REMARK SMILES IDX 40 45 41 46 42 47 43 48 69 49 70 50 78 51 71 52 77 53 79 54
REMARK SMILES IDX 76 55 72 56 73 57 74 58 75 59 54 60 55 61 63 62 56 63 62 64
REMARK SMILES IDX 64 65 61 66 57 67 58 68 59 69 60 70 6 71 7 72 8 73 9 74
REMARK SMILES IDX 10 75 26 76 11 77 25 78 27 79 23 80 24 81 12 82 13 83 14 84
REMARK SMILES IDX 15 85 16 87 17 88 18 89 22 90 19 91 21 92 20 93
REMARK H PARENT 84 23 52 34 15 86
REMARK Flexibility Score: inf
ROOT
ATOM      1  C   UNL A   1      33.528  29.002  26.550  1.00  0.00     0.275 C 
ENDROOT
BRANCH   1   2
ATOM      2  C   UNL A   1      33.231  30.497  26.765  1.00  0.00     0.275 C 
BRANCH   2   3
ATOM      3  O   UNL A   1      33.922  31.104  27.875  1.00  0.00    -0.458 OA
BRANCH   3   4
ATOM      4  C   UNL A   1      35.202  31.560  27.834  1.00  0.00     0.338 C 
ATOM      5  O   UNL A   1      35.479  32.640  27.322  1.00  0.00    -0.246 OA
BRANCH   4   6
ATOM      6  C   UNL A   1      36.286  30.612  28.174  1.00  0.00     0.060 A 
ATOM      7  C   UNL A   1      37.424  30.389  27.382  1.00  0.00     0.016 A 
ATOM      8  C   UNL A   1      36.157  29.959  29.394  1.00  0.00     0.016 A 
ATOM      9  C   UNL A   1      38.519  29.673  27.884  1.00  0.00     0.010 A 
ATOM     10  C   UNL A   1      37.226  29.217  29.873  1.00  0.00     0.010 A 
ATOM     11  C   UNL A   1      38.437  29.110  29.152  1.00  0.00    -0.014 A 
BRANCH  11  12
ATOM     12  C   UNL A   1      39.435  28.164  29.716  1.00  0.00     0.031 A 
ATOM     13  C   UNL A   1      40.141  28.957  31.065  1.00  0.00     0.074 A 
ATOM     14  C   UNL A   1      39.707  26.992  28.997  1.00  0.00     0.049 A 
ATOM     15  N   UNL A   1      41.344  28.940  31.607  1.00  0.00    -0.248 NA
ATOM     16  C   UNL A   1      39.350  30.004  31.749  1.00  0.00     0.031 C 
ATOM     17  C   UNL A   1      39.053  26.139  27.968  1.00  0.00     0.029 A 
ATOM     18  N   UNL A   1      40.870  26.281  29.006  1.00  0.00    -0.354 N 
ATOM     19  C   UNL A   1      41.447  29.750  32.721  1.00  0.00     0.074 A 
ATOM     20  C   UNL A   1      40.218  30.527  32.624  1.00  0.00     0.031 C 
ATOM     21  C   UNL A   1      39.851  25.049  27.634  1.00  0.00     0.029 A 
ATOM     22  C   UNL A   1      41.101  25.062  28.407  1.00  0.00     0.049 A 
ATOM     23  H   UNL A   1      41.626  26.682  29.492  1.00  0.00     0.167 HD
ATOM     24  C   UNL A   1      42.375  29.725  33.758  1.00  0.00     0.034 A 
ATOM     25  C   UNL A   1      42.269  24.312  28.603  1.00  0.00     0.034 A 
ATOM     26  C   UNL A   1      43.535  28.763  33.974  1.00  0.00     0.049 A 
ATOM     27  C   UNL A   1      43.469  24.412  29.837  1.00  0.00     0.074 A 
ATOM     28  C   UNL A   1      43.962  28.223  35.184  1.00  0.00     0.029 A 
ATOM     29  N   UNL A   1      44.347  28.051  33.025  1.00  0.00    -0.354 N 
ATOM     30  N   UNL A   1      43.966  25.405  30.574  1.00  0.00    -0.248 NA
ATOM     31  C   UNL A   1      44.134  23.153  30.242  1.00  0.00     0.031 C 
ATOM     32  C   UNL A   1      44.727  27.053  34.926  1.00  0.00     0.029 A 
ATOM     33  C   UNL A   1      44.756  26.792  33.548  1.00  0.00     0.049 A 
ATOM     34  H   UNL A   1      44.588  28.389  32.132  1.00  0.00     0.167 HD
ATOM     35  C   UNL A   1      44.722  24.917  31.655  1.00  0.00     0.074 A 
ATOM     36  C   UNL A   1      44.889  23.510  31.291  1.00  0.00     0.031 C 
ATOM     37  C   UNL A   1      45.114  25.473  32.875  1.00  0.00     0.034 A 
BRANCH  24  38
ATOM     38  C   UNL A   1      41.983  30.577  34.967  1.00  0.00     0.023 A 
ATOM     39  C   UNL A   1      40.701  30.500  35.558  1.00  0.00     0.031 A 
ATOM     40  C   UNL A   1      42.895  31.473  35.545  1.00  0.00     0.131 A 
ATOM     41  C   UNL A   1      40.304  31.431  36.527  1.00  0.00     0.055 A 
ATOM     42  C   UNL A   1      42.532  32.315  36.605  1.00  0.00     0.041 A 
ATOM     43  F   UNL A   1      44.150  31.564  35.080  1.00  0.00    -0.206 F 
ATOM     44  C   UNL A   1      41.219  32.329  37.071  1.00  0.00     0.022 A 
BRANCH  41  45
ATOM     45  S   UNL A   1      38.526  31.618  36.869  1.00  0.00     0.124 S 
ATOM     46  O   UNL A   1      38.537  32.224  38.200  1.00  0.00    -0.237 OA
ATOM     47  O   UNL A   1      38.085  32.479  35.779  1.00  0.00    -0.237 OA
ATOM     48  O   UNL A   1      38.029  30.244  36.830  1.00  0.00    -0.744 OA
ENDBRANCH  41  45
ENDBRANCH  24  38
BRANCH  25  49
ATOM     49  C   UNL A   1      42.606  23.265  27.608  1.00  0.00     0.023 A 
ATOM     50  C   UNL A   1      43.603  23.425  26.644  1.00  0.00     0.031 A 
ATOM     51  C   UNL A   1      41.767  22.137  27.521  1.00  0.00     0.131 A 
ATOM     52  C   UNL A   1      43.733  22.463  25.629  1.00  0.00     0.055 A 
ATOM     53  C   UNL A   1      41.954  21.147  26.561  1.00  0.00     0.041 A 
ATOM     54  F   UNL A   1      40.690  22.026  28.311  1.00  0.00    -0.206 F 
ATOM     55  C   UNL A   1      42.942  21.309  25.601  1.00  0.00     0.022 A 
BRANCH  52  56
ATOM     56  S   UNL A   1      44.890  22.784  24.273  1.00  0.00     0.124 S 
ATOM     57  O   UNL A   1      44.168  22.221  23.137  1.00  0.00    -0.237 OA
ATOM     58  O   UNL A   1      45.001  24.239  24.303  1.00  0.00    -0.237 OA
ATOM     59  O   UNL A   1      46.094  22.060  24.674  1.00  0.00    -0.744 OA
ENDBRANCH  52  56
ENDBRANCH  25  49
BRANCH  37  60
ATOM     60  C   UNL A   1      45.806  24.472  33.828  1.00  0.00     0.023 A 
ATOM     61  C   UNL A   1      47.205  24.405  33.961  1.00  0.00     0.031 A 
ATOM     62  C   UNL A   1      45.037  23.634  34.668  1.00  0.00     0.131 A 
ATOM     63  C   UNL A   1      47.786  23.532  34.910  1.00  0.00     0.055 A 
ATOM     64  C   UNL A   1      45.617  22.793  35.626  1.00  0.00     0.041 A 
ATOM     65  F   UNL A   1      43.697  23.659  34.608  1.00  0.00    -0.206 F 
ATOM     66  C   UNL A   1      47.001  22.739  35.752  1.00  0.00     0.022 A 
BRANCH  63  67
ATOM     67  S   UNL A   1      49.598  23.446  35.052  1.00  0.00     0.124 S 
ATOM     68  O   UNL A   1      49.943  24.825  35.384  1.00  0.00    -0.237 OA
ATOM     69  O   UNL A   1      49.783  22.467  36.119  1.00  0.00    -0.237 OA
ATOM     70  O   UNL A   1      50.031  23.001  33.728  1.00  0.00    -0.744 OA
ENDBRANCH  63  67
ENDBRANCH  37  60
ENDBRANCH  11  12
ENDBRANCH   4   6
ENDBRANCH   3   4
ENDBRANCH   2   3
ENDBRANCH   1   2
BRANCH   1  71
ATOM     71  O   UNL A   1      32.451  28.296  25.896  1.00  0.00    -0.458 OA
BRANCH  71  72
ATOM     72  C   UNL A   1      32.764  27.590  24.780  1.00  0.00     0.339 C 
ATOM     73  O   UNL A   1      33.270  28.048  23.755  1.00  0.00    -0.246 OA
BRANCH  72  74
ATOM     74  C   UNL A   1      32.529  26.137  25.007  1.00  0.00     0.080 A 
ATOM     75  C   UNL A   1      33.563  25.238  25.388  1.00  0.00     0.040 A 
ATOM     76  C   UNL A   1      31.233  25.642  24.882  1.00  0.00     0.057 A 
ATOM     77  C   UNL A   1      33.354  23.815  25.513  1.00  0.00     0.102 A 
ATOM     78  C   UNL A   1      31.000  24.271  25.056  1.00  0.00     0.043 A 
ATOM     79  Cl  UNL A   1      29.882  26.655  24.501  1.00  0.00    -0.083 Cl
ATOM     80  C   UNL A   1      32.043  23.361  25.353  1.00  0.00     0.062 A 
ATOM     81  Cl  UNL A   1      31.583  21.704  25.456  1.00  0.00    -0.083 Cl
BRANCH  77  82
ATOM     82  S   UNL A   1      34.574  22.824  26.439  1.00  0.00     0.242 S 
ATOM     83  O   UNL A   1      35.785  23.584  26.205  1.00  0.00    -0.207 OA
ATOM     84  O   UNL A   1      34.105  22.772  27.811  1.00  0.00    -0.207 OA
BRANCH  82  85
ATOM     85  N   UNL A   1      34.940  21.150  26.008  1.00  0.00    -0.207 NA
ATOM     86  H   UNL A   1      34.635  20.649  26.843  1.00  0.00     0.141 HD
BRANCH  85  87
ATOM     87  C   UNL A   1      34.567  20.048  24.788  1.00  0.00     0.134 C 
BRANCH  87  88
ATOM     88  C   UNL A   1      33.866  18.370  24.876  1.00  0.00    -0.030 A 
ATOM     89  C   UNL A   1      32.931  17.649  25.670  1.00  0.00     0.025 A 
ATOM     90  C   UNL A   1      34.385  17.432  24.010  1.00  0.00     0.025 A 
ATOM     91  C   UNL A   1      32.651  16.266  25.556  1.00  0.00     0.111 A 
ATOM     92  C   UNL A   1      34.069  16.073  23.876  1.00  0.00     0.111 A 
ATOM     93  N   UNL A   1      33.204  15.449  24.664  1.00  0.00    -0.265 NA
ENDBRANCH  87  88
ENDBRANCH  85  87
ENDBRANCH  82  85
ENDBRANCH  77  82
ENDBRANCH  72  74
ENDBRANCH  71  72
ENDBRANCH   1  71
TORSDOF 18
ENDMDL
