MODEL 1
REMARK VINA RESULT:     -12.1      0.000      0.000
REMARK SMILES Cc1ccc(Cl)c(Nc2ccccc2C(=O)OCCOC(=O)c2ccc(-c3c4nc(c(-c5cc(S(=O)(=O)[O-])ccc5F)c5ccc([nH]5)c(-c5cc(S(=O)(=O)[O-])ccc5F)c5nc(c(-c6cc(S(=O)(=O)[O-])ccc6F)c6ccc3[nH]6)C=C5)C=C4)cc2)c1Cl
REMARK SMILES IDX 19 1 18 2 17 3 15 4 16 5 14 6 9 7 10 8 11 9 13 10 12 11 8 12
REMARK SMILES IDX 7 14 1 15 2 16 3 17 86 18 4 19 87 20 5 21 6 22 20 23 21 24
REMARK SMILES IDX 22 25 23 26 24 27 85 28 25 29 84 30 26 31 27 32 28 33 78 34
REMARK SMILES IDX 29 35 83 36 77 37 79 38 30 39 82 40 76 41 75 42 31 44 63 45
REMARK SMILES IDX 43 46 62 47 44 48 47 49 61 50 80 51 45 52 46 53 60 55 81 56
REMARK SMILES IDX 48 57 32 58 33 59 41 60 34 61 40 62 42 63 39 64 35 65 36 66
REMARK SMILES IDX 37 67 38 68 64 69 65 70 73 71 66 72 72 73 74 74 71 75 67 76
REMARK SMILES IDX 68 77 69 78 70 79 49 80 50 81 58 82 51 83 57 84 59 85 56 86
REMARK SMILES IDX 52 87 53 88 54 89 55 90
REMARK H PARENT 8 13 79 43 47 54
REMARK Flexibility Score: inf
ROOT
ATOM      1  C   UNL A   1      31.628  29.758  26.171  1.00  0.00     0.275 C 
ENDROOT
BRANCH   1   2
ATOM      2  C   UNL A   1      31.685  28.531  27.074  1.00  0.00     0.275 C 
BRANCH   2   3
ATOM      3  O   UNL A   1      32.565  27.516  26.550  1.00  0.00    -0.458 OA
BRANCH   3   4
ATOM      4  C   UNL A   1      31.961  26.363  26.158  1.00  0.00     0.340 C 
ATOM      5  O   UNL A   1      30.842  25.996  26.474  1.00  0.00    -0.246 OA
BRANCH   4   6
ATOM      6  C   UNL A   1      32.829  25.590  25.238  1.00  0.00     0.083 A 
ATOM      7  C   UNL A   1      32.488  25.311  23.900  1.00  0.00     0.053 A 
ATOM      8  C   UNL A   1      33.397  24.545  23.141  1.00  0.00     0.027 A 
ATOM      9  C   UNL A   1      34.612  24.102  23.673  1.00  0.00     0.002 A 
ATOM     10  C   UNL A   1      34.068  25.167  25.753  1.00  0.00     0.018 A 
ATOM     11  C   UNL A   1      34.953  24.422  24.978  1.00  0.00     0.001 A 
BRANCH   7  12
ATOM     12  N   UNL A   1      31.370  25.826  23.208  1.00  0.00    -0.352 N 
ATOM     13  H   UNL A   1      30.865  25.154  22.696  1.00  0.00     0.167 HD
BRANCH  12  14
ATOM     14  C   UNL A   1      30.846  27.140  23.122  1.00  0.00     0.077 A 
ATOM     15  C   UNL A   1      27.491  29.019  22.979  1.00  0.00     0.046 C 
ATOM     16  C   UNL A   1      28.968  28.727  22.963  1.00  0.00    -0.030 A 
ATOM     17  C   UNL A   1      29.851  29.718  22.513  1.00  0.00     0.006 A 
ATOM     18  C   UNL A   1      29.480  27.457  23.313  1.00  0.00     0.069 A 
ATOM     19  C   UNL A   1      31.215  29.457  22.415  1.00  0.00     0.023 A 
ATOM     20  Cl  UNL A   1      28.414  26.318  24.086  1.00  0.00    -0.082 Cl
ATOM     21  C   UNL A   1      31.701  28.181  22.702  1.00  0.00     0.066 A 
ATOM     22  Cl  UNL A   1      33.398  27.901  22.484  1.00  0.00    -0.082 Cl
ENDBRANCH  12  14
ENDBRANCH   7  12
ENDBRANCH   4   6
ENDBRANCH   3   4
ENDBRANCH   2   3
ENDBRANCH   1   2
BRANCH   1  23
ATOM     23  O   UNL A   1      32.939  30.326  26.047  1.00  0.00    -0.458 OA
BRANCH  23  24
ATOM     24  C   UNL A   1      33.255  31.256  26.973  1.00  0.00     0.338 C 
ATOM     25  O   UNL A   1      32.549  32.165  27.387  1.00  0.00    -0.246 OA
BRANCH  24  26
ATOM     26  C   UNL A   1      34.616  31.011  27.465  1.00  0.00     0.060 A 
ATOM     27  C   UNL A   1      35.019  29.701  27.709  1.00  0.00     0.016 A 
ATOM     28  C   UNL A   1      35.439  32.075  27.822  1.00  0.00     0.016 A 
ATOM     29  C   UNL A   1      36.184  29.449  28.424  1.00  0.00     0.010 A 
ATOM     30  C   UNL A   1      36.670  31.813  28.429  1.00  0.00     0.010 A 
ATOM     31  C   UNL A   1      37.037  30.500  28.783  1.00  0.00    -0.014 A 
BRANCH  31  32
ATOM     32  C   UNL A   1      38.275  30.238  29.573  1.00  0.00     0.031 A 
ATOM     33  C   UNL A   1      39.352  29.350  29.001  1.00  0.00     0.074 A 
ATOM     34  C   UNL A   1      38.443  30.789  30.792  1.00  0.00     0.049 A 
ATOM     35  N   UNL A   1      40.382  28.806  29.594  1.00  0.00    -0.248 NA
ATOM     36  C   UNL A   1      39.233  29.013  27.575  1.00  0.00     0.031 C 
ATOM     37  C   UNL A   1      37.508  31.711  31.444  1.00  0.00     0.029 A 
ATOM     38  N   UNL A   1      39.461  30.655  31.705  1.00  0.00    -0.354 N 
ATOM     39  C   UNL A   1      40.992  28.000  28.636  1.00  0.00     0.074 A 
ATOM     40  C   UNL A   1      40.208  28.128  27.425  1.00  0.00     0.031 C 
ATOM     41  C   UNL A   1      38.010  32.082  32.631  1.00  0.00     0.029 A 
ATOM     42  C   UNL A   1      39.242  31.345  32.876  1.00  0.00     0.049 A 
ATOM     43  H   UNL A   1      40.268  30.118  31.538  1.00  0.00     0.167 HD
ATOM     44  C   UNL A   1      42.097  27.223  28.763  1.00  0.00     0.034 A 
ATOM     45  C   UNL A   1      39.917  31.339  34.042  1.00  0.00     0.034 A 
ATOM     46  C   UNL A   1      42.893  27.161  29.966  1.00  0.00     0.049 A 
ATOM     47  C   UNL A   1      41.128  30.455  34.171  1.00  0.00     0.074 A 
ATOM     48  C   UNL A   1      44.050  26.437  30.199  1.00  0.00     0.029 A 
ATOM     49  N   UNL A   1      42.623  27.859  31.137  1.00  0.00    -0.354 N 
ATOM     50  N   UNL A   1      41.654  29.644  33.284  1.00  0.00    -0.248 NA
ATOM     51  C   UNL A   1      41.825  30.476  35.462  1.00  0.00     0.031 C 
ATOM     52  C   UNL A   1      44.443  26.650  31.527  1.00  0.00     0.029 A 
ATOM     53  C   UNL A   1      43.574  27.563  32.103  1.00  0.00     0.049 A 
ATOM     54  H   UNL A   1      41.865  28.475  31.264  1.00  0.00     0.167 HD
ATOM     55  C   UNL A   1      42.750  29.058  33.909  1.00  0.00     0.074 A 
ATOM     56  C   UNL A   1      42.823  29.632  35.238  1.00  0.00     0.031 C 
ATOM     57  C   UNL A   1      43.616  28.128  33.431  1.00  0.00     0.034 A 
BRANCH  44  58
ATOM     58  C   UNL A   1      42.458  26.327  27.601  1.00  0.00     0.023 A 
ATOM     59  C   UNL A   1      41.958  25.021  27.467  1.00  0.00     0.031 A 
ATOM     60  C   UNL A   1      43.362  26.784  26.623  1.00  0.00     0.131 A 
ATOM     61  C   UNL A   1      42.422  24.195  26.430  1.00  0.00     0.055 A 
ATOM     62  C   UNL A   1      43.758  25.986  25.548  1.00  0.00     0.041 A 
ATOM     63  F   UNL A   1      43.894  28.015  26.706  1.00  0.00    -0.206 F 
ATOM     64  C   UNL A   1      43.300  24.676  25.456  1.00  0.00     0.022 A 
BRANCH  61  65
ATOM     65  S   UNL A   1      41.980  22.434  26.458  1.00  0.00     0.124 S 
ATOM     66  O   UNL A   1      42.548  22.006  27.734  1.00  0.00    -0.237 OA
ATOM     67  O   UNL A   1      40.523  22.474  26.388  1.00  0.00    -0.237 OA
ATOM     68  O   UNL A   1      42.647  21.894  25.276  1.00  0.00    -0.744 OA
ENDBRANCH  61  65
ENDBRANCH  44  58
BRANCH  45  69
ATOM     69  C   UNL A   1      39.411  32.129  35.203  1.00  0.00     0.023 A 
ATOM     70  C   UNL A   1      39.856  33.436  35.448  1.00  0.00     0.031 A 
ATOM     71  C   UNL A   1      38.472  31.572  36.093  1.00  0.00     0.131 A 
ATOM     72  C   UNL A   1      39.380  34.136  36.569  1.00  0.00     0.055 A 
ATOM     73  C   UNL A   1      37.962  32.292  37.174  1.00  0.00     0.041 A 
ATOM     74  F   UNL A   1      38.015  30.323  35.906  1.00  0.00    -0.206 F 
ATOM     75  C   UNL A   1      38.423  33.580  37.422  1.00  0.00     0.022 A 
BRANCH  72  76
ATOM     76  S   UNL A   1      40.078  35.770  36.937  1.00  0.00     0.124 S 
ATOM     77  O   UNL A   1      41.497  35.463  37.074  1.00  0.00    -0.237 OA
ATOM     78  O   UNL A   1      39.699  36.535  35.753  1.00  0.00    -0.237 OA
ATOM     79  O   UNL A   1      39.401  36.159  38.171  1.00  0.00    -0.744 OA
ENDBRANCH  72  76
ENDBRANCH  45  69
BRANCH  57  80
ATOM     80  C   UNL A   1      44.731  27.707  34.355  1.00  0.00     0.023 A 
ATOM     81  C   UNL A   1      44.594  26.608  35.222  1.00  0.00     0.031 A 
ATOM     82  C   UNL A   1      45.935  28.432  34.387  1.00  0.00     0.131 A 
ATOM     83  C   UNL A   1      45.622  26.302  36.126  1.00  0.00     0.055 A 
ATOM     84  C   UNL A   1      46.976  28.087  35.248  1.00  0.00     0.041 A 
ATOM     85  F   UNL A   1      46.115  29.491  33.582  1.00  0.00    -0.206 F 
ATOM     86  C   UNL A   1      46.817  27.025  36.134  1.00  0.00     0.022 A 
BRANCH  83  87
ATOM     87  S   UNL A   1      45.337  25.003  37.360  1.00  0.00     0.124 S 
ATOM     88  O   UNL A   1      44.863  23.898  36.534  1.00  0.00    -0.237 OA
ATOM     89  O   UNL A   1      46.662  24.836  37.949  1.00  0.00    -0.237 OA
ATOM     90  O   UNL A   1      44.334  25.588  38.248  1.00  0.00    -0.744 OA
ENDBRANCH  83  87
ENDBRANCH  57  80
ENDBRANCH  31  32
ENDBRANCH  24  26
ENDBRANCH  23  24
ENDBRANCH   1  23
TORSDOF 16
ENDMDL
MODEL 2
REMARK VINA RESULT:     -11.9      5.314     10.063
REMARK SMILES Cc1ccc(Cl)c(Nc2ccccc2C(=O)OCCOC(=O)c2ccc(-c3c4nc(c(-c5cc(S(=O)(=O)[O-])ccc5F)c5ccc([nH]5)c(-c5cc(S(=O)(=O)[O-])ccc5F)c5nc(c(-c6cc(S(=O)(=O)[O-])ccc6F)c6ccc3[nH]6)C=C5)C=C4)cc2)c1Cl
REMARK SMILES IDX 19 1 18 2 17 3 15 4 16 5 14 6 9 7 10 8 11 9 13 10 12 11 8 12
REMARK SMILES IDX 7 14 1 15 2 16 3 17 86 18 4 19 87 20 5 21 6 22 20 23 21 24
REMARK SMILES IDX 22 25 23 26 24 27 85 28 25 29 84 30 26 31 27 32 28 33 78 34
REMARK SMILES IDX 29 35 83 36 77 37 79 38 30 39 82 40 76 41 75 42 31 44 63 45
REMARK SMILES IDX 43 46 62 47 44 48 47 49 61 50 80 51 45 52 46 53 60 55 81 56
REMARK SMILES IDX 48 57 32 58 33 59 41 60 34 61 40 62 42 63 39 64 35 65 36 66
REMARK SMILES IDX 37 67 38 68 64 69 65 70 73 71 66 72 72 73 74 74 71 75 67 76
REMARK SMILES IDX 68 77 69 78 70 79 49 80 50 81 58 82 51 83 57 84 59 85 56 86
REMARK SMILES IDX 52 87 53 88 54 89 55 90
REMARK H PARENT 8 13 79 43 47 54
REMARK Flexibility Score: inf
ROOT
ATOM      1  C   UNL A   1      36.893  21.245  24.679  1.00  0.00     0.275 C 
ENDROOT
BRANCH   1   2
ATOM      2  C   UNL A   1      36.527  22.430  23.794  1.00  0.00     0.275 C 
BRANCH   2   3
ATOM      3  O   UNL A   1      35.589  23.316  24.438  1.00  0.00    -0.458 OA
BRANCH   3   4
ATOM      4  C   UNL A   1      34.580  23.774  23.650  1.00  0.00     0.340 C 
ATOM      5  O   UNL A   1      34.422  23.521  22.468  1.00  0.00    -0.246 OA
BRANCH   4   6
ATOM      6  C   UNL A   1      33.635  24.612  24.424  1.00  0.00     0.083 A 
ATOM      7  C   UNL A   1      32.322  24.212  24.741  1.00  0.00     0.053 A 
ATOM      8  C   UNL A   1      31.520  25.118  25.465  1.00  0.00     0.027 A 
ATOM      9  C   UNL A   1      32.008  26.356  25.892  1.00  0.00     0.002 A 
ATOM     10  C   UNL A   1      34.126  25.847  24.886  1.00  0.00     0.018 A 
ATOM     11  C   UNL A   1      33.318  26.718  25.611  1.00  0.00     0.001 A 
BRANCH   7  12
ATOM     12  N   UNL A   1      31.767  22.936  24.499  1.00  0.00    -0.352 N 
ATOM     13  H   UNL A   1      30.818  22.950  24.235  1.00  0.00     0.167 HD
BRANCH  12  14
ATOM     14  C   UNL A   1      32.334  21.639  24.568  1.00  0.00     0.077 A 
ATOM     15  C   UNL A   1      32.400  18.298  22.663  1.00  0.00     0.046 C 
ATOM     16  C   UNL A   1      32.629  19.346  23.719  1.00  0.00    -0.030 A 
ATOM     17  C   UNL A   1      33.125  18.953  24.969  1.00  0.00     0.006 A 
ATOM     18  C   UNL A   1      32.283  20.700  23.511  1.00  0.00     0.069 A 
ATOM     19  C   UNL A   1      33.279  19.884  25.993  1.00  0.00     0.023 A 
ATOM     20  Cl  UNL A   1      31.891  21.217  21.894  1.00  0.00    -0.082 Cl
ATOM     21  C   UNL A   1      32.874  21.205  25.797  1.00  0.00     0.066 A 
ATOM     22  Cl  UNL A   1      33.020  22.295  27.137  1.00  0.00    -0.082 Cl
ENDBRANCH  12  14
ENDBRANCH   7  12
ENDBRANCH   4   6
ENDBRANCH   3   4
ENDBRANCH   2   3
ENDBRANCH   1   2
BRANCH   1  23
ATOM     23  O   UNL A   1      37.448  21.719  25.913  1.00  0.00    -0.458 OA
BRANCH  23  24
ATOM     24  C   UNL A   1      38.785  21.574  26.039  1.00  0.00     0.338 C 
ATOM     25  O   UNL A   1      39.474  20.643  25.646  1.00  0.00    -0.246 OA
BRANCH  24  26
ATOM     26  C   UNL A   1      39.340  22.751  26.719  1.00  0.00     0.060 A 
ATOM     27  C   UNL A   1      38.816  24.008  26.429  1.00  0.00     0.016 A 
ATOM     28  C   UNL A   1      40.467  22.631  27.526  1.00  0.00     0.016 A 
ATOM     29  C   UNL A   1      39.485  25.156  26.836  1.00  0.00     0.010 A 
ATOM     30  C   UNL A   1      41.066  23.786  28.039  1.00  0.00     0.010 A 
ATOM     31  C   UNL A   1      40.613  25.064  27.660  1.00  0.00    -0.014 A 
BRANCH  31  32
ATOM     32  C   UNL A   1      41.350  26.292  28.078  1.00  0.00     0.031 A 
ATOM     33  C   UNL A   1      40.638  27.355  28.877  1.00  0.00     0.074 A 
ATOM     34  C   UNL A   1      42.648  26.461  27.752  1.00  0.00     0.049 A 
ATOM     35  N   UNL A   1      41.004  28.583  29.140  1.00  0.00    -0.248 NA
ATOM     36  C   UNL A   1      39.326  26.989  29.430  1.00  0.00     0.031 C 
ATOM     37  C   UNL A   1      43.475  25.490  27.029  1.00  0.00     0.029 A 
ATOM     38  N   UNL A   1      43.502  27.511  27.983  1.00  0.00    -0.354 N 
ATOM     39  C   UNL A   1      39.938  29.161  29.822  1.00  0.00     0.074 A 
ATOM     40  C   UNL A   1      38.910  28.146  29.926  1.00  0.00     0.031 C 
ATOM     41  C   UNL A   1      44.719  25.974  26.907  1.00  0.00     0.029 A 
ATOM     42  C   UNL A   1      44.754  27.330  27.440  1.00  0.00     0.049 A 
ATOM     43  H   UNL A   1      43.244  28.315  28.489  1.00  0.00     0.167 HD
ATOM     44  C   UNL A   1      39.828  30.424  30.307  1.00  0.00     0.034 A 
ATOM     45  C   UNL A   1      45.795  28.177  27.322  1.00  0.00     0.034 A 
ATOM     46  C   UNL A   1      40.892  31.397  30.241  1.00  0.00     0.049 A 
ATOM     47  C   UNL A   1      45.648  29.580  27.847  1.00  0.00     0.074 A 
ATOM     48  C   UNL A   1      40.908  32.694  30.728  1.00  0.00     0.029 A 
ATOM     49  N   UNL A   1      42.137  31.179  29.662  1.00  0.00    -0.354 N 
ATOM     50  N   UNL A   1      44.610  30.138  28.427  1.00  0.00    -0.248 NA
ATOM     51  C   UNL A   1      46.804  30.468  27.689  1.00  0.00     0.031 C 
ATOM     52  C   UNL A   1      42.135  33.276  30.389  1.00  0.00     0.029 A 
ATOM     53  C   UNL A   1      42.916  32.323  29.755  1.00  0.00     0.049 A 
ATOM     54  H   UNL A   1      42.424  30.335  29.245  1.00  0.00     0.167 HD
ATOM     55  C   UNL A   1      44.992  31.446  28.706  1.00  0.00     0.074 A 
ATOM     56  C   UNL A   1      46.363  31.582  28.257  1.00  0.00     0.031 C 
ATOM     57  C   UNL A   1      44.274  32.446  29.280  1.00  0.00     0.034 A 
BRANCH  44  58
ATOM     58  C   UNL A   1      38.492  30.839  30.879  1.00  0.00     0.023 A 
ATOM     59  C   UNL A   1      37.466  31.385  30.087  1.00  0.00     0.031 A 
ATOM     60  C   UNL A   1      38.258  30.722  32.262  1.00  0.00     0.131 A 
ATOM     61  C   UNL A   1      36.292  31.862  30.692  1.00  0.00     0.055 A 
ATOM     62  C   UNL A   1      37.055  31.123  32.847  1.00  0.00     0.041 A 
ATOM     63  F   UNL A   1      39.206  30.229  33.076  1.00  0.00    -0.206 F 
ATOM     64  C   UNL A   1      36.070  31.713  32.063  1.00  0.00     0.022 A 
BRANCH  61  65
ATOM     65  S   UNL A   1      35.122  32.818  29.686  1.00  0.00     0.124 S 
ATOM     66  O   UNL A   1      35.996  33.831  29.099  1.00  0.00    -0.237 OA
ATOM     67  O   UNL A   1      34.602  31.812  28.766  1.00  0.00    -0.237 OA
ATOM     68  O   UNL A   1      34.163  33.326  30.664  1.00  0.00    -0.744 OA
ENDBRANCH  61  65
ENDBRANCH  44  58
BRANCH  45  69
ATOM     69  C   UNL A   1      47.030  27.748  26.603  1.00  0.00     0.023 A 
ATOM     70  C   UNL A   1      47.161  27.907  25.216  1.00  0.00     0.031 A 
ATOM     71  C   UNL A   1      48.100  27.160  27.305  1.00  0.00     0.131 A 
ATOM     72  C   UNL A   1      48.327  27.462  24.570  1.00  0.00     0.055 A 
ATOM     73  C   UNL A   1      49.277  26.769  26.666  1.00  0.00     0.041 A 
ATOM     74  F   UNL A   1      48.025  26.982  28.634  1.00  0.00    -0.206 F 
ATOM     75  C   UNL A   1      49.392  26.911  25.287  1.00  0.00     0.022 A 
BRANCH  72  76
ATOM     76  S   UNL A   1      48.409  27.554  22.760  1.00  0.00     0.124 S 
ATOM     77  O   UNL A   1      47.194  28.298  22.444  1.00  0.00    -0.237 OA
ATOM     78  O   UNL A   1      49.667  28.262  22.549  1.00  0.00    -0.237 OA
ATOM     79  O   UNL A   1      48.408  26.153  22.347  1.00  0.00    -0.744 OA
ENDBRANCH  72  76
ENDBRANCH  45  69
BRANCH  57  80
ATOM     80  C   UNL A   1      44.986  33.761  29.473  1.00  0.00     0.023 A 
ATOM     81  C   UNL A   1      44.971  34.760  28.484  1.00  0.00     0.031 A 
ATOM     82  C   UNL A   1      45.712  34.005  30.652  1.00  0.00     0.131 A 
ATOM     83  C   UNL A   1      45.716  35.934  28.668  1.00  0.00     0.055 A 
ATOM     84  C   UNL A   1      46.404  35.199  30.854  1.00  0.00     0.041 A 
ATOM     85  F   UNL A   1      45.761  33.083  31.627  1.00  0.00    -0.206 F 
ATOM     86  C   UNL A   1      46.420  36.166  29.852  1.00  0.00     0.022 A 
BRANCH  83  87
ATOM     87  S   UNL A   1      45.832  37.116  27.296  1.00  0.00     0.124 S 
ATOM     88  O   UNL A   1      44.451  37.571  27.171  1.00  0.00    -0.237 OA
ATOM     89  O   UNL A   1      46.782  38.098  27.808  1.00  0.00    -0.237 OA
ATOM     90  O   UNL A   1      46.319  36.303  26.184  1.00  0.00    -0.744 OA
ENDBRANCH  83  87
ENDBRANCH  57  80
ENDBRANCH  31  32
ENDBRANCH  24  26
ENDBRANCH  23  24
ENDBRANCH   1  23
TORSDOF 16
ENDMDL
MODEL 3
REMARK VINA RESULT:     -11.9      4.989     10.058
REMARK SMILES Cc1ccc(Cl)c(Nc2ccccc2C(=O)OCCOC(=O)c2ccc(-c3c4nc(c(-c5cc(S(=O)(=O)[O-])ccc5F)c5ccc([nH]5)c(-c5cc(S(=O)(=O)[O-])ccc5F)c5nc(c(-c6cc(S(=O)(=O)[O-])ccc6F)c6ccc3[nH]6)C=C5)C=C4)cc2)c1Cl
REMARK SMILES IDX 19 1 18 2 17 3 15 4 16 5 14 6 9 7 10 8 11 9 13 10 12 11 8 12
REMARK SMILES IDX 7 14 1 15 2 16 3 17 86 18 4 19 87 20 5 21 6 22 20 23 21 24
REMARK SMILES IDX 22 25 23 26 24 27 85 28 25 29 84 30 26 31 27 32 28 33 78 34
REMARK SMILES IDX 29 35 83 36 77 37 79 38 30 39 82 40 76 41 75 42 31 44 63 45
REMARK SMILES IDX 43 46 62 47 44 48 47 49 61 50 80 51 45 52 46 53 60 55 81 56
REMARK SMILES IDX 48 57 32 58 33 59 41 60 34 61 40 62 42 63 39 64 35 65 36 66
REMARK SMILES IDX 37 67 38 68 64 69 65 70 73 71 66 72 72 73 74 74 71 75 67 76
REMARK SMILES IDX 68 77 69 78 70 79 49 80 50 81 58 82 51 83 57 84 59 85 56 86
REMARK SMILES IDX 52 87 53 88 54 89 55 90
REMARK H PARENT 8 13 79 43 47 54
REMARK Flexibility Score: inf
ROOT
ATOM      1  C   UNL A   1      36.845  21.274  24.250  1.00  0.00     0.275 C 
ENDROOT
BRANCH   1   2
ATOM      2  C   UNL A   1      36.692  22.594  23.503  1.00  0.00     0.275 C 
BRANCH   2   3
ATOM      3  O   UNL A   1      35.307  22.941  23.300  1.00  0.00    -0.458 OA
BRANCH   3   4
ATOM      4  C   UNL A   1      34.848  23.980  24.046  1.00  0.00     0.340 C 
ATOM      5  O   UNL A   1      35.403  24.466  25.018  1.00  0.00    -0.246 OA
BRANCH   4   6
ATOM      6  C   UNL A   1      33.571  24.504  23.508  1.00  0.00     0.083 A 
ATOM      7  C   UNL A   1      32.324  23.887  23.729  1.00  0.00     0.053 A 
ATOM      8  C   UNL A   1      31.189  24.480  23.139  1.00  0.00     0.027 A 
ATOM      9  C   UNL A   1      31.277  25.656  22.390  1.00  0.00     0.002 A 
ATOM     10  C   UNL A   1      33.644  25.705  22.779  1.00  0.00     0.018 A 
ATOM     11  C   UNL A   1      32.505  26.277  22.217  1.00  0.00     0.001 A 
BRANCH   7  12
ATOM     12  N   UNL A   1      32.086  22.790  24.587  1.00  0.00    -0.352 N 
ATOM     13  H   UNL A   1      31.497  22.991  25.349  1.00  0.00     0.167 HD
BRANCH  12  14
ATOM     14  C   UNL A   1      32.548  21.450  24.543  1.00  0.00     0.077 A 
ATOM     15  C   UNL A   1      32.236  18.248  22.434  1.00  0.00     0.046 C 
ATOM     16  C   UNL A   1      32.607  19.202  23.538  1.00  0.00    -0.030 A 
ATOM     17  C   UNL A   1      33.134  18.689  24.730  1.00  0.00     0.006 A 
ATOM     18  C   UNL A   1      32.363  20.590  23.434  1.00  0.00     0.069 A 
ATOM     19  C   UNL A   1      33.419  19.535  25.798  1.00  0.00     0.023 A 
ATOM     20  Cl  UNL A   1      31.930  21.243  21.879  1.00  0.00    -0.082 Cl
ATOM     21  C   UNL A   1      33.115  20.895  25.709  1.00  0.00     0.066 A 
ATOM     22  Cl  UNL A   1      33.421  21.879  27.103  1.00  0.00    -0.082 Cl
ENDBRANCH  12  14
ENDBRANCH   7  12
ENDBRANCH   4   6
ENDBRANCH   3   4
ENDBRANCH   2   3
ENDBRANCH   1   2
BRANCH   1  23
ATOM     23  O   UNL A   1      37.270  21.529  25.595  1.00  0.00    -0.458 OA
BRANCH  23  24
ATOM     24  C   UNL A   1      38.570  21.269  25.850  1.00  0.00     0.338 C 
ATOM     25  O   UNL A   1      39.199  20.260  25.563  1.00  0.00    -0.246 OA
BRANCH  24  26
ATOM     26  C   UNL A   1      39.174  22.423  26.527  1.00  0.00     0.060 A 
ATOM     27  C   UNL A   1      38.674  23.696  26.267  1.00  0.00     0.016 A 
ATOM     28  C   UNL A   1      40.320  22.266  27.301  1.00  0.00     0.016 A 
ATOM     29  C   UNL A   1      39.382  24.822  26.668  1.00  0.00     0.010 A 
ATOM     30  C   UNL A   1      40.962  23.399  27.810  1.00  0.00     0.010 A 
ATOM     31  C   UNL A   1      40.530  24.693  27.458  1.00  0.00    -0.014 A 
BRANCH  31  32
ATOM     32  C   UNL A   1      41.310  25.897  27.869  1.00  0.00     0.031 A 
ATOM     33  C   UNL A   1      40.648  26.965  28.704  1.00  0.00     0.074 A 
ATOM     34  C   UNL A   1      42.600  26.039  27.505  1.00  0.00     0.049 A 
ATOM     35  N   UNL A   1      41.052  28.180  28.971  1.00  0.00    -0.248 NA
ATOM     36  C   UNL A   1      39.346  26.623  29.293  1.00  0.00     0.031 C 
ATOM     37  C   UNL A   1      43.381  25.059  26.745  1.00  0.00     0.029 A 
ATOM     38  N   UNL A   1      43.487  27.065  27.724  1.00  0.00    -0.354 N 
ATOM     39  C   UNL A   1      40.021  28.774  29.693  1.00  0.00     0.074 A 
ATOM     40  C   UNL A   1      38.973  27.782  29.816  1.00  0.00     0.031 C 
ATOM     41  C   UNL A   1      44.632  25.515  26.591  1.00  0.00     0.029 A 
ATOM     42  C   UNL A   1      44.716  26.862  27.140  1.00  0.00     0.049 A 
ATOM     43  H   UNL A   1      43.264  27.868  28.248  1.00  0.00     0.167 HD
ATOM     44  C   UNL A   1      39.957  30.032  30.198  1.00  0.00     0.034 A 
ATOM     45  C   UNL A   1      45.774  27.685  27.001  1.00  0.00     0.034 A 
ATOM     46  C   UNL A   1      41.042  30.981  30.112  1.00  0.00     0.049 A 
ATOM     47  C   UNL A   1      45.676  29.084  27.549  1.00  0.00     0.074 A 
ATOM     48  C   UNL A   1      41.104  32.270  30.615  1.00  0.00     0.029 A 
ATOM     49  N   UNL A   1      42.262  30.742  29.492  1.00  0.00    -0.354 N 
ATOM     50  N   UNL A   1      44.671  29.659  28.167  1.00  0.00    -0.248 NA
ATOM     51  C   UNL A   1      46.849  29.947  27.367  1.00  0.00     0.031 C 
ATOM     52  C   UNL A   1      42.334  32.828  30.246  1.00  0.00     0.029 A 
ATOM     53  C   UNL A   1      43.072  31.865  29.576  1.00  0.00     0.049 A 
ATOM     54  H   UNL A   1      42.516  29.896  29.055  1.00  0.00     0.167 HD
ATOM     55  C   UNL A   1      45.092  30.953  28.452  1.00  0.00     0.074 A 
ATOM     56  C   UNL A   1      46.452  31.063  27.962  1.00  0.00     0.031 C 
ATOM     57  C   UNL A   1      44.417  31.962  29.060  1.00  0.00     0.034 A 
BRANCH  44  58
ATOM     58  C   UNL A   1      38.649  30.472  30.816  1.00  0.00     0.023 A 
ATOM     59  C   UNL A   1      37.622  31.071  30.067  1.00  0.00     0.031 A 
ATOM     60  C   UNL A   1      38.447  30.321  32.201  1.00  0.00     0.131 A 
ATOM     61  C   UNL A   1      36.479  31.566  30.716  1.00  0.00     0.055 A 
ATOM     62  C   UNL A   1      37.273  30.742  32.828  1.00  0.00     0.041 A 
ATOM     63  F   UNL A   1      39.399  29.776  32.975  1.00  0.00    -0.206 F 
ATOM     64  C   UNL A   1      36.286  31.385  32.087  1.00  0.00     0.022 A 
BRANCH  61  65
ATOM     65  S   UNL A   1      35.314  32.587  29.768  1.00  0.00     0.124 S 
ATOM     66  O   UNL A   1      34.293  32.879  30.770  1.00  0.00    -0.237 OA
ATOM     67  O   UNL A   1      36.146  33.712  29.355  1.00  0.00    -0.237 OA
ATOM     68  O   UNL A   1      34.882  31.702  28.689  1.00  0.00    -0.744 OA
ENDBRANCH  61  65
ENDBRANCH  44  58
BRANCH  45  69
ATOM     69  C   UNL A   1      46.976  27.237  26.239  1.00  0.00     0.023 A 
ATOM     70  C   UNL A   1      48.046  26.592  26.875  1.00  0.00     0.031 A 
ATOM     71  C   UNL A   1      47.069  27.461  24.852  1.00  0.00     0.131 A 
ATOM     72  C   UNL A   1      49.175  26.213  26.129  1.00  0.00     0.055 A 
ATOM     73  C   UNL A   1      48.168  27.034  24.107  1.00  0.00     0.041 A 
ATOM     74  F   UNL A   1      46.073  28.076  24.194  1.00  0.00    -0.206 F 
ATOM     75  C   UNL A   1      49.235  26.412  24.748  1.00  0.00     0.022 A 
BRANCH  72  76
ATOM     76  S   UNL A   1      50.600  25.507  27.002  1.00  0.00     0.124 S 
ATOM     77  O   UNL A   1      51.497  25.187  25.898  1.00  0.00    -0.237 OA
ATOM     78  O   UNL A   1      51.008  26.614  27.861  1.00  0.00    -0.237 OA
ATOM     79  O   UNL A   1      50.035  24.355  27.701  1.00  0.00    -0.744 OA
ENDBRANCH  72  76
ENDBRANCH  45  69
BRANCH  57  80
ATOM     80  C   UNL A   1      45.166  33.257  29.249  1.00  0.00     0.023 A 
ATOM     81  C   UNL A   1      45.109  34.288  28.295  1.00  0.00     0.031 A 
ATOM     82  C   UNL A   1      45.970  33.449  30.386  1.00  0.00     0.131 A 
ATOM     83  C   UNL A   1      45.888  35.442  28.466  1.00  0.00     0.055 A 
ATOM     84  C   UNL A   1      46.698  34.624  30.580  1.00  0.00     0.041 A 
ATOM     85  F   UNL A   1      46.063  32.495  31.326  1.00  0.00    -0.206 F 
ATOM     86  C   UNL A   1      46.670  35.622  29.610  1.00  0.00     0.022 A 
BRANCH  83  87
ATOM     87  S   UNL A   1      45.940  36.665  27.128  1.00  0.00     0.124 S 
ATOM     88  O   UNL A   1      46.486  35.882  26.023  1.00  0.00    -0.237 OA
ATOM     89  O   UNL A   1      44.539  37.053  27.003  1.00  0.00    -0.237 OA
ATOM     90  O   UNL A   1      46.826  37.704  27.648  1.00  0.00    -0.744 OA
ENDBRANCH  83  87
ENDBRANCH  57  80
ENDBRANCH  31  32
ENDBRANCH  24  26
ENDBRANCH  23  24
ENDBRANCH   1  23
TORSDOF 16
ENDMDL
