MODEL 1
REMARK VINA RESULT:     -11.6      0.000      0.000
REMARK SMILES O=C(OCCOC(=O)c1nn(-c2ccc(Br)cc2F)cc1CCCO)c1ccc(-c2c3nc(c(-c4cc(S(=O)(=O)[O-])ccc4F)c4ccc([nH]4)c(-c4cc(S(=O)(=O)[O-])ccc4F)c4nc(c(-c5cc(S(=O)(=O)[O-])ccc5F)c5ccc2[nH]5)C=C4)C=C3)cc1
REMARK SMILES IDX 5 1 4 2 3 3 2 4 1 5 26 6 27 7 88 8 28 9 87 10 29 11 30 12
REMARK SMILES IDX 31 13 81 14 32 15 86 16 80 17 82 18 33 19 85 20 79 21 78 22
REMARK SMILES IDX 34 24 66 25 46 26 65 27 47 28 50 29 64 30 83 31 48 32 49 33
REMARK SMILES IDX 63 35 84 36 51 37 35 38 36 39 44 40 37 41 43 42 45 43 42 44
REMARK SMILES IDX 38 45 39 46 40 47 41 48 67 49 68 50 76 51 69 52 75 53 77 54
REMARK SMILES IDX 74 55 70 56 71 57 72 58 73 59 52 60 53 61 61 62 54 63 60 64
REMARK SMILES IDX 62 65 59 66 55 67 56 68 57 69 58 70 6 71 7 72 8 73 9 74
REMARK SMILES IDX 10 75 21 76 11 77 20 78 22 79 23 80 24 81 25 82 12 84 13 85
REMARK SMILES IDX 18 86 14 87 17 88 19 89 15 90 16 91
REMARK H PARENT 82 23 50 34 25 83
REMARK Flexibility Score: inf
ROOT
ATOM      1  C   UNL A   1      32.351  29.687  25.741  1.00  0.00     0.275 C 
ENDROOT
BRANCH   1   2
ATOM      2  C   UNL A   1      32.648  30.642  26.890  1.00  0.00     0.275 C 
BRANCH   2   3
ATOM      3  O   UNL A   1      34.064  30.804  27.036  1.00  0.00    -0.458 OA
BRANCH   3   4
ATOM      4  C   UNL A   1      34.824  31.408  27.961  1.00  0.00     0.338 C 
ATOM      5  O   UNL A   1      34.333  32.411  28.490  1.00  0.00    -0.246 OA
BRANCH   4   6
ATOM      6  C   UNL A   1      36.204  31.024  28.405  1.00  0.00     0.060 A 
ATOM      7  C   UNL A   1      37.261  31.826  28.845  1.00  0.00     0.016 A 
ATOM      8  C   UNL A   1      36.408  29.628  28.408  1.00  0.00     0.016 A 
ATOM      9  C   UNL A   1      38.502  31.246  29.165  1.00  0.00     0.010 A 
ATOM     10  C   UNL A   1      37.577  29.054  28.856  1.00  0.00     0.010 A 
ATOM     11  C   UNL A   1      38.671  29.856  29.119  1.00  0.00    -0.014 A 
BRANCH  11  12
ATOM     12  C   UNL A   1      39.947  29.200  29.413  1.00  0.00     0.031 A 
ATOM     13  C   UNL A   1      40.232  29.024  30.861  1.00  0.00     0.074 A 
ATOM     14  C   UNL A   1      40.725  28.629  28.458  1.00  0.00     0.049 A 
ATOM     15  N   UNL A   1      41.106  29.657  31.570  1.00  0.00    -0.248 NA
ATOM     16  C   UNL A   1      39.336  28.169  31.656  1.00  0.00     0.031 C 
ATOM     17  C   UNL A   1      40.459  28.493  27.020  1.00  0.00     0.029 A 
ATOM     18  N   UNL A   1      41.903  27.955  28.588  1.00  0.00    -0.354 N 
ATOM     19  C   UNL A   1      41.061  29.082  32.835  1.00  0.00     0.074 A 
ATOM     20  C   UNL A   1      39.824  28.350  32.886  1.00  0.00     0.031 C 
ATOM     21  C   UNL A   1      41.306  27.591  26.472  1.00  0.00     0.029 A 
ATOM     22  C   UNL A   1      42.295  27.217  27.467  1.00  0.00     0.049 A 
ATOM     23  H   UNL A   1      42.441  27.987  29.413  1.00  0.00     0.167 HD
ATOM     24  C   UNL A   1      42.166  29.050  33.632  1.00  0.00     0.034 A 
ATOM     25  C   UNL A   1      43.364  26.375  27.345  1.00  0.00     0.034 A 
ATOM     26  C   UNL A   1      43.166  29.985  33.163  1.00  0.00     0.049 A 
ATOM     27  C   UNL A   1      44.328  26.785  28.397  1.00  0.00     0.074 A 
ATOM     28  C   UNL A   1      43.162  31.347  32.920  1.00  0.00     0.029 A 
ATOM     29  N   UNL A   1      44.230  29.491  32.439  1.00  0.00    -0.354 N 
ATOM     30  N   UNL A   1      44.922  27.948  28.395  1.00  0.00    -0.248 NA
ATOM     31  C   UNL A   1      44.212  26.148  29.700  1.00  0.00     0.031 C 
ATOM     32  C   UNL A   1      43.831  31.490  31.667  1.00  0.00     0.029 A 
ATOM     33  C   UNL A   1      44.322  30.238  31.286  1.00  0.00     0.049 A 
ATOM     34  H   UNL A   1      44.816  28.744  32.698  1.00  0.00     0.167 HD
ATOM     35  C   UNL A   1      44.843  28.389  29.707  1.00  0.00     0.074 A 
ATOM     36  C   UNL A   1      44.469  27.203  30.481  1.00  0.00     0.031 C 
ATOM     37  C   UNL A   1      44.791  29.721  30.011  1.00  0.00     0.034 A 
BRANCH  24  38
ATOM     38  C   UNL A   1      42.490  27.940  34.609  1.00  0.00     0.023 A 
ATOM     39  C   UNL A   1      43.242  26.848  34.135  1.00  0.00     0.031 A 
ATOM     40  C   UNL A   1      41.882  27.763  35.874  1.00  0.00     0.131 A 
ATOM     41  C   UNL A   1      43.298  25.641  34.857  1.00  0.00     0.055 A 
ATOM     42  C   UNL A   1      41.999  26.587  36.620  1.00  0.00     0.041 A 
ATOM     43  F   UNL A   1      41.062  28.669  36.418  1.00  0.00    -0.206 F 
ATOM     44  C   UNL A   1      42.686  25.506  36.101  1.00  0.00     0.022 A 
BRANCH  41  45
ATOM     45  S   UNL A   1      44.036  24.191  34.060  1.00  0.00     0.124 S 
ATOM     46  O   UNL A   1      45.289  24.059  34.795  1.00  0.00    -0.237 OA
ATOM     47  O   UNL A   1      43.029  23.166  34.313  1.00  0.00    -0.237 OA
ATOM     48  O   UNL A   1      44.170  24.602  32.666  1.00  0.00    -0.744 OA
ENDBRANCH  41  45
ENDBRANCH  24  38
BRANCH  25  49
ATOM     49  C   UNL A   1      43.440  25.062  26.628  1.00  0.00     0.023 A 
ATOM     50  C   UNL A   1      42.634  23.940  26.947  1.00  0.00     0.031 A 
ATOM     51  C   UNL A   1      44.153  24.989  25.410  1.00  0.00     0.131 A 
ATOM     52  C   UNL A   1      42.566  22.827  26.067  1.00  0.00     0.055 A 
ATOM     53  C   UNL A   1      44.075  23.895  24.543  1.00  0.00     0.041 A 
ATOM     54  F   UNL A   1      44.886  26.026  24.974  1.00  0.00    -0.206 F 
ATOM     55  C   UNL A   1      43.272  22.812  24.863  1.00  0.00     0.022 A 
BRANCH  52  56
ATOM     56  S   UNL A   1      41.487  21.394  26.428  1.00  0.00     0.124 S 
ATOM     57  O   UNL A   1      40.204  21.824  25.885  1.00  0.00    -0.237 OA
ATOM     58  O   UNL A   1      42.158  20.307  25.726  1.00  0.00    -0.237 OA
ATOM     59  O   UNL A   1      41.527  21.291  27.888  1.00  0.00    -0.744 OA
ENDBRANCH  52  56
ENDBRANCH  25  49
BRANCH  37  60
ATOM     60  C   UNL A   1      45.063  30.735  28.909  1.00  0.00     0.023 A 
ATOM     61  C   UNL A   1      46.341  31.201  28.509  1.00  0.00     0.031 A 
ATOM     62  C   UNL A   1      43.958  31.155  28.146  1.00  0.00     0.131 A 
ATOM     63  C   UNL A   1      46.467  32.057  27.392  1.00  0.00     0.055 A 
ATOM     64  C   UNL A   1      44.089  31.980  27.029  1.00  0.00     0.041 A 
ATOM     65  F   UNL A   1      42.720  30.737  28.455  1.00  0.00    -0.206 F 
ATOM     66  C   UNL A   1      45.343  32.439  26.651  1.00  0.00     0.022 A 
BRANCH  63  67
ATOM     67  S   UNL A   1      48.091  32.719  26.883  1.00  0.00     0.124 S 
ATOM     68  O   UNL A   1      48.900  31.522  26.683  1.00  0.00    -0.237 OA
ATOM     69  O   UNL A   1      47.761  33.477  25.679  1.00  0.00    -0.237 OA
ATOM     70  O   UNL A   1      48.494  33.543  28.024  1.00  0.00    -0.744 OA
ENDBRANCH  63  67
ENDBRANCH  37  60
ENDBRANCH  11  12
ENDBRANCH   4   6
ENDBRANCH   3   4
ENDBRANCH   2   3
ENDBRANCH   1   2
BRANCH   1  71
ATOM     71  O   UNL A   1      32.699  28.344  26.115  1.00  0.00    -0.457 OA
BRANCH  71  72
ATOM     72  C   UNL A   1      31.699  27.558  26.633  1.00  0.00     0.359 C 
ATOM     73  O   UNL A   1      31.153  27.733  27.708  1.00  0.00    -0.244 OA
BRANCH  72  74
ATOM     74  C   UNL A   1      31.416  26.431  25.738  1.00  0.00     0.173 A 
ATOM     75  N   UNL A   1      31.901  25.216  26.052  1.00  0.00    -0.160 NA
ATOM     76  C   UNL A   1      30.713  26.393  24.492  1.00  0.00     0.006 A 
ATOM     77  N   UNL A   1      31.789  24.500  24.916  1.00  0.00    -0.237 N 
ATOM     78  C   UNL A   1      31.079  25.171  23.957  1.00  0.00     0.119 A 
BRANCH  76  79
ATOM     79  C   UNL A   1      29.925  27.437  23.770  1.00  0.00     0.042 C 
BRANCH  79  80
ATOM     80  C   UNL A   1      30.494  27.970  22.456  1.00  0.00     0.033 C 
BRANCH  80  81
ATOM     81  C   UNL A   1      30.617  29.492  22.426  1.00  0.00     0.156 C 
BRANCH  81  82
ATOM     82  O   UNL A   1      30.008  30.003  21.245  1.00  0.00    -0.396 OA
ATOM     83  H   UNL A   1      29.601  30.862  21.436  1.00  0.00     0.210 HD
ENDBRANCH  81  82
ENDBRANCH  80  81
ENDBRANCH  79  80
ENDBRANCH  76  79
BRANCH  77  84
ATOM     84  C   UNL A   1      32.341  23.211  24.841  1.00  0.00     0.100 A 
ATOM     85  C   UNL A   1      31.530  22.108  25.134  1.00  0.00     0.032 A 
ATOM     86  C   UNL A   1      33.680  23.029  24.501  1.00  0.00     0.149 A 
ATOM     87  C   UNL A   1      32.061  20.822  25.043  1.00  0.00     0.018 A 
ATOM     88  C   UNL A   1      34.227  21.750  24.466  1.00  0.00     0.057 A 
ATOM     89  F   UNL A   1      34.485  24.076  24.284  1.00  0.00    -0.205 F 
ATOM     90  C   UNL A   1      33.409  20.651  24.723  1.00  0.00     0.021 A 
ATOM     91  Br  UNL A   1      34.128  18.904  24.643  1.00  0.00    -0.051 Br
ENDBRANCH  77  84
ENDBRANCH  72  74
ENDBRANCH  71  72
ENDBRANCH   1  71
TORSDOF 19
ENDMDL
MODEL 2
REMARK VINA RESULT:     -11.5      1.503      1.788
REMARK SMILES O=C(OCCOC(=O)c1nn(-c2ccc(Br)cc2F)cc1CCCO)c1ccc(-c2c3nc(c(-c4cc(S(=O)(=O)[O-])ccc4F)c4ccc([nH]4)c(-c4cc(S(=O)(=O)[O-])ccc4F)c4nc(c(-c5cc(S(=O)(=O)[O-])ccc5F)c5ccc2[nH]5)C=C4)C=C3)cc1
REMARK SMILES IDX 5 1 4 2 3 3 2 4 1 5 26 6 27 7 88 8 28 9 87 10 29 11 30 12
REMARK SMILES IDX 31 13 81 14 32 15 86 16 80 17 82 18 33 19 85 20 79 21 78 22
REMARK SMILES IDX 34 24 66 25 46 26 65 27 47 28 50 29 64 30 83 31 48 32 49 33
REMARK SMILES IDX 63 35 84 36 51 37 35 38 36 39 44 40 37 41 43 42 45 43 42 44
REMARK SMILES IDX 38 45 39 46 40 47 41 48 67 49 68 50 76 51 69 52 75 53 77 54
REMARK SMILES IDX 74 55 70 56 71 57 72 58 73 59 52 60 53 61 61 62 54 63 60 64
REMARK SMILES IDX 62 65 59 66 55 67 56 68 57 69 58 70 6 71 7 72 8 73 9 74
REMARK SMILES IDX 10 75 21 76 11 77 20 78 22 79 23 80 24 81 25 82 12 84 13 85
REMARK SMILES IDX 18 86 14 87 17 88 19 89 15 90 16 91
REMARK H PARENT 82 23 50 34 25 83
REMARK Flexibility Score: inf
ROOT
ATOM      1  C   UNL A   1      32.138  29.628  26.920  1.00  0.00     0.275 C 
ENDROOT
BRANCH   1   2
ATOM      2  C   UNL A   1      32.834  30.982  26.986  1.00  0.00     0.275 C 
BRANCH   2   3
ATOM      3  O   UNL A   1      33.932  30.921  27.905  1.00  0.00    -0.458 OA
BRANCH   3   4
ATOM      4  C   UNL A   1      35.088  31.594  27.994  1.00  0.00     0.338 C 
ATOM      5  O   UNL A   1      35.064  32.760  27.585  1.00  0.00    -0.246 OA
BRANCH   4   6
ATOM      6  C   UNL A   1      36.405  31.090  28.503  1.00  0.00     0.060 A 
ATOM      7  C   UNL A   1      37.443  31.776  29.141  1.00  0.00     0.016 A 
ATOM      8  C   UNL A   1      36.558  29.698  28.336  1.00  0.00     0.016 A 
ATOM      9  C   UNL A   1      38.627  31.101  29.489  1.00  0.00     0.010 A 
ATOM     10  C   UNL A   1      37.659  29.015  28.805  1.00  0.00     0.010 A 
ATOM     11  C   UNL A   1      38.750  29.722  29.271  1.00  0.00    -0.014 A 
BRANCH  11  12
ATOM     12  C   UNL A   1      39.969  28.973  29.587  1.00  0.00     0.031 A 
ATOM     13  C   UNL A   1      40.245  28.827  31.039  1.00  0.00     0.074 A 
ATOM     14  C   UNL A   1      40.691  28.304  28.652  1.00  0.00     0.049 A 
ATOM     15  N   UNL A   1      41.172  29.409  31.723  1.00  0.00    -0.248 NA
ATOM     16  C   UNL A   1      39.285  28.079  31.867  1.00  0.00     0.031 C 
ATOM     17  C   UNL A   1      40.408  28.139  27.220  1.00  0.00     0.029 A 
ATOM     18  N   UNL A   1      41.810  27.540  28.804  1.00  0.00    -0.354 N 
ATOM     19  C   UNL A   1      41.085  28.887  33.008  1.00  0.00     0.074 A 
ATOM     20  C   UNL A   1      39.792  28.263  33.089  1.00  0.00     0.031 C 
ATOM     21  C   UNL A   1      41.174  27.150  26.704  1.00  0.00     0.029 A 
ATOM     22  C   UNL A   1      42.133  26.731  27.710  1.00  0.00     0.049 A 
ATOM     23  H   UNL A   1      42.353  27.557  29.626  1.00  0.00     0.167 HD
ATOM     24  C   UNL A   1      42.187  28.792  33.804  1.00  0.00     0.034 A 
ATOM     25  C   UNL A   1      43.128  25.800  27.618  1.00  0.00     0.034 A 
ATOM     26  C   UNL A   1      43.260  29.622  33.299  1.00  0.00     0.049 A 
ATOM     27  C   UNL A   1      44.127  26.165  28.652  1.00  0.00     0.074 A 
ATOM     28  C   UNL A   1      43.369  30.970  33.006  1.00  0.00     0.029 A 
ATOM     29  N   UNL A   1      44.276  29.015  32.592  1.00  0.00    -0.354 N 
ATOM     30  N   UNL A   1      44.817  27.274  28.606  1.00  0.00    -0.248 NA
ATOM     31  C   UNL A   1      43.965  25.588  29.978  1.00  0.00     0.031 C 
ATOM     32  C   UNL A   1      44.041  31.011  31.748  1.00  0.00     0.029 A 
ATOM     33  C   UNL A   1      44.423  29.710  31.412  1.00  0.00     0.049 A 
ATOM     34  H   UNL A   1      44.798  28.232  32.877  1.00  0.00     0.167 HD
ATOM     35  C   UNL A   1      44.781  27.767  29.901  1.00  0.00     0.074 A 
ATOM     36  C   UNL A   1      44.314  26.646  30.719  1.00  0.00     0.031 C 
ATOM     37  C   UNL A   1      44.842  29.109  30.156  1.00  0.00     0.034 A 
BRANCH  24  38
ATOM     38  C   UNL A   1      42.423  27.695  34.820  1.00  0.00     0.023 A 
ATOM     39  C   UNL A   1      43.241  26.614  34.441  1.00  0.00     0.031 A 
ATOM     40  C   UNL A   1      41.683  27.515  36.013  1.00  0.00     0.131 A 
ATOM     41  C   UNL A   1      43.240  25.413  35.176  1.00  0.00     0.055 A 
ATOM     42  C   UNL A   1      41.740  26.347  36.778  1.00  0.00     0.041 A 
ATOM     43  F   UNL A   1      40.793  28.409  36.456  1.00  0.00    -0.206 F 
ATOM     44  C   UNL A   1      42.499  25.275  36.347  1.00  0.00     0.022 A 
BRANCH  41  45
ATOM     45  S   UNL A   1      44.086  23.972  34.477  1.00  0.00     0.124 S 
ATOM     46  O   UNL A   1      45.006  24.600  33.535  1.00  0.00    -0.237 OA
ATOM     47  O   UNL A   1      44.689  23.375  35.664  1.00  0.00    -0.237 OA
ATOM     48  O   UNL A   1      43.003  23.202  33.874  1.00  0.00    -0.744 OA
ENDBRANCH  41  45
ENDBRANCH  24  38
BRANCH  25  49
ATOM     49  C   UNL A   1      43.091  24.459  26.948  1.00  0.00     0.023 A 
ATOM     50  C   UNL A   1      44.044  24.029  25.990  1.00  0.00     0.031 A 
ATOM     51  C   UNL A   1      42.232  23.462  27.463  1.00  0.00     0.131 A 
ATOM     52  C   UNL A   1      44.106  22.665  25.598  1.00  0.00     0.055 A 
ATOM     53  C   UNL A   1      42.305  22.119  27.080  1.00  0.00     0.041 A 
ATOM     54  F   UNL A   1      41.345  23.745  28.430  1.00  0.00    -0.206 F 
ATOM     55  C   UNL A   1      43.251  21.712  26.153  1.00  0.00     0.022 A 
BRANCH  52  56
ATOM     56  S   UNL A   1      45.365  22.075  24.408  1.00  0.00     0.124 S 
ATOM     57  O   UNL A   1      44.604  21.147  23.582  1.00  0.00    -0.237 OA
ATOM     58  O   UNL A   1      45.799  23.310  23.767  1.00  0.00    -0.237 OA
ATOM     59  O   UNL A   1      46.376  21.446  25.260  1.00  0.00    -0.744 OA
ENDBRANCH  52  56
ENDBRANCH  25  49
BRANCH  37  60
ATOM     60  C   UNL A   1      45.192  30.056  29.017  1.00  0.00     0.023 A 
ATOM     61  C   UNL A   1      46.500  30.451  28.641  1.00  0.00     0.031 A 
ATOM     62  C   UNL A   1      44.132  30.481  28.196  1.00  0.00     0.131 A 
ATOM     63  C   UNL A   1      46.699  31.246  27.489  1.00  0.00     0.055 A 
ATOM     64  C   UNL A   1      44.334  31.244  27.046  1.00  0.00     0.041 A 
ATOM     65  F   UNL A   1      42.868  30.127  28.481  1.00  0.00    -0.206 F 
ATOM     66  C   UNL A   1      45.617  31.634  26.691  1.00  0.00     0.022 A 
BRANCH  63  67
ATOM     67  S   UNL A   1      48.365  31.817  27.008  1.00  0.00     0.124 S 
ATOM     68  O   UNL A   1      48.944  32.279  28.263  1.00  0.00    -0.237 OA
ATOM     69  O   UNL A   1      48.959  30.612  26.433  1.00  0.00    -0.237 OA
ATOM     70  O   UNL A   1      48.092  32.878  26.036  1.00  0.00    -0.744 OA
ENDBRANCH  63  67
ENDBRANCH  37  60
ENDBRANCH  11  12
ENDBRANCH   4   6
ENDBRANCH   3   4
ENDBRANCH   2   3
ENDBRANCH   1   2
BRANCH   1  71
ATOM     71  O   UNL A   1      31.481  29.476  25.651  1.00  0.00    -0.457 OA
BRANCH  71  72
ATOM     72  C   UNL A   1      32.095  28.677  24.718  1.00  0.00     0.359 C 
ATOM     73  O   UNL A   1      33.106  28.965  24.102  1.00  0.00    -0.244 OA
BRANCH  72  74
ATOM     74  C   UNL A   1      31.329  27.443  24.514  1.00  0.00     0.173 A 
ATOM     75  N   UNL A   1      31.884  26.269  24.869  1.00  0.00    -0.160 NA
ATOM     76  C   UNL A   1      30.040  27.241  23.928  1.00  0.00     0.006 A 
ATOM     77  N   UNL A   1      31.130  25.337  24.257  1.00  0.00    -0.237 N 
ATOM     78  C   UNL A   1      30.011  25.879  23.684  1.00  0.00     0.119 A 
BRANCH  76  79
ATOM     79  C   UNL A   1      29.000  28.210  23.469  1.00  0.00     0.042 C 
BRANCH  79  80
ATOM     80  C   UNL A   1      29.390  29.202  22.375  1.00  0.00     0.033 C 
BRANCH  80  81
ATOM     81  C   UNL A   1      29.198  30.660  22.785  1.00  0.00     0.156 C 
BRANCH  81  82
ATOM     82  O   UNL A   1      29.643  31.519  21.740  1.00  0.00    -0.396 OA
ATOM     83  H   UNL A   1      29.254  32.399  21.858  1.00  0.00     0.210 HD
ENDBRANCH  81  82
ENDBRANCH  80  81
ENDBRANCH  79  80
ENDBRANCH  76  79
BRANCH  77  84
ATOM     84  C   UNL A   1      31.515  23.987  24.293  1.00  0.00     0.100 A 
ATOM     85  C   UNL A   1      31.276  23.244  25.455  1.00  0.00     0.032 A 
ATOM     86  C   UNL A   1      32.144  23.397  23.199  1.00  0.00     0.149 A 
ATOM     87  C   UNL A   1      31.636  21.898  25.497  1.00  0.00     0.018 A 
ATOM     88  C   UNL A   1      32.556  22.069  23.258  1.00  0.00     0.057 A 
ATOM     89  F   UNL A   1      32.440  24.111  22.106  1.00  0.00    -0.205 F 
ATOM     90  C   UNL A   1      32.285  21.321  24.404  1.00  0.00     0.021 A 
ATOM     91  Br  UNL A   1      32.805  19.506  24.486  1.00  0.00    -0.051 Br
ENDBRANCH  77  84
ENDBRANCH  72  74
ENDBRANCH  71  72
ENDBRANCH   1  71
TORSDOF 19
ENDMDL
MODEL 3
REMARK VINA RESULT:     -11.5      2.511      7.235
REMARK SMILES O=C(OCCOC(=O)c1nn(-c2ccc(Br)cc2F)cc1CCCO)c1ccc(-c2c3nc(c(-c4cc(S(=O)(=O)[O-])ccc4F)c4ccc([nH]4)c(-c4cc(S(=O)(=O)[O-])ccc4F)c4nc(c(-c5cc(S(=O)(=O)[O-])ccc5F)c5ccc2[nH]5)C=C4)C=C3)cc1
REMARK SMILES IDX 5 1 4 2 3 3 2 4 1 5 26 6 27 7 88 8 28 9 87 10 29 11 30 12
REMARK SMILES IDX 31 13 81 14 32 15 86 16 80 17 82 18 33 19 85 20 79 21 78 22
REMARK SMILES IDX 34 24 66 25 46 26 65 27 47 28 50 29 64 30 83 31 48 32 49 33
REMARK SMILES IDX 63 35 84 36 51 37 35 38 36 39 44 40 37 41 43 42 45 43 42 44
REMARK SMILES IDX 38 45 39 46 40 47 41 48 67 49 68 50 76 51 69 52 75 53 77 54
REMARK SMILES IDX 74 55 70 56 71 57 72 58 73 59 52 60 53 61 61 62 54 63 60 64
REMARK SMILES IDX 62 65 59 66 55 67 56 68 57 69 58 70 6 71 7 72 8 73 9 74
REMARK SMILES IDX 10 75 21 76 11 77 20 78 22 79 23 80 24 81 25 82 12 84 13 85
REMARK SMILES IDX 18 86 14 87 17 88 19 89 15 90 16 91
REMARK H PARENT 82 23 50 34 25 83
REMARK Flexibility Score: inf
ROOT
ATOM      1  C   UNL A   1      33.545  28.951  26.166  1.00  0.00     0.275 C 
ENDROOT
BRANCH   1   2
ATOM      2  C   UNL A   1      34.148  29.887  27.207  1.00  0.00     0.275 C 
BRANCH   2   3
ATOM      3  O   UNL A   1      35.556  29.643  27.324  1.00  0.00    -0.458 OA
BRANCH   3   4
ATOM      4  C   UNL A   1      36.418  29.744  28.345  1.00  0.00     0.338 C 
ATOM      5  O   UNL A   1      36.059  30.464  29.283  1.00  0.00    -0.246 OA
BRANCH   4   6
ATOM      6  C   UNL A   1      37.772  29.111  28.467  1.00  0.00     0.060 A 
ATOM      7  C   UNL A   1      38.251  28.192  29.406  1.00  0.00     0.016 A 
ATOM      8  C   UNL A   1      38.648  29.490  27.429  1.00  0.00     0.016 A 
ATOM      9  C   UNL A   1      39.592  27.767  29.358  1.00  0.00     0.010 A 
ATOM     10  C   UNL A   1      39.915  28.965  27.304  1.00  0.00     0.010 A 
ATOM     11  C   UNL A   1      40.438  28.199  28.328  1.00  0.00    -0.014 A 
BRANCH  11  12
ATOM     12  C   UNL A   1      41.848  27.813  28.243  1.00  0.00     0.031 A 
ATOM     13  C   UNL A   1      42.097  26.531  27.536  1.00  0.00     0.074 A 
ATOM     14  C   UNL A   1      42.865  28.635  28.609  1.00  0.00     0.049 A 
ATOM     15  N   UNL A   1      42.465  25.407  28.055  1.00  0.00    -0.248 NA
ATOM     16  C   UNL A   1      41.737  26.431  26.112  1.00  0.00     0.031 C 
ATOM     17  C   UNL A   1      42.797  30.023  29.084  1.00  0.00     0.029 A 
ATOM     18  N   UNL A   1      44.212  28.429  28.548  1.00  0.00    -0.354 N 
ATOM     19  C   UNL A   1      42.652  24.536  26.988  1.00  0.00     0.074 A 
ATOM     20  C   UNL A   1      41.984  25.141  25.868  1.00  0.00     0.031 C 
ATOM     21  C   UNL A   1      44.022  30.595  29.032  1.00  0.00     0.029 A 
ATOM     22  C   UNL A   1      44.999  29.575  28.699  1.00  0.00     0.049 A 
ATOM     23  H   UNL A   1      44.603  27.535  28.409  1.00  0.00     0.167 HD
ATOM     24  C   UNL A   1      43.560  23.522  27.060  1.00  0.00     0.034 A 
ATOM     25  C   UNL A   1      46.355  29.685  28.584  1.00  0.00     0.034 A 
ATOM     26  C   UNL A   1      43.947  23.275  28.433  1.00  0.00     0.049 A 
ATOM     27  C   UNL A   1      46.896  28.321  28.807  1.00  0.00     0.074 A 
ATOM     28  C   UNL A   1      43.243  22.966  29.584  1.00  0.00     0.029 A 
ATOM     29  N   UNL A   1      45.153  23.779  28.871  1.00  0.00    -0.354 N 
ATOM     30  N   UNL A   1      46.791  27.699  29.951  1.00  0.00    -0.248 NA
ATOM     31  C   UNL A   1      47.055  27.461  27.644  1.00  0.00     0.031 C 
ATOM     32  C   UNL A   1      43.811  23.806  30.588  1.00  0.00     0.029 A 
ATOM     33  C   UNL A   1      44.907  24.473  30.035  1.00  0.00     0.049 A 
ATOM     34  H   UNL A   1      46.027  23.665  28.434  1.00  0.00     0.167 HD
ATOM     35  C   UNL A   1      46.414  26.407  29.619  1.00  0.00     0.074 A 
ATOM     36  C   UNL A   1      46.673  26.297  28.181  1.00  0.00     0.031 C 
ATOM     37  C   UNL A   1      45.653  25.645  30.462  1.00  0.00     0.034 A 
BRANCH  24  38
ATOM     38  C   UNL A   1      44.360  22.997  25.888  1.00  0.00     0.023 A 
ATOM     39  C   UNL A   1      44.416  21.602  25.703  1.00  0.00     0.031 A 
ATOM     40  C   UNL A   1      45.279  23.754  25.123  1.00  0.00     0.131 A 
ATOM     41  C   UNL A   1      45.388  21.021  24.867  1.00  0.00     0.055 A 
ATOM     42  C   UNL A   1      46.196  23.176  24.240  1.00  0.00     0.041 A 
ATOM     43  F   UNL A   1      45.414  25.077  25.254  1.00  0.00    -0.206 F 
ATOM     44  C   UNL A   1      46.275  21.801  24.129  1.00  0.00     0.022 A 
BRANCH  41  45
ATOM     45  S   UNL A   1      45.590  19.222  24.898  1.00  0.00     0.124 S 
ATOM     46  O   UNL A   1      45.725  18.917  23.478  1.00  0.00    -0.237 OA
ATOM     47  O   UNL A   1      46.794  19.069  25.707  1.00  0.00    -0.237 OA
ATOM     48  O   UNL A   1      44.356  18.753  25.523  1.00  0.00    -0.744 OA
ENDBRANCH  41  45
ENDBRANCH  24  38
BRANCH  25  49
ATOM     49  C   UNL A   1      47.152  30.793  27.965  1.00  0.00     0.023 A 
ATOM     50  C   UNL A   1      46.588  31.819  27.164  1.00  0.00     0.031 A 
ATOM     51  C   UNL A   1      48.483  30.998  28.392  1.00  0.00     0.131 A 
ATOM     52  C   UNL A   1      47.345  32.975  26.835  1.00  0.00     0.055 A 
ATOM     53  C   UNL A   1      49.220  32.143  28.072  1.00  0.00     0.041 A 
ATOM     54  F   UNL A   1      49.088  30.127  29.215  1.00  0.00    -0.206 F 
ATOM     55  C   UNL A   1      48.650  33.142  27.301  1.00  0.00     0.022 A 
BRANCH  52  56
ATOM     56  S   UNL A   1      46.620  34.338  25.854  1.00  0.00     0.124 S 
ATOM     57  O   UNL A   1      46.275  35.313  26.881  1.00  0.00    -0.237 OA
ATOM     58  O   UNL A   1      47.711  34.698  24.956  1.00  0.00    -0.237 OA
ATOM     59  O   UNL A   1      45.471  33.715  25.194  1.00  0.00    -0.744 OA
ENDBRANCH  52  56
ENDBRANCH  25  49
BRANCH  37  60
ATOM     60  C   UNL A   1      45.417  26.139  31.883  1.00  0.00     0.023 A 
ATOM     61  C   UNL A   1      44.306  26.902  32.320  1.00  0.00     0.031 A 
ATOM     62  C   UNL A   1      46.321  25.697  32.866  1.00  0.00     0.131 A 
ATOM     63  C   UNL A   1      44.144  27.199  33.692  1.00  0.00     0.055 A 
ATOM     64  C   UNL A   1      46.144  25.971  34.222  1.00  0.00     0.041 A 
ATOM     65  F   UNL A   1      47.385  24.953  32.526  1.00  0.00    -0.206 F 
ATOM     66  C   UNL A   1      45.059  26.727  34.640  1.00  0.00     0.022 A 
BRANCH  63  67
ATOM     67  S   UNL A   1      42.754  28.225  34.282  1.00  0.00     0.124 S 
ATOM     68  O   UNL A   1      42.884  28.175  35.734  1.00  0.00    -0.237 OA
ATOM     69  O   UNL A   1      43.028  29.517  33.659  1.00  0.00    -0.237 OA
ATOM     70  O   UNL A   1      41.575  27.537  33.753  1.00  0.00    -0.744 OA
ENDBRANCH  63  67
ENDBRANCH  37  60
ENDBRANCH  11  12
ENDBRANCH   4   6
ENDBRANCH   3   4
ENDBRANCH   2   3
ENDBRANCH   1   2
BRANCH   1  71
ATOM     71  O   UNL A   1      33.239  27.682  26.765  1.00  0.00    -0.457 OA
BRANCH  71  72
ATOM     72  C   UNL A   1      31.913  27.350  26.891  1.00  0.00     0.359 C 
ATOM     73  O   UNL A   1      31.127  27.875  27.659  1.00  0.00    -0.244 OA
BRANCH  72  74
ATOM     74  C   UNL A   1      31.578  26.225  26.011  1.00  0.00     0.173 A 
ATOM     75  N   UNL A   1      32.120  25.020  26.266  1.00  0.00    -0.160 NA
ATOM     76  C   UNL A   1      30.767  26.181  24.833  1.00  0.00     0.006 A 
ATOM     77  N   UNL A   1      31.925  24.313  25.136  1.00  0.00    -0.237 N 
ATOM     78  C   UNL A   1      31.114  24.975  24.253  1.00  0.00     0.119 A 
BRANCH  76  79
ATOM     79  C   UNL A   1      29.891  27.211  24.198  1.00  0.00     0.042 C 
BRANCH  79  80
ATOM     80  C   UNL A   1      30.494  28.589  23.935  1.00  0.00     0.033 C 
BRANCH  80  81
ATOM     81  C   UNL A   1      29.846  29.318  22.760  1.00  0.00     0.156 C 
BRANCH  81  82
ATOM     82  O   UNL A   1      30.680  29.218  21.610  1.00  0.00    -0.396 OA
ATOM     83  H   UNL A   1      30.518  29.976  21.027  1.00  0.00     0.210 HD
ENDBRANCH  81  82
ENDBRANCH  80  81
ENDBRANCH  79  80
ENDBRANCH  76  79
BRANCH  77  84
ATOM     84  C   UNL A   1      32.501  23.040  24.995  1.00  0.00     0.100 A 
ATOM     85  C   UNL A   1      31.694  21.909  25.168  1.00  0.00     0.032 A 
ATOM     86  C   UNL A   1      33.856  22.900  24.708  1.00  0.00     0.149 A 
ATOM     87  C   UNL A   1      32.249  20.640  25.012  1.00  0.00     0.018 A 
ATOM     88  C   UNL A   1      34.425  21.634  24.608  1.00  0.00     0.057 A 
ATOM     89  F   UNL A   1      34.654  23.970  24.606  1.00  0.00    -0.205 F 
ATOM     90  C   UNL A   1      33.613  20.509  24.745  1.00  0.00     0.021 A 
ATOM     91  Br  UNL A   1      34.363  18.782  24.575  1.00  0.00    -0.051 Br
ENDBRANCH  77  84
ENDBRANCH  72  74
ENDBRANCH  71  72
ENDBRANCH   1  71
TORSDOF 19
ENDMDL
