MODEL 1
REMARK VINA RESULT:     -11.5      0.000      0.000
REMARK SMILES O=C(OCCOC(=O)[C@@H]1CCCN1C(=O)OCc1ccc(/N=N/c2ccccc2)cc1)c1ccc(-c2c3nc(c(-c4cc(S(=O)(=O)[O-])ccc4F)c4ccc([nH]4)c(-c4cc(S(=O)(=O)[O-])ccc4F)c4nc(c(-c5cc(S(=O)(=O)[O-])ccc5F)c5ccc2[nH]5)C=C4)C=C3)cc1
REMARK SMILES IDX 6 1 5 2 4 3 3 4 2 5 1 6 32 7 33 8 94 9 34 10 93 11 35 12
REMARK SMILES IDX 36 13 37 14 87 15 38 16 92 17 86 18 88 19 39 20 91 21 85 22
REMARK SMILES IDX 84 23 40 25 72 26 52 27 71 28 53 29 56 30 70 31 89 32 54 33
REMARK SMILES IDX 55 34 69 36 90 37 57 38 41 39 42 40 50 41 43 42 49 43 51 44
REMARK SMILES IDX 48 45 44 46 45 47 46 48 47 49 73 50 74 51 82 52 75 53 81 54
REMARK SMILES IDX 83 55 80 56 76 57 77 58 78 59 79 60 58 61 59 62 67 63 60 64
REMARK SMILES IDX 66 65 68 66 65 67 61 68 62 69 63 70 64 71 7 72 8 73 9 74
REMARK SMILES IDX 10 75 13 76 11 77 12 78 14 79 15 80 16 81 17 82 18 83 19 84
REMARK SMILES IDX 31 85 20 86 30 87 21 88 22 89 23 90 24 91 25 92 29 93 26 94
REMARK SMILES IDX 28 95 27 96
REMARK H PARENT 88 24 56 35
REMARK Flexibility Score: inf
ROOT
ATOM      1  O   UNL A   1      46.037  20.751  39.414  1.00  0.00    -0.461 OA
ENDROOT
BRANCH   1   2
ATOM      2  C   UNL A   1      46.864  21.931  39.468  1.00  0.00     0.274 C 
BRANCH   2   3
ATOM      3  C   UNL A   1      46.205  23.158  38.797  1.00  0.00     0.275 C 
BRANCH   3   4
ATOM      4  O   UNL A   1      47.165  24.016  38.144  1.00  0.00    -0.458 OA
BRANCH   4   5
ATOM      5  C   UNL A   1      47.220  24.373  36.838  1.00  0.00     0.338 C 
ATOM      6  O   UNL A   1      48.235  24.160  36.181  1.00  0.00    -0.246 OA
BRANCH   5   7
ATOM      7  C   UNL A   1      46.138  25.153  36.182  1.00  0.00     0.060 A 
ATOM      8  C   UNL A   1      44.446  24.490  35.781  1.00  0.00     0.016 A 
ATOM      9  C   UNL A   1      46.550  26.850  35.615  1.00  0.00     0.016 A 
ATOM     10  C   UNL A   1      43.267  25.464  34.846  1.00  0.00     0.010 A 
ATOM     11  C   UNL A   1      45.321  27.832  34.665  1.00  0.00     0.010 A 
ATOM     12  C   UNL A   1      43.667  27.114  34.285  1.00  0.00    -0.014 A 
BRANCH  12  13
ATOM     13  C   UNL A   1      42.540  27.762  33.521  1.00  0.00     0.031 A 
ATOM     14  C   UNL A   1      41.583  28.730  34.167  1.00  0.00     0.074 A 
ATOM     15  C   UNL A   1      42.518  27.640  32.172  1.00  0.00     0.049 A 
ATOM     16  N   UNL A   1      40.546  29.344  33.649  1.00  0.00    -0.248 NA
ATOM     17  C   UNL A   1      41.847  29.110  35.552  1.00  0.00     0.031 C 
ATOM     18  C   UNL A   1      43.547  26.983  31.367  1.00  0.00     0.029 A 
ATOM     19  N   UNL A   1      41.612  28.050  31.223  1.00  0.00    -0.354 N 
ATOM     20  C   UNL A   1      40.059  30.185  34.652  1.00  0.00     0.074 A 
ATOM     21  C   UNL A   1      40.871  29.958  35.817  1.00  0.00     0.031 C 
ATOM     22  C   UNL A   1      43.175  26.926  30.083  1.00  0.00     0.029 A 
ATOM     23  C   UNL A   1      41.876  27.556  29.959  1.00  0.00     0.049 A 
ATOM     24  H   UNL A   1      40.849  28.639  31.423  1.00  0.00     0.167 HD
ATOM     25  C   UNL A   1      39.046  31.084  34.607  1.00  0.00     0.034 A 
ATOM     26  C   UNL A   1      41.149  27.579  28.827  1.00  0.00     0.034 A 
ATOM     27  C   UNL A   1      38.228  31.272  33.437  1.00  0.00     0.049 A 
ATOM     28  C   UNL A   1      39.877  28.373  28.852  1.00  0.00     0.074 A 
ATOM     29  C   UNL A   1      37.101  32.058  33.278  1.00  0.00     0.029 A 
ATOM     30  N   UNL A   1      38.451  30.643  32.216  1.00  0.00    -0.354 N 
ATOM     31  N   UNL A   1      39.377  29.077  29.840  1.00  0.00    -0.248 NA
ATOM     32  C   UNL A   1      39.095  28.414  27.615  1.00  0.00     0.031 C 
ATOM     33  C   UNL A   1      36.597  31.835  31.991  1.00  0.00     0.029 A 
ATOM     34  C   UNL A   1      37.460  30.988  31.312  1.00  0.00     0.049 A 
ATOM     35  H   UNL A   1      39.204  30.040  32.022  1.00  0.00     0.167 HD
ATOM     36  C   UNL A   1      38.246  29.695  29.328  1.00  0.00     0.074 A 
ATOM     37  C   UNL A   1      38.144  29.275  27.941  1.00  0.00     0.031 C 
ATOM     38  C   UNL A   1      37.382  30.543  29.939  1.00  0.00     0.034 A 
BRANCH  25  39
ATOM     39  C   UNL A   1      38.718  31.807  35.898  1.00  0.00     0.023 A 
ATOM     40  C   UNL A   1      38.109  31.160  36.995  1.00  0.00     0.031 A 
ATOM     41  C   UNL A   1      38.887  33.201  35.975  1.00  0.00     0.131 A 
ATOM     42  C   UNL A   1      37.597  31.920  38.062  1.00  0.00     0.055 A 
ATOM     43  C   UNL A   1      38.459  33.939  37.081  1.00  0.00     0.041 A 
ATOM     44  F   UNL A   1      39.430  33.882  34.953  1.00  0.00    -0.206 F 
ATOM     45  C   UNL A   1      37.790  33.303  38.122  1.00  0.00     0.022 A 
BRANCH  42  46
ATOM     46  S   UNL A   1      36.507  31.122  39.278  1.00  0.00     0.124 S 
ATOM     47  O   UNL A   1      35.424  32.097  39.396  1.00  0.00    -0.237 OA
ATOM     48  O   UNL A   1      36.165  29.863  38.629  1.00  0.00    -0.237 OA
ATOM     49  O   UNL A   1      37.347  31.000  40.468  1.00  0.00    -0.744 OA
ENDBRANCH  42  46
ENDBRANCH  25  39
BRANCH  26  50
ATOM     50  C   UNL A   1      41.580  26.813  27.616  1.00  0.00     0.023 A 
ATOM     51  C   UNL A   1      41.451  25.419  27.537  1.00  0.00     0.031 A 
ATOM     52  C   UNL A   1      42.174  27.477  26.522  1.00  0.00     0.131 A 
ATOM     53  C   UNL A   1      41.949  24.728  26.418  1.00  0.00     0.055 A 
ATOM     54  C   UNL A   1      42.625  26.790  25.391  1.00  0.00     0.041 A 
ATOM     55  F   UNL A   1      42.321  28.811  26.533  1.00  0.00    -0.206 F 
ATOM     56  C   UNL A   1      42.527  25.404  25.341  1.00  0.00     0.022 A 
BRANCH  53  57
ATOM     57  S   UNL A   1      41.912  22.914  26.427  1.00  0.00     0.124 S 
ATOM     58  O   UNL A   1      42.790  22.591  25.309  1.00  0.00    -0.237 OA
ATOM     59  O   UNL A   1      42.428  22.609  27.758  1.00  0.00    -0.237 OA
ATOM     60  O   UNL A   1      40.499  22.600  26.223  1.00  0.00    -0.744 OA
ENDBRANCH  53  57
ENDBRANCH  26  50
BRANCH  38  61
ATOM     61  C   UNL A   1      36.284  31.108  29.082  1.00  0.00     0.023 A 
ATOM     62  C   UNL A   1      35.249  30.300  28.587  1.00  0.00     0.031 A 
ATOM     63  C   UNL A   1      36.292  32.471  28.737  1.00  0.00     0.131 A 
ATOM     64  C   UNL A   1      34.304  30.845  27.711  1.00  0.00     0.055 A 
ATOM     65  C   UNL A   1      35.299  33.026  27.932  1.00  0.00     0.041 A 
ATOM     66  F   UNL A   1      37.267  33.283  29.177  1.00  0.00    -0.206 F 
ATOM     67  C   UNL A   1      34.307  32.207  27.400  1.00  0.00     0.022 A 
BRANCH  64  68
ATOM     68  S   UNL A   1      33.153  29.719  26.882  1.00  0.00     0.124 S 
ATOM     69  O   UNL A   1      31.876  30.105  27.476  1.00  0.00    -0.237 OA
ATOM     70  O   UNL A   1      33.333  30.065  25.476  1.00  0.00    -0.237 OA
ATOM     71  O   UNL A   1      33.638  28.394  27.262  1.00  0.00    -0.744 OA
ENDBRANCH  64  68
ENDBRANCH  38  61
ENDBRANCH  12  13
ENDBRANCH   5   7
ENDBRANCH   4   5
ENDBRANCH   3   4
ENDBRANCH   2   3
ENDBRANCH   1   2
BRANCH   1  72
ATOM     72  C   UNL A   1      46.596  19.671  38.826  1.00  0.00     0.329 C 
ATOM     73  O   UNL A   1      46.870  19.643  37.630  1.00  0.00    -0.250 OA
BRANCH  72  74
ATOM     74  C   UNL A   1      46.822  18.421  39.769  1.00  0.00     0.198 C 
ATOM     75  C   UNL A   1      45.580  17.567  39.487  1.00  0.00     0.039 C 
ATOM     76  N   UNL A   1      47.139  18.083  41.457  1.00  0.00    -0.294 N 
ATOM     77  C   UNL A   1      45.875  16.215  40.061  1.00  0.00     0.024 C 
ATOM     78  C   UNL A   1      46.814  16.423  41.242  1.00  0.00     0.124 C 
BRANCH  76  79
ATOM     79  C   UNL A   1      48.022  19.103  42.919  1.00  0.00     0.410 C 
ATOM     80  O   UNL A   1      49.175  19.594  43.047  1.00  0.00    -0.224 OA
BRANCH  79  81
ATOM     81  O   UNL A   1      47.343  19.594  44.211  1.00  0.00    -0.445 OA
BRANCH  81  82
ATOM     82  C   UNL A   1      47.355  18.754  45.394  1.00  0.00     0.270 C 
BRANCH  82  83
ATOM     83  C   UNL A   1      46.820  17.381  45.091  1.00  0.00    -0.010 A 
ATOM     84  C   UNL A   1      45.462  17.186  44.828  1.00  0.00     0.009 A 
ATOM     85  C   UNL A   1      47.664  16.267  45.086  1.00  0.00     0.009 A 
ATOM     86  C   UNL A   1      44.953  15.891  44.670  1.00  0.00     0.031 A 
ATOM     87  C   UNL A   1      47.151  14.982  44.979  1.00  0.00     0.031 A 
ATOM     88  C   UNL A   1      45.783  14.773  44.788  1.00  0.00     0.086 A 
BRANCH  88  89
ATOM     89  N   UNL A   1      45.232  13.489  44.623  1.00  0.00    -0.151 NA
ATOM     90  N   UNL A   1      44.345  13.473  43.742  1.00  0.00    -0.151 NA
BRANCH  90  91
ATOM     91  C   UNL A   1      43.605  12.281  43.759  1.00  0.00     0.086 A 
ATOM     92  C   UNL A   1      42.388  12.243  43.072  1.00  0.00     0.030 A 
ATOM     93  C   UNL A   1      43.991  11.161  44.511  1.00  0.00     0.030 A 
ATOM     94  C   UNL A   1      41.585  11.103  43.113  1.00  0.00     0.002 A 
ATOM     95  C   UNL A   1      43.193  10.018  44.551  1.00  0.00     0.002 A 
ATOM     96  C   UNL A   1      41.991   9.990  43.850  1.00  0.00     0.000 A 
ENDBRANCH  90  91
ENDBRANCH  88  89
ENDBRANCH  82  83
ENDBRANCH  81  82
ENDBRANCH  79  81
ENDBRANCH  76  79
ENDBRANCH  72  74
ENDBRANCH   1  72
TORSDOF 20
ENDMDL
MODEL 2
REMARK VINA RESULT:     -11.4      7.213     16.781
REMARK SMILES O=C(OCCOC(=O)[C@@H]1CCCN1C(=O)OCc1ccc(/N=N/c2ccccc2)cc1)c1ccc(-c2c3nc(c(-c4cc(S(=O)(=O)[O-])ccc4F)c4ccc([nH]4)c(-c4cc(S(=O)(=O)[O-])ccc4F)c4nc(c(-c5cc(S(=O)(=O)[O-])ccc5F)c5ccc2[nH]5)C=C4)C=C3)cc1
REMARK SMILES IDX 6 1 5 2 4 3 3 4 2 5 1 6 32 7 33 8 94 9 34 10 93 11 35 12
REMARK SMILES IDX 36 13 37 14 87 15 38 16 92 17 86 18 88 19 39 20 91 21 85 22
REMARK SMILES IDX 84 23 40 25 72 26 52 27 71 28 53 29 56 30 70 31 89 32 54 33
REMARK SMILES IDX 55 34 69 36 90 37 57 38 41 39 42 40 50 41 43 42 49 43 51 44
REMARK SMILES IDX 48 45 44 46 45 47 46 48 47 49 73 50 74 51 82 52 75 53 81 54
REMARK SMILES IDX 83 55 80 56 76 57 77 58 78 59 79 60 58 61 59 62 67 63 60 64
REMARK SMILES IDX 66 65 68 66 65 67 61 68 62 69 63 70 64 71 7 72 8 73 9 74
REMARK SMILES IDX 10 75 13 76 11 77 12 78 14 79 15 80 16 81 17 82 18 83 19 84
REMARK SMILES IDX 31 85 20 86 30 87 21 88 22 89 23 90 24 91 25 92 29 93 26 94
REMARK SMILES IDX 28 95 27 96
REMARK H PARENT 88 24 56 35
REMARK Flexibility Score: inf
ROOT
ATOM      1  O   UNL A   1      33.923  31.310  26.989  1.00  0.00    -0.461 OA
ENDROOT
BRANCH   1   2
ATOM      2  C   UNL A   1      32.699  31.841  27.535  1.00  0.00     0.274 C 
BRANCH   2   3
ATOM      3  C   UNL A   1      32.514  33.348  27.245  1.00  0.00     0.275 C 
BRANCH   3   4
ATOM      4  O   UNL A   1      32.421  34.138  28.451  1.00  0.00    -0.458 OA
BRANCH   4   5
ATOM      5  C   UNL A   1      33.428  34.638  29.206  1.00  0.00     0.338 C 
ATOM      6  O   UNL A   1      33.435  35.824  29.522  1.00  0.00    -0.246 OA
BRANCH   5   7
ATOM      7  C   UNL A   1      34.626  33.834  29.564  1.00  0.00     0.060 A 
ATOM      8  C   UNL A   1      34.691  32.582  30.941  1.00  0.00     0.016 A 
ATOM      9  C   UNL A   1      36.184  34.199  28.664  1.00  0.00     0.016 A 
ATOM     10  C   UNL A   1      36.229  31.780  31.392  1.00  0.00     0.010 A 
ATOM     11  C   UNL A   1      37.747  33.358  29.140  1.00  0.00     0.010 A 
ATOM     12  C   UNL A   1      37.750  32.139  30.524  1.00  0.00    -0.014 A 
BRANCH  12  13
ATOM     13  C   UNL A   1      38.926  31.359  31.054  1.00  0.00     0.031 A 
ATOM     14  C   UNL A   1      39.535  30.208  30.297  1.00  0.00     0.074 A 
ATOM     15  C   UNL A   1      39.587  31.840  32.135  1.00  0.00     0.049 A 
ATOM     16  N   UNL A   1      40.529  29.422  30.638  1.00  0.00    -0.248 NA
ATOM     17  C   UNL A   1      39.014  29.932  28.962  1.00  0.00     0.031 C 
ATOM     18  C   UNL A   1      39.302  33.109  32.804  1.00  0.00     0.029 A 
ATOM     19  N   UNL A   1      40.630  31.339  32.877  1.00  0.00    -0.354 N 
ATOM     20  C   UNL A   1      40.741  28.578  29.546  1.00  0.00     0.074 A 
ATOM     21  C   UNL A   1      39.743  28.908  28.565  1.00  0.00     0.031 C 
ATOM     22  C   UNL A   1      40.050  33.239  33.905  1.00  0.00     0.029 A 
ATOM     23  C   UNL A   1      40.887  32.063  34.026  1.00  0.00     0.049 A 
ATOM     24  H   UNL A   1      41.146  30.542  32.615  1.00  0.00     0.167 HD
ATOM     25  C   UNL A   1      41.694  27.632  29.360  1.00  0.00     0.034 A 
ATOM     26  C   UNL A   1      41.686  31.806  35.078  1.00  0.00     0.034 A 
ATOM     27  C   UNL A   1      42.665  27.300  30.370  1.00  0.00     0.049 A 
ATOM     28  C   UNL A   1      42.567  30.596  34.982  1.00  0.00     0.074 A 
ATOM     29  C   UNL A   1      43.613  26.293  30.371  1.00  0.00     0.029 A 
ATOM     30  N   UNL A   1      42.798  27.974  31.580  1.00  0.00    -0.354 N 
ATOM     31  N   UNL A   1      42.681  29.749  33.986  1.00  0.00    -0.248 NA
ATOM     32  C   UNL A   1      43.450  30.325  36.119  1.00  0.00     0.031 C 
ATOM     33  C   UNL A   1      44.256  26.305  31.614  1.00  0.00     0.029 A 
ATOM     34  C   UNL A   1      43.780  27.378  32.353  1.00  0.00     0.049 A 
ATOM     35  H   UNL A   1      42.269  28.759  31.849  1.00  0.00     0.167 HD
ATOM     36  C   UNL A   1      43.693  28.873  34.350  1.00  0.00     0.074 A 
ATOM     37  C   UNL A   1      44.151  29.300  35.660  1.00  0.00     0.031 C 
ATOM     38  C   UNL A   1      44.207  27.823  33.660  1.00  0.00     0.034 A 
BRANCH  25  39
ATOM     39  C   UNL A   1      41.619  26.833  28.074  1.00  0.00     0.023 A 
ATOM     40  C   UNL A   1      41.192  25.488  28.041  1.00  0.00     0.031 A 
ATOM     41  C   UNL A   1      42.122  27.387  26.882  1.00  0.00     0.131 A 
ATOM     42  C   UNL A   1      41.381  24.721  26.878  1.00  0.00     0.055 A 
ATOM     43  C   UNL A   1      42.220  26.643  25.704  1.00  0.00     0.041 A 
ATOM     44  F   UNL A   1      42.574  28.651  26.853  1.00  0.00    -0.206 F 
ATOM     45  C   UNL A   1      41.870  25.297  25.703  1.00  0.00     0.022 A 
BRANCH  42  46
ATOM     46  S   UNL A   1      41.168  22.917  26.960  1.00  0.00     0.124 S 
ATOM     47  O   UNL A   1      39.728  22.793  27.174  1.00  0.00    -0.237 OA
ATOM     48  O   UNL A   1      41.660  22.474  25.661  1.00  0.00    -0.237 OA
ATOM     49  O   UNL A   1      41.990  22.523  28.102  1.00  0.00    -0.744 OA
ENDBRANCH  42  46
ENDBRANCH  25  39
BRANCH  26  50
ATOM     50  C   UNL A   1      41.661  32.672  36.298  1.00  0.00     0.023 A 
ATOM     51  C   UNL A   1      40.774  32.433  37.357  1.00  0.00     0.031 A 
ATOM     52  C   UNL A   1      42.512  33.792  36.399  1.00  0.00     0.131 A 
ATOM     53  C   UNL A   1      40.721  33.322  38.445  1.00  0.00     0.055 A 
ATOM     54  C   UNL A   1      42.489  34.646  37.505  1.00  0.00     0.041 A 
ATOM     55  F   UNL A   1      43.389  34.071  35.422  1.00  0.00    -0.206 F 
ATOM     56  C   UNL A   1      41.579  34.421  38.531  1.00  0.00     0.022 A 
BRANCH  53  57
ATOM     57  S   UNL A   1      39.449  33.071  39.715  1.00  0.00     0.124 S 
ATOM     58  O   UNL A   1      39.100  34.443  40.064  1.00  0.00    -0.237 OA
ATOM     59  O   UNL A   1      38.437  32.317  38.980  1.00  0.00    -0.237 OA
ATOM     60  O   UNL A   1      40.148  32.320  40.756  1.00  0.00    -0.744 OA
ENDBRANCH  53  57
ENDBRANCH  26  50
BRANCH  38  61
ATOM     61  C   UNL A   1      45.362  27.107  34.302  1.00  0.00     0.023 A 
ATOM     62  C   UNL A   1      45.161  26.076  35.232  1.00  0.00     0.031 A 
ATOM     63  C   UNL A   1      46.682  27.482  33.993  1.00  0.00     0.131 A 
ATOM     64  C   UNL A   1      46.262  25.505  35.880  1.00  0.00     0.055 A 
ATOM     65  C   UNL A   1      47.776  26.851  34.578  1.00  0.00     0.041 A 
ATOM     66  F   UNL A   1      46.924  28.471  33.116  1.00  0.00    -0.206 F 
ATOM     67  C   UNL A   1      47.569  25.867  35.541  1.00  0.00     0.022 A 
BRANCH  64  68
ATOM     68  S   UNL A   1      45.954  24.377  37.263  1.00  0.00     0.124 S 
ATOM     69  O   UNL A   1      44.766  24.968  37.873  1.00  0.00    -0.237 OA
ATOM     70  O   UNL A   1      45.754  23.099  36.586  1.00  0.00    -0.237 OA
ATOM     71  O   UNL A   1      47.174  24.472  38.060  1.00  0.00    -0.744 OA
ENDBRANCH  64  68
ENDBRANCH  38  61
ENDBRANCH  12  13
ENDBRANCH   5   7
ENDBRANCH   4   5
ENDBRANCH   3   4
ENDBRANCH   2   3
ENDBRANCH   1   2
BRANCH   1  72
ATOM     72  C   UNL A   1      34.084  29.974  27.100  1.00  0.00     0.329 C 
ATOM     73  O   UNL A   1      35.058  29.475  27.655  1.00  0.00    -0.250 OA
BRANCH  72  74
ATOM     74  C   UNL A   1      32.962  29.093  26.417  1.00  0.00     0.198 C 
ATOM     75  C   UNL A   1      32.533  28.162  27.558  1.00  0.00     0.039 C 
ATOM     76  N   UNL A   1      32.760  28.078  25.005  1.00  0.00    -0.294 N 
ATOM     77  C   UNL A   1      31.246  27.538  27.115  1.00  0.00     0.024 C 
ATOM     78  C   UNL A   1      31.285  27.457  25.594  1.00  0.00     0.124 C 
BRANCH  76  79
ATOM     79  C   UNL A   1      33.614  28.040  23.208  1.00  0.00     0.410 C 
ATOM     80  O   UNL A   1      34.415  28.816  22.623  1.00  0.00    -0.224 OA
BRANCH  79  81
ATOM     81  O   UNL A   1      33.504  26.895  22.184  1.00  0.00    -0.445 OA
BRANCH  81  82
ATOM     82  C   UNL A   1      32.212  26.291  21.916  1.00  0.00     0.270 C 
BRANCH  82  83
ATOM     83  C   UNL A   1      32.186  24.849  22.347  1.00  0.00    -0.010 A 
ATOM     84  C   UNL A   1      31.181  24.376  23.195  1.00  0.00     0.009 A 
ATOM     85  C   UNL A   1      33.175  23.957  21.927  1.00  0.00     0.009 A 
ATOM     86  C   UNL A   1      31.234  23.067  23.690  1.00  0.00     0.031 A 
ATOM     87  C   UNL A   1      33.254  22.677  22.455  1.00  0.00     0.031 A 
ATOM     88  C   UNL A   1      32.294  22.217  23.361  1.00  0.00     0.086 A 
BRANCH  88  89
ATOM     89  N   UNL A   1      32.311  20.910  23.880  1.00  0.00    -0.151 NA
ATOM     90  N   UNL A   1      33.352  20.682  24.534  1.00  0.00    -0.151 NA
BRANCH  90  91
ATOM     91  C   UNL A   1      33.509  19.317  24.819  1.00  0.00     0.086 A 
ATOM     92  C   UNL A   1      34.633  18.656  24.315  1.00  0.00     0.030 A 
ATOM     93  C   UNL A   1      32.541  18.572  25.510  1.00  0.00     0.030 A 
ATOM     94  C   UNL A   1      34.800  17.285  24.517  1.00  0.00     0.002 A 
ATOM     95  C   UNL A   1      32.706  17.204  25.718  1.00  0.00     0.002 A 
ATOM     96  C   UNL A   1      33.837  16.562  25.221  1.00  0.00     0.000 A 
ENDBRANCH  90  91
ENDBRANCH  88  89
ENDBRANCH  82  83
ENDBRANCH  81  82
ENDBRANCH  79  81
ENDBRANCH  76  79
ENDBRANCH  72  74
ENDBRANCH   1  72
TORSDOF 20
ENDMDL
MODEL 3
REMARK VINA RESULT:     -11.2      7.214     15.194
REMARK SMILES O=C(OCCOC(=O)[C@@H]1CCCN1C(=O)OCc1ccc(/N=N/c2ccccc2)cc1)c1ccc(-c2c3nc(c(-c4cc(S(=O)(=O)[O-])ccc4F)c4ccc([nH]4)c(-c4cc(S(=O)(=O)[O-])ccc4F)c4nc(c(-c5cc(S(=O)(=O)[O-])ccc5F)c5ccc2[nH]5)C=C4)C=C3)cc1
REMARK SMILES IDX 6 1 5 2 4 3 3 4 2 5 1 6 32 7 33 8 94 9 34 10 93 11 35 12
REMARK SMILES IDX 36 13 37 14 87 15 38 16 92 17 86 18 88 19 39 20 91 21 85 22
REMARK SMILES IDX 84 23 40 25 72 26 52 27 71 28 53 29 56 30 70 31 89 32 54 33
REMARK SMILES IDX 55 34 69 36 90 37 57 38 41 39 42 40 50 41 43 42 49 43 51 44
REMARK SMILES IDX 48 45 44 46 45 47 46 48 47 49 73 50 74 51 82 52 75 53 81 54
REMARK SMILES IDX 83 55 80 56 76 57 77 58 78 59 79 60 58 61 59 62 67 63 60 64
REMARK SMILES IDX 66 65 68 66 65 67 61 68 62 69 63 70 64 71 7 72 8 73 9 74
REMARK SMILES IDX 10 75 13 76 11 77 12 78 14 79 15 80 16 81 17 82 18 83 19 84
REMARK SMILES IDX 31 85 20 86 30 87 21 88 22 89 23 90 24 91 25 92 29 93 26 94
REMARK SMILES IDX 28 95 27 96
REMARK H PARENT 88 24 56 35
REMARK Flexibility Score: inf
ROOT
ATOM      1  O   UNL A   1      31.648  30.257  26.220  1.00  0.00    -0.461 OA
ENDROOT
BRANCH   1   2
ATOM      2  C   UNL A   1      32.403  31.295  26.877  1.00  0.00     0.274 C 
BRANCH   2   3
ATOM      3  C   UNL A   1      31.610  32.613  27.023  1.00  0.00     0.275 C 
BRANCH   3   4
ATOM      4  O   UNL A   1      32.469  33.762  27.193  1.00  0.00    -0.458 OA
BRANCH   4   5
ATOM      5  C   UNL A   1      33.118  34.167  28.311  1.00  0.00     0.338 C 
ATOM      6  O   UNL A   1      32.809  35.222  28.858  1.00  0.00    -0.246 OA
BRANCH   5   7
ATOM      7  C   UNL A   1      34.307  33.450  28.843  1.00  0.00     0.060 A 
ATOM      8  C   UNL A   1      34.289  32.317  30.319  1.00  0.00     0.016 A 
ATOM      9  C   UNL A   1      35.927  33.814  28.061  1.00  0.00     0.016 A 
ATOM     10  C   UNL A   1      35.808  31.625  30.974  1.00  0.00     0.010 A 
ATOM     11  C   UNL A   1      37.470  33.087  28.747  1.00  0.00     0.010 A 
ATOM     12  C   UNL A   1      37.389  31.984  30.222  1.00  0.00    -0.014 A 
BRANCH  12  13
ATOM     13  C   UNL A   1      38.538  31.304  30.920  1.00  0.00     0.031 A 
ATOM     14  C   UNL A   1      38.958  31.669  32.320  1.00  0.00     0.074 A 
ATOM     15  C   UNL A   1      39.069  30.190  30.360  1.00  0.00     0.049 A 
ATOM     16  N   UNL A   1      39.947  31.195  33.042  1.00  0.00    -0.248 NA
ATOM     17  C   UNL A   1      38.139  32.643  33.034  1.00  0.00     0.031 C 
ATOM     18  C   UNL A   1      38.572  29.534  29.151  1.00  0.00     0.029 A 
ATOM     19  N   UNL A   1      40.139  29.401  30.709  1.00  0.00    -0.354 N 
ATOM     20  C   UNL A   1      39.841  31.815  34.289  1.00  0.00     0.074 A 
ATOM     21  C   UNL A   1      38.739  32.734  34.205  1.00  0.00     0.031 C 
ATOM     22  C   UNL A   1      39.381  28.532  28.792  1.00  0.00     0.029 A 
ATOM     23  C   UNL A   1      40.463  28.456  29.753  1.00  0.00     0.049 A 
ATOM     24  H   UNL A   1      40.627  29.498  31.559  1.00  0.00     0.167 HD
ATOM     25  C   UNL A   1      40.575  31.622  35.412  1.00  0.00     0.034 A 
ATOM     26  C   UNL A   1      41.522  27.634  29.641  1.00  0.00     0.034 A 
ATOM     27  C   UNL A   1      41.693  30.717  35.462  1.00  0.00     0.049 A 
ATOM     28  C   UNL A   1      42.488  27.610  30.787  1.00  0.00     0.074 A 
ATOM     29  C   UNL A   1      42.596  30.502  36.488  1.00  0.00     0.029 A 
ATOM     30  N   UNL A   1      42.069  29.878  34.418  1.00  0.00    -0.354 N 
ATOM     31  N   UNL A   1      42.430  28.279  31.915  1.00  0.00    -0.248 NA
ATOM     32  C   UNL A   1      43.631  26.701  30.673  1.00  0.00     0.031 C 
ATOM     33  C   UNL A   1      43.564  29.600  36.030  1.00  0.00     0.029 A 
ATOM     34  C   UNL A   1      43.214  29.176  34.756  1.00  0.00     0.049 A 
ATOM     35  H   UNL A   1      41.590  29.795  33.561  1.00  0.00     0.167 HD
ATOM     36  C   UNL A   1      43.501  27.831  32.674  1.00  0.00     0.074 A 
ATOM     37  C   UNL A   1      44.184  26.834  31.869  1.00  0.00     0.031 C 
ATOM     38  C   UNL A   1      43.876  28.196  33.926  1.00  0.00     0.034 A 
BRANCH  25  39
ATOM     39  C   UNL A   1      40.248  32.507  36.599  1.00  0.00     0.023 A 
ATOM     40  C   UNL A   1      39.322  32.126  37.595  1.00  0.00     0.031 A 
ATOM     41  C   UNL A   1      40.765  33.814  36.654  1.00  0.00     0.131 A 
ATOM     42  C   UNL A   1      38.865  33.074  38.527  1.00  0.00     0.055 A 
ATOM     43  C   UNL A   1      40.374  34.723  37.641  1.00  0.00     0.041 A 
ATOM     44  F   UNL A   1      41.624  34.250  35.720  1.00  0.00    -0.206 F 
ATOM     45  C   UNL A   1      39.404  34.363  38.571  1.00  0.00     0.022 A 
BRANCH  42  46
ATOM     46  S   UNL A   1      37.423  32.680  39.562  1.00  0.00     0.124 S 
ATOM     47  O   UNL A   1      36.339  32.686  38.581  1.00  0.00    -0.237 OA
ATOM     48  O   UNL A   1      37.771  31.380  40.120  1.00  0.00    -0.237 OA
ATOM     49  O   UNL A   1      37.378  33.778  40.525  1.00  0.00    -0.744 OA
ENDBRANCH  42  46
ENDBRANCH  25  39
BRANCH  26  50
ATOM     50  C   UNL A   1      41.736  26.814  28.408  1.00  0.00     0.023 A 
ATOM     51  C   UNL A   1      41.403  25.452  28.356  1.00  0.00     0.031 A 
ATOM     52  C   UNL A   1      42.324  27.385  27.260  1.00  0.00     0.131 A 
ATOM     53  C   UNL A   1      41.702  24.697  27.209  1.00  0.00     0.055 A 
ATOM     54  C   UNL A   1      42.576  26.641  26.104  1.00  0.00     0.041 A 
ATOM     55  F   UNL A   1      42.660  28.685  27.243  1.00  0.00    -0.206 F 
ATOM     56  C   UNL A   1      42.277  25.284  26.080  1.00  0.00     0.022 A 
BRANCH  53  57
ATOM     57  S   UNL A   1      41.407  22.907  27.243  1.00  0.00     0.124 S 
ATOM     58  O   UNL A   1      42.752  22.378  27.048  1.00  0.00    -0.237 OA
ATOM     59  O   UNL A   1      40.831  22.723  28.572  1.00  0.00    -0.237 OA
ATOM     60  O   UNL A   1      40.483  22.692  26.131  1.00  0.00    -0.744 OA
ENDBRANCH  53  57
ENDBRANCH  26  50
BRANCH  38  61
ATOM     61  C   UNL A   1      45.052  27.464  34.509  1.00  0.00     0.023 A 
ATOM     62  C   UNL A   1      44.897  26.236  35.171  1.00  0.00     0.031 A 
ATOM     63  C   UNL A   1      46.340  28.019  34.422  1.00  0.00     0.131 A 
ATOM     64  C   UNL A   1      46.002  25.637  35.786  1.00  0.00     0.055 A 
ATOM     65  C   UNL A   1      47.451  27.376  34.964  1.00  0.00     0.041 A 
ATOM     66  F   UNL A   1      46.537  29.198  33.809  1.00  0.00    -0.206 F 
ATOM     67  C   UNL A   1      47.281  26.186  35.666  1.00  0.00     0.022 A 
BRANCH  64  68
ATOM     68  S   UNL A   1      45.716  24.203  36.855  1.00  0.00     0.124 S 
ATOM     69  O   UNL A   1      45.267  24.836  38.092  1.00  0.00    -0.237 OA
ATOM     70  O   UNL A   1      44.702  23.459  36.116  1.00  0.00    -0.237 OA
ATOM     71  O   UNL A   1      47.028  23.563  36.925  1.00  0.00    -0.744 OA
ENDBRANCH  64  68
ENDBRANCH  38  61
ENDBRANCH  12  13
ENDBRANCH   5   7
ENDBRANCH   4   5
ENDBRANCH   3   4
ENDBRANCH   2   3
ENDBRANCH   1   2
BRANCH   1  72
ATOM     72  C   UNL A   1      32.284  29.616  25.216  1.00  0.00     0.329 C 
ATOM     73  O   UNL A   1      33.452  29.249  25.309  1.00  0.00    -0.250 OA
BRANCH  72  74
ATOM     74  C   UNL A   1      31.445  29.419  23.891  1.00  0.00     0.198 C 
ATOM     75  C   UNL A   1      30.036  29.840  24.327  1.00  0.00     0.039 C 
ATOM     76  N   UNL A   1      31.118  28.170  22.709  1.00  0.00    -0.294 N 
ATOM     77  C   UNL A   1      29.254  30.023  23.063  1.00  0.00     0.024 C 
ATOM     78  C   UNL A   1      29.839  29.070  22.029  1.00  0.00     0.124 C 
BRANCH  76  79
ATOM     79  C   UNL A   1      32.138  26.585  22.069  1.00  0.00     0.410 C 
ATOM     80  O   UNL A   1      31.932  25.746  21.153  1.00  0.00    -0.224 OA
BRANCH  79  81
ATOM     81  O   UNL A   1      33.527  26.147  22.570  1.00  0.00    -0.445 OA
BRANCH  81  82
ATOM     82  C   UNL A   1      33.763  25.997  23.994  1.00  0.00     0.270 C 
BRANCH  82  83
ATOM     83  C   UNL A   1      33.999  24.556  24.358  1.00  0.00    -0.010 A 
ATOM     84  C   UNL A   1      35.006  23.817  23.731  1.00  0.00     0.009 A 
ATOM     85  C   UNL A   1      33.204  23.918  25.313  1.00  0.00     0.009 A 
ATOM     86  C   UNL A   1      35.137  22.446  23.985  1.00  0.00     0.031 A 
ATOM     87  C   UNL A   1      33.302  22.551  25.527  1.00  0.00     0.031 A 
ATOM     88  C   UNL A   1      34.259  21.788  24.851  1.00  0.00     0.086 A 
BRANCH  88  89
ATOM     89  N   UNL A   1      34.423  20.410  25.079  1.00  0.00    -0.151 NA
ATOM     90  N   UNL A   1      33.721  19.724  24.305  1.00  0.00    -0.151 NA
BRANCH  90  91
ATOM     91  C   UNL A   1      33.664  18.378  24.696  1.00  0.00     0.086 A 
ATOM     92  C   UNL A   1      34.725  17.537  24.350  1.00  0.00     0.030 A 
ATOM     93  C   UNL A   1      32.545  17.824  25.337  1.00  0.00     0.030 A 
ATOM     94  C   UNL A   1      34.683  16.177  24.659  1.00  0.00     0.002 A 
ATOM     95  C   UNL A   1      32.501  16.466  25.652  1.00  0.00     0.002 A 
ATOM     96  C   UNL A   1      33.572  15.644  25.313  1.00  0.00     0.000 A 
ENDBRANCH  90  91
ENDBRANCH  88  89
ENDBRANCH  82  83
ENDBRANCH  81  82
ENDBRANCH  79  81
ENDBRANCH  76  79
ENDBRANCH  72  74
ENDBRANCH   1  72
TORSDOF 20
ENDMDL
