MODEL 1
REMARK VINA RESULT:     -11.3      0.000      0.000
REMARK SMILES O=C(CSc1nc2[nH]cnc2c(=O)[nH]1)NCCC(=O)OCCOC(=O)c1ccc(-c2c3nc(c(-c4cc(S(=O)(=O)[O-])ccc4F)c4ccc([nH]4)c(-c4cc(S(=O)(=O)[O-])ccc4F)c4nc(c(-c5cc(S(=O)(=O)[O-])ccc5F)c5ccc2[nH]5)C=C4)C=C3)cc1
REMARK SMILES IDX 21 1 20 2 18 3 19 4 17 5 16 6 15 7 1 8 2 9 3 11 4 12 5 13
REMARK SMILES IDX 6 14 14 15 7 16 12 17 8 19 11 20 13 21 9 22 10 24 22 25
REMARK SMILES IDX 23 26 24 27 25 28 26 29 27 30 88 31 28 32 87 33 29 34 30 35
REMARK SMILES IDX 31 36 81 37 32 38 86 39 80 40 82 41 33 42 85 43 79 44 78 45
REMARK SMILES IDX 34 47 66 48 46 49 65 50 47 51 50 52 64 53 83 54 48 55 49 56
REMARK SMILES IDX 63 58 84 59 51 60 35 61 36 62 44 63 37 64 43 65 45 66 42 67
REMARK SMILES IDX 38 68 39 69 40 70 41 71 67 72 68 73 76 74 69 75 75 76 77 77
REMARK SMILES IDX 74 78 70 79 71 80 72 81 73 82 52 83 53 84 61 85 54 86 60 87
REMARK SMILES IDX 62 88 59 89 55 90 56 91 57 92 58 93
REMARK H PARENT 15 10 14 18 8 23 82 46 50 57
REMARK Flexibility Score: inf
ROOT
ATOM      1  C   UNL A   1      38.892  21.128  25.753  1.00  0.00     0.274 C 
ENDROOT
BRANCH   1   2
ATOM      2  O   UNL A   1      37.660  21.244  25.011  1.00  0.00    -0.462 OA
BRANCH   2   3
ATOM      3  C   UNL A   1      36.693  22.022  25.574  1.00  0.00     0.307 C 
ATOM      4  O   UNL A   1      35.794  21.601  26.288  1.00  0.00    -0.252 OA
BRANCH   3   5
ATOM      5  C   UNL A   1      36.791  23.474  25.162  1.00  0.00     0.144 C 
BRANCH   5   6
ATOM      6  C   UNL A   1      35.450  24.168  24.975  1.00  0.00     0.127 C 
BRANCH   6   7
ATOM      7  N   UNL A   1      34.415  23.231  24.584  1.00  0.00    -0.355 N 
ATOM      8  O   UNL A   1      34.248  23.894  22.397  1.00  0.00    -0.274 OA
ATOM      9  C   UNL A   1      33.869  23.183  23.321  1.00  0.00     0.230 C 
ATOM     10  H   UNL A   1      34.085  22.594  25.258  1.00  0.00     0.163 HD
BRANCH   9  11
ATOM     11  C   UNL A   1      32.689  22.240  23.171  1.00  0.00     0.178 C 
BRANCH  11  12
ATOM     12  S   UNL A   1      32.073  21.646  24.772  1.00  0.00    -0.078 SA
BRANCH  12  13
ATOM     13  C   UNL A   1      32.374  19.944  24.576  1.00  0.00     0.170 A 
ATOM     14  N   UNL A   1      32.702  19.224  25.609  1.00  0.00    -0.204 NA
ATOM     15  N   UNL A   1      32.276  19.495  23.276  1.00  0.00    -0.299 N 
ATOM     16  C   UNL A   1      32.970  17.943  25.264  1.00  0.00     0.165 A 
ATOM     17  C   UNL A   1      32.516  18.182  22.898  1.00  0.00     0.279 A 
ATOM     18  H   UNL A   1      32.020  20.140  22.579  1.00  0.00     0.172 HD
ATOM     19  N   UNL A   1      33.405  16.963  26.106  1.00  0.00    -0.329 N 
ATOM     20  C   UNL A   1      32.915  17.356  24.021  1.00  0.00     0.172 A 
ATOM     21  O   UNL A   1      32.407  17.806  21.739  1.00  0.00    -0.267 OA
ATOM     22  C   UNL A   1      33.600  15.839  25.346  1.00  0.00     0.199 A 
ATOM     23  H   UNL A   1      33.551  17.047  27.076  1.00  0.00     0.169 HD
ATOM     24  N   UNL A   1      33.303  16.041  24.079  1.00  0.00    -0.229 NA
ENDBRANCH  12  13
ENDBRANCH  11  12
ENDBRANCH   9  11
ENDBRANCH   6   7
ENDBRANCH   5   6
ENDBRANCH   3   5
ENDBRANCH   2   3
ENDBRANCH   1   2
BRANCH   1  25
ATOM     25  C   UNL A   1      39.461  19.708  25.690  1.00  0.00     0.275 C 
BRANCH  25  26
ATOM     26  O   UNL A   1      40.540  19.527  26.622  1.00  0.00    -0.458 OA
BRANCH  26  27
ATOM     27  C   UNL A   1      41.782  19.675  26.100  1.00  0.00     0.338 C 
ATOM     28  O   UNL A   1      42.375  18.883  25.388  1.00  0.00    -0.246 OA
BRANCH  27  29
ATOM     29  C   UNL A   1      42.280  21.024  26.408  1.00  0.00     0.060 A 
ATOM     30  C   UNL A   1      42.457  21.380  27.747  1.00  0.00     0.016 A 
ATOM     31  C   UNL A   1      42.515  21.952  25.392  1.00  0.00     0.016 A 
ATOM     32  C   UNL A   1      42.875  22.666  28.079  1.00  0.00     0.010 A 
ATOM     33  C   UNL A   1      42.952  23.240  25.728  1.00  0.00     0.010 A 
ATOM     34  C   UNL A   1      43.136  23.608  27.073  1.00  0.00    -0.014 A 
BRANCH  34  35
ATOM     35  C   UNL A   1      43.614  24.968  27.434  1.00  0.00     0.031 A 
ATOM     36  C   UNL A   1      42.652  25.996  27.961  1.00  0.00     0.074 A 
ATOM     37  C   UNL A   1      44.918  25.273  27.280  1.00  0.00     0.049 A 
ATOM     38  N   UNL A   1      42.859  27.257  28.233  1.00  0.00    -0.248 NA
ATOM     39  C   UNL A   1      41.274  25.545  28.213  1.00  0.00     0.031 C 
ATOM     40  C   UNL A   1      45.951  24.345  26.813  1.00  0.00     0.029 A 
ATOM     41  N   UNL A   1      45.600  26.447  27.488  1.00  0.00    -0.354 N 
ATOM     42  C   UNL A   1      41.638  27.761  28.667  1.00  0.00     0.074 A 
ATOM     43  C   UNL A   1      40.690  26.668  28.608  1.00  0.00     0.031 C 
ATOM     44  C   UNL A   1      47.130  24.986  26.768  1.00  0.00     0.029 A 
ATOM     45  C   UNL A   1      46.929  26.383  27.138  1.00  0.00     0.049 A 
ATOM     46  H   UNL A   1      45.176  27.258  27.854  1.00  0.00     0.167 HD
ATOM     47  C   UNL A   1      41.340  29.020  29.073  1.00  0.00     0.034 A 
ATOM     48  C   UNL A   1      47.869  27.349  27.079  1.00  0.00     0.034 A 
ATOM     49  C   UNL A   1      42.303  30.094  29.138  1.00  0.00     0.049 A 
ATOM     50  C   UNL A   1      47.488  28.757  27.467  1.00  0.00     0.074 A 
ATOM     51  C   UNL A   1      42.114  31.392  29.582  1.00  0.00     0.029 A 
ATOM     52  N   UNL A   1      43.630  30.003  28.738  1.00  0.00    -0.354 N 
ATOM     53  N   UNL A   1      46.331  29.212  27.893  1.00  0.00    -0.248 NA
ATOM     54  C   UNL A   1      48.536  29.781  27.365  1.00  0.00     0.031 C 
ATOM     55  C   UNL A   1      43.300  32.105  29.375  1.00  0.00     0.029 A 
ATOM     56  C   UNL A   1      44.255  31.233  28.881  1.00  0.00     0.049 A 
ATOM     57  H   UNL A   1      44.063  29.185  28.403  1.00  0.00     0.167 HD
ATOM     58  C   UNL A   1      46.525  30.570  28.132  1.00  0.00     0.074 A 
ATOM     59  C   UNL A   1      47.912  30.852  27.829  1.00  0.00     0.031 C 
ATOM     60  C   UNL A   1      45.637  31.503  28.562  1.00  0.00     0.034 A 
BRANCH  47  61
ATOM     61  C   UNL A   1      39.907  29.331  29.427  1.00  0.00     0.023 A 
ATOM     62  C   UNL A   1      39.465  29.416  30.758  1.00  0.00     0.031 A 
ATOM     63  C   UNL A   1      38.973  29.581  28.405  1.00  0.00     0.131 A 
ATOM     64  C   UNL A   1      38.118  29.706  31.029  1.00  0.00     0.055 A 
ATOM     65  C   UNL A   1      37.652  29.932  28.681  1.00  0.00     0.041 A 
ATOM     66  F   UNL A   1      39.336  29.494  27.115  1.00  0.00    -0.206 F 
ATOM     67  C   UNL A   1      37.215  29.989  30.001  1.00  0.00     0.022 A 
BRANCH  64  68
ATOM     68  S   UNL A   1      37.536  29.625  32.744  1.00  0.00     0.124 S 
ATOM     69  O   UNL A   1      36.265  30.338  32.657  1.00  0.00    -0.237 OA
ATOM     70  O   UNL A   1      37.450  28.189  32.982  1.00  0.00    -0.237 OA
ATOM     71  O   UNL A   1      38.582  30.320  33.495  1.00  0.00    -0.744 OA
ENDBRANCH  64  68
ENDBRANCH  47  61
BRANCH  48  72
ATOM     72  C   UNL A   1      49.241  27.050  26.569  1.00  0.00     0.023 A 
ATOM     73  C   UNL A   1      49.677  27.535  25.326  1.00  0.00     0.031 A 
ATOM     74  C   UNL A   1      50.106  26.197  27.281  1.00  0.00     0.131 A 
ATOM     75  C   UNL A   1      50.911  27.115  24.804  1.00  0.00     0.055 A 
ATOM     76  C   UNL A   1      51.361  25.838  26.788  1.00  0.00     0.041 A 
ATOM     77  F   UNL A   1      49.740  25.694  28.471  1.00  0.00    -0.206 F 
ATOM     78  C   UNL A   1      51.762  26.283  25.533  1.00  0.00     0.022 A 
BRANCH  75  79
ATOM     79  S   UNL A   1      51.328  27.567  23.098  1.00  0.00     0.124 S 
ATOM     80  O   UNL A   1      52.717  27.130  23.006  1.00  0.00    -0.237 OA
ATOM     81  O   UNL A   1      50.359  26.788  22.333  1.00  0.00    -0.237 OA
ATOM     82  O   UNL A   1      51.125  29.014  23.070  1.00  0.00    -0.744 OA
ENDBRANCH  75  79
ENDBRANCH  48  72
BRANCH  60  83
ATOM     83  C   UNL A   1      46.160  32.904  28.760  1.00  0.00     0.023 A 
ATOM     84  C   UNL A   1      46.146  33.851  27.721  1.00  0.00     0.031 A 
ATOM     85  C   UNL A   1      46.700  33.292  30.000  1.00  0.00     0.131 A 
ATOM     86  C   UNL A   1      46.714  35.119  27.921  1.00  0.00     0.055 A 
ATOM     87  C   UNL A   1      47.203  34.575  30.213  1.00  0.00     0.041 A 
ATOM     88  F   UNL A   1      46.742  32.427  31.027  1.00  0.00    -0.206 F 
ATOM     89  C   UNL A   1      47.226  35.492  29.166  1.00  0.00     0.022 A 
BRANCH  86  90
ATOM     90  S   UNL A   1      46.859  36.242  26.505  1.00  0.00     0.124 S 
ATOM     91  O   UNL A   1      48.293  36.516  26.482  1.00  0.00    -0.237 OA
ATOM     92  O   UNL A   1      46.350  35.428  25.406  1.00  0.00    -0.237 OA
ATOM     93  O   UNL A   1      46.017  37.376  26.877  1.00  0.00    -0.744 OA
ENDBRANCH  86  90
ENDBRANCH  60  83
ENDBRANCH  34  35
ENDBRANCH  27  29
ENDBRANCH  26  27
ENDBRANCH  25  26
ENDBRANCH   1  25
TORSDOF 19
ENDMDL
MODEL 2
REMARK VINA RESULT:     -11.1      1.279      1.536
REMARK SMILES O=C(CSc1nc2[nH]cnc2c(=O)[nH]1)NCCC(=O)OCCOC(=O)c1ccc(-c2c3nc(c(-c4cc(S(=O)(=O)[O-])ccc4F)c4ccc([nH]4)c(-c4cc(S(=O)(=O)[O-])ccc4F)c4nc(c(-c5cc(S(=O)(=O)[O-])ccc5F)c5ccc2[nH]5)C=C4)C=C3)cc1
REMARK SMILES IDX 21 1 20 2 18 3 19 4 17 5 16 6 15 7 1 8 2 9 3 11 4 12 5 13
REMARK SMILES IDX 6 14 14 15 7 16 12 17 8 19 11 20 13 21 9 22 10 24 22 25
REMARK SMILES IDX 23 26 24 27 25 28 26 29 27 30 88 31 28 32 87 33 29 34 30 35
REMARK SMILES IDX 31 36 81 37 32 38 86 39 80 40 82 41 33 42 85 43 79 44 78 45
REMARK SMILES IDX 34 47 66 48 46 49 65 50 47 51 50 52 64 53 83 54 48 55 49 56
REMARK SMILES IDX 63 58 84 59 51 60 35 61 36 62 44 63 37 64 43 65 45 66 42 67
REMARK SMILES IDX 38 68 39 69 40 70 41 71 67 72 68 73 76 74 69 75 75 76 77 77
REMARK SMILES IDX 74 78 70 79 71 80 72 81 73 82 52 83 53 84 61 85 54 86 60 87
REMARK SMILES IDX 62 88 59 89 55 90 56 91 57 92 58 93
REMARK H PARENT 15 10 14 18 8 23 82 46 50 57
REMARK Flexibility Score: inf
ROOT
ATOM      1  C   UNL A   1      38.923  21.149  25.734  1.00  0.00     0.274 C 
ENDROOT
BRANCH   1   2
ATOM      2  O   UNL A   1      37.663  21.237  25.037  1.00  0.00    -0.462 OA
BRANCH   2   3
ATOM      3  C   UNL A   1      36.724  22.049  25.597  1.00  0.00     0.307 C 
ATOM      4  O   UNL A   1      35.865  21.675  26.384  1.00  0.00    -0.252 OA
BRANCH   3   5
ATOM      5  C   UNL A   1      36.794  23.470  25.086  1.00  0.00     0.144 C 
BRANCH   5   6
ATOM      6  C   UNL A   1      35.439  24.133  24.878  1.00  0.00     0.127 C 
BRANCH   6   7
ATOM      7  N   UNL A   1      34.420  23.163  24.528  1.00  0.00    -0.355 N 
ATOM      8  O   UNL A   1      34.181  23.787  22.336  1.00  0.00    -0.274 OA
ATOM      9  C   UNL A   1      33.844  23.082  23.281  1.00  0.00     0.230 C 
ATOM     10  H   UNL A   1      34.124  22.529  25.220  1.00  0.00     0.163 HD
BRANCH   9  11
ATOM     11  C   UNL A   1      32.686  22.106  23.175  1.00  0.00     0.178 C 
BRANCH  11  12
ATOM     12  S   UNL A   1      32.122  21.526  24.800  1.00  0.00    -0.078 SA
BRANCH  12  13
ATOM     13  C   UNL A   1      32.402  19.821  24.603  1.00  0.00     0.170 A 
ATOM     14  N   UNL A   1      32.709  19.093  25.637  1.00  0.00    -0.204 NA
ATOM     15  N   UNL A   1      32.309  19.376  23.301  1.00  0.00    -0.299 N 
ATOM     16  C   UNL A   1      32.963  17.810  25.292  1.00  0.00     0.165 A 
ATOM     17  C   UNL A   1      32.535  18.060  22.922  1.00  0.00     0.279 A 
ATOM     18  H   UNL A   1      32.069  20.026  22.603  1.00  0.00     0.172 HD
ATOM     19  N   UNL A   1      33.376  16.822  26.135  1.00  0.00    -0.329 N 
ATOM     20  C   UNL A   1      32.911  17.226  24.047  1.00  0.00     0.172 A 
ATOM     21  O   UNL A   1      32.432  17.689  21.762  1.00  0.00    -0.267 OA
ATOM     22  C   UNL A   1      33.563  15.697  25.375  1.00  0.00     0.199 A 
ATOM     23  H   UNL A   1      33.514  16.902  27.107  1.00  0.00     0.169 HD
ATOM     24  N   UNL A   1      33.281  15.906  24.105  1.00  0.00    -0.229 NA
ENDBRANCH  12  13
ENDBRANCH  11  12
ENDBRANCH   9  11
ENDBRANCH   6   7
ENDBRANCH   5   6
ENDBRANCH   3   5
ENDBRANCH   2   3
ENDBRANCH   1   2
BRANCH   1  25
ATOM     25  C   UNL A   1      39.484  19.725  25.716  1.00  0.00     0.275 C 
BRANCH  25  26
ATOM     26  O   UNL A   1      40.568  19.570  26.648  1.00  0.00    -0.458 OA
BRANCH  26  27
ATOM     27  C   UNL A   1      41.807  19.681  26.111  1.00  0.00     0.338 C 
ATOM     28  O   UNL A   1      42.372  18.868  25.400  1.00  0.00    -0.246 OA
BRANCH  27  29
ATOM     29  C   UNL A   1      42.344  21.020  26.402  1.00  0.00     0.060 A 
ATOM     30  C   UNL A   1      42.556  21.377  27.736  1.00  0.00     0.016 A 
ATOM     31  C   UNL A   1      42.582  21.937  25.377  1.00  0.00     0.016 A 
ATOM     32  C   UNL A   1      43.011  22.655  28.053  1.00  0.00     0.010 A 
ATOM     33  C   UNL A   1      43.056  23.216  25.698  1.00  0.00     0.010 A 
ATOM     34  C   UNL A   1      43.274  23.585  27.038  1.00  0.00    -0.014 A 
BRANCH  34  35
ATOM     35  C   UNL A   1      43.792  24.935  27.382  1.00  0.00     0.031 A 
ATOM     36  C   UNL A   1      42.880  25.966  27.987  1.00  0.00     0.074 A 
ATOM     37  C   UNL A   1      45.086  25.228  27.143  1.00  0.00     0.049 A 
ATOM     38  N   UNL A   1      43.120  27.221  28.260  1.00  0.00    -0.248 NA
ATOM     39  C   UNL A   1      41.518  25.527  28.326  1.00  0.00     0.031 C 
ATOM     40  C   UNL A   1      46.073  24.295  26.595  1.00  0.00     0.029 A 
ATOM     41  N   UNL A   1      45.794  26.392  27.319  1.00  0.00    -0.354 N 
ATOM     42  C   UNL A   1      41.937  27.733  28.783  1.00  0.00     0.074 A 
ATOM     43  C   UNL A   1      40.976  26.650  28.774  1.00  0.00     0.031 C 
ATOM     44  C   UNL A   1      47.254  24.923  26.477  1.00  0.00     0.029 A 
ATOM     45  C   UNL A   1      47.096  26.318  26.878  1.00  0.00     0.049 A 
ATOM     46  H   UNL A   1      45.406  27.202  27.722  1.00  0.00     0.167 HD
ATOM     47  C   UNL A   1      41.684  28.990  29.224  1.00  0.00     0.034 A 
ATOM     48  C   UNL A   1      48.040  27.274  26.767  1.00  0.00     0.034 A 
ATOM     49  C   UNL A   1      42.661  30.052  29.236  1.00  0.00     0.049 A 
ATOM     50  C   UNL A   1      47.704  28.681  27.197  1.00  0.00     0.074 A 
ATOM     51  C   UNL A   1      42.517  31.346  29.708  1.00  0.00     0.029 A 
ATOM     52  N   UNL A   1      43.957  29.952  28.745  1.00  0.00    -0.354 N 
ATOM     53  N   UNL A   1      46.584  29.142  27.707  1.00  0.00    -0.248 NA
ATOM     54  C   UNL A   1      48.754  29.695  27.036  1.00  0.00     0.031 C 
ATOM     55  C   UNL A   1      43.695  32.049  29.430  1.00  0.00     0.029 A 
ATOM     56  C   UNL A   1      44.604  31.172  28.860  1.00  0.00     0.049 A 
ATOM     57  H   UNL A   1      44.356  29.134  28.370  1.00  0.00     0.167 HD
ATOM     58  C   UNL A   1      46.810  30.495  27.950  1.00  0.00     0.074 A 
ATOM     59  C   UNL A   1      48.176  30.766  27.556  1.00  0.00     0.031 C 
ATOM     60  C   UNL A   1      45.964  31.432  28.451  1.00  0.00     0.034 A 
BRANCH  47  61
ATOM     61  C   UNL A   1      40.281  29.311  29.679  1.00  0.00     0.023 A 
ATOM     62  C   UNL A   1      39.934  29.390  31.037  1.00  0.00     0.031 A 
ATOM     63  C   UNL A   1      39.281  29.578  28.725  1.00  0.00     0.131 A 
ATOM     64  C   UNL A   1      38.612  29.691  31.404  1.00  0.00     0.055 A 
ATOM     65  C   UNL A   1      37.986  29.939  29.096  1.00  0.00     0.041 A 
ATOM     66  F   UNL A   1      39.552  29.497  27.413  1.00  0.00    -0.206 F 
ATOM     67  C   UNL A   1      37.642  29.990  30.443  1.00  0.00     0.022 A 
BRANCH  64  68
ATOM     68  S   UNL A   1      38.150  29.603  33.155  1.00  0.00     0.124 S 
ATOM     69  O   UNL A   1      39.417  29.226  33.775  1.00  0.00    -0.237 OA
ATOM     70  O   UNL A   1      37.682  30.956  33.427  1.00  0.00    -0.237 OA
ATOM     71  O   UNL A   1      37.117  28.568  33.185  1.00  0.00    -0.744 OA
ENDBRANCH  64  68
ENDBRANCH  47  61
BRANCH  48  72
ATOM     72  C   UNL A   1      49.371  26.967  26.160  1.00  0.00     0.023 A 
ATOM     73  C   UNL A   1      50.494  26.710  26.962  1.00  0.00     0.031 A 
ATOM     74  C   UNL A   1      49.557  27.014  24.765  1.00  0.00     0.131 A 
ATOM     75  C   UNL A   1      51.761  26.574  26.370  1.00  0.00     0.055 A 
ATOM     76  C   UNL A   1      50.806  26.810  24.179  1.00  0.00     0.041 A 
ATOM     77  F   UNL A   1      48.521  27.265  23.948  1.00  0.00    -0.206 F 
ATOM     78  C   UNL A   1      51.922  26.607  24.984  1.00  0.00     0.022 A 
BRANCH  75  79
ATOM     79  S   UNL A   1      53.216  26.488  27.450  1.00  0.00     0.124 S 
ATOM     80  O   UNL A   1      53.922  27.714  27.095  1.00  0.00    -0.237 OA
ATOM     81  O   UNL A   1      52.607  26.460  28.776  1.00  0.00    -0.237 OA
ATOM     82  O   UNL A   1      53.871  25.248  27.038  1.00  0.00    -0.744 OA
ENDBRANCH  75  79
ENDBRANCH  48  72
BRANCH  60  83
ATOM     83  C   UNL A   1      46.516  32.825  28.631  1.00  0.00     0.023 A 
ATOM     84  C   UNL A   1      46.433  33.789  27.610  1.00  0.00     0.031 A 
ATOM     85  C   UNL A   1      47.153  33.186  29.831  1.00  0.00     0.131 A 
ATOM     86  C   UNL A   1      47.027  35.047  27.786  1.00  0.00     0.055 A 
ATOM     87  C   UNL A   1      47.686  34.461  30.025  1.00  0.00     0.041 A 
ATOM     88  F   UNL A   1      47.264  32.305  30.838  1.00  0.00    -0.206 F 
ATOM     89  C   UNL A   1      47.638  35.395  28.994  1.00  0.00     0.022 A 
BRANCH  86  90
ATOM     90  S   UNL A   1      47.076  36.192  26.381  1.00  0.00     0.124 S 
ATOM     91  O   UNL A   1      48.487  36.153  26.008  1.00  0.00    -0.237 OA
ATOM     92  O   UNL A   1      46.151  35.571  25.438  1.00  0.00    -0.237 OA
ATOM     93  O   UNL A   1      46.621  37.458  26.952  1.00  0.00    -0.744 OA
ENDBRANCH  86  90
ENDBRANCH  60  83
ENDBRANCH  34  35
ENDBRANCH  27  29
ENDBRANCH  26  27
ENDBRANCH  25  26
ENDBRANCH   1  25
TORSDOF 19
ENDMDL
MODEL 3
REMARK VINA RESULT:     -11.0      1.563      7.783
REMARK SMILES O=C(CSc1nc2[nH]cnc2c(=O)[nH]1)NCCC(=O)OCCOC(=O)c1ccc(-c2c3nc(c(-c4cc(S(=O)(=O)[O-])ccc4F)c4ccc([nH]4)c(-c4cc(S(=O)(=O)[O-])ccc4F)c4nc(c(-c5cc(S(=O)(=O)[O-])ccc5F)c5ccc2[nH]5)C=C4)C=C3)cc1
REMARK SMILES IDX 21 1 20 2 18 3 19 4 17 5 16 6 15 7 1 8 2 9 3 11 4 12 5 13
REMARK SMILES IDX 6 14 14 15 7 16 12 17 8 19 11 20 13 21 9 22 10 24 22 25
REMARK SMILES IDX 23 26 24 27 25 28 26 29 27 30 88 31 28 32 87 33 29 34 30 35
REMARK SMILES IDX 31 36 81 37 32 38 86 39 80 40 82 41 33 42 85 43 79 44 78 45
REMARK SMILES IDX 34 47 66 48 46 49 65 50 47 51 50 52 64 53 83 54 48 55 49 56
REMARK SMILES IDX 63 58 84 59 51 60 35 61 36 62 44 63 37 64 43 65 45 66 42 67
REMARK SMILES IDX 38 68 39 69 40 70 41 71 67 72 68 73 76 74 69 75 75 76 77 77
REMARK SMILES IDX 74 78 70 79 71 80 72 81 73 82 52 83 53 84 61 85 54 86 60 87
REMARK SMILES IDX 62 88 59 89 55 90 56 91 57 92 58 93
REMARK H PARENT 15 10 14 18 8 23 82 46 50 57
REMARK Flexibility Score: inf
ROOT
ATOM      1  C   UNL A   1      38.579  20.489  25.299  1.00  0.00     0.274 C 
ENDROOT
BRANCH   1   2
ATOM      2  O   UNL A   1      38.793  21.691  26.069  1.00  0.00    -0.462 OA
BRANCH   2   3
ATOM      3  C   UNL A   1      37.950  22.729  25.806  1.00  0.00     0.307 C 
ATOM      4  O   UNL A   1      37.901  23.762  26.459  1.00  0.00    -0.252 OA
BRANCH   3   5
ATOM      5  C   UNL A   1      37.009  22.448  24.657  1.00  0.00     0.144 C 
BRANCH   5   6
ATOM      6  C   UNL A   1      35.894  23.470  24.491  1.00  0.00     0.127 C 
BRANCH   6   7
ATOM      7  N   UNL A   1      34.601  22.828  24.351  1.00  0.00    -0.355 N 
ATOM      8  O   UNL A   1      34.293  23.297  22.129  1.00  0.00    -0.274 OA
ATOM      9  C   UNL A   1      33.880  22.814  23.178  1.00  0.00     0.230 C 
ATOM     10  H   UNL A   1      34.218  22.378  25.138  1.00  0.00     0.163 HD
BRANCH   9  11
ATOM     11  C   UNL A   1      32.484  22.231  23.293  1.00  0.00     0.178 C 
BRANCH  11  12
ATOM     12  S   UNL A   1      32.128  21.619  24.965  1.00  0.00    -0.078 SA
BRANCH  12  13
ATOM     13  C   UNL A   1      32.401  19.921  24.707  1.00  0.00     0.170 A 
ATOM     14  N   UNL A   1      32.682  19.152  25.718  1.00  0.00    -0.204 NA
ATOM     15  N   UNL A   1      32.333  19.528  23.387  1.00  0.00    -0.299 N 
ATOM     16  C   UNL A   1      32.935  17.881  25.329  1.00  0.00     0.165 A 
ATOM     17  C   UNL A   1      32.559  18.227  22.962  1.00  0.00     0.279 A 
ATOM     18  H   UNL A   1      32.112  20.207  22.710  1.00  0.00     0.172 HD
ATOM     19  N   UNL A   1      33.324  16.858  26.141  1.00  0.00    -0.329 N 
ATOM     20  C   UNL A   1      32.906  17.347  24.061  1.00  0.00     0.172 A 
ATOM     21  O   UNL A   1      32.477  17.901  21.786  1.00  0.00    -0.267 OA
ATOM     22  C   UNL A   1      33.520  15.763  25.341  1.00  0.00     0.199 A 
ATOM     23  H   UNL A   1      33.442  16.899  27.117  1.00  0.00     0.169 HD
ATOM     24  N   UNL A   1      33.266  16.023  24.075  1.00  0.00    -0.229 NA
ENDBRANCH  12  13
ENDBRANCH  11  12
ENDBRANCH   9  11
ENDBRANCH   6   7
ENDBRANCH   5   6
ENDBRANCH   3   5
ENDBRANCH   2   3
ENDBRANCH   1   2
BRANCH   1  25
ATOM     25  C   UNL A   1      39.441  19.330  25.805  1.00  0.00     0.275 C 
BRANCH  25  26
ATOM     26  O   UNL A   1      40.804  19.450  25.364  1.00  0.00    -0.458 OA
BRANCH  26  27
ATOM     27  C   UNL A   1      41.724  19.527  26.355  1.00  0.00     0.338 C 
ATOM     28  O   UNL A   1      42.336  18.601  26.858  1.00  0.00    -0.246 OA
BRANCH  27  29
ATOM     29  C   UNL A   1      41.992  20.941  26.660  1.00  0.00     0.060 A 
ATOM     30  C   UNL A   1      42.094  21.844  25.599  1.00  0.00     0.016 A 
ATOM     31  C   UNL A   1      42.200  21.366  27.973  1.00  0.00     0.016 A 
ATOM     32  C   UNL A   1      42.401  23.180  25.845  1.00  0.00     0.010 A 
ATOM     33  C   UNL A   1      42.492  22.714  28.220  1.00  0.00     0.010 A 
ATOM     34  C   UNL A   1      42.595  23.631  27.158  1.00  0.00    -0.014 A 
BRANCH  34  35
ATOM     35  C   UNL A   1      42.889  25.065  27.416  1.00  0.00     0.031 A 
ATOM     36  C   UNL A   1      44.270  25.611  27.178  1.00  0.00     0.074 A 
ATOM     37  C   UNL A   1      41.908  25.870  27.869  1.00  0.00     0.049 A 
ATOM     38  N   UNL A   1      44.742  26.802  27.439  1.00  0.00    -0.248 NA
ATOM     39  C   UNL A   1      45.247  24.697  26.570  1.00  0.00     0.031 C 
ATOM     40  C   UNL A   1      40.521  25.461  28.100  1.00  0.00     0.029 A 
ATOM     41  N   UNL A   1      41.923  27.197  28.226  1.00  0.00    -0.354 N 
ATOM     42  C   UNL A   1      46.077  26.778  27.049  1.00  0.00     0.074 A 
ATOM     43  C   UNL A   1      46.340  25.446  26.546  1.00  0.00     0.031 C 
ATOM     44  C   UNL A   1      39.822  26.510  28.561  1.00  0.00     0.029 A 
ATOM     45  C   UNL A   1      40.721  27.649  28.722  1.00  0.00     0.049 A 
ATOM     46  H   UNL A   1      42.719  27.770  28.135  1.00  0.00     0.167 HD
ATOM     47  C   UNL A   1      46.992  27.777  27.110  1.00  0.00     0.034 A 
ATOM     48  C   UNL A   1      40.392  28.830  29.283  1.00  0.00     0.034 A 
ATOM     49  C   UNL A   1      46.705  29.104  27.602  1.00  0.00     0.049 A 
ATOM     50  C   UNL A   1      41.452  29.897  29.405  1.00  0.00     0.074 A 
ATOM     51  C   UNL A   1      47.549  30.200  27.660  1.00  0.00     0.029 A 
ATOM     52  N   UNL A   1      45.488  29.513  28.133  1.00  0.00    -0.354 N 
ATOM     53  N   UNL A   1      42.706  29.863  29.013  1.00  0.00    -0.248 NA
ATOM     54  C   UNL A   1      41.057  31.159  30.044  1.00  0.00     0.031 C 
ATOM     55  C   UNL A   1      46.871  31.244  28.297  1.00  0.00     0.029 A 
ATOM     56  C   UNL A   1      45.576  30.829  28.563  1.00  0.00     0.049 A 
ATOM     57  H   UNL A   1      44.682  28.951  28.195  1.00  0.00     0.167 HD
ATOM     58  C   UNL A   1      43.237  31.109  29.338  1.00  0.00     0.074 A 
ATOM     59  C   UNL A   1      42.162  31.877  29.931  1.00  0.00     0.031 C 
ATOM     60  C   UNL A   1      44.499  31.578  29.165  1.00  0.00     0.034 A 
BRANCH  47  61
ATOM     61  C   UNL A   1      48.407  27.468  26.687  1.00  0.00     0.023 A 
ATOM     62  C   UNL A   1      48.868  27.705  25.382  1.00  0.00     0.031 A 
ATOM     63  C   UNL A   1      49.320  26.957  27.628  1.00  0.00     0.131 A 
ATOM     64  C   UNL A   1      50.196  27.396  25.044  1.00  0.00     0.055 A 
ATOM     65  C   UNL A   1      50.655  26.713  27.303  1.00  0.00     0.041 A 
ATOM     66  F   UNL A   1      48.929  26.694  28.885  1.00  0.00    -0.206 F 
ATOM     67  C   UNL A   1      51.099  26.925  26.002  1.00  0.00     0.022 A 
BRANCH  64  68
ATOM     68  S   UNL A   1      50.711  27.536  23.311  1.00  0.00     0.124 S 
ATOM     69  O   UNL A   1      49.585  26.914  22.620  1.00  0.00    -0.237 OA
ATOM     70  O   UNL A   1      50.851  28.977  23.138  1.00  0.00    -0.237 OA
ATOM     71  O   UNL A   1      51.960  26.778  23.262  1.00  0.00    -0.744 OA
ENDBRANCH  64  68
ENDBRANCH  47  61
BRANCH  48  72
ATOM     72  C   UNL A   1      39.025  29.056  29.842  1.00  0.00     0.023 A 
ATOM     73  C   UNL A   1      38.018  29.669  29.080  1.00  0.00     0.031 A 
ATOM     74  C   UNL A   1      38.733  28.740  31.183  1.00  0.00     0.131 A 
ATOM     75  C   UNL A   1      36.793  30.005  29.678  1.00  0.00     0.055 A 
ATOM     76  C   UNL A   1      37.489  29.014  31.753  1.00  0.00     0.041 A 
ATOM     77  F   UNL A   1      39.659  28.161  31.964  1.00  0.00    -0.206 F 
ATOM     78  C   UNL A   1      36.516  29.668  31.004  1.00  0.00     0.022 A 
BRANCH  75  79
ATOM     79  S   UNL A   1      35.615  31.010  28.734  1.00  0.00     0.124 S 
ATOM     80  O   UNL A   1      34.665  30.003  28.276  1.00  0.00    -0.237 OA
ATOM     81  O   UNL A   1      35.127  31.937  29.750  1.00  0.00    -0.237 OA
ATOM     82  O   UNL A   1      36.442  31.611  27.689  1.00  0.00    -0.744 OA
ENDBRANCH  75  79
ENDBRANCH  48  72
BRANCH  60  83
ATOM     83  C   UNL A   1      44.765  33.000  29.592  1.00  0.00     0.023 A 
ATOM     84  C   UNL A   1      44.526  34.087  28.732  1.00  0.00     0.031 A 
ATOM     85  C   UNL A   1      45.286  33.272  30.870  1.00  0.00     0.131 A 
ATOM     86  C   UNL A   1      44.861  35.388  29.137  1.00  0.00     0.055 A 
ATOM     87  C   UNL A   1      45.556  34.574  31.292  1.00  0.00     0.041 A 
ATOM     88  F   UNL A   1      45.537  32.273  31.732  1.00  0.00    -0.206 F 
ATOM     89  C   UNL A   1      45.358  35.639  30.419  1.00  0.00     0.022 A 
BRANCH  86  90
ATOM     90  S   UNL A   1      44.728  36.737  27.933  1.00  0.00     0.124 S 
ATOM     91  O   UNL A   1      45.131  37.893  28.729  1.00  0.00    -0.237 OA
ATOM     92  O   UNL A   1      45.664  36.322  26.893  1.00  0.00    -0.237 OA
ATOM     93  O   UNL A   1      43.319  36.713  27.544  1.00  0.00    -0.744 OA
ENDBRANCH  86  90
ENDBRANCH  60  83
ENDBRANCH  34  35
ENDBRANCH  27  29
ENDBRANCH  26  27
ENDBRANCH  25  26
ENDBRANCH   1  25
TORSDOF 19
ENDMDL
