MODEL 1
REMARK VINA RESULT:     -12.0      0.000      0.000
REMARK SMILES NS(=O)(=O)c1ccc(N2N=C(C(=O)OCCOC(=O)c3ccc(-c4c5nc(c(-c6cc(S(=O)(=O)[O-])ccc6F)c6ccc([nH]6)c(-c6cc(S(=O)(=O)[O-])ccc6F)c6nc(c(-c7cc(S(=O)(=O)[O-])ccc7F)c7ccc4[nH]7)C=C6)C=C5)cc3)C[C@H]2c2cccs2)cc1
REMARK SMILES IDX 15 1 14 2 12 3 13 4 11 5 9 6 10 7 84 8 83 9 8 10 5 11 6 12
REMARK SMILES IDX 91 13 7 14 90 15 2 16 3 17 4 18 1 19 85 22 86 23 89 24 87 25
REMARK SMILES IDX 88 26 16 27 17 28 18 29 19 30 20 31 21 32 82 33 22 34 81 35
REMARK SMILES IDX 23 36 24 37 25 38 75 39 26 40 80 41 74 42 76 43 27 44 79 45
REMARK SMILES IDX 73 46 72 47 28 49 60 50 40 51 59 52 41 53 44 54 58 55 77 56
REMARK SMILES IDX 42 57 43 58 57 60 78 61 45 62 29 63 30 64 38 65 31 66 37 67
REMARK SMILES IDX 39 68 36 69 32 70 33 71 34 72 35 73 61 74 62 75 70 76 63 77
REMARK SMILES IDX 69 78 71 79 68 80 64 81 65 82 66 83 67 84 46 85 47 86 55 87
REMARK SMILES IDX 48 88 54 89 56 90 53 91 49 92 50 93 51 94 52 95
REMARK H PARENT 1 20 1 21 76 48 44 59
REMARK Flexibility Score: inf
ROOT
ATOM      1  C   UNL A   1      34.790  21.854  24.567  1.00  0.00     0.275 C 
ENDROOT
BRANCH   1   2
ATOM      2  O   UNL A   1      34.436  23.216  24.877  1.00  0.00    -0.458 OA
BRANCH   2   3
ATOM      3  C   UNL A   1      34.070  23.971  23.821  1.00  0.00     0.354 C 
ATOM      4  O   UNL A   1      34.388  23.805  22.657  1.00  0.00    -0.245 OA
BRANCH   3   5
ATOM      5  C   UNL A   1      33.091  25.045  24.241  1.00  0.00     0.148 C 
ATOM      6  N   UNL A   1      31.820  26.729  24.125  1.00  0.00    -0.256 N 
ATOM      7  N   UNL A   1      32.640  25.931  23.405  1.00  0.00    -0.169 NA
ATOM      8  C   UNL A   1      31.963  26.541  25.572  1.00  0.00     0.154 C 
ATOM      9  C   UNL A   1      32.523  25.106  25.622  1.00  0.00     0.099 C 
BRANCH   6  10
ATOM     10  C   UNL A   1      30.958  27.614  23.502  1.00  0.00     0.060 A 
ATOM     11  C   UNL A   1      29.214  29.508  22.362  1.00  0.00     0.082 A 
ATOM     12  C   UNL A   1      28.690  28.389  23.013  1.00  0.00     0.024 A 
ATOM     13  C   UNL A   1      30.593  29.662  22.226  1.00  0.00     0.024 A 
ATOM     14  C   UNL A   1      29.565  27.446  23.573  1.00  0.00     0.029 A 
ATOM     15  C   UNL A   1      31.450  28.713  22.787  1.00  0.00     0.029 A 
BRANCH  11  16
ATOM     16  S   UNL A   1      28.137  30.765  21.730  1.00  0.00     0.238 S 
ATOM     17  O   UNL A   1      27.157  31.087  22.746  1.00  0.00    -0.207 OA
ATOM     18  O   UNL A   1      27.749  30.385  20.393  1.00  0.00    -0.207 OA
BRANCH  16  19
ATOM     19  N   UNL A   1      29.124  32.107  21.606  1.00  0.00    -0.225 NA
ATOM     20  H   UNL A   1      30.015  31.836  21.189  1.00  0.00     0.137 HD
ATOM     21  H   UNL A   1      29.287  32.497  22.534  1.00  0.00     0.137 HD
ENDBRANCH  16  19
ENDBRANCH  11  16
ENDBRANCH   6  10
BRANCH   8  22
ATOM     22  C   UNL A   1      32.838  27.596  26.243  1.00  0.00     0.030 A 
ATOM     23  C   UNL A   1      34.221  27.666  26.195  1.00  0.00     0.017 A 
ATOM     24  S   UNL A   1      32.210  28.835  27.256  1.00  0.00    -0.147 S 
ATOM     25  C   UNL A   1      34.755  28.695  27.021  1.00  0.00     0.012 A 
ATOM     26  C   UNL A   1      33.765  29.426  27.633  1.00  0.00     0.065 A 
ENDBRANCH   8  22
ENDBRANCH   3   5
ENDBRANCH   2   3
ENDBRANCH   1   2
BRANCH   1  27
ATOM     27  C   UNL A   1      36.312  21.682  24.507  1.00  0.00     0.275 C 
BRANCH  27  28
ATOM     28  O   UNL A   1      36.923  21.832  25.801  1.00  0.00    -0.458 OA
BRANCH  28  29
ATOM     29  C   UNL A   1      38.242  21.533  25.848  1.00  0.00     0.338 C 
ATOM     30  O   UNL A   1      38.786  20.547  25.376  1.00  0.00    -0.246 OA
BRANCH  29  31
ATOM     31  C   UNL A   1      38.979  22.646  26.459  1.00  0.00     0.060 A 
ATOM     32  C   UNL A   1      38.593  23.943  26.133  1.00  0.00     0.016 A 
ATOM     33  C   UNL A   1      40.097  22.426  27.260  1.00  0.00     0.016 A 
ATOM     34  C   UNL A   1      39.344  25.035  26.546  1.00  0.00     0.010 A 
ATOM     35  C   UNL A   1      40.821  23.528  27.729  1.00  0.00     0.010 A 
ATOM     36  C   UNL A   1      40.459  24.839  27.362  1.00  0.00    -0.014 A 
BRANCH  36  37
ATOM     37  C   UNL A   1      41.263  26.002  27.810  1.00  0.00     0.031 A 
ATOM     38  C   UNL A   1      40.609  27.083  28.620  1.00  0.00     0.074 A 
ATOM     39  C   UNL A   1      42.566  26.086  27.482  1.00  0.00     0.049 A 
ATOM     40  N   UNL A   1      41.062  28.265  28.941  1.00  0.00    -0.248 NA
ATOM     41  C   UNL A   1      39.256  26.796  29.122  1.00  0.00     0.031 C 
ATOM     42  C   UNL A   1      43.325  25.057  26.768  1.00  0.00     0.029 A 
ATOM     43  N   UNL A   1      43.480  27.086  27.692  1.00  0.00    -0.354 N 
ATOM     44  C   UNL A   1      40.038  28.882  29.651  1.00  0.00     0.074 A 
ATOM     45  C   UNL A   1      38.933  27.946  29.694  1.00  0.00     0.031 C 
ATOM     46  C   UNL A   1      44.586  25.482  26.595  1.00  0.00     0.029 A 
ATOM     47  C   UNL A   1      44.702  26.843  27.107  1.00  0.00     0.049 A 
ATOM     48  H   UNL A   1      43.282  27.900  28.209  1.00  0.00     0.167 HD
ATOM     49  C   UNL A   1      40.029  30.117  30.209  1.00  0.00     0.034 A 
ATOM     50  C   UNL A   1      45.773  27.646  26.951  1.00  0.00     0.034 A 
ATOM     51  C   UNL A   1      41.152  31.022  30.157  1.00  0.00     0.049 A 
ATOM     52  C   UNL A   1      45.704  29.052  27.492  1.00  0.00     0.074 A 
ATOM     53  C   UNL A   1      41.263  32.290  30.697  1.00  0.00     0.029 A 
ATOM     54  N   UNL A   1      42.359  30.756  29.519  1.00  0.00    -0.354 N 
ATOM     55  N   UNL A   1      44.720  29.642  28.132  1.00  0.00    -0.248 NA
ATOM     56  C   UNL A   1      46.883  29.901  27.287  1.00  0.00     0.031 C 
ATOM     57  C   UNL A   1      42.500  32.822  30.318  1.00  0.00     0.029 A 
ATOM     58  C   UNL A   1      43.202  31.851  29.622  1.00  0.00     0.049 A 
ATOM     59  H   UNL A   1      42.582  29.913  29.061  1.00  0.00     0.167 HD
ATOM     60  C   UNL A   1      45.179  30.920  28.438  1.00  0.00     0.074 A 
ATOM     61  C   UNL A   1      46.528  31.011  27.917  1.00  0.00     0.031 C 
ATOM     62  C   UNL A   1      44.547  31.923  29.098  1.00  0.00     0.034 A 
BRANCH  49  63
ATOM     63  C   UNL A   1      38.751  30.579  30.864  1.00  0.00     0.023 A 
ATOM     64  C   UNL A   1      37.802  31.358  30.179  1.00  0.00     0.031 A 
ATOM     65  C   UNL A   1      38.486  30.255  32.208  1.00  0.00     0.131 A 
ATOM     66  C   UNL A   1      36.676  31.846  30.858  1.00  0.00     0.055 A 
ATOM     67  C   UNL A   1      37.321  30.672  32.853  1.00  0.00     0.041 A 
ATOM     68  F   UNL A   1      39.365  29.534  32.922  1.00  0.00    -0.206 F 
ATOM     69  C   UNL A   1      36.414  31.486  32.182  1.00  0.00     0.022 A 
BRANCH  66  70
ATOM     70  S   UNL A   1      35.635  33.077  30.027  1.00  0.00     0.124 S 
ATOM     71  O   UNL A   1      35.522  34.109  31.056  1.00  0.00    -0.237 OA
ATOM     72  O   UNL A   1      36.435  33.428  28.860  1.00  0.00    -0.237 OA
ATOM     73  O   UNL A   1      34.401  32.348  29.745  1.00  0.00    -0.744 OA
ENDBRANCH  66  70
ENDBRANCH  49  63
BRANCH  50  74
ATOM     74  C   UNL A   1      46.970  27.171  26.198  1.00  0.00     0.023 A 
ATOM     75  C   UNL A   1      47.234  27.623  24.896  1.00  0.00     0.031 A 
ATOM     76  C   UNL A   1      47.846  26.217  26.752  1.00  0.00     0.131 A 
ATOM     77  C   UNL A   1      48.311  27.088  24.174  1.00  0.00     0.055 A 
ATOM     78  C   UNL A   1      48.955  25.737  26.054  1.00  0.00     0.041 A 
ATOM     79  F   UNL A   1      47.639  25.742  27.991  1.00  0.00    -0.206 F 
ATOM     80  C   UNL A   1      49.184  26.162  24.751  1.00  0.00     0.022 A 
BRANCH  77  81
ATOM     81  S   UNL A   1      48.492  27.539  22.427  1.00  0.00     0.124 S 
ATOM     82  O   UNL A   1      48.642  26.231  21.799  1.00  0.00    -0.237 OA
ATOM     83  O   UNL A   1      47.238  28.237  22.163  1.00  0.00    -0.237 OA
ATOM     84  O   UNL A   1      49.687  28.378  22.414  1.00  0.00    -0.744 OA
ENDBRANCH  77  81
ENDBRANCH  50  74
BRANCH  62  85
ATOM     85  C   UNL A   1      45.334  33.184  29.355  1.00  0.00     0.023 A 
ATOM     86  C   UNL A   1      45.329  34.265  28.457  1.00  0.00     0.031 A 
ATOM     87  C   UNL A   1      46.087  33.307  30.538  1.00  0.00     0.131 A 
ATOM     88  C   UNL A   1      46.094  35.407  28.737  1.00  0.00     0.055 A 
ATOM     89  C   UNL A   1      46.796  34.470  30.840  1.00  0.00     0.041 A 
ATOM     90  F   UNL A   1      46.130  32.303  31.428  1.00  0.00    -0.206 F 
ATOM     91  C   UNL A   1      46.810  35.525  29.933  1.00  0.00     0.022 A 
BRANCH  88  92
ATOM     92  S   UNL A   1      46.204  36.714  27.486  1.00  0.00     0.124 S 
ATOM     93  O   UNL A   1      47.531  37.265  27.738  1.00  0.00    -0.237 OA
ATOM     94  O   UNL A   1      46.049  35.969  26.240  1.00  0.00    -0.237 OA
ATOM     95  O   UNL A   1      45.091  37.602  27.818  1.00  0.00    -0.744 OA
ENDBRANCH  88  92
ENDBRANCH  62  85
ENDBRANCH  36  37
ENDBRANCH  29  31
ENDBRANCH  28  29
ENDBRANCH  27  28
ENDBRANCH   1  27
TORSDOF 18
ENDMDL
MODEL 2
REMARK VINA RESULT:     -11.9      5.338     10.839
REMARK SMILES NS(=O)(=O)c1ccc(N2N=C(C(=O)OCCOC(=O)c3ccc(-c4c5nc(c(-c6cc(S(=O)(=O)[O-])ccc6F)c6ccc([nH]6)c(-c6cc(S(=O)(=O)[O-])ccc6F)c6nc(c(-c7cc(S(=O)(=O)[O-])ccc7F)c7ccc4[nH]7)C=C6)C=C5)cc3)C[C@H]2c2cccs2)cc1
REMARK SMILES IDX 15 1 14 2 12 3 13 4 11 5 9 6 10 7 84 8 83 9 8 10 5 11 6 12
REMARK SMILES IDX 91 13 7 14 90 15 2 16 3 17 4 18 1 19 85 22 86 23 89 24 87 25
REMARK SMILES IDX 88 26 16 27 17 28 18 29 19 30 20 31 21 32 82 33 22 34 81 35
REMARK SMILES IDX 23 36 24 37 25 38 75 39 26 40 80 41 74 42 76 43 27 44 79 45
REMARK SMILES IDX 73 46 72 47 28 49 60 50 40 51 59 52 41 53 44 54 58 55 77 56
REMARK SMILES IDX 42 57 43 58 57 60 78 61 45 62 29 63 30 64 38 65 31 66 37 67
REMARK SMILES IDX 39 68 36 69 32 70 33 71 34 72 35 73 61 74 62 75 70 76 63 77
REMARK SMILES IDX 69 78 71 79 68 80 64 81 65 82 66 83 67 84 46 85 47 86 55 87
REMARK SMILES IDX 48 88 54 89 56 90 53 91 49 92 50 93 51 94 52 95
REMARK H PARENT 1 20 1 21 76 48 44 59
REMARK Flexibility Score: inf
ROOT
ATOM      1  C   UNL A   1      32.147  28.229  25.298  1.00  0.00     0.275 C 
ENDROOT
BRANCH   1   2
ATOM      2  O   UNL A   1      33.436  27.586  25.260  1.00  0.00    -0.458 OA
BRANCH   2   3
ATOM      3  C   UNL A   1      33.548  26.570  24.380  1.00  0.00     0.354 C 
ATOM      4  O   UNL A   1      33.324  26.610  23.184  1.00  0.00    -0.245 OA
BRANCH   3   5
ATOM      5  C   UNL A   1      34.107  25.335  25.052  1.00  0.00     0.148 C 
ATOM      6  N   UNL A   1      35.423  23.747  25.508  1.00  0.00    -0.256 N 
ATOM      7  N   UNL A   1      35.266  24.843  24.733  1.00  0.00    -0.169 NA
ATOM      8  C   UNL A   1      34.181  23.325  26.163  1.00  0.00     0.154 C 
ATOM      9  C   UNL A   1      33.397  24.652  26.175  1.00  0.00     0.099 C 
BRANCH   6  10
ATOM     10  C   UNL A   1      36.655  23.129  25.629  1.00  0.00     0.060 A 
ATOM     11  C   UNL A   1      39.110  21.802  26.007  1.00  0.00     0.082 A 
ATOM     12  C   UNL A   1      38.966  23.125  26.431  1.00  0.00     0.024 A 
ATOM     13  C   UNL A   1      38.065  21.156  25.349  1.00  0.00     0.024 A 
ATOM     14  C   UNL A   1      37.742  23.782  26.232  1.00  0.00     0.029 A 
ATOM     15  C   UNL A   1      36.853  21.825  25.158  1.00  0.00     0.029 A 
BRANCH  11  16
ATOM     16  S   UNL A   1      40.610  20.915  26.330  1.00  0.00     0.238 S 
ATOM     17  O   UNL A   1      41.703  21.603  25.677  1.00  0.00    -0.207 OA
ATOM     18  O   UNL A   1      40.351  19.513  26.105  1.00  0.00    -0.207 OA
BRANCH  16  19
ATOM     19  N   UNL A   1      40.850  21.126  27.969  1.00  0.00    -0.225 NA
ATOM     20  H   UNL A   1      40.404  21.994  28.269  1.00  0.00     0.137 HD
ATOM     21  H   UNL A   1      41.851  21.172  28.164  1.00  0.00     0.137 HD
ENDBRANCH  16  19
ENDBRANCH  11  16
ENDBRANCH   6  10
BRANCH   8  22
ATOM     22  C   UNL A   1      33.478  22.170  25.456  1.00  0.00     0.030 A 
ATOM     23  C   UNL A   1      33.035  20.995  26.045  1.00  0.00     0.017 A 
ATOM     24  S   UNL A   1      33.206  22.128  23.759  1.00  0.00    -0.147 S 
ATOM     25  C   UNL A   1      32.525  20.058  25.103  1.00  0.00     0.012 A 
ATOM     26  C   UNL A   1      32.535  20.561  23.824  1.00  0.00     0.065 A 
ENDBRANCH   8  22
ENDBRANCH   3   5
ENDBRANCH   2   3
ENDBRANCH   1   2
BRANCH   1  27
ATOM     27  C   UNL A   1      32.258  29.649  25.864  1.00  0.00     0.275 C 
BRANCH  27  28
ATOM     28  O   UNL A   1      33.622  30.012  26.145  1.00  0.00    -0.458 OA
BRANCH  28  29
ATOM     29  C   UNL A   1      33.775  30.970  27.089  1.00  0.00     0.338 C 
ATOM     30  O   UNL A   1      32.951  31.806  27.424  1.00  0.00    -0.246 OA
BRANCH  29  31
ATOM     31  C   UNL A   1      35.066  30.794  27.766  1.00  0.00     0.060 A 
ATOM     32  C   UNL A   1      35.349  29.548  28.320  1.00  0.00     0.016 A 
ATOM     33  C   UNL A   1      35.946  31.859  27.945  1.00  0.00     0.016 A 
ATOM     34  C   UNL A   1      36.475  29.359  29.109  1.00  0.00     0.010 A 
ATOM     35  C   UNL A   1      37.113  31.655  28.689  1.00  0.00     0.010 A 
ATOM     36  C   UNL A   1      37.377  30.409  29.290  1.00  0.00    -0.014 A 
BRANCH  36  37
ATOM     37  C   UNL A   1      38.585  30.211  30.128  1.00  0.00     0.031 A 
ATOM     38  C   UNL A   1      39.692  29.329  29.632  1.00  0.00     0.074 A 
ATOM     39  C   UNL A   1      38.676  30.815  31.329  1.00  0.00     0.049 A 
ATOM     40  N   UNL A   1      40.730  28.863  30.273  1.00  0.00    -0.248 NA
ATOM     41  C   UNL A   1      39.608  28.903  28.226  1.00  0.00     0.031 C 
ATOM     42  C   UNL A   1      37.699  31.757  31.877  1.00  0.00     0.029 A 
ATOM     43  N   UNL A   1      39.629  30.716  32.311  1.00  0.00    -0.354 N 
ATOM     44  C   UNL A   1      41.406  28.057  29.364  1.00  0.00     0.074 A 
ATOM     45  C   UNL A   1      40.645  28.084  28.132  1.00  0.00     0.031 C 
ATOM     46  C   UNL A   1      38.099  32.145  33.098  1.00  0.00     0.029 A 
ATOM     47  C   UNL A   1      39.312  31.416  33.453  1.00  0.00     0.049 A 
ATOM     48  H   UNL A   1      40.458  30.194  32.210  1.00  0.00     0.167 HD
ATOM     49  C   UNL A   1      42.553  27.361  29.551  1.00  0.00     0.034 A 
ATOM     50  C   UNL A   1      39.900  31.424  34.665  1.00  0.00     0.034 A 
ATOM     51  C   UNL A   1      43.293  27.363  30.790  1.00  0.00     0.049 A 
ATOM     52  C   UNL A   1      41.118  30.562  34.880  1.00  0.00     0.074 A 
ATOM     53  C   UNL A   1      44.473  26.707  31.091  1.00  0.00     0.029 A 
ATOM     54  N   UNL A   1      42.918  28.051  31.939  1.00  0.00    -0.354 N 
ATOM     55  N   UNL A   1      41.734  29.775  34.028  1.00  0.00    -0.248 NA
ATOM     56  C   UNL A   1      41.720  30.584  36.220  1.00  0.00     0.031 C 
ATOM     57  C   UNL A   1      44.768  26.931  32.439  1.00  0.00     0.029 A 
ATOM     58  C   UNL A   1      43.825  27.804  32.958  1.00  0.00     0.049 A 
ATOM     59  H   UNL A   1      42.125  28.629  32.017  1.00  0.00     0.167 HD
ATOM     60  C   UNL A   1      42.816  29.239  34.719  1.00  0.00     0.074 A 
ATOM     61  C   UNL A   1      42.771  29.796  36.055  1.00  0.00     0.031 C 
ATOM     62  C   UNL A   1      43.766  28.372  34.286  1.00  0.00     0.034 A 
BRANCH  49  63
ATOM     63  C   UNL A   1      43.038  26.494  28.414  1.00  0.00     0.023 A 
ATOM     64  C   UNL A   1      44.140  26.854  27.621  1.00  0.00     0.031 A 
ATOM     65  C   UNL A   1      42.370  25.296  28.103  1.00  0.00     0.131 A 
ATOM     66  C   UNL A   1      44.495  26.067  26.515  1.00  0.00     0.055 A 
ATOM     67  C   UNL A   1      42.781  24.471  27.054  1.00  0.00     0.041 A 
ATOM     68  F   UNL A   1      41.295  24.909  28.810  1.00  0.00    -0.206 F 
ATOM     69  C   UNL A   1      43.840  24.864  26.242  1.00  0.00     0.022 A 
BRANCH  66  70
ATOM     70  S   UNL A   1      45.728  26.715  25.355  1.00  0.00     0.124 S 
ATOM     71  O   UNL A   1      44.964  27.749  24.660  1.00  0.00    -0.237 OA
ATOM     72  O   UNL A   1      46.778  27.191  26.247  1.00  0.00    -0.237 OA
ATOM     73  O   UNL A   1      46.076  25.553  24.541  1.00  0.00    -0.744 OA
ENDBRANCH  66  70
ENDBRANCH  49  63
BRANCH  50  74
ATOM     74  C   UNL A   1      39.312  32.216  35.785  1.00  0.00     0.023 A 
ATOM     75  C   UNL A   1      38.609  31.589  36.825  1.00  0.00     0.031 A 
ATOM     76  C   UNL A   1      39.403  33.621  35.807  1.00  0.00     0.131 A 
ATOM     77  C   UNL A   1      37.983  32.364  37.813  1.00  0.00     0.055 A 
ATOM     78  C   UNL A   1      38.835  34.384  36.828  1.00  0.00     0.041 A 
ATOM     79  F   UNL A   1      40.056  34.277  34.834  1.00  0.00    -0.206 F 
ATOM     80  C   UNL A   1      38.107  33.755  37.832  1.00  0.00     0.022 A 
BRANCH  77  81
ATOM     81  S   UNL A   1      36.909  31.532  39.015  1.00  0.00     0.124 S 
ATOM     82  O   UNL A   1      37.721  31.590  40.225  1.00  0.00    -0.237 OA
ATOM     83  O   UNL A   1      35.721  32.378  38.998  1.00  0.00    -0.237 OA
ATOM     84  O   UNL A   1      36.732  30.198  38.446  1.00  0.00    -0.744 OA
ENDBRANCH  77  81
ENDBRANCH  50  74
BRANCH  62  85
ATOM     85  C   UNL A   1      44.876  28.027  35.247  1.00  0.00     0.023 A 
ATOM     86  C   UNL A   1      44.777  26.955  36.149  1.00  0.00     0.031 A 
ATOM     87  C   UNL A   1      46.065  28.779  35.238  1.00  0.00     0.131 A 
ATOM     88  C   UNL A   1      45.833  26.689  37.034  1.00  0.00     0.055 A 
ATOM     89  C   UNL A   1      47.136  28.471  36.077  1.00  0.00     0.041 A 
ATOM     90  F   UNL A   1      46.211  29.816  34.398  1.00  0.00    -0.206 F 
ATOM     91  C   UNL A   1      47.020  27.427  36.989  1.00  0.00     0.022 A 
BRANCH  88  92
ATOM     92  S   UNL A   1      45.611  25.410  38.301  1.00  0.00     0.124 S 
ATOM     93  O   UNL A   1      46.737  24.521  38.034  1.00  0.00    -0.237 OA
ATOM     94  O   UNL A   1      45.686  26.179  39.539  1.00  0.00    -0.237 OA
ATOM     95  O   UNL A   1      44.295  24.852  37.998  1.00  0.00    -0.744 OA
ENDBRANCH  88  92
ENDBRANCH  62  85
ENDBRANCH  36  37
ENDBRANCH  29  31
ENDBRANCH  28  29
ENDBRANCH  27  28
ENDBRANCH   1  27
TORSDOF 18
ENDMDL
MODEL 3
REMARK VINA RESULT:     -11.9      2.170      3.366
REMARK SMILES NS(=O)(=O)c1ccc(N2N=C(C(=O)OCCOC(=O)c3ccc(-c4c5nc(c(-c6cc(S(=O)(=O)[O-])ccc6F)c6ccc([nH]6)c(-c6cc(S(=O)(=O)[O-])ccc6F)c6nc(c(-c7cc(S(=O)(=O)[O-])ccc7F)c7ccc4[nH]7)C=C6)C=C5)cc3)C[C@H]2c2cccs2)cc1
REMARK SMILES IDX 15 1 14 2 12 3 13 4 11 5 9 6 10 7 84 8 83 9 8 10 5 11 6 12
REMARK SMILES IDX 91 13 7 14 90 15 2 16 3 17 4 18 1 19 85 22 86 23 89 24 87 25
REMARK SMILES IDX 88 26 16 27 17 28 18 29 19 30 20 31 21 32 82 33 22 34 81 35
REMARK SMILES IDX 23 36 24 37 25 38 75 39 26 40 80 41 74 42 76 43 27 44 79 45
REMARK SMILES IDX 73 46 72 47 28 49 60 50 40 51 59 52 41 53 44 54 58 55 77 56
REMARK SMILES IDX 42 57 43 58 57 60 78 61 45 62 29 63 30 64 38 65 31 66 37 67
REMARK SMILES IDX 39 68 36 69 32 70 33 71 34 72 35 73 61 74 62 75 70 76 63 77
REMARK SMILES IDX 69 78 71 79 68 80 64 81 65 82 66 83 67 84 46 85 47 86 55 87
REMARK SMILES IDX 48 88 54 89 56 90 53 91 49 92 50 93 51 94 52 95
REMARK H PARENT 1 20 1 21 76 48 44 59
REMARK Flexibility Score: inf
ROOT
ATOM      1  C   UNL A   1      34.941  21.980  25.780  1.00  0.00     0.275 C 
ENDROOT
BRANCH   1   2
ATOM      2  O   UNL A   1      34.849  23.407  25.595  1.00  0.00    -0.458 OA
BRANCH   2   3
ATOM      3  C   UNL A   1      33.684  23.965  25.983  1.00  0.00     0.354 C 
ATOM      4  O   UNL A   1      32.794  23.432  26.621  1.00  0.00    -0.245 OA
BRANCH   3   5
ATOM      5  C   UNL A   1      33.638  25.430  25.608  1.00  0.00     0.148 C 
ATOM      6  N   UNL A   1      33.484  27.527  25.811  1.00  0.00    -0.256 N 
ATOM      7  N   UNL A   1      33.510  26.365  26.501  1.00  0.00    -0.169 NA
ATOM      8  C   UNL A   1      33.292  27.335  24.371  1.00  0.00     0.154 C 
ATOM      9  C   UNL A   1      33.816  25.895  24.200  1.00  0.00     0.099 C 
BRANCH   6  10
ATOM     10  C   UNL A   1      33.628  28.743  26.456  1.00  0.00     0.060 A 
ATOM     11  C   UNL A   1      33.950  31.283  27.628  1.00  0.00     0.082 A 
ATOM     12  C   UNL A   1      35.020  30.387  27.614  1.00  0.00     0.024 A 
ATOM     13  C   UNL A   1      32.709  30.905  27.116  1.00  0.00     0.024 A 
ATOM     14  C   UNL A   1      34.851  29.120  27.035  1.00  0.00     0.029 A 
ATOM     15  C   UNL A   1      32.557  29.640  26.544  1.00  0.00     0.029 A 
BRANCH  11  16
ATOM     16  S   UNL A   1      34.160  32.924  28.264  1.00  0.00     0.238 S 
ATOM     17  O   UNL A   1      35.318  33.519  27.632  1.00  0.00    -0.207 OA
ATOM     18  O   UNL A   1      34.025  32.862  29.700  1.00  0.00    -0.207 OA
BRANCH  16  19
ATOM     19  N   UNL A   1      32.837  33.751  27.669  1.00  0.00    -0.225 NA
ATOM     20  H   UNL A   1      32.893  34.730  27.950  1.00  0.00     0.137 HD
ATOM     21  H   UNL A   1      31.981  33.338  28.042  1.00  0.00     0.137 HD
ENDBRANCH  16  19
ENDBRANCH  11  16
ENDBRANCH   6  10
BRANCH   8  22
ATOM     22  C   UNL A   1      31.853  27.554  23.911  1.00  0.00     0.030 A 
ATOM     23  C   UNL A   1      30.742  26.834  24.322  1.00  0.00     0.017 A 
ATOM     24  S   UNL A   1      31.412  28.706  22.714  1.00  0.00    -0.147 S 
ATOM     25  C   UNL A   1      29.555  27.195  23.624  1.00  0.00     0.012 A 
ATOM     26  C   UNL A   1      29.775  28.223  22.739  1.00  0.00     0.065 A 
ENDBRANCH   8  22
ENDBRANCH   3   5
ENDBRANCH   2   3
ENDBRANCH   1   2
BRANCH   1  27
ATOM     27  C   UNL A   1      36.357  21.478  25.478  1.00  0.00     0.275 C 
BRANCH  27  28
ATOM     28  O   UNL A   1      37.345  22.508  25.663  1.00  0.00    -0.458 OA
BRANCH  28  29
ATOM     29  C   UNL A   1      38.555  22.070  26.085  1.00  0.00     0.338 C 
ATOM     30  O   UNL A   1      39.009  20.944  25.962  1.00  0.00    -0.246 OA
BRANCH  29  31
ATOM     31  C   UNL A   1      39.326  23.196  26.627  1.00  0.00     0.060 A 
ATOM     32  C   UNL A   1      39.058  24.469  26.132  1.00  0.00     0.016 A 
ATOM     33  C   UNL A   1      40.365  22.998  27.533  1.00  0.00     0.016 A 
ATOM     34  C   UNL A   1      39.856  25.550  26.480  1.00  0.00     0.010 A 
ATOM     35  C   UNL A   1      41.132  24.097  27.933  1.00  0.00     0.010 A 
ATOM     36  C   UNL A   1      40.893  25.378  27.397  1.00  0.00    -0.014 A 
BRANCH  36  37
ATOM     37  C   UNL A   1      41.746  26.530  27.777  1.00  0.00     0.031 A 
ATOM     38  C   UNL A   1      41.168  27.631  28.618  1.00  0.00     0.074 A 
ATOM     39  C   UNL A   1      43.025  26.587  27.360  1.00  0.00     0.049 A 
ATOM     40  N   UNL A   1      41.662  28.808  28.894  1.00  0.00    -0.248 NA
ATOM     41  C   UNL A   1      39.847  27.374  29.214  1.00  0.00     0.031 C 
ATOM     42  C   UNL A   1      43.716  25.538  26.609  1.00  0.00     0.029 A 
ATOM     43  N   UNL A   1      43.969  27.574  27.498  1.00  0.00    -0.354 N 
ATOM     44  C   UNL A   1      40.699  29.450  29.665  1.00  0.00     0.074 A 
ATOM     45  C   UNL A   1      39.584  28.536  29.793  1.00  0.00     0.031 C 
ATOM     46  C   UNL A   1      44.970  25.938  26.346  1.00  0.00     0.029 A 
ATOM     47  C   UNL A   1      45.144  27.302  26.834  1.00  0.00     0.049 A 
ATOM     48  H   UNL A   1      43.820  28.396  28.017  1.00  0.00     0.167 HD
ATOM     49  C   UNL A   1      40.750  30.691  30.209  1.00  0.00     0.034 A 
ATOM     50  C   UNL A   1      46.216  28.084  26.597  1.00  0.00     0.034 A 
ATOM     51  C   UNL A   1      41.882  31.575  30.070  1.00  0.00     0.049 A 
ATOM     52  C   UNL A   1      46.207  29.496  27.126  1.00  0.00     0.074 A 
ATOM     53  C   UNL A   1      42.051  32.846  30.587  1.00  0.00     0.029 A 
ATOM     54  N   UNL A   1      43.038  31.281  29.355  1.00  0.00    -0.354 N 
ATOM     55  N   UNL A   1      45.280  30.111  27.824  1.00  0.00    -0.248 NA
ATOM     56  C   UNL A   1      47.385  30.322  26.832  1.00  0.00     0.031 C 
ATOM     57  C   UNL A   1      43.269  33.352  30.120  1.00  0.00     0.029 A 
ATOM     58  C   UNL A   1      43.906  32.361  29.389  1.00  0.00     0.049 A 
ATOM     59  H   UNL A   1      43.215  30.429  28.893  1.00  0.00     0.167 HD
ATOM     60  C   UNL A   1      45.781  31.383  28.084  1.00  0.00     0.074 A 
ATOM     61  C   UNL A   1      47.092  31.444  27.472  1.00  0.00     0.031 C 
ATOM     62  C   UNL A   1      45.213  32.404  28.774  1.00  0.00     0.034 A 
BRANCH  49  63
ATOM     63  C   UNL A   1      39.527  31.183  30.943  1.00  0.00     0.023 A 
ATOM     64  C   UNL A   1      39.496  31.301  32.343  1.00  0.00     0.031 A 
ATOM     65  C   UNL A   1      38.361  31.518  30.231  1.00  0.00     0.131 A 
ATOM     66  C   UNL A   1      38.306  31.669  32.989  1.00  0.00     0.055 A 
ATOM     67  C   UNL A   1      37.206  31.968  30.873  1.00  0.00     0.041 A 
ATOM     68  F   UNL A   1      38.320  31.404  28.893  1.00  0.00    -0.206 F 
ATOM     69  C   UNL A   1      37.169  32.030  32.263  1.00  0.00     0.022 A 
BRANCH  66  70
ATOM     70  S   UNL A   1      38.226  31.528  34.795  1.00  0.00     0.124 S 
ATOM     71  O   UNL A   1      38.160  30.079  34.973  1.00  0.00    -0.237 OA
ATOM     72  O   UNL A   1      39.468  32.165  35.215  1.00  0.00    -0.237 OA
ATOM     73  O   UNL A   1      37.003  32.248  35.141  1.00  0.00    -0.744 OA
ENDBRANCH  66  70
ENDBRANCH  49  63
BRANCH  50  74
ATOM     74  C   UNL A   1      47.350  27.580  25.770  1.00  0.00     0.023 A 
ATOM     75  C   UNL A   1      47.464  27.918  24.413  1.00  0.00     0.031 A 
ATOM     76  C   UNL A   1      48.315  26.710  26.313  1.00  0.00     0.131 A 
ATOM     77  C   UNL A   1      48.486  27.353  23.634  1.00  0.00     0.055 A 
ATOM     78  C   UNL A   1      49.369  26.203  25.550  1.00  0.00     0.041 A 
ATOM     79  F   UNL A   1      48.253  26.345  27.604  1.00  0.00    -0.206 F 
ATOM     80  C   UNL A   1      49.449  26.513  24.198  1.00  0.00     0.022 A 
BRANCH  77  81
ATOM     81  S   UNL A   1      48.472  27.646  21.844  1.00  0.00     0.124 S 
ATOM     82  O   UNL A   1      48.691  26.301  21.324  1.00  0.00    -0.237 OA
ATOM     83  O   UNL A   1      47.141  28.206  21.638  1.00  0.00    -0.237 OA
ATOM     84  O   UNL A   1      49.578  28.579  21.644  1.00  0.00    -0.744 OA
ENDBRANCH  77  81
ENDBRANCH  50  74
BRANCH  62  85
ATOM     85  C   UNL A   1      46.037  33.653  28.963  1.00  0.00     0.023 A 
ATOM     86  C   UNL A   1      46.029  34.702  28.030  1.00  0.00     0.031 A 
ATOM     87  C   UNL A   1      46.830  33.797  30.117  1.00  0.00     0.131 A 
ATOM     88  C   UNL A   1      46.830  35.834  28.247  1.00  0.00     0.055 A 
ATOM     89  C   UNL A   1      47.576  34.951  30.358  1.00  0.00     0.041 A 
ATOM     90  F   UNL A   1      46.878  32.822  31.039  1.00  0.00    -0.206 F 
ATOM     91  C   UNL A   1      47.586  35.974  29.415  1.00  0.00     0.022 A 
BRANCH  88  92
ATOM     92  S   UNL A   1      46.930  37.096  26.949  1.00  0.00     0.124 S 
ATOM     93  O   UNL A   1      45.800  37.959  27.276  1.00  0.00    -0.237 OA
ATOM     94  O   UNL A   1      48.254  37.669  27.170  1.00  0.00    -0.237 OA
ATOM     95  O   UNL A   1      46.787  36.329  25.713  1.00  0.00    -0.744 OA
ENDBRANCH  88  92
ENDBRANCH  62  85
ENDBRANCH  36  37
ENDBRANCH  29  31
ENDBRANCH  28  29
ENDBRANCH  27  28
ENDBRANCH   1  27
TORSDOF 18
ENDMDL
