MODEL 1
REMARK VINA RESULT:     -13.4      0.000      0.000
REMARK SMILES Cc1cc(/C=C2\C(=O)N(Cc3ccco3)C(=O)N=C2OCCOC(=O)c2ccc(-c3c4nc(c(-c5cc(S(=O)(=O)[O-])ccc5F)c5ccc([nH]5)c(-c5cc(S(=O)(=O)[O-])ccc5F)c5nc(c(-c6cc(S(=O)(=O)[O-])ccc6F)c6ccc3[nH]6)C=C5)C=C4)cc2)c(C)n1-c1ccc(Cl)c(C(=O)[O-])c1
REMARK SMILES IDX 22 1 21 2 20 3 19 4 5 5 6 6 7 7 8 8 9 9 18 10 16 11 17 12
REMARK SMILES IDX 4 13 1 14 2 15 3 16 91 17 89 18 90 19 92 20 93 21 101 22
REMARK SMILES IDX 94 23 97 24 95 25 96 26 98 27 99 28 100 29 10 30 11 31 12 32
REMARK SMILES IDX 15 33 13 34 14 35 23 36 24 37 25 38 26 39 27 40 88 41 28 42
REMARK SMILES IDX 87 43 29 44 30 45 31 46 81 47 32 48 86 49 80 50 82 51 33 52
REMARK SMILES IDX 85 53 79 54 78 55 34 57 66 58 46 59 65 60 47 61 50 62 64 63
REMARK SMILES IDX 83 64 48 65 49 66 63 68 84 69 51 70 35 71 36 72 44 73 37 74
REMARK SMILES IDX 43 75 45 76 42 77 38 78 39 79 40 80 41 81 67 82 68 83 76 84
REMARK SMILES IDX 69 85 75 86 77 87 74 88 70 89 71 90 72 91 73 92 52 93 53 94
REMARK SMILES IDX 61 95 54 96 60 97 62 98 59 99 55 100 56 101 57 102 58 103
REMARK H PARENT 82 56 50 67
REMARK Flexibility Score: inf
ROOT
ATOM      1  C   UNL A   1      33.542  31.781  27.866  1.00  0.00     0.274 C 
ENDROOT
BRANCH   1   2
ATOM      2  C   UNL A   1      34.227  30.492  27.207  1.00  0.00     0.273 C 
BRANCH   2   3
ATOM      3  O   UNL A   1      33.603  29.169  27.558  1.00  0.00    -0.473 OA
BRANCH   3   4
ATOM      4  C   UNL A   1      32.671  28.766  26.667  1.00  0.00     0.231 C 
ATOM      5  C   UNL A   1      33.662  26.428  26.154  1.00  0.00     0.029 C 
ATOM      6  C   UNL A   1      32.754  27.429  25.994  1.00  0.00     0.103 C 
ATOM      7  C   UNL A   1      31.627  27.296  25.010  1.00  0.00     0.267 C 
ATOM      8  O   UNL A   1      31.032  26.243  24.807  1.00  0.00    -0.268 OA
ATOM      9  N   UNL A   1      31.326  28.496  24.412  1.00  0.00    -0.250 N 
ATOM     10  N   UNL A   1      31.790  29.645  26.386  1.00  0.00    -0.156 NA
ATOM     11  C   UNL A   1      31.282  29.675  25.129  1.00  0.00     0.354 C 
ATOM     12  O   UNL A   1      30.898  30.722  24.686  1.00  0.00    -0.245 OA
BRANCH   5  13
ATOM     13  C   UNL A   1      33.870  25.196  25.374  1.00  0.00    -0.003 A 
ATOM     14  C   UNL A   1      34.314  23.125  22.253  1.00  0.00     0.065 C 
ATOM     15  C   UNL A   1      34.191  23.753  23.606  1.00  0.00     0.020 A 
ATOM     16  C   UNL A   1      34.075  25.094  23.961  1.00  0.00     0.031 A 
ATOM     17  N   UNL A   1      34.069  23.004  24.766  1.00  0.00    -0.318 N 
ATOM     18  C   UNL A   1      33.790  23.878  25.824  1.00  0.00     0.027 A 
ATOM     19  C   UNL A   1      33.595  23.361  27.205  1.00  0.00     0.065 C 
BRANCH  17  20
ATOM     20  C   UNL A   1      34.251  21.587  24.892  1.00  0.00     0.046 A 
ATOM     21  C   UNL A   1      35.514  21.075  25.197  1.00  0.00     0.028 A 
ATOM     22  C   UNL A   1      33.215  20.709  24.545  1.00  0.00     0.038 A 
ATOM     23  C   UNL A   1      35.779  19.716  25.027  1.00  0.00     0.023 A 
ATOM     24  C   UNL A   1      33.468  19.322  24.399  1.00  0.00     0.018 A 
ATOM     25  C   UNL A   1      34.771  18.840  24.608  1.00  0.00     0.050 A 
ATOM     26  Cl  UNL A   1      35.255  17.198  24.358  1.00  0.00    -0.084 Cl
BRANCH  24  27
ATOM     27  C   UNL A   1      32.363  18.408  23.985  1.00  0.00     0.073 C 
ATOM     28  O   UNL A   1      31.901  18.223  22.877  1.00  0.00    -0.545 OA
ATOM     29  O   UNL A   1      31.867  17.703  25.022  1.00  0.00    -0.545 OA
ENDBRANCH  24  27
ENDBRANCH  17  20
ENDBRANCH   5  13
BRANCH   9  30
ATOM     30  C   UNL A   1      31.035  28.586  22.999  1.00  0.00     0.206 C 
BRANCH  30  31
ATOM     31  C   UNL A   1      29.642  29.011  22.764  1.00  0.00     0.123 A 
ATOM     32  C   UNL A   1      29.077  30.037  22.036  1.00  0.00     0.047 A 
ATOM     33  O   UNL A   1      28.670  28.256  23.343  1.00  0.00    -0.467 OA
ATOM     34  C   UNL A   1      27.684  29.924  22.207  1.00  0.00     0.042 A 
ATOM     35  C   UNL A   1      27.485  28.814  22.993  1.00  0.00     0.195 A 
ENDBRANCH  30  31
ENDBRANCH   9  30
ENDBRANCH   3   4
ENDBRANCH   2   3
ENDBRANCH   1   2
BRANCH   1  36
ATOM     36  O   UNL A   1      34.335  32.958  28.418  1.00  0.00    -0.458 OA
BRANCH  36  37
ATOM     37  C   UNL A   1      34.794  32.859  29.748  1.00  0.00     0.338 C 
ATOM     38  O   UNL A   1      34.202  33.460  30.643  1.00  0.00    -0.246 OA
BRANCH  37  39
ATOM     39  C   UNL A   1      36.118  32.049  30.137  1.00  0.00     0.060 A 
ATOM     40  C   UNL A   1      37.254  32.011  29.325  1.00  0.00     0.016 A 
ATOM     41  C   UNL A   1      36.142  30.991  31.093  1.00  0.00     0.016 A 
ATOM     42  C   UNL A   1      38.359  31.035  29.522  1.00  0.00     0.010 A 
ATOM     43  C   UNL A   1      37.256  29.978  31.269  1.00  0.00     0.010 A 
ATOM     44  C   UNL A   1      38.440  29.958  30.498  1.00  0.00    -0.014 A 
BRANCH  44  45
ATOM     45  C   UNL A   1      39.527  28.666  30.203  1.00  0.00     0.031 A 
ATOM     46  C   UNL A   1      40.328  28.712  31.458  1.00  0.00     0.074 A 
ATOM     47  C   UNL A   1      40.037  27.688  29.286  1.00  0.00     0.049 A 
ATOM     48  N   UNL A   1      40.920  29.816  31.822  1.00  0.00    -0.248 NA
ATOM     49  C   UNL A   1      40.204  27.709  32.517  1.00  0.00     0.031 C 
ATOM     50  C   UNL A   1      39.683  27.488  27.863  1.00  0.00     0.029 A 
ATOM     51  N   UNL A   1      41.030  26.596  29.390  1.00  0.00    -0.354 N 
ATOM     52  C   UNL A   1      41.574  29.513  32.988  1.00  0.00     0.074 A 
ATOM     53  C   UNL A   1      40.875  28.337  33.489  1.00  0.00     0.031 C 
ATOM     54  C   UNL A   1      40.255  26.366  27.313  1.00  0.00     0.029 A 
ATOM     55  C   UNL A   1      41.136  25.656  28.252  1.00  0.00     0.049 A 
ATOM     56  H   UNL A   1      41.600  26.498  30.186  1.00  0.00     0.167 HD
ATOM     57  C   UNL A   1      42.921  29.739  32.973  1.00  0.00     0.034 A 
ATOM     58  C   UNL A   1      41.897  24.476  28.011  1.00  0.00     0.034 A 
ATOM     59  C   UNL A   1      43.684  28.532  32.818  1.00  0.00     0.049 A 
ATOM     60  C   UNL A   1      43.112  24.564  28.818  1.00  0.00     0.074 A 
ATOM     61  C   UNL A   1      43.590  27.275  33.379  1.00  0.00     0.029 A 
ATOM     62  N   UNL A   1      44.441  28.402  31.672  1.00  0.00    -0.354 N 
ATOM     63  N   UNL A   1      44.127  25.266  28.420  1.00  0.00    -0.248 NA
ATOM     64  C   UNL A   1      43.342  23.757  30.009  1.00  0.00     0.031 C 
ATOM     65  C   UNL A   1      43.896  26.381  32.334  1.00  0.00     0.029 A 
ATOM     66  C   UNL A   1      44.498  27.079  31.294  1.00  0.00     0.049 A 
ATOM     67  H   UNL A   1      44.876  29.145  31.196  1.00  0.00     0.167 HD
ATOM     68  C   UNL A   1      44.819  25.454  29.573  1.00  0.00     0.074 A 
ATOM     69  C   UNL A   1      44.503  24.296  30.390  1.00  0.00     0.031 C 
ATOM     70  C   UNL A   1      44.940  26.753  29.951  1.00  0.00     0.034 A 
BRANCH  57  71
ATOM     71  C   UNL A   1      43.303  31.067  32.382  1.00  0.00     0.023 A 
ATOM     72  C   UNL A   1      44.365  31.116  31.474  1.00  0.00     0.031 A 
ATOM     73  C   UNL A   1      42.737  32.288  32.811  1.00  0.00     0.131 A 
ATOM     74  C   UNL A   1      44.882  32.359  31.077  1.00  0.00     0.055 A 
ATOM     75  C   UNL A   1      43.277  33.519  32.445  1.00  0.00     0.041 A 
ATOM     76  F   UNL A   1      41.657  32.298  33.609  1.00  0.00    -0.206 F 
ATOM     77  C   UNL A   1      44.366  33.559  31.580  1.00  0.00     0.022 A 
BRANCH  74  78
ATOM     78  S   UNL A   1      46.246  32.379  29.885  1.00  0.00     0.124 S 
ATOM     79  O   UNL A   1      45.553  32.587  28.616  1.00  0.00    -0.237 OA
ATOM     80  O   UNL A   1      47.051  33.504  30.351  1.00  0.00    -0.237 OA
ATOM     81  O   UNL A   1      46.869  31.067  30.043  1.00  0.00    -0.744 OA
ENDBRANCH  74  78
ENDBRANCH  57  71
BRANCH  58  82
ATOM     82  C   UNL A   1      42.106  23.175  27.078  1.00  0.00     0.023 A 
ATOM     83  C   UNL A   1      43.144  23.086  26.034  1.00  0.00     0.031 A 
ATOM     84  C   UNL A   1      41.603  21.922  27.447  1.00  0.00     0.131 A 
ATOM     85  C   UNL A   1      43.627  21.848  25.487  1.00  0.00     0.055 A 
ATOM     86  C   UNL A   1      42.079  20.697  26.892  1.00  0.00     0.041 A 
ATOM     87  F   UNL A   1      40.703  21.824  28.436  1.00  0.00    -0.206 F 
ATOM     88  C   UNL A   1      43.093  20.650  25.934  1.00  0.00     0.022 A 
BRANCH  85  89
ATOM     89  S   UNL A   1      45.088  21.730  24.337  1.00  0.00     0.124 S 
ATOM     90  O   UNL A   1      46.221  21.616  25.246  1.00  0.00    -0.237 OA
ATOM     91  O   UNL A   1      44.778  20.557  23.527  1.00  0.00    -0.237 OA
ATOM     92  O   UNL A   1      45.042  22.993  23.591  1.00  0.00    -0.744 OA
ENDBRANCH  85  89
ENDBRANCH  58  82
BRANCH  70  93
ATOM     93  C   UNL A   1      45.284  27.769  28.855  1.00  0.00     0.023 A 
ATOM     94  C   UNL A   1      46.578  28.044  28.327  1.00  0.00     0.031 A 
ATOM     95  C   UNL A   1      44.237  28.558  28.357  1.00  0.00     0.131 A 
ATOM     96  C   UNL A   1      46.783  29.074  27.387  1.00  0.00     0.055 A 
ATOM     97  C   UNL A   1      44.431  29.547  27.389  1.00  0.00     0.041 A 
ATOM     98  F   UNL A   1      42.985  28.378  28.808  1.00  0.00    -0.206 F 
ATOM     99  C   UNL A   1      45.708  29.819  26.911  1.00  0.00     0.022 A 
BRANCH  96 100
ATOM    100  S   UNL A   1      48.470  29.498  26.826  1.00  0.00     0.124 S 
ATOM    101  O   UNL A   1      48.660  28.650  25.655  1.00  0.00    -0.237 OA
ATOM    102  O   UNL A   1      48.372  30.931  26.567  1.00  0.00    -0.237 OA
ATOM    103  O   UNL A   1      49.309  29.141  27.972  1.00  0.00    -0.744 OA
ENDBRANCH  96 100
ENDBRANCH  70  93
ENDBRANCH  44  45
ENDBRANCH  37  39
ENDBRANCH  36  37
ENDBRANCH   1  36
TORSDOF 18
ENDMDL
MODEL 2
REMARK VINA RESULT:     -13.3      2.009      2.445
REMARK SMILES Cc1cc(/C=C2\C(=O)N(Cc3ccco3)C(=O)N=C2OCCOC(=O)c2ccc(-c3c4nc(c(-c5cc(S(=O)(=O)[O-])ccc5F)c5ccc([nH]5)c(-c5cc(S(=O)(=O)[O-])ccc5F)c5nc(c(-c6cc(S(=O)(=O)[O-])ccc6F)c6ccc3[nH]6)C=C5)C=C4)cc2)c(C)n1-c1ccc(Cl)c(C(=O)[O-])c1
REMARK SMILES IDX 22 1 21 2 20 3 19 4 5 5 6 6 7 7 8 8 9 9 18 10 16 11 17 12
REMARK SMILES IDX 4 13 1 14 2 15 3 16 91 17 89 18 90 19 92 20 93 21 101 22
REMARK SMILES IDX 94 23 97 24 95 25 96 26 98 27 99 28 100 29 10 30 11 31 12 32
REMARK SMILES IDX 15 33 13 34 14 35 23 36 24 37 25 38 26 39 27 40 88 41 28 42
REMARK SMILES IDX 87 43 29 44 30 45 31 46 81 47 32 48 86 49 80 50 82 51 33 52
REMARK SMILES IDX 85 53 79 54 78 55 34 57 66 58 46 59 65 60 47 61 50 62 64 63
REMARK SMILES IDX 83 64 48 65 49 66 63 68 84 69 51 70 35 71 36 72 44 73 37 74
REMARK SMILES IDX 43 75 45 76 42 77 38 78 39 79 40 80 41 81 67 82 68 83 76 84
REMARK SMILES IDX 69 85 75 86 77 87 74 88 70 89 71 90 72 91 73 92 52 93 53 94
REMARK SMILES IDX 61 95 54 96 60 97 62 98 59 99 55 100 56 101 57 102 58 103
REMARK H PARENT 82 56 50 67
REMARK Flexibility Score: inf
ROOT
ATOM      1  C   UNL A   1      33.707  31.847  27.804  1.00  0.00     0.274 C 
ENDROOT
BRANCH   1   2
ATOM      2  C   UNL A   1      34.271  30.457  27.246  1.00  0.00     0.273 C 
BRANCH   2   3
ATOM      3  O   UNL A   1      33.508  29.229  27.660  1.00  0.00    -0.473 OA
BRANCH   3   4
ATOM      4  C   UNL A   1      32.606  28.825  26.739  1.00  0.00     0.231 C 
ATOM      5  C   UNL A   1      33.637  26.504  26.227  1.00  0.00     0.029 C 
ATOM      6  C   UNL A   1      32.722  27.497  26.054  1.00  0.00     0.103 C 
ATOM      7  C   UNL A   1      31.624  27.362  25.038  1.00  0.00     0.267 C 
ATOM      8  O   UNL A   1      31.047  26.305  24.806  1.00  0.00    -0.268 OA
ATOM      9  N   UNL A   1      31.326  28.566  24.445  1.00  0.00    -0.250 N 
ATOM     10  N   UNL A   1      31.723  29.697  26.444  1.00  0.00    -0.156 NA
ATOM     11  C   UNL A   1      31.249  29.736  25.174  1.00  0.00     0.354 C 
ATOM     12  O   UNL A   1      30.865  30.783  24.732  1.00  0.00    -0.245 OA
BRANCH   5  13
ATOM     13  C   UNL A   1      33.880  25.283  25.439  1.00  0.00    -0.003 A 
ATOM     14  C   UNL A   1      34.457  23.257  22.311  1.00  0.00     0.065 C 
ATOM     15  C   UNL A   1      34.277  23.866  23.667  1.00  0.00     0.020 A 
ATOM     16  C   UNL A   1      34.143  25.202  24.035  1.00  0.00     0.031 A 
ATOM     17  N   UNL A   1      34.110  23.100  24.811  1.00  0.00    -0.318 N 
ATOM     18  C   UNL A   1      33.786  23.959  25.868  1.00  0.00     0.027 A 
ATOM     19  C   UNL A   1      33.535  23.422  27.233  1.00  0.00     0.065 C 
BRANCH  17  20
ATOM     20  C   UNL A   1      34.291  21.683  24.924  1.00  0.00     0.046 A 
ATOM     21  C   UNL A   1      35.551  21.167  25.234  1.00  0.00     0.028 A 
ATOM     22  C   UNL A   1      33.257  20.808  24.561  1.00  0.00     0.038 A 
ATOM     23  C   UNL A   1      35.818  19.809  25.053  1.00  0.00     0.023 A 
ATOM     24  C   UNL A   1      33.511  19.423  24.405  1.00  0.00     0.018 A 
ATOM     25  C   UNL A   1      34.813  18.938  24.619  1.00  0.00     0.050 A 
ATOM     26  Cl  UNL A   1      35.298  17.299  24.357  1.00  0.00    -0.084 Cl
BRANCH  24  27
ATOM     27  C   UNL A   1      32.409  18.513  23.974  1.00  0.00     0.073 C 
ATOM     28  O   UNL A   1      32.007  18.279  22.851  1.00  0.00    -0.545 OA
ATOM     29  O   UNL A   1      31.836  17.876  25.015  1.00  0.00    -0.545 OA
ENDBRANCH  24  27
ENDBRANCH  17  20
ENDBRANCH   5  13
BRANCH   9  30
ATOM     30  C   UNL A   1      31.072  28.669  23.026  1.00  0.00     0.206 C 
BRANCH  30  31
ATOM     31  C   UNL A   1      29.672  29.045  22.757  1.00  0.00     0.123 A 
ATOM     32  C   UNL A   1      29.090  30.039  21.998  1.00  0.00     0.047 A 
ATOM     33  O   UNL A   1      28.713  28.271  23.332  1.00  0.00    -0.467 OA
ATOM     34  C   UNL A   1      27.697  29.886  22.146  1.00  0.00     0.042 A 
ATOM     35  C   UNL A   1      27.518  28.786  22.949  1.00  0.00     0.195 A 
ENDBRANCH  30  31
ENDBRANCH   9  30
ENDBRANCH   3   4
ENDBRANCH   2   3
ENDBRANCH   1   2
BRANCH   1  36
ATOM     36  O   UNL A   1      34.552  33.110  27.906  1.00  0.00    -0.458 OA
BRANCH  36  37
ATOM     37  C   UNL A   1      35.129  33.401  29.160  1.00  0.00     0.338 C 
ATOM     38  O   UNL A   1      34.714  34.355  29.814  1.00  0.00    -0.246 OA
BRANCH  37  39
ATOM     39  C   UNL A   1      36.370  32.576  29.741  1.00  0.00     0.060 A 
ATOM     40  C   UNL A   1      37.660  32.664  29.209  1.00  0.00     0.016 A 
ATOM     41  C   UNL A   1      36.233  31.407  30.545  1.00  0.00     0.016 A 
ATOM     42  C   UNL A   1      38.739  31.694  29.534  1.00  0.00     0.010 A 
ATOM     43  C   UNL A   1      37.328  30.403  30.849  1.00  0.00     0.010 A 
ATOM     44  C   UNL A   1      38.653  30.505  30.369  1.00  0.00    -0.014 A 
BRANCH  44  45
ATOM     45  C   UNL A   1      39.840  29.283  30.179  1.00  0.00     0.031 A 
ATOM     46  C   UNL A   1      40.413  29.264  31.553  1.00  0.00     0.074 A 
ATOM     47  C   UNL A   1      40.548  28.399  29.298  1.00  0.00     0.049 A 
ATOM     48  N   UNL A   1      40.876  30.359  32.089  1.00  0.00    -0.248 NA
ATOM     49  C   UNL A   1      40.163  28.178  32.503  1.00  0.00     0.031 C 
ATOM     50  C   UNL A   1      40.452  28.296  27.825  1.00  0.00     0.029 A 
ATOM     51  N   UNL A   1      41.565  27.342  29.496  1.00  0.00    -0.354 N 
ATOM     52  C   UNL A   1      41.338  29.992  33.327  1.00  0.00     0.074 A 
ATOM     53  C   UNL A   1      40.626  28.755  33.617  1.00  0.00     0.031 C 
ATOM     54  C   UNL A   1      41.166  27.243  27.305  1.00  0.00     0.029 A 
ATOM     55  C   UNL A   1      41.910  26.498  28.332  1.00  0.00     0.049 A 
ATOM     56  H   UNL A   1      41.995  27.206  30.370  1.00  0.00     0.167 HD
ATOM     57  C   UNL A   1      42.654  30.272  33.561  1.00  0.00     0.034 A 
ATOM     58  C   UNL A   1      42.761  25.370  28.145  1.00  0.00     0.034 A 
ATOM     59  C   UNL A   1      43.494  29.111  33.458  1.00  0.00     0.049 A 
ATOM     60  C   UNL A   1      43.815  25.444  29.154  1.00  0.00     0.074 A 
ATOM     61  C   UNL A   1      43.372  27.812  33.905  1.00  0.00     0.029 A 
ATOM     62  N   UNL A   1      44.440  29.099  32.454  1.00  0.00    -0.354 N 
ATOM     63  N   UNL A   1      44.846  26.213  28.987  1.00  0.00    -0.248 NA
ATOM     64  C   UNL A   1      43.881  24.556  30.308  1.00  0.00     0.031 C 
ATOM     65  C   UNL A   1      43.897  27.013  32.870  1.00  0.00     0.029 A 
ATOM     66  C   UNL A   1      44.629  27.813  32.000  1.00  0.00     0.049 A 
ATOM     67  H   UNL A   1      44.910  29.894  32.112  1.00  0.00     0.167 HD
ATOM     68  C   UNL A   1      45.321  26.339  30.253  1.00  0.00     0.074 A 
ATOM     69  C   UNL A   1      44.931  25.110  30.921  1.00  0.00     0.031 C 
ATOM     70  C   UNL A   1      45.308  27.609  30.735  1.00  0.00     0.034 A 
BRANCH  57  71
ATOM     71  C   UNL A   1      43.061  31.655  33.138  1.00  0.00     0.023 A 
ATOM     72  C   UNL A   1      43.130  32.660  34.107  1.00  0.00     0.031 A 
ATOM     73  C   UNL A   1      43.234  32.022  31.785  1.00  0.00     0.131 A 
ATOM     74  C   UNL A   1      43.292  33.997  33.711  1.00  0.00     0.055 A 
ATOM     75  C   UNL A   1      43.355  33.354  31.393  1.00  0.00     0.041 A 
ATOM     76  F   UNL A   1      43.270  31.087  30.822  1.00  0.00    -0.206 F 
ATOM     77  C   UNL A   1      43.373  34.353  32.360  1.00  0.00     0.022 A 
BRANCH  74  78
ATOM     78  S   UNL A   1      43.395  35.267  34.999  1.00  0.00     0.124 S 
ATOM     79  O   UNL A   1      43.775  36.456  34.240  1.00  0.00    -0.237 OA
ATOM     80  O   UNL A   1      42.039  35.275  35.539  1.00  0.00    -0.237 OA
ATOM     81  O   UNL A   1      44.419  34.759  35.910  1.00  0.00    -0.744 OA
ENDBRANCH  74  78
ENDBRANCH  57  71
BRANCH  58  82
ATOM     82  C   UNL A   1      43.193  24.154  27.174  1.00  0.00     0.023 A 
ATOM     83  C   UNL A   1      42.642  22.791  27.289  1.00  0.00     0.031 A 
ATOM     84  C   UNL A   1      43.799  24.390  25.934  1.00  0.00     0.131 A 
ATOM     85  C   UNL A   1      42.674  21.821  26.229  1.00  0.00     0.055 A 
ATOM     86  C   UNL A   1      43.838  23.418  24.890  1.00  0.00     0.041 A 
ATOM     87  F   UNL A   1      44.286  25.604  25.644  1.00  0.00    -0.206 F 
ATOM     88  C   UNL A   1      43.267  22.151  25.021  1.00  0.00     0.022 A 
BRANCH  85  89
ATOM     89  S   UNL A   1      41.783  20.187  26.300  1.00  0.00     0.124 S 
ATOM     90  O   UNL A   1      40.386  20.560  26.117  1.00  0.00    -0.237 OA
ATOM     91  O   UNL A   1      42.403  19.424  25.222  1.00  0.00    -0.237 OA
ATOM     92  O   UNL A   1      42.098  19.681  27.641  1.00  0.00    -0.744 OA
ENDBRANCH  85  89
ENDBRANCH  58  82
BRANCH  70  93
ATOM     93  C   UNL A   1      45.781  28.718  29.788  1.00  0.00     0.023 A 
ATOM     94  C   UNL A   1      44.973  29.471  28.889  1.00  0.00     0.031 A 
ATOM     95  C   UNL A   1      47.158  28.986  29.748  1.00  0.00     0.131 A 
ATOM     96  C   UNL A   1      45.540  30.401  27.995  1.00  0.00     0.055 A 
ATOM     97  C   UNL A   1      47.716  29.942  28.896  1.00  0.00     0.041 A 
ATOM     98  F   UNL A   1      47.998  28.314  30.551  1.00  0.00    -0.206 F 
ATOM     99  C   UNL A   1      46.911  30.643  28.004  1.00  0.00     0.022 A 
BRANCH  96 100
ATOM    100  S   UNL A   1      44.500  31.255  26.758  1.00  0.00     0.124 S 
ATOM    101  O   UNL A   1      43.441  30.291  26.485  1.00  0.00    -0.237 OA
ATOM    102  O   UNL A   1      44.093  32.467  27.463  1.00  0.00    -0.237 OA
ATOM    103  O   UNL A   1      45.417  31.479  25.639  1.00  0.00    -0.744 OA
ENDBRANCH  96 100
ENDBRANCH  70  93
ENDBRANCH  44  45
ENDBRANCH  37  39
ENDBRANCH  36  37
ENDBRANCH   1  36
TORSDOF 18
ENDMDL
MODEL 3
REMARK VINA RESULT:     -12.9      3.787      9.723
REMARK SMILES Cc1cc(/C=C2\C(=O)N(Cc3ccco3)C(=O)N=C2OCCOC(=O)c2ccc(-c3c4nc(c(-c5cc(S(=O)(=O)[O-])ccc5F)c5ccc([nH]5)c(-c5cc(S(=O)(=O)[O-])ccc5F)c5nc(c(-c6cc(S(=O)(=O)[O-])ccc6F)c6ccc3[nH]6)C=C5)C=C4)cc2)c(C)n1-c1ccc(Cl)c(C(=O)[O-])c1
REMARK SMILES IDX 22 1 21 2 20 3 19 4 5 5 6 6 7 7 8 8 9 9 18 10 16 11 17 12
REMARK SMILES IDX 4 13 1 14 2 15 3 16 91 17 89 18 90 19 92 20 93 21 101 22
REMARK SMILES IDX 94 23 97 24 95 25 96 26 98 27 99 28 100 29 10 30 11 31 12 32
REMARK SMILES IDX 15 33 13 34 14 35 23 36 24 37 25 38 26 39 27 40 88 41 28 42
REMARK SMILES IDX 87 43 29 44 30 45 31 46 81 47 32 48 86 49 80 50 82 51 33 52
REMARK SMILES IDX 85 53 79 54 78 55 34 57 66 58 46 59 65 60 47 61 50 62 64 63
REMARK SMILES IDX 83 64 48 65 49 66 63 68 84 69 51 70 35 71 36 72 44 73 37 74
REMARK SMILES IDX 43 75 45 76 42 77 38 78 39 79 40 80 41 81 67 82 68 83 76 84
REMARK SMILES IDX 69 85 75 86 77 87 74 88 70 89 71 90 72 91 73 92 52 93 53 94
REMARK SMILES IDX 61 95 54 96 60 97 62 98 59 99 55 100 56 101 57 102 58 103
REMARK H PARENT 82 56 50 67
REMARK Flexibility Score: inf
ROOT
ATOM      1  C   UNL A   1      39.937  22.495  26.414  1.00  0.00     0.274 C 
ENDROOT
BRANCH   1   2
ATOM      2  C   UNL A   1      38.577  21.990  25.735  1.00  0.00     0.273 C 
BRANCH   2   3
ATOM      3  O   UNL A   1      37.558  23.057  25.442  1.00  0.00    -0.473 OA
BRANCH   3   4
ATOM      4  C   UNL A   1      36.408  22.569  24.928  1.00  0.00     0.231 C 
ATOM      5  C   UNL A   1      34.969  24.708  25.186  1.00  0.00     0.029 C 
ATOM      6  C   UNL A   1      35.167  23.406  24.842  1.00  0.00     0.103 C 
ATOM      7  C   UNL A   1      34.042  22.574  24.298  1.00  0.00     0.267 C 
ATOM      8  O   UNL A   1      33.185  23.015  23.538  1.00  0.00    -0.268 OA
ATOM      9  N   UNL A   1      34.120  21.269  24.720  1.00  0.00    -0.250 N 
ATOM     10  N   UNL A   1      36.448  21.332  24.618  1.00  0.00    -0.156 NA
ATOM     11  C   UNL A   1      35.322  20.590  24.764  1.00  0.00     0.354 C 
ATOM     12  O   UNL A   1      35.428  19.418  24.996  1.00  0.00    -0.245 OA
BRANCH   5  13
ATOM     13  C   UNL A   1      33.724  25.488  25.288  1.00  0.00    -0.003 A 
ATOM     14  C   UNL A   1      30.213  26.244  26.439  1.00  0.00     0.065 C 
ATOM     15  C   UNL A   1      31.605  26.158  25.895  1.00  0.00     0.020 A 
ATOM     16  C   UNL A   1      32.594  25.205  26.119  1.00  0.00     0.031 A 
ATOM     17  N   UNL A   1      32.088  27.043  24.943  1.00  0.00    -0.318 N 
ATOM     18  C   UNL A   1      33.340  26.585  24.516  1.00  0.00     0.027 A 
ATOM     19  C   UNL A   1      34.108  27.329  23.481  1.00  0.00     0.065 C 
BRANCH  17  20
ATOM     20  C   UNL A   1      31.457  28.253  24.504  1.00  0.00     0.046 A 
ATOM     21  C   UNL A   1      31.769  29.464  25.125  1.00  0.00     0.028 A 
ATOM     22  C   UNL A   1      30.409  28.204  23.573  1.00  0.00     0.038 A 
ATOM     23  C   UNL A   1      30.961  30.584  24.926  1.00  0.00     0.023 A 
ATOM     24  C   UNL A   1      29.601  29.346  23.342  1.00  0.00     0.018 A 
ATOM     25  C   UNL A   1      29.866  30.526  24.057  1.00  0.00     0.050 A 
ATOM     26  Cl  UNL A   1      28.901  31.959  23.965  1.00  0.00    -0.084 Cl
BRANCH  24  27
ATOM     27  C   UNL A   1      28.462  29.264  22.382  1.00  0.00     0.073 C 
ATOM     28  O   UNL A   1      28.385  29.699  21.250  1.00  0.00    -0.545 OA
ATOM     29  O   UNL A   1      27.413  28.584  22.889  1.00  0.00    -0.545 OA
ENDBRANCH  24  27
ENDBRANCH  17  20
ENDBRANCH   5  13
BRANCH   9  30
ATOM     30  C   UNL A   1      32.947  20.534  25.135  1.00  0.00     0.206 C 
BRANCH  30  31
ATOM     31  C   UNL A   1      32.627  19.452  24.185  1.00  0.00     0.123 A 
ATOM     32  C   UNL A   1      32.488  19.410  22.813  1.00  0.00     0.047 A 
ATOM     33  O   UNL A   1      32.444  18.213  24.713  1.00  0.00    -0.467 OA
ATOM     34  C   UNL A   1      32.167  18.077  22.489  1.00  0.00     0.042 A 
ATOM     35  C   UNL A   1      32.172  17.385  23.675  1.00  0.00     0.195 A 
ENDBRANCH  30  31
ENDBRANCH   9  30
ENDBRANCH   3   4
ENDBRANCH   2   3
ENDBRANCH   1   2
BRANCH   1  36
ATOM     36  O   UNL A   1      41.165  21.610  26.580  1.00  0.00    -0.458 OA
BRANCH  36  37
ATOM     37  C   UNL A   1      42.404  22.255  26.773  1.00  0.00     0.338 C 
ATOM     38  O   UNL A   1      43.444  21.602  26.729  1.00  0.00    -0.246 OA
BRANCH  37  39
ATOM     39  C   UNL A   1      42.510  23.812  27.128  1.00  0.00     0.060 A 
ATOM     40  C   UNL A   1      42.294  24.317  28.413  1.00  0.00     0.016 A 
ATOM     41  C   UNL A   1      42.425  24.850  26.155  1.00  0.00     0.016 A 
ATOM     42  C   UNL A   1      42.092  25.763  28.693  1.00  0.00     0.010 A 
ATOM     43  C   UNL A   1      42.188  26.320  26.442  1.00  0.00     0.010 A 
ATOM     44  C   UNL A   1      42.025  26.859  27.738  1.00  0.00    -0.014 A 
BRANCH  44  45
ATOM     45  C   UNL A   1      41.277  28.323  28.223  1.00  0.00     0.031 A 
ATOM     46  C   UNL A   1      42.442  29.248  28.141  1.00  0.00     0.074 A 
ATOM     47  C   UNL A   1      40.114  28.983  28.741  1.00  0.00     0.049 A 
ATOM     48  N   UNL A   1      43.539  28.983  28.795  1.00  0.00    -0.248 NA
ATOM     49  C   UNL A   1      42.587  30.251  27.086  1.00  0.00     0.031 C 
ATOM     50  C   UNL A   1      38.837  28.382  29.191  1.00  0.00     0.029 A 
ATOM     51  N   UNL A   1      39.763  30.396  29.012  1.00  0.00    -0.354 N 
ATOM     52  C   UNL A   1      44.386  30.026  28.522  1.00  0.00     0.074 A 
ATOM     53  C   UNL A   1      43.866  30.589  27.283  1.00  0.00     0.031 C 
ATOM     54  C   UNL A   1      37.876  29.314  29.498  1.00  0.00     0.029 A 
ATOM     55  C   UNL A   1      38.359  30.697  29.366  1.00  0.00     0.049 A 
ATOM     56  H   UNL A   1      40.439  31.108  28.958  1.00  0.00     0.167 HD
ATOM     57  C   UNL A   1      44.846  30.702  29.616  1.00  0.00     0.034 A 
ATOM     58  C   UNL A   1      37.639  31.900  29.621  1.00  0.00     0.034 A 
ATOM     59  C   UNL A   1      44.175  31.957  29.815  1.00  0.00     0.049 A 
ATOM     60  C   UNL A   1      38.596  32.889  30.111  1.00  0.00     0.074 A 
ATOM     61  C   UNL A   1      43.798  32.973  28.963  1.00  0.00     0.029 A 
ATOM     62  N   UNL A   1      43.422  32.099  30.963  1.00  0.00    -0.354 N 
ATOM     63  N   UNL A   1      38.980  32.889  31.350  1.00  0.00    -0.248 NA
ATOM     64  C   UNL A   1      39.048  34.026  29.319  1.00  0.00     0.031 C 
ATOM     65  C   UNL A   1      42.540  33.402  29.432  1.00  0.00     0.029 A 
ATOM     66  C   UNL A   1      42.339  32.913  30.718  1.00  0.00     0.049 A 
ATOM     67  H   UNL A   1      43.630  31.681  31.829  1.00  0.00     0.167 HD
ATOM     68  C   UNL A   1      40.130  33.610  31.297  1.00  0.00     0.074 A 
ATOM     69  C   UNL A   1      39.951  34.514  30.174  1.00  0.00     0.031 C 
ATOM     70  C   UNL A   1      41.242  32.923  31.666  1.00  0.00     0.034 A 
BRANCH  57  71
ATOM     71  C   UNL A   1      45.314  29.804  30.727  1.00  0.00     0.023 A 
ATOM     72  C   UNL A   1      44.398  28.920  31.306  1.00  0.00     0.031 A 
ATOM     73  C   UNL A   1      46.593  29.915  31.314  1.00  0.00     0.131 A 
ATOM     74  C   UNL A   1      44.743  28.232  32.480  1.00  0.00     0.055 A 
ATOM     75  C   UNL A   1      46.919  29.260  32.500  1.00  0.00     0.041 A 
ATOM     76  F   UNL A   1      47.542  30.677  30.747  1.00  0.00    -0.206 F 
ATOM     77  C   UNL A   1      45.985  28.420  33.097  1.00  0.00     0.022 A 
BRANCH  74  78
ATOM     78  S   UNL A   1      43.536  27.081  33.186  1.00  0.00     0.124 S 
ATOM     79  O   UNL A   1      42.377  27.266  32.316  1.00  0.00    -0.237 OA
ATOM     80  O   UNL A   1      44.217  25.797  33.059  1.00  0.00    -0.237 OA
ATOM     81  O   UNL A   1      43.363  27.555  34.558  1.00  0.00    -0.744 OA
ENDBRANCH  74  78
ENDBRANCH  57  71
BRANCH  58  82
ATOM     82  C   UNL A   1      36.191  32.591  29.804  1.00  0.00     0.023 A 
ATOM     83  C   UNL A   1      35.666  33.039  31.107  1.00  0.00     0.031 A 
ATOM     84  C   UNL A   1      35.515  33.167  28.722  1.00  0.00     0.131 A 
ATOM     85  C   UNL A   1      34.610  34.001  31.258  1.00  0.00     0.055 A 
ATOM     86  C   UNL A   1      34.459  34.113  28.879  1.00  0.00     0.041 A 
ATOM     87  F   UNL A   1      35.917  32.918  27.468  1.00  0.00    -0.206 F 
ATOM     88  C   UNL A   1      34.016  34.546  30.130  1.00  0.00     0.022 A 
BRANCH  85  89
ATOM     89  S   UNL A   1      34.105  34.729  32.897  1.00  0.00     0.124 S 
ATOM     90  O   UNL A   1      34.659  36.076  32.849  1.00  0.00    -0.237 OA
ATOM     91  O   UNL A   1      32.651  34.618  32.875  1.00  0.00    -0.237 OA
ATOM     92  O   UNL A   1      34.750  33.848  33.878  1.00  0.00    -0.744 OA
ENDBRANCH  85  89
ENDBRANCH  58  82
BRANCH  70  93
ATOM     93  C   UNL A   1      41.131  32.034  32.910  1.00  0.00     0.023 A 
ATOM     94  C   UNL A   1      41.274  32.447  34.266  1.00  0.00     0.031 A 
ATOM     95  C   UNL A   1      40.929  30.661  32.704  1.00  0.00     0.131 A 
ATOM     96  C   UNL A   1      41.248  31.516  35.324  1.00  0.00     0.055 A 
ATOM     97  C   UNL A   1      40.855  29.743  33.755  1.00  0.00     0.041 A 
ATOM     98  F   UNL A   1      40.798  30.180  31.457  1.00  0.00    -0.206 F 
ATOM     99  C   UNL A   1      41.029  30.164  35.068  1.00  0.00     0.022 A 
BRANCH  96 100
ATOM    100  S   UNL A   1      41.569  32.051  37.041  1.00  0.00     0.124 S 
ATOM    101  O   UNL A   1      40.233  32.287  37.577  1.00  0.00    -0.237 OA
ATOM    102  O   UNL A   1      42.289  30.912  37.603  1.00  0.00    -0.237 OA
ATOM    103  O   UNL A   1      42.376  33.261  36.875  1.00  0.00    -0.744 OA
ENDBRANCH  96 100
ENDBRANCH  70  93
ENDBRANCH  44  45
ENDBRANCH  37  39
ENDBRANCH  36  37
ENDBRANCH   1  36
TORSDOF 18
ENDMDL
