MODEL 1
REMARK VINA RESULT:     -11.5      0.000      0.000
REMARK SMILES COC(=O)c1sc(NC(=O)[C@H]2CC=CC[C@H]2C(=O)OCCOC(=O)c2ccc(-c3c4nc(c(-c5cc(S(=O)(=O)[O-])ccc5F)c5ccc([nH]5)c(-c5cc(S(=O)(=O)[O-])ccc5F)c5nc(c(-c6cc(S(=O)(=O)[O-])ccc6F)c6ccc3[nH]6)C=C5)C=C4)cc2)nc1C
REMARK SMILES IDX 20 1 19 2 17 3 18 4 16 5 11 6 12 7 13 8 15 9 14 10 9 11 8 12
REMARK SMILES IDX 10 14 7 15 5 16 6 17 89 18 88 19 90 20 3 21 4 22 2 23 1 24
REMARK SMILES IDX 21 25 22 26 23 27 24 28 25 29 26 30 87 31 27 32 86 33 28 34
REMARK SMILES IDX 29 35 30 36 80 37 31 38 85 39 79 40 81 41 32 42 84 43 78 44
REMARK SMILES IDX 77 45 33 47 65 48 45 49 64 50 46 51 49 52 63 53 82 54 47 55
REMARK SMILES IDX 48 56 62 58 83 59 50 60 34 61 35 62 43 63 36 64 42 65 44 66
REMARK SMILES IDX 41 67 37 68 38 69 39 70 40 71 66 72 67 73 75 74 68 75 74 76
REMARK SMILES IDX 76 77 73 78 69 79 70 80 71 81 72 82 51 83 52 84 60 85 53 86
REMARK SMILES IDX 59 87 61 88 58 89 54 90 55 91 56 92 57 93
REMARK H PARENT 8 13 81 46 49 57
REMARK Flexibility Score: inf
ROOT
ATOM      1  C   UNL A   1      35.878  20.856  24.626  1.00  0.00     0.274 C 
ENDROOT
BRANCH   1   2
ATOM      2  O   UNL A   1      35.450  22.223  24.797  1.00  0.00    -0.462 OA
BRANCH   2   3
ATOM      3  C   UNL A   1      35.326  22.923  23.643  1.00  0.00     0.310 C 
ATOM      4  O   UNL A   1      36.203  22.978  22.785  1.00  0.00    -0.252 OA
BRANCH   3   5
ATOM      5  C   UNL A   1      34.013  23.654  23.468  1.00  0.00     0.116 C 
ATOM      6  C   UNL A   1      32.671  22.929  23.714  1.00  0.00     0.097 C 
ATOM      7  C   UNL A   1      31.527  23.855  23.221  1.00  0.00     0.041 C 
ATOM      8  C   UNL A   1      31.734  25.327  23.490  1.00  0.00    -0.030 C 
ATOM      9  C   UNL A   1      34.113  25.017  24.166  1.00  0.00     0.043 C 
ATOM     10  C   UNL A   1      32.885  25.846  23.941  1.00  0.00    -0.030 C 
BRANCH   6  11
ATOM     11  C   UNL A   1      32.428  22.571  25.181  1.00  0.00     0.230 C 
ATOM     12  N   UNL A   1      32.347  21.301  25.652  1.00  0.00    -0.302 N 
ATOM     13  H   UNL A   1      32.227  21.233  26.626  1.00  0.00     0.172 HD
ATOM     14  O   UNL A   1      32.342  23.454  26.045  1.00  0.00    -0.274 OA
BRANCH  12  15
ATOM     15  C   UNL A   1      32.403  20.108  25.002  1.00  0.00     0.190 A 
ATOM     16  C   UNL A   1      33.223  17.883  24.595  1.00  0.00     0.137 A 
ATOM     17  S   UNL A   1      32.983  18.846  25.995  1.00  0.00    -0.089 S 
ATOM     18  C   UNL A   1      32.616  18.496  23.508  1.00  0.00     0.065 A 
ATOM     19  N   UNL A   1      32.116  19.772  23.776  1.00  0.00    -0.224 NA
ATOM     20  C   UNL A   1      32.540  17.976  22.111  1.00  0.00     0.069 C 
BRANCH  16  21
ATOM     21  C   UNL A   1      34.024  16.689  24.692  1.00  0.00     0.350 C 
ATOM     22  O   UNL A   1      35.242  16.645  24.834  1.00  0.00    -0.245 OA
BRANCH  21  23
ATOM     23  O   UNL A   1      33.240  15.596  24.466  1.00  0.00    -0.465 OA
ATOM     24  C   UNL A   1      32.453  15.157  25.577  1.00  0.00     0.282 C 
ENDBRANCH  21  23
ENDBRANCH  16  21
ENDBRANCH  12  15
ENDBRANCH   6  11
ENDBRANCH   3   5
ENDBRANCH   2   3
ENDBRANCH   1   2
BRANCH   1  25
ATOM     25  C   UNL A   1      37.349  20.626  25.008  1.00  0.00     0.275 C 
BRANCH  25  26
ATOM     26  O   UNL A   1      37.845  21.462  26.074  1.00  0.00    -0.458 OA
BRANCH  26  27
ATOM     27  C   UNL A   1      39.180  21.379  26.247  1.00  0.00     0.338 C 
ATOM     28  O   UNL A   1      39.858  20.371  26.186  1.00  0.00    -0.246 OA
BRANCH  27  29
ATOM     29  C   UNL A   1      39.843  22.645  26.510  1.00  0.00     0.060 A 
ATOM     30  C   UNL A   1      40.870  22.644  27.456  1.00  0.00     0.016 A 
ATOM     31  C   UNL A   1      39.289  23.834  26.036  1.00  0.00     0.016 A 
ATOM     32  C   UNL A   1      41.370  23.847  27.924  1.00  0.00     0.010 A 
ATOM     33  C   UNL A   1      39.820  25.045  26.479  1.00  0.00     0.010 A 
ATOM     34  C   UNL A   1      40.869  25.054  27.413  1.00  0.00    -0.014 A 
BRANCH  34  35
ATOM     35  C   UNL A   1      41.566  26.314  27.737  1.00  0.00     0.031 A 
ATOM     36  C   UNL A   1      40.912  27.384  28.550  1.00  0.00     0.074 A 
ATOM     37  C   UNL A   1      42.809  26.462  27.243  1.00  0.00     0.049 A 
ATOM     38  N   UNL A   1      41.370  28.565  28.869  1.00  0.00    -0.248 NA
ATOM     39  C   UNL A   1      39.565  27.096  29.062  1.00  0.00     0.031 C 
ATOM     40  C   UNL A   1      43.517  25.455  26.444  1.00  0.00     0.029 A 
ATOM     41  N   UNL A   1      43.694  27.500  27.332  1.00  0.00    -0.354 N 
ATOM     42  C   UNL A   1      40.366  29.176  29.611  1.00  0.00     0.074 A 
ATOM     43  C   UNL A   1      39.264  28.236  29.671  1.00  0.00     0.031 C 
ATOM     44  C   UNL A   1      44.733  25.920  26.132  1.00  0.00     0.029 A 
ATOM     45  C   UNL A   1      44.867  27.273  26.653  1.00  0.00     0.049 A 
ATOM     46  H   UNL A   1      43.510  28.327  27.833  1.00  0.00     0.167 HD
ATOM     47  C   UNL A   1      40.378  30.408  30.181  1.00  0.00     0.034 A 
ATOM     48  C   UNL A   1      45.923  28.080  26.450  1.00  0.00     0.034 A 
ATOM     49  C   UNL A   1      41.497  31.319  30.083  1.00  0.00     0.049 A 
ATOM     50  C   UNL A   1      45.889  29.453  27.054  1.00  0.00     0.074 A 
ATOM     51  C   UNL A   1      41.641  32.576  30.643  1.00  0.00     0.029 A 
ATOM     52  N   UNL A   1      42.663  31.074  29.362  1.00  0.00    -0.354 N 
ATOM     53  N   UNL A   1      44.942  30.014  27.770  1.00  0.00    -0.248 NA
ATOM     54  C   UNL A   1      47.065  30.297  26.828  1.00  0.00     0.031 C 
ATOM     55  C   UNL A   1      42.858  33.117  30.205  1.00  0.00     0.029 A 
ATOM     56  C   UNL A   1      43.511  32.170  29.432  1.00  0.00     0.049 A 
ATOM     57  H   UNL A   1      42.857  30.242  28.872  1.00  0.00     0.167 HD
ATOM     58  C   UNL A   1      45.416  31.278  28.096  1.00  0.00     0.074 A 
ATOM     59  C   UNL A   1      46.741  31.384  27.513  1.00  0.00     0.031 C 
ATOM     60  C   UNL A   1      44.815  32.262  28.814  1.00  0.00     0.034 A 
BRANCH  47  61
ATOM     61  C   UNL A   1      39.126  30.855  30.901  1.00  0.00     0.023 A 
ATOM     62  C   UNL A   1      38.100  31.559  30.246  1.00  0.00     0.031 A 
ATOM     63  C   UNL A   1      38.969  30.598  32.275  1.00  0.00     0.131 A 
ATOM     64  C   UNL A   1      37.001  32.042  30.977  1.00  0.00     0.055 A 
ATOM     65  C   UNL A   1      37.839  31.015  32.981  1.00  0.00     0.041 A 
ATOM     66  F   UNL A   1      39.924  29.951  32.962  1.00  0.00    -0.206 F 
ATOM     67  C   UNL A   1      36.853  31.755  32.336  1.00  0.00     0.022 A 
BRANCH  64  68
ATOM     68  S   UNL A   1      35.841  33.173  30.160  1.00  0.00     0.124 S 
ATOM     69  O   UNL A   1      36.608  33.587  28.987  1.00  0.00    -0.237 OA
ATOM     70  O   UNL A   1      34.692  32.314  29.903  1.00  0.00    -0.237 OA
ATOM     71  O   UNL A   1      35.626  34.222  31.155  1.00  0.00    -0.744 OA
ENDBRANCH  64  68
ENDBRANCH  47  61
BRANCH  48  72
ATOM     72  C   UNL A   1      47.068  27.607  25.628  1.00  0.00     0.023 A 
ATOM     73  C   UNL A   1      47.158  27.927  24.266  1.00  0.00     0.031 A 
ATOM     74  C   UNL A   1      48.101  26.842  26.200  1.00  0.00     0.131 A 
ATOM     75  C   UNL A   1      48.245  27.462  23.513  1.00  0.00     0.055 A 
ATOM     76  C   UNL A   1      49.204  26.422  25.457  1.00  0.00     0.041 A 
ATOM     77  F   UNL A   1      48.068  26.520  27.503  1.00  0.00    -0.206 F 
ATOM     78  C   UNL A   1      49.276  26.724  24.101  1.00  0.00     0.022 A 
BRANCH  75  79
ATOM     79  S   UNL A   1      48.267  27.792  21.730  1.00  0.00     0.124 S 
ATOM     80  O   UNL A   1      48.490  26.458  21.183  1.00  0.00    -0.237 OA
ATOM     81  O   UNL A   1      46.942  28.362  21.511  1.00  0.00    -0.237 OA
ATOM     82  O   UNL A   1      49.379  28.726  21.571  1.00  0.00    -0.744 OA
ENDBRANCH  75  79
ENDBRANCH  48  72
BRANCH  60  83
ATOM     83  C   UNL A   1      45.619  33.521  29.017  1.00  0.00     0.023 A 
ATOM     84  C   UNL A   1      45.510  34.610  28.135  1.00  0.00     0.031 A 
ATOM     85  C   UNL A   1      46.534  33.613  30.079  1.00  0.00     0.131 A 
ATOM     86  C   UNL A   1      46.352  35.721  28.294  1.00  0.00     0.055 A 
ATOM     87  C   UNL A   1      47.325  34.745  30.267  1.00  0.00     0.041 A 
ATOM     88  F   UNL A   1      46.680  32.597  30.945  1.00  0.00    -0.206 F 
ATOM     89  C   UNL A   1      47.248  35.802  29.363  1.00  0.00     0.022 A 
BRANCH  86  90
ATOM     90  S   UNL A   1      46.329  37.017  27.026  1.00  0.00     0.124 S 
ATOM     91  O   UNL A   1      46.922  36.330  25.882  1.00  0.00    -0.237 OA
ATOM     92  O   UNL A   1      44.907  37.325  26.917  1.00  0.00    -0.237 OA
ATOM     93  O   UNL A   1      47.150  38.078  27.605  1.00  0.00    -0.744 OA
ENDBRANCH  86  90
ENDBRANCH  60  83
ENDBRANCH  34  35
ENDBRANCH  27  29
ENDBRANCH  26  27
ENDBRANCH  25  26
ENDBRANCH   1  25
TORSDOF 18
ENDMDL
MODEL 2
REMARK VINA RESULT:     -11.2      2.087      2.699
REMARK SMILES COC(=O)c1sc(NC(=O)[C@H]2CC=CC[C@H]2C(=O)OCCOC(=O)c2ccc(-c3c4nc(c(-c5cc(S(=O)(=O)[O-])ccc5F)c5ccc([nH]5)c(-c5cc(S(=O)(=O)[O-])ccc5F)c5nc(c(-c6cc(S(=O)(=O)[O-])ccc6F)c6ccc3[nH]6)C=C5)C=C4)cc2)nc1C
REMARK SMILES IDX 20 1 19 2 17 3 18 4 16 5 11 6 12 7 13 8 15 9 14 10 9 11 8 12
REMARK SMILES IDX 10 14 7 15 5 16 6 17 89 18 88 19 90 20 3 21 4 22 2 23 1 24
REMARK SMILES IDX 21 25 22 26 23 27 24 28 25 29 26 30 87 31 27 32 86 33 28 34
REMARK SMILES IDX 29 35 30 36 80 37 31 38 85 39 79 40 81 41 32 42 84 43 78 44
REMARK SMILES IDX 77 45 33 47 65 48 45 49 64 50 46 51 49 52 63 53 82 54 47 55
REMARK SMILES IDX 48 56 62 58 83 59 50 60 34 61 35 62 43 63 36 64 42 65 44 66
REMARK SMILES IDX 41 67 37 68 38 69 39 70 40 71 66 72 67 73 75 74 68 75 74 76
REMARK SMILES IDX 76 77 73 78 69 79 70 80 71 81 72 82 51 83 52 84 60 85 53 86
REMARK SMILES IDX 59 87 61 88 58 89 54 90 55 91 56 92 57 93
REMARK H PARENT 8 13 81 46 49 57
REMARK Flexibility Score: inf
ROOT
ATOM      1  C   UNL A   1      38.685  21.454  25.756  1.00  0.00     0.274 C 
ENDROOT
BRANCH   1   2
ATOM      2  O   UNL A   1      37.415  21.712  25.121  1.00  0.00    -0.462 OA
BRANCH   2   3
ATOM      3  C   UNL A   1      36.812  22.861  25.510  1.00  0.00     0.310 C 
ATOM      4  O   UNL A   1      37.183  23.530  26.472  1.00  0.00    -0.252 OA
BRANCH   3   5
ATOM      5  C   UNL A   1      35.625  23.284  24.674  1.00  0.00     0.116 C 
ATOM      6  C   UNL A   1      34.455  22.308  24.421  1.00  0.00     0.097 C 
ATOM      7  C   UNL A   1      33.528  22.937  23.346  1.00  0.00     0.041 C 
ATOM      8  C   UNL A   1      33.350  24.433  23.451  1.00  0.00    -0.030 C 
ATOM      9  C   UNL A   1      35.176  24.678  25.130  1.00  0.00     0.043 C 
ATOM     10  C   UNL A   1      34.070  25.212  24.272  1.00  0.00    -0.030 C 
BRANCH   6  11
ATOM     11  C   UNL A   1      33.632  22.000  25.672  1.00  0.00     0.230 C 
ATOM     12  N   UNL A   1      32.927  20.855  25.858  1.00  0.00    -0.302 N 
ATOM     13  H   UNL A   1      32.481  20.786  26.733  1.00  0.00     0.172 HD
ATOM     14  O   UNL A   1      33.610  22.787  26.629  1.00  0.00    -0.274 OA
BRANCH  12  15
ATOM     15  C   UNL A   1      32.736  19.787  25.038  1.00  0.00     0.190 A 
ATOM     16  C   UNL A   1      33.215  17.600  24.158  1.00  0.00     0.137 A 
ATOM     17  S   UNL A   1      33.327  18.332  25.707  1.00  0.00    -0.089 S 
ATOM     18  C   UNL A   1      32.507  18.436  23.307  1.00  0.00     0.065 A 
ATOM     19  N   UNL A   1      32.209  19.688  23.850  1.00  0.00    -0.224 NA
ATOM     20  C   UNL A   1      32.137  18.167  21.887  1.00  0.00     0.069 C 
BRANCH  16  21
ATOM     21  C   UNL A   1      33.879  16.342  23.926  1.00  0.00     0.350 C 
ATOM     22  O   UNL A   1      34.353  15.961  22.860  1.00  0.00    -0.245 OA
BRANCH  21  23
ATOM     23  O   UNL A   1      33.784  15.566  25.043  1.00  0.00    -0.465 OA
ATOM     24  C   UNL A   1      32.495  15.002  25.299  1.00  0.00     0.282 C 
ENDBRANCH  21  23
ENDBRANCH  16  21
ENDBRANCH  12  15
ENDBRANCH   6  11
ENDBRANCH   3   5
ENDBRANCH   2   3
ENDBRANCH   1   2
BRANCH   1  25
ATOM     25  C   UNL A   1      39.240  20.051  25.460  1.00  0.00     0.275 C 
BRANCH  25  26
ATOM     26  O   UNL A   1      40.229  19.572  26.395  1.00  0.00    -0.458 OA
BRANCH  26  27
ATOM     27  C   UNL A   1      41.497  19.852  26.030  1.00  0.00     0.338 C 
ATOM     28  O   UNL A   1      42.253  19.123  25.418  1.00  0.00    -0.246 OA
BRANCH  27  29
ATOM     29  C   UNL A   1      41.961  21.177  26.404  1.00  0.00     0.060 A 
ATOM     30  C   UNL A   1      42.283  22.056  25.368  1.00  0.00     0.016 A 
ATOM     31  C   UNL A   1      42.320  21.444  27.725  1.00  0.00     0.016 A 
ATOM     32  C   UNL A   1      42.955  23.233  25.654  1.00  0.00     0.010 A 
ATOM     33  C   UNL A   1      42.962  22.647  28.017  1.00  0.00     0.010 A 
ATOM     34  C   UNL A   1      43.268  23.549  26.984  1.00  0.00    -0.014 A 
BRANCH  34  35
ATOM     35  C   UNL A   1      43.766  24.902  27.302  1.00  0.00     0.031 A 
ATOM     36  C   UNL A   1      42.876  25.943  27.901  1.00  0.00     0.074 A 
ATOM     37  C   UNL A   1      45.052  25.159  27.002  1.00  0.00     0.049 A 
ATOM     38  N   UNL A   1      43.149  27.190  28.182  1.00  0.00    -0.248 NA
ATOM     39  C   UNL A   1      41.500  25.537  28.215  1.00  0.00     0.031 C 
ATOM     40  C   UNL A   1      45.985  24.188  26.419  1.00  0.00     0.029 A 
ATOM     41  N   UNL A   1      45.797  26.297  27.138  1.00  0.00    -0.354 N 
ATOM     42  C   UNL A   1      41.977  27.730  28.696  1.00  0.00     0.074 A 
ATOM     43  C   UNL A   1      40.984  26.674  28.663  1.00  0.00     0.031 C 
ATOM     44  C   UNL A   1      47.182  24.768  26.265  1.00  0.00     0.029 A 
ATOM     45  C   UNL A   1      47.085  26.161  26.678  1.00  0.00     0.049 A 
ATOM     46  H   UNL A   1      45.447  27.130  27.526  1.00  0.00     0.167 HD
ATOM     47  C   UNL A   1      41.764  28.992  29.149  1.00  0.00     0.034 A 
ATOM     48  C   UNL A   1      48.071  27.069  26.576  1.00  0.00     0.034 A 
ATOM     49  C   UNL A   1      42.783  30.019  29.149  1.00  0.00     0.049 A 
ATOM     50  C   UNL A   1      47.794  28.469  27.041  1.00  0.00     0.074 A 
ATOM     51  C   UNL A   1      42.700  31.321  29.611  1.00  0.00     0.029 A 
ATOM     52  N   UNL A   1      44.073  29.862  28.649  1.00  0.00    -0.354 N 
ATOM     53  N   UNL A   1      46.686  28.965  27.543  1.00  0.00    -0.248 NA
ATOM     54  C   UNL A   1      48.897  29.426  26.931  1.00  0.00     0.031 C 
ATOM     55  C   UNL A   1      43.910  31.968  29.326  1.00  0.00     0.029 A 
ATOM     56  C   UNL A   1      44.779  31.051  28.755  1.00  0.00     0.049 A 
ATOM     57  H   UNL A   1      44.432  29.025  28.273  1.00  0.00     0.167 HD
ATOM     58  C   UNL A   1      46.964  30.296  27.826  1.00  0.00     0.074 A 
ATOM     59  C   UNL A   1      48.351  30.514  27.455  1.00  0.00     0.031 C 
ATOM     60  C   UNL A   1      46.153  31.251  28.348  1.00  0.00     0.034 A 
BRANCH  47  61
ATOM     61  C   UNL A   1      40.369  29.340  29.616  1.00  0.00     0.023 A 
ATOM     62  C   UNL A   1      40.034  29.407  30.980  1.00  0.00     0.031 A 
ATOM     63  C   UNL A   1      39.348  29.581  28.678  1.00  0.00     0.131 A 
ATOM     64  C   UNL A   1      38.702  29.636  31.366  1.00  0.00     0.055 A 
ATOM     65  C   UNL A   1      38.042  29.883  29.069  1.00  0.00     0.041 A 
ATOM     66  F   UNL A   1      39.600  29.510  27.362  1.00  0.00    -0.206 F 
ATOM     67  C   UNL A   1      37.708  29.896  30.419  1.00  0.00     0.022 A 
BRANCH  64  68
ATOM     68  S   UNL A   1      38.258  29.444  33.115  1.00  0.00     0.124 S 
ATOM     69  O   UNL A   1      37.148  28.498  33.036  1.00  0.00    -0.237 OA
ATOM     70  O   UNL A   1      39.492  28.936  33.700  1.00  0.00    -0.237 OA
ATOM     71  O   UNL A   1      37.884  30.797  33.524  1.00  0.00    -0.744 OA
ENDBRANCH  64  68
ENDBRANCH  47  61
BRANCH  48  72
ATOM     72  C   UNL A   1      49.381  26.677  25.992  1.00  0.00     0.023 A 
ATOM     73  C   UNL A   1      49.757  27.104  24.712  1.00  0.00     0.031 A 
ATOM     74  C   UNL A   1      50.285  25.880  26.719  1.00  0.00     0.131 A 
ATOM     75  C   UNL A   1      50.995  26.713  24.183  1.00  0.00     0.055 A 
ATOM     76  C   UNL A   1      51.536  25.533  26.207  1.00  0.00     0.041 A 
ATOM     77  F   UNL A   1      49.977  25.456  27.955  1.00  0.00    -0.206 F 
ATOM     78  C   UNL A   1      51.893  25.943  24.927  1.00  0.00     0.022 A 
BRANCH  75  79
ATOM     79  S   UNL A   1      51.397  27.184  22.478  1.00  0.00     0.124 S 
ATOM     80  O   UNL A   1      50.173  26.820  21.773  1.00  0.00    -0.237 OA
ATOM     81  O   UNL A   1      51.660  28.612  22.613  1.00  0.00    -0.237 OA
ATOM     82  O   UNL A   1      52.564  26.363  22.166  1.00  0.00    -0.744 OA
ENDBRANCH  75  79
ENDBRANCH  48  72
BRANCH  60  83
ATOM     83  C   UNL A   1      46.775  32.606  28.563  1.00  0.00     0.023 A 
ATOM     84  C   UNL A   1      46.865  33.546  27.522  1.00  0.00     0.031 A 
ATOM     85  C   UNL A   1      47.324  32.943  29.813  1.00  0.00     0.131 A 
ATOM     86  C   UNL A   1      47.547  34.754  27.730  1.00  0.00     0.055 A 
ATOM     87  C   UNL A   1      47.947  34.171  30.031  1.00  0.00     0.041 A 
ATOM     88  F   UNL A   1      47.269  32.078  30.838  1.00  0.00    -0.206 F 
ATOM     89  C   UNL A   1      48.075  35.078  28.983  1.00  0.00     0.022 A 
BRANCH  86  90
ATOM     90  S   UNL A   1      47.821  35.853  26.314  1.00  0.00     0.124 S 
ATOM     91  O   UNL A   1      47.615  34.949  25.186  1.00  0.00    -0.237 OA
ATOM     92  O   UNL A   1      46.798  36.874  26.508  1.00  0.00    -0.237 OA
ATOM     93  O   UNL A   1      49.196  36.312  26.498  1.00  0.00    -0.744 OA
ENDBRANCH  86  90
ENDBRANCH  60  83
ENDBRANCH  34  35
ENDBRANCH  27  29
ENDBRANCH  26  27
ENDBRANCH  25  26
ENDBRANCH   1  25
TORSDOF 18
ENDMDL
MODEL 3
REMARK VINA RESULT:     -11.0      2.868      7.792
REMARK SMILES COC(=O)c1sc(NC(=O)[C@H]2CC=CC[C@H]2C(=O)OCCOC(=O)c2ccc(-c3c4nc(c(-c5cc(S(=O)(=O)[O-])ccc5F)c5ccc([nH]5)c(-c5cc(S(=O)(=O)[O-])ccc5F)c5nc(c(-c6cc(S(=O)(=O)[O-])ccc6F)c6ccc3[nH]6)C=C5)C=C4)cc2)nc1C
REMARK SMILES IDX 20 1 19 2 17 3 18 4 16 5 11 6 12 7 13 8 15 9 14 10 9 11 8 12
REMARK SMILES IDX 10 14 7 15 5 16 6 17 89 18 88 19 90 20 3 21 4 22 2 23 1 24
REMARK SMILES IDX 21 25 22 26 23 27 24 28 25 29 26 30 87 31 27 32 86 33 28 34
REMARK SMILES IDX 29 35 30 36 80 37 31 38 85 39 79 40 81 41 32 42 84 43 78 44
REMARK SMILES IDX 77 45 33 47 65 48 45 49 64 50 46 51 49 52 63 53 82 54 47 55
REMARK SMILES IDX 48 56 62 58 83 59 50 60 34 61 35 62 43 63 36 64 42 65 44 66
REMARK SMILES IDX 41 67 37 68 38 69 39 70 40 71 66 72 67 73 75 74 68 75 74 76
REMARK SMILES IDX 76 77 73 78 69 79 70 80 71 81 72 82 51 83 52 84 60 85 53 86
REMARK SMILES IDX 59 87 61 88 58 89 54 90 55 91 56 92 57 93
REMARK H PARENT 8 13 81 46 49 57
REMARK Flexibility Score: inf
ROOT
ATOM      1  C   UNL A   1      36.109  22.894  24.073  1.00  0.00     0.274 C 
ENDROOT
BRANCH   1   2
ATOM      2  O   UNL A   1      35.566  24.028  24.779  1.00  0.00    -0.462 OA
BRANCH   2   3
ATOM      3  C   UNL A   1      34.447  23.763  25.496  1.00  0.00     0.310 C 
ATOM      4  O   UNL A   1      34.464  23.291  26.631  1.00  0.00    -0.252 OA
BRANCH   3   5
ATOM      5  C   UNL A   1      33.143  24.088  24.804  1.00  0.00     0.116 C 
ATOM      6  C   UNL A   1      32.238  22.958  24.262  1.00  0.00     0.097 C 
ATOM      7  C   UNL A   1      31.119  23.608  23.405  1.00  0.00     0.041 C 
ATOM      8  C   UNL A   1      30.581  24.915  23.938  1.00  0.00    -0.030 C 
ATOM      9  C   UNL A   1      32.389  25.131  25.640  1.00  0.00     0.043 C 
ATOM     10  C   UNL A   1      31.134  25.585  24.960  1.00  0.00    -0.030 C 
BRANCH   6  11
ATOM     11  C   UNL A   1      31.597  22.107  25.359  1.00  0.00     0.230 C 
ATOM     12  N   UNL A   1      32.009  20.858  25.691  1.00  0.00    -0.302 N 
ATOM     13  H   UNL A   1      31.523  20.454  26.445  1.00  0.00     0.172 HD
ATOM     14  O   UNL A   1      30.673  22.553  26.052  1.00  0.00    -0.274 OA
BRANCH  12  15
ATOM     15  C   UNL A   1      32.982  20.072  25.157  1.00  0.00     0.190 A 
ATOM     16  C   UNL A   1      33.929  18.004  24.370  1.00  0.00     0.137 A 
ATOM     17  S   UNL A   1      32.355  18.689  24.377  1.00  0.00    -0.089 S 
ATOM     18  C   UNL A   1      34.851  18.974  24.735  1.00  0.00     0.065 A 
ATOM     19  N   UNL A   1      34.281  20.178  25.155  1.00  0.00    -0.224 NA
ATOM     20  C   UNL A   1      36.334  18.820  24.810  1.00  0.00     0.069 C 
BRANCH  16  21
ATOM     21  C   UNL A   1      34.083  16.601  24.084  1.00  0.00     0.350 C 
ATOM     22  O   UNL A   1      34.156  16.094  22.968  1.00  0.00    -0.245 OA
BRANCH  21  23
ATOM     23  O   UNL A   1      33.999  15.888  25.244  1.00  0.00    -0.465 OA
ATOM     24  C   UNL A   1      32.879  15.004  25.349  1.00  0.00     0.282 C 
ENDBRANCH  21  23
ENDBRANCH  16  21
ENDBRANCH  12  15
ENDBRANCH   6  11
ENDBRANCH   3   5
ENDBRANCH   2   3
ENDBRANCH   1   2
BRANCH   1  25
ATOM     25  C   UNL A   1      37.333  22.273  24.768  1.00  0.00     0.275 C 
BRANCH  25  26
ATOM     26  O   UNL A   1      37.645  22.819  26.066  1.00  0.00    -0.458 OA
BRANCH  26  27
ATOM     27  C   UNL A   1      38.968  22.956  26.289  1.00  0.00     0.338 C 
ATOM     28  O   UNL A   1      39.825  22.112  26.109  1.00  0.00    -0.246 OA
BRANCH  27  29
ATOM     29  C   UNL A   1      39.375  24.265  26.770  1.00  0.00     0.060 A 
ATOM     30  C   UNL A   1      40.142  25.052  25.908  1.00  0.00     0.016 A 
ATOM     31  C   UNL A   1      39.230  24.590  28.118  1.00  0.00     0.016 A 
ATOM     32  C   UNL A   1      40.760  26.193  26.391  1.00  0.00     0.010 A 
ATOM     33  C   UNL A   1      39.820  25.760  28.594  1.00  0.00     0.010 A 
ATOM     34  C   UNL A   1      40.574  26.570  27.729  1.00  0.00    -0.014 A 
BRANCH  34  35
ATOM     35  C   UNL A   1      41.034  27.902  28.170  1.00  0.00     0.031 A 
ATOM     36  C   UNL A   1      42.484  28.265  28.183  1.00  0.00     0.074 A 
ATOM     37  C   UNL A   1      40.087  28.763  28.583  1.00  0.00     0.049 A 
ATOM     38  N   UNL A   1      43.048  29.369  28.595  1.00  0.00    -0.248 NA
ATOM     39  C   UNL A   1      43.424  27.254  27.680  1.00  0.00     0.031 C 
ATOM     40  C   UNL A   1      38.646  28.481  28.592  1.00  0.00     0.029 A 
ATOM     41  N   UNL A   1      40.180  30.037  29.070  1.00  0.00    -0.354 N 
ATOM     42  C   UNL A   1      44.414  29.190  28.416  1.00  0.00     0.074 A 
ATOM     43  C   UNL A   1      44.590  27.855  27.878  1.00  0.00     0.031 C 
ATOM     44  C   UNL A   1      37.992  29.557  29.046  1.00  0.00     0.029 A 
ATOM     45  C   UNL A   1      38.964  30.576  29.415  1.00  0.00     0.049 A 
ATOM     46  H   UNL A   1      41.032  30.519  29.165  1.00  0.00     0.167 HD
ATOM     47  C   UNL A   1      45.416  30.066  28.681  1.00  0.00     0.034 A 
ATOM     48  C   UNL A   1      38.669  31.754  29.992  1.00  0.00     0.034 A 
ATOM     49  C   UNL A   1      45.193  31.385  29.232  1.00  0.00     0.049 A 
ATOM     50  C   UNL A   1      39.800  32.685  30.317  1.00  0.00     0.074 A 
ATOM     51  C   UNL A   1      46.120  32.374  29.513  1.00  0.00     0.029 A 
ATOM     52  N   UNL A   1      43.951  31.896  29.601  1.00  0.00    -0.354 N 
ATOM     53  N   UNL A   1      41.088  32.513  30.127  1.00  0.00    -0.248 NA
ATOM     54  C   UNL A   1      39.439  33.967  30.928  1.00  0.00     0.031 C 
ATOM     55  C   UNL A   1      45.450  33.448  30.113  1.00  0.00     0.029 A 
ATOM     56  C   UNL A   1      44.094  33.166  30.140  1.00  0.00     0.049 A 
ATOM     57  H   UNL A   1      43.094  31.422  29.494  1.00  0.00     0.167 HD
ATOM     58  C   UNL A   1      41.695  33.677  30.580  1.00  0.00     0.074 A 
ATOM     59  C   UNL A   1      40.626  34.547  31.036  1.00  0.00     0.031 C 
ATOM     60  C   UNL A   1      43.013  34.001  30.617  1.00  0.00     0.034 A 
BRANCH  47  61
ATOM     61  C   UNL A   1      46.833  29.600  28.438  1.00  0.00     0.023 A 
ATOM     62  C   UNL A   1      47.577  28.927  29.423  1.00  0.00     0.031 A 
ATOM     63  C   UNL A   1      47.463  29.861  27.207  1.00  0.00     0.131 A 
ATOM     64  C   UNL A   1      48.924  28.602  29.188  1.00  0.00     0.055 A 
ATOM     65  C   UNL A   1      48.778  29.468  26.951  1.00  0.00     0.041 A 
ATOM     66  F   UNL A   1      46.813  30.520  26.234  1.00  0.00    -0.206 F 
ATOM     67  C   UNL A   1      49.522  28.848  27.950  1.00  0.00     0.022 A 
BRANCH  64  68
ATOM     68  S   UNL A   1      49.925  27.985  30.570  1.00  0.00     0.124 S 
ATOM     69  O   UNL A   1      49.161  26.812  30.988  1.00  0.00    -0.237 OA
ATOM     70  O   UNL A   1      51.210  27.721  29.935  1.00  0.00    -0.237 OA
ATOM     71  O   UNL A   1      49.916  29.095  31.522  1.00  0.00    -0.744 OA
ENDBRANCH  64  68
ENDBRANCH  47  61
BRANCH  48  72
ATOM     72  C   UNL A   1      37.256  32.089  30.310  1.00  0.00     0.023 A 
ATOM     73  C   UNL A   1      36.371  32.508  29.307  1.00  0.00     0.031 A 
ATOM     74  C   UNL A   1      36.764  31.978  31.624  1.00  0.00     0.131 A 
ATOM     75  C   UNL A   1      35.045  32.825  29.636  1.00  0.00     0.055 A 
ATOM     76  C   UNL A   1      35.433  32.248  31.938  1.00  0.00     0.041 A 
ATOM     77  F   UNL A   1      37.569  31.568  32.619  1.00  0.00    -0.206 F 
ATOM     78  C   UNL A   1      34.566  32.684  30.941  1.00  0.00     0.022 A 
BRANCH  75  79
ATOM     79  S   UNL A   1      33.963  33.479  28.336  1.00  0.00     0.124 S 
ATOM     80  O   UNL A   1      34.897  34.265  27.539  1.00  0.00    -0.237 OA
ATOM     81  O   UNL A   1      33.462  32.256  27.717  1.00  0.00    -0.237 OA
ATOM     82  O   UNL A   1      32.970  34.252  29.078  1.00  0.00    -0.744 OA
ENDBRANCH  75  79
ENDBRANCH  48  72
BRANCH  60  83
ATOM     83  C   UNL A   1      43.345  35.371  31.148  1.00  0.00     0.023 A 
ATOM     84  C   UNL A   1      43.513  36.471  30.288  1.00  0.00     0.031 A 
ATOM     85  C   UNL A   1      43.540  35.568  32.526  1.00  0.00     0.131 A 
ATOM     86  C   UNL A   1      43.927  37.705  30.809  1.00  0.00     0.055 A 
ATOM     87  C   UNL A   1      43.894  36.813  33.044  1.00  0.00     0.041 A 
ATOM     88  F   UNL A   1      43.398  34.549  33.388  1.00  0.00    -0.206 F 
ATOM     89  C   UNL A   1      44.104  37.887  32.183  1.00  0.00     0.022 A 
BRANCH  86  90
ATOM     90  S   UNL A   1      44.329  39.044  29.654  1.00  0.00     0.124 S 
ATOM     91  O   UNL A   1      45.000  40.004  30.526  1.00  0.00    -0.237 OA
ATOM     92  O   UNL A   1      45.176  38.371  28.676  1.00  0.00    -0.237 OA
ATOM     93  O   UNL A   1      43.023  39.470  29.154  1.00  0.00    -0.744 OA
ENDBRANCH  86  90
ENDBRANCH  60  83
ENDBRANCH  34  35
ENDBRANCH  27  29
ENDBRANCH  26  27
ENDBRANCH  25  26
ENDBRANCH   1  25
TORSDOF 18
ENDMDL
