MODEL 1
REMARK VINA RESULT:     -12.8      0.000      0.000
REMARK SMILES Cc1nn(C(C)C)c(C)c1S(=O)(=O)Nc1cccc(C(=O)OCCOC(=O)c2ccc(-c3c4nc(c(-c5cc(S(=O)(=O)[O-])ccc5F)c5ccc([nH]5)c(-c5cc(S(=O)(=O)[O-])ccc5F)c5nc(c(-c6cc(S(=O)(=O)[O-])ccc6F)c6ccc3[nH]6)C=C5)C=C4)cc2)c1C
REMARK SMILES IDX 23 1 22 2 20 3 21 4 19 5 15 6 16 7 91 8 17 9 92 10 18 11
REMARK SMILES IDX 14 12 11 14 12 15 13 16 10 17 1 18 2 19 3 20 4 21 8 22 9 23
REMARK SMILES IDX 5 24 6 25 7 26 24 27 25 28 26 29 27 30 28 31 29 32 90 33
REMARK SMILES IDX 30 34 89 35 31 36 32 37 33 38 83 39 34 40 88 41 82 42 84 43
REMARK SMILES IDX 35 44 87 45 81 46 80 47 36 49 68 50 48 51 67 52 49 53 52 54
REMARK SMILES IDX 66 55 85 56 50 57 51 58 65 60 86 61 53 62 37 63 38 64 46 65
REMARK SMILES IDX 39 66 45 67 47 68 44 69 40 70 41 71 42 72 43 73 69 74 70 75
REMARK SMILES IDX 78 76 71 77 77 78 79 79 76 80 72 81 73 82 74 83 75 84 54 85
REMARK SMILES IDX 55 86 63 87 56 88 62 89 64 90 61 91 57 92 58 93 59 94 60 95
REMARK H PARENT 14 13 84 48 52 59
REMARK Flexibility Score: inf
ROOT
ATOM      1  C   UNL A   1      36.964  21.667  24.944  1.00  0.00     0.275 C 
ENDROOT
BRANCH   1   2
ATOM      2  O   UNL A   1      35.714  21.349  25.609  1.00  0.00    -0.458 OA
BRANCH   2   3
ATOM      3  C   UNL A   1      34.947  22.448  25.855  1.00  0.00     0.338 C 
ATOM      4  O   UNL A   1      35.114  23.230  26.784  1.00  0.00    -0.246 OA
BRANCH   3   5
ATOM      5  C   UNL A   1      33.665  22.538  25.103  1.00  0.00     0.065 A 
ATOM      6  C   UNL A   1      32.245  23.635  23.451  1.00  0.00     0.053 A 
ATOM      7  C   UNL A   1      31.147  23.495  24.296  1.00  0.00     0.027 A 
ATOM      8  C   UNL A   1      33.493  23.051  23.797  1.00  0.00    -0.012 A 
ATOM      9  C   UNL A   1      31.298  22.882  25.538  1.00  0.00     0.003 A 
ATOM     10  C   UNL A   1      34.569  23.044  22.754  1.00  0.00     0.047 C 
ATOM     11  C   UNL A   1      32.553  22.448  25.953  1.00  0.00     0.016 A 
BRANCH   6  12
ATOM     12  N   UNL A   1      32.158  24.367  22.235  1.00  0.00    -0.279 N 
ATOM     13  H   UNL A   1      31.968  23.845  21.422  1.00  0.00     0.180 HD
BRANCH  12  14
ATOM     14  S   UNL A   1      32.341  26.010  22.032  1.00  0.00     0.265 S 
ATOM     15  O   UNL A   1      31.419  26.388  20.977  1.00  0.00    -0.201 OA
ATOM     16  O   UNL A   1      33.765  26.215  21.859  1.00  0.00    -0.201 OA
BRANCH  14  17
ATOM     17  C   UNL A   1      31.926  27.074  23.315  1.00  0.00     0.131 A 
ATOM     18  C   UNL A   1      29.518  28.022  22.763  1.00  0.00     0.070 C 
ATOM     19  C   UNL A   1      30.800  27.909  23.499  1.00  0.00     0.080 A 
ATOM     20  N   UNL A   1      30.967  28.697  24.574  1.00  0.00    -0.176 NA
ATOM     21  N   UNL A   1      32.057  28.212  25.191  1.00  0.00    -0.266 N 
ATOM     22  C   UNL A   1      32.634  27.174  24.509  1.00  0.00     0.056 A 
ATOM     23  C   UNL A   1      33.751  26.356  25.051  1.00  0.00     0.068 C 
BRANCH  21  24
ATOM     24  C   UNL A   1      32.490  28.804  26.455  1.00  0.00     0.101 C 
ATOM     25  C   UNL A   1      32.328  30.324  26.435  1.00  0.00     0.033 C 
ATOM     26  C   UNL A   1      31.777  28.180  27.653  1.00  0.00     0.033 C 
ENDBRANCH  21  24
ENDBRANCH  14  17
ENDBRANCH  12  14
ENDBRANCH   6  12
ENDBRANCH   3   5
ENDBRANCH   2   3
ENDBRANCH   1   2
BRANCH   1  27
ATOM     27  C   UNL A   1      38.181  21.906  25.862  1.00  0.00     0.275 C 
BRANCH  27  28
ATOM     28  O   UNL A   1      38.537  23.264  26.208  1.00  0.00    -0.458 OA
BRANCH  28  29
ATOM     29  C   UNL A   1      39.801  23.631  26.534  1.00  0.00     0.338 C 
ATOM     30  O   UNL A   1      40.780  23.089  26.020  1.00  0.00    -0.246 OA
BRANCH  29  31
ATOM     31  C   UNL A   1      39.907  24.863  27.339  1.00  0.00     0.060 A 
ATOM     32  C   UNL A   1      40.343  26.027  26.698  1.00  0.00     0.016 A 
ATOM     33  C   UNL A   1      39.379  24.919  28.623  1.00  0.00     0.016 A 
ATOM     34  C   UNL A   1      40.132  27.271  27.246  1.00  0.00     0.010 A 
ATOM     35  C   UNL A   1      39.047  26.146  29.136  1.00  0.00     0.010 A 
ATOM     36  C   UNL A   1      39.475  27.301  28.467  1.00  0.00    -0.014 A 
BRANCH  36  37
ATOM     37  C   UNL A   1      39.567  28.470  29.309  1.00  0.00     0.031 A 
ATOM     38  C   UNL A   1      38.620  29.575  29.079  1.00  0.00     0.074 A 
ATOM     39  C   UNL A   1      40.580  28.329  30.198  1.00  0.00     0.049 A 
ATOM     40  N   UNL A   1      38.889  30.820  29.242  1.00  0.00    -0.248 NA
ATOM     41  C   UNL A   1      37.281  29.373  28.507  1.00  0.00     0.031 C 
ATOM     42  C   UNL A   1      40.977  29.089  31.363  1.00  0.00     0.029 A 
ATOM     43  N   UNL A   1      41.614  27.384  30.127  1.00  0.00    -0.354 N 
ATOM     44  C   UNL A   1      37.671  31.477  29.273  1.00  0.00     0.074 A 
ATOM     45  C   UNL A   1      36.755  30.603  28.589  1.00  0.00     0.031 C 
ATOM     46  C   UNL A   1      42.281  28.825  31.616  1.00  0.00     0.029 A 
ATOM     47  C   UNL A   1      42.785  27.995  30.524  1.00  0.00     0.049 A 
ATOM     48  H   UNL A   1      41.519  26.447  29.842  1.00  0.00     0.167 HD
ATOM     49  C   UNL A   1      37.528  32.527  30.134  1.00  0.00     0.034 A 
ATOM     50  C   UNL A   1      43.715  28.375  29.591  1.00  0.00     0.034 A 
ATOM     51  C   UNL A   1      38.802  32.750  30.819  1.00  0.00     0.049 A 
ATOM     52  C   UNL A   1      43.775  29.887  29.536  1.00  0.00     0.074 A 
ATOM     53  C   UNL A   1      39.279  32.268  32.028  1.00  0.00     0.029 A 
ATOM     54  N   UNL A   1      39.912  33.137  30.080  1.00  0.00    -0.354 N 
ATOM     55  N   UNL A   1      42.743  30.673  29.708  1.00  0.00    -0.248 NA
ATOM     56  C   UNL A   1      45.031  30.607  29.395  1.00  0.00     0.031 C 
ATOM     57  C   UNL A   1      40.700  32.274  31.961  1.00  0.00     0.029 A 
ATOM     58  C   UNL A   1      41.077  32.752  30.716  1.00  0.00     0.049 A 
ATOM     59  H   UNL A   1      39.875  33.618  29.222  1.00  0.00     0.167 HD
ATOM     60  C   UNL A   1      43.182  31.968  29.819  1.00  0.00     0.074 A 
ATOM     61  C   UNL A   1      44.623  31.867  29.610  1.00  0.00     0.031 C 
ATOM     62  C   UNL A   1      42.365  33.030  30.105  1.00  0.00     0.034 A 
BRANCH  49  63
ATOM     63  C   UNL A   1      36.215  33.070  30.659  1.00  0.00     0.023 A 
ATOM     64  C   UNL A   1      35.430  33.873  29.800  1.00  0.00     0.031 A 
ATOM     65  C   UNL A   1      35.687  32.882  31.950  1.00  0.00     0.131 A 
ATOM     66  C   UNL A   1      34.250  34.500  30.235  1.00  0.00     0.055 A 
ATOM     67  C   UNL A   1      34.520  33.527  32.395  1.00  0.00     0.041 A 
ATOM     68  F   UNL A   1      36.249  32.039  32.826  1.00  0.00    -0.206 F 
ATOM     69  C   UNL A   1      33.798  34.348  31.540  1.00  0.00     0.022 A 
BRANCH  66  70
ATOM     70  S   UNL A   1      33.316  35.520  29.060  1.00  0.00     0.124 S 
ATOM     71  O   UNL A   1      34.381  36.151  28.285  1.00  0.00    -0.237 OA
ATOM     72  O   UNL A   1      32.508  34.528  28.361  1.00  0.00    -0.237 OA
ATOM     73  O   UNL A   1      32.563  36.429  29.924  1.00  0.00    -0.744 OA
ENDBRANCH  66  70
ENDBRANCH  49  63
BRANCH  50  74
ATOM     74  C   UNL A   1      43.888  27.468  28.402  1.00  0.00     0.023 A 
ATOM     75  C   UNL A   1      44.142  26.098  28.640  1.00  0.00     0.031 A 
ATOM     76  C   UNL A   1      43.574  27.831  27.085  1.00  0.00     0.131 A 
ATOM     77  C   UNL A   1      43.911  25.130  27.649  1.00  0.00     0.055 A 
ATOM     78  C   UNL A   1      43.414  26.867  26.071  1.00  0.00     0.041 A 
ATOM     79  F   UNL A   1      43.323  29.108  26.763  1.00  0.00    -0.206 F 
ATOM     80  C   UNL A   1      43.539  25.505  26.359  1.00  0.00     0.022 A 
BRANCH  77  81
ATOM     81  S   UNL A   1      43.845  23.386  28.168  1.00  0.00     0.124 S 
ATOM     82  O   UNL A   1      45.042  23.265  28.992  1.00  0.00    -0.237 OA
ATOM     83  O   UNL A   1      42.567  23.327  28.874  1.00  0.00    -0.237 OA
ATOM     84  O   UNL A   1      43.873  22.645  26.913  1.00  0.00    -0.744 OA
ENDBRANCH  77  81
ENDBRANCH  50  74
BRANCH  62  85
ATOM     85  C   UNL A   1      42.765  34.473  29.925  1.00  0.00     0.023 A 
ATOM     86  C   UNL A   1      42.493  35.169  28.749  1.00  0.00     0.031 A 
ATOM     87  C   UNL A   1      43.374  35.226  30.959  1.00  0.00     0.131 A 
ATOM     88  C   UNL A   1      42.983  36.462  28.547  1.00  0.00     0.055 A 
ATOM     89  C   UNL A   1      43.719  36.570  30.810  1.00  0.00     0.041 A 
ATOM     90  F   UNL A   1      43.659  34.697  32.158  1.00  0.00    -0.206 F 
ATOM     91  C   UNL A   1      43.563  37.186  29.580  1.00  0.00     0.022 A 
BRANCH  88  92
ATOM     92  S   UNL A   1      42.988  37.077  26.849  1.00  0.00     0.124 S 
ATOM     93  O   UNL A   1      44.330  37.646  26.747  1.00  0.00    -0.237 OA
ATOM     94  O   UNL A   1      42.757  35.864  26.071  1.00  0.00    -0.237 OA
ATOM     95  O   UNL A   1      41.897  38.048  26.835  1.00  0.00    -0.744 OA
ENDBRANCH  88  92
ENDBRANCH  62  85
ENDBRANCH  36  37
ENDBRANCH  29  31
ENDBRANCH  28  29
ENDBRANCH  27  28
ENDBRANCH   1  27
TORSDOF 18
ENDMDL
MODEL 2
REMARK VINA RESULT:     -12.2      1.968      2.394
REMARK SMILES Cc1nn(C(C)C)c(C)c1S(=O)(=O)Nc1cccc(C(=O)OCCOC(=O)c2ccc(-c3c4nc(c(-c5cc(S(=O)(=O)[O-])ccc5F)c5ccc([nH]5)c(-c5cc(S(=O)(=O)[O-])ccc5F)c5nc(c(-c6cc(S(=O)(=O)[O-])ccc6F)c6ccc3[nH]6)C=C5)C=C4)cc2)c1C
REMARK SMILES IDX 23 1 22 2 20 3 21 4 19 5 15 6 16 7 91 8 17 9 92 10 18 11
REMARK SMILES IDX 14 12 11 14 12 15 13 16 10 17 1 18 2 19 3 20 4 21 8 22 9 23
REMARK SMILES IDX 5 24 6 25 7 26 24 27 25 28 26 29 27 30 28 31 29 32 90 33
REMARK SMILES IDX 30 34 89 35 31 36 32 37 33 38 83 39 34 40 88 41 82 42 84 43
REMARK SMILES IDX 35 44 87 45 81 46 80 47 36 49 68 50 48 51 67 52 49 53 52 54
REMARK SMILES IDX 66 55 85 56 50 57 51 58 65 60 86 61 53 62 37 63 38 64 46 65
REMARK SMILES IDX 39 66 45 67 47 68 44 69 40 70 41 71 42 72 43 73 69 74 70 75
REMARK SMILES IDX 78 76 71 77 77 78 79 79 76 80 72 81 73 82 74 83 75 84 54 85
REMARK SMILES IDX 55 86 63 87 56 88 62 89 64 90 61 91 57 92 58 93 59 94 60 95
REMARK H PARENT 14 13 84 48 52 59
REMARK Flexibility Score: inf
ROOT
ATOM      1  C   UNL A   1      37.463  21.991  25.183  1.00  0.00     0.275 C 
ENDROOT
BRANCH   1   2
ATOM      2  O   UNL A   1      36.453  21.181  25.838  1.00  0.00    -0.458 OA
BRANCH   2   3
ATOM      3  C   UNL A   1      35.222  21.766  25.846  1.00  0.00     0.338 C 
ATOM      4  O   UNL A   1      34.644  22.178  26.846  1.00  0.00    -0.246 OA
BRANCH   3   5
ATOM      5  C   UNL A   1      34.427  21.641  24.594  1.00  0.00     0.065 A 
ATOM      6  C   UNL A   1      32.938  22.606  22.919  1.00  0.00     0.053 A 
ATOM      7  C   UNL A   1      32.186  21.434  22.907  1.00  0.00     0.027 A 
ATOM      8  C   UNL A   1      34.137  22.678  23.676  1.00  0.00    -0.012 A 
ATOM      9  C   UNL A   1      32.544  20.367  23.729  1.00  0.00     0.003 A 
ATOM     10  C   UNL A   1      35.013  23.877  23.476  1.00  0.00     0.047 C 
ATOM     11  C   UNL A   1      33.628  20.488  24.595  1.00  0.00     0.016 A 
BRANCH   6  12
ATOM     12  N   UNL A   1      32.530  23.758  22.192  1.00  0.00    -0.279 N 
ATOM     13  H   UNL A   1      32.850  23.825  21.263  1.00  0.00     0.180 HD
BRANCH  12  14
ATOM     14  S   UNL A   1      31.570  25.005  22.735  1.00  0.00     0.265 S 
ATOM     15  O   UNL A   1      30.323  24.394  23.159  1.00  0.00    -0.201 OA
ATOM     16  O   UNL A   1      31.573  25.981  21.665  1.00  0.00    -0.201 OA
BRANCH  14  17
ATOM     17  C   UNL A   1      32.052  25.907  24.115  1.00  0.00     0.131 A 
ATOM     18  C   UNL A   1      31.745  24.315  26.206  1.00  0.00     0.070 C 
ATOM     19  C   UNL A   1      32.021  25.584  25.492  1.00  0.00     0.080 A 
ATOM     20  N   UNL A   1      32.343  26.655  26.235  1.00  0.00    -0.176 NA
ATOM     21  N   UNL A   1      32.797  27.563  25.354  1.00  0.00    -0.266 N 
ATOM     22  C   UNL A   1      32.715  27.130  24.058  1.00  0.00     0.056 A 
ATOM     23  C   UNL A   1      33.295  27.871  22.907  1.00  0.00     0.068 C 
BRANCH  21  24
ATOM     24  C   UNL A   1      33.303  28.844  25.841  1.00  0.00     0.101 C 
ATOM     25  C   UNL A   1      32.240  29.937  25.724  1.00  0.00     0.033 C 
ATOM     26  C   UNL A   1      33.846  28.742  27.265  1.00  0.00     0.033 C 
ENDBRANCH  21  24
ENDBRANCH  14  17
ENDBRANCH  12  14
ENDBRANCH   6  12
ENDBRANCH   3   5
ENDBRANCH   2   3
ENDBRANCH   1   2
BRANCH   1  27
ATOM     27  C   UNL A   1      37.832  23.316  25.884  1.00  0.00     0.275 C 
BRANCH  27  28
ATOM     28  O   UNL A   1      38.651  23.270  27.074  1.00  0.00    -0.458 OA
BRANCH  28  29
ATOM     29  C   UNL A   1      39.861  23.876  27.155  1.00  0.00     0.338 C 
ATOM     30  O   UNL A   1      40.832  23.459  26.523  1.00  0.00    -0.246 OA
BRANCH  29  31
ATOM     31  C   UNL A   1      39.861  25.183  27.842  1.00  0.00     0.060 A 
ATOM     32  C   UNL A   1      40.308  26.297  27.124  1.00  0.00     0.016 A 
ATOM     33  C   UNL A   1      39.231  25.339  29.070  1.00  0.00     0.016 A 
ATOM     34  C   UNL A   1      40.013  27.578  27.531  1.00  0.00     0.010 A 
ATOM     35  C   UNL A   1      38.818  26.595  29.433  1.00  0.00     0.010 A 
ATOM     36  C   UNL A   1      39.260  27.697  28.689  1.00  0.00    -0.014 A 
BRANCH  36  37
ATOM     37  C   UNL A   1      39.245  28.943  29.417  1.00  0.00     0.031 A 
ATOM     38  C   UNL A   1      38.448  30.059  28.879  1.00  0.00     0.074 A 
ATOM     39  C   UNL A   1      40.029  28.852  30.518  1.00  0.00     0.049 A 
ATOM     40  N   UNL A   1      38.758  31.302  28.980  1.00  0.00    -0.248 NA
ATOM     41  C   UNL A   1      37.254  29.859  28.045  1.00  0.00     0.031 C 
ATOM     42  C   UNL A   1      40.214  29.713  31.667  1.00  0.00     0.029 A 
ATOM     43  N   UNL A   1      40.987  27.860  30.768  1.00  0.00    -0.354 N 
ATOM     44  C   UNL A   1      37.610  32.012  28.677  1.00  0.00     0.074 A 
ATOM     45  C   UNL A   1      36.808  31.113  27.892  1.00  0.00     0.031 C 
ATOM     46  C   UNL A   1      41.411  29.419  32.227  1.00  0.00     0.029 A 
ATOM     47  C   UNL A   1      42.083  28.456  31.358  1.00  0.00     0.049 A 
ATOM     48  H   UNL A   1      40.894  26.903  30.559  1.00  0.00     0.167 HD
ATOM     49  C   UNL A   1      37.355  33.154  29.383  1.00  0.00     0.034 A 
ATOM     50  C   UNL A   1      43.217  28.692  30.625  1.00  0.00     0.034 A 
ATOM     51  C   UNL A   1      38.461  33.390  30.310  1.00  0.00     0.049 A 
ATOM     52  C   UNL A   1      43.389  30.186  30.443  1.00  0.00     0.074 A 
ATOM     53  C   UNL A   1      38.630  33.019  31.635  1.00  0.00     0.029 A 
ATOM     54  N   UNL A   1      39.728  33.646  29.805  1.00  0.00    -0.354 N 
ATOM     55  N   UNL A   1      42.400  31.031  30.306  1.00  0.00    -0.248 NA
ATOM     56  C   UNL A   1      44.692  30.830  30.519  1.00  0.00     0.031 C 
ATOM     57  C   UNL A   1      40.029  32.953  31.887  1.00  0.00     0.029 A 
ATOM     58  C   UNL A   1      40.699  33.278  30.718  1.00  0.00     0.049 A 
ATOM     59  H   UNL A   1      39.911  34.034  28.919  1.00  0.00     0.167 HD
ATOM     60  C   UNL A   1      42.891  32.309  30.390  1.00  0.00     0.074 A 
ATOM     61  C   UNL A   1      44.332  32.122  30.518  1.00  0.00     0.031 C 
ATOM     62  C   UNL A   1      42.105  33.432  30.386  1.00  0.00     0.034 A 
BRANCH  49  63
ATOM     63  C   UNL A   1      35.998  33.807  29.548  1.00  0.00     0.023 A 
ATOM     64  C   UNL A   1      35.546  34.090  30.858  1.00  0.00     0.031 A 
ATOM     65  C   UNL A   1      35.102  34.150  28.519  1.00  0.00     0.131 A 
ATOM     66  C   UNL A   1      34.261  34.602  31.110  1.00  0.00     0.055 A 
ATOM     67  C   UNL A   1      33.808  34.639  28.769  1.00  0.00     0.041 A 
ATOM     68  F   UNL A   1      35.447  34.065  27.227  1.00  0.00    -0.206 F 
ATOM     69  C   UNL A   1      33.377  34.860  30.069  1.00  0.00     0.022 A 
BRANCH  66  70
ATOM     70  S   UNL A   1      33.767  34.923  32.826  1.00  0.00     0.124 S 
ATOM     71  O   UNL A   1      34.095  36.337  32.981  1.00  0.00    -0.237 OA
ATOM     72  O   UNL A   1      32.349  34.586  32.810  1.00  0.00    -0.237 OA
ATOM     73  O   UNL A   1      34.608  34.008  33.598  1.00  0.00    -0.744 OA
ENDBRANCH  66  70
ENDBRANCH  49  63
BRANCH  50  74
ATOM     74  C   UNL A   1      43.582  27.657  29.594  1.00  0.00     0.023 A 
ATOM     75  C   UNL A   1      43.536  28.028  28.231  1.00  0.00     0.031 A 
ATOM     76  C   UNL A   1      44.199  26.434  29.894  1.00  0.00     0.131 A 
ATOM     77  C   UNL A   1      44.233  27.300  27.253  1.00  0.00     0.055 A 
ATOM     78  C   UNL A   1      44.834  25.665  28.901  1.00  0.00     0.041 A 
ATOM     79  F   UNL A   1      44.284  25.997  31.158  1.00  0.00    -0.206 F 
ATOM     80  C   UNL A   1      44.892  26.116  27.580  1.00  0.00     0.022 A 
BRANCH  77  81
ATOM     81  S   UNL A   1      44.474  28.083  25.627  1.00  0.00     0.124 S 
ATOM     82  O   UNL A   1      45.140  29.331  25.982  1.00  0.00    -0.237 OA
ATOM     83  O   UNL A   1      45.291  27.092  24.930  1.00  0.00    -0.237 OA
ATOM     84  O   UNL A   1      43.122  28.224  25.101  1.00  0.00    -0.744 OA
ENDBRANCH  77  81
ENDBRANCH  50  74
BRANCH  62  85
ATOM     85  C   UNL A   1      42.631  34.828  30.166  1.00  0.00     0.023 A 
ATOM     86  C   UNL A   1      42.396  35.522  28.980  1.00  0.00     0.031 A 
ATOM     87  C   UNL A   1      43.329  35.542  31.169  1.00  0.00     0.131 A 
ATOM     88  C   UNL A   1      42.997  36.759  28.739  1.00  0.00     0.055 A 
ATOM     89  C   UNL A   1      43.792  36.846  30.984  1.00  0.00     0.041 A 
ATOM     90  F   UNL A   1      43.592  35.015  32.374  1.00  0.00    -0.206 F 
ATOM     91  C   UNL A   1      43.665  37.449  29.744  1.00  0.00     0.022 A 
BRANCH  88  92
ATOM     92  S   UNL A   1      43.020  37.337  27.028  1.00  0.00     0.124 S 
ATOM     93  O   UNL A   1      41.913  38.291  27.026  1.00  0.00    -0.237 OA
ATOM     94  O   UNL A   1      44.352  37.919  26.906  1.00  0.00    -0.237 OA
ATOM     95  O   UNL A   1      42.795  36.119  26.254  1.00  0.00    -0.744 OA
ENDBRANCH  88  92
ENDBRANCH  62  85
ENDBRANCH  36  37
ENDBRANCH  29  31
ENDBRANCH  28  29
ENDBRANCH  27  28
ENDBRANCH   1  27
TORSDOF 18
ENDMDL
MODEL 3
REMARK VINA RESULT:     -12.2      3.392      4.880
REMARK SMILES Cc1nn(C(C)C)c(C)c1S(=O)(=O)Nc1cccc(C(=O)OCCOC(=O)c2ccc(-c3c4nc(c(-c5cc(S(=O)(=O)[O-])ccc5F)c5ccc([nH]5)c(-c5cc(S(=O)(=O)[O-])ccc5F)c5nc(c(-c6cc(S(=O)(=O)[O-])ccc6F)c6ccc3[nH]6)C=C5)C=C4)cc2)c1C
REMARK SMILES IDX 23 1 22 2 20 3 21 4 19 5 15 6 16 7 91 8 17 9 92 10 18 11
REMARK SMILES IDX 14 12 11 14 12 15 13 16 10 17 1 18 2 19 3 20 4 21 8 22 9 23
REMARK SMILES IDX 5 24 6 25 7 26 24 27 25 28 26 29 27 30 28 31 29 32 90 33
REMARK SMILES IDX 30 34 89 35 31 36 32 37 33 38 83 39 34 40 88 41 82 42 84 43
REMARK SMILES IDX 35 44 87 45 81 46 80 47 36 49 68 50 48 51 67 52 49 53 52 54
REMARK SMILES IDX 66 55 85 56 50 57 51 58 65 60 86 61 53 62 37 63 38 64 46 65
REMARK SMILES IDX 39 66 45 67 47 68 44 69 40 70 41 71 42 72 43 73 69 74 70 75
REMARK SMILES IDX 78 76 71 77 77 78 79 79 76 80 72 81 73 82 74 83 75 84 54 85
REMARK SMILES IDX 55 86 63 87 56 88 62 89 64 90 61 91 57 92 58 93 59 94 60 95
REMARK H PARENT 14 13 84 48 52 59
REMARK Flexibility Score: inf
ROOT
ATOM      1  C   UNL A   1      35.595  21.050  25.004  1.00  0.00     0.275 C 
ENDROOT
BRANCH   1   2
ATOM      2  O   UNL A   1      34.342  21.054  25.734  1.00  0.00    -0.458 OA
BRANCH   2   3
ATOM      3  C   UNL A   1      33.292  20.601  24.993  1.00  0.00     0.338 C 
ATOM      4  O   UNL A   1      33.263  19.533  24.391  1.00  0.00    -0.246 OA
BRANCH   3   5
ATOM      5  C   UNL A   1      32.230  21.595  24.679  1.00  0.00     0.065 A 
ATOM      6  C   UNL A   1      31.508  23.662  23.601  1.00  0.00     0.053 A 
ATOM      7  C   UNL A   1      30.775  24.002  24.736  1.00  0.00     0.027 A 
ATOM      8  C   UNL A   1      32.148  22.397  23.516  1.00  0.00    -0.012 A 
ATOM      9  C   UNL A   1      30.765  23.151  25.840  1.00  0.00     0.003 A 
ATOM     10  C   UNL A   1      32.729  22.001  22.193  1.00  0.00     0.047 C 
ATOM     11  C   UNL A   1      31.519  21.981  25.825  1.00  0.00     0.016 A 
BRANCH   6  12
ATOM     12  N   UNL A   1      31.646  24.562  22.509  1.00  0.00    -0.279 N 
ATOM     13  H   UNL A   1      31.153  24.334  21.689  1.00  0.00     0.180 HD
BRANCH  12  14
ATOM     14  S   UNL A   1      32.550  25.960  22.464  1.00  0.00     0.265 S 
ATOM     15  O   UNL A   1      31.663  26.994  21.964  1.00  0.00    -0.201 OA
ATOM     16  O   UNL A   1      33.748  25.614  21.729  1.00  0.00    -0.201 OA
BRANCH  14  17
ATOM     17  C   UNL A   1      33.146  26.632  23.929  1.00  0.00     0.131 A 
ATOM     18  C   UNL A   1      34.498  24.712  25.148  1.00  0.00     0.070 C 
ATOM     19  C   UNL A   1      33.860  26.042  24.997  1.00  0.00     0.080 A 
ATOM     20  N   UNL A   1      33.979  26.905  26.019  1.00  0.00    -0.176 NA
ATOM     21  N   UNL A   1      33.564  28.084  25.526  1.00  0.00    -0.266 N 
ATOM     22  C   UNL A   1      33.120  27.990  24.234  1.00  0.00     0.056 A 
ATOM     23  C   UNL A   1      32.760  29.169  23.403  1.00  0.00     0.068 C 
BRANCH  21  24
ATOM     24  C   UNL A   1      33.627  29.277  26.367  1.00  0.00     0.101 C 
ATOM     25  C   UNL A   1      32.397  29.380  27.270  1.00  0.00     0.033 C 
ATOM     26  C   UNL A   1      34.922  29.339  27.176  1.00  0.00     0.033 C 
ENDBRANCH  21  24
ENDBRANCH  14  17
ENDBRANCH  12  14
ENDBRANCH   6  12
ENDBRANCH   3   5
ENDBRANCH   2   3
ENDBRANCH   1   2
BRANCH   1  27
ATOM     27  C   UNL A   1      36.809  21.667  25.731  1.00  0.00     0.275 C 
BRANCH  27  28
ATOM     28  O   UNL A   1      38.126  21.493  25.160  1.00  0.00    -0.458 OA
BRANCH  28  29
ATOM     29  C   UNL A   1      39.189  21.063  25.884  1.00  0.00     0.338 C 
ATOM     30  O   UNL A   1      39.638  19.925  25.752  1.00  0.00    -0.246 OA
BRANCH  29  31
ATOM     31  C   UNL A   1      39.899  22.116  26.637  1.00  0.00     0.060 A 
ATOM     32  C   UNL A   1      40.647  21.727  27.753  1.00  0.00     0.016 A 
ATOM     33  C   UNL A   1      40.005  23.404  26.128  1.00  0.00     0.016 A 
ATOM     34  C   UNL A   1      41.613  22.547  28.290  1.00  0.00     0.010 A 
ATOM     35  C   UNL A   1      41.040  24.191  26.562  1.00  0.00     0.010 A 
ATOM     36  C   UNL A   1      41.792  23.774  27.669  1.00  0.00    -0.014 A 
BRANCH  36  37
ATOM     37  C   UNL A   1      42.455  24.848  28.369  1.00  0.00     0.031 A 
ATOM     38  C   UNL A   1      41.699  26.084  28.632  1.00  0.00     0.074 A 
ATOM     39  C   UNL A   1      43.734  24.502  28.655  1.00  0.00     0.049 A 
ATOM     40  N   UNL A   1      42.203  27.266  28.652  1.00  0.00    -0.248 NA
ATOM     41  C   UNL A   1      40.236  26.110  28.779  1.00  0.00     0.031 C 
ATOM     42  C   UNL A   1      44.752  25.106  29.488  1.00  0.00     0.029 A 
ATOM     43  N   UNL A   1      44.447  23.437  28.087  1.00  0.00    -0.354 N 
ATOM     44  C   UNL A   1      41.267  28.075  29.273  1.00  0.00     0.074 A 
ATOM     45  C   UNL A   1      40.013  27.389  29.112  1.00  0.00     0.031 C 
ATOM     46  C   UNL A   1      45.959  24.651  29.076  1.00  0.00     0.029 A 
ATOM     47  C   UNL A   1      45.744  23.852  27.872  1.00  0.00     0.049 A 
ATOM     48  H   UNL A   1      44.083  22.547  27.879  1.00  0.00     0.167 HD
ATOM     49  C   UNL A   1      41.718  29.062  30.102  1.00  0.00     0.034 A 
ATOM     50  C   UNL A   1      46.163  24.178  26.608  1.00  0.00     0.034 A 
ATOM     51  C   UNL A   1      43.181  29.056  30.086  1.00  0.00     0.049 A 
ATOM     52  C   UNL A   1      46.424  25.669  26.540  1.00  0.00     0.074 A 
ATOM     53  C   UNL A   1      44.096  28.420  30.911  1.00  0.00     0.029 A 
ATOM     54  N   UNL A   1      43.849  29.350  28.905  1.00  0.00    -0.354 N 
ATOM     55  N   UNL A   1      45.736  26.569  27.194  1.00  0.00    -0.248 NA
ATOM     56  C   UNL A   1      47.556  26.223  25.813  1.00  0.00     0.031 C 
ATOM     57  C   UNL A   1      45.294  28.241  30.164  1.00  0.00     0.029 A 
ATOM     58  C   UNL A   1      45.101  28.763  28.895  1.00  0.00     0.049 A 
ATOM     59  H   UNL A   1      43.482  29.900  28.175  1.00  0.00     0.167 HD
ATOM     60  C   UNL A   1      46.371  27.780  27.087  1.00  0.00     0.074 A 
ATOM     61  C   UNL A   1      47.501  27.505  26.206  1.00  0.00     0.031 C 
ATOM     62  C   UNL A   1      45.966  28.915  27.738  1.00  0.00     0.034 A 
BRANCH  49  63
ATOM     63  C   UNL A   1      40.918  29.731  31.200  1.00  0.00     0.023 A 
ATOM     64  C   UNL A   1      40.451  31.048  30.982  1.00  0.00     0.031 A 
ATOM     65  C   UNL A   1      40.600  29.184  32.457  1.00  0.00     0.131 A 
ATOM     66  C   UNL A   1      39.790  31.781  31.983  1.00  0.00     0.055 A 
ATOM     67  C   UNL A   1      39.959  29.922  33.468  1.00  0.00     0.041 A 
ATOM     68  F   UNL A   1      40.857  27.903  32.754  1.00  0.00    -0.206 F 
ATOM     69  C   UNL A   1      39.557  31.230  33.238  1.00  0.00     0.022 A 
BRANCH  66  70
ATOM     70  S   UNL A   1      39.238  33.469  31.611  1.00  0.00     0.124 S 
ATOM     71  O   UNL A   1      40.135  34.275  32.434  1.00  0.00    -0.237 OA
ATOM     72  O   UNL A   1      39.435  33.550  30.169  1.00  0.00    -0.237 OA
ATOM     73  O   UNL A   1      37.840  33.471  32.042  1.00  0.00    -0.744 OA
ENDBRANCH  66  70
ENDBRANCH  49  63
BRANCH  50  74
ATOM     74  C   UNL A   1      45.604  23.355  25.478  1.00  0.00     0.023 A 
ATOM     75  C   UNL A   1      46.099  22.043  25.301  1.00  0.00     0.031 A 
ATOM     76  C   UNL A   1      44.460  23.701  24.745  1.00  0.00     0.131 A 
ATOM     77  C   UNL A   1      45.378  21.083  24.572  1.00  0.00     0.055 A 
ATOM     78  C   UNL A   1      43.776  22.758  23.955  1.00  0.00     0.041 A 
ATOM     79  F   UNL A   1      43.922  24.925  24.845  1.00  0.00    -0.206 F 
ATOM     80  C   UNL A   1      44.208  21.430  23.898  1.00  0.00     0.022 A 
BRANCH  77  81
ATOM     81  S   UNL A   1      45.862  19.338  24.760  1.00  0.00     0.124 S 
ATOM     82  O   UNL A   1      45.722  18.832  23.399  1.00  0.00    -0.237 OA
ATOM     83  O   UNL A   1      47.228  19.455  25.267  1.00  0.00    -0.237 OA
ATOM     84  O   UNL A   1      44.906  18.810  25.725  1.00  0.00    -0.744 OA
ENDBRANCH  77  81
ENDBRANCH  50  74
BRANCH  62  85
ATOM     85  C   UNL A   1      46.451  30.301  27.397  1.00  0.00     0.023 A 
ATOM     86  C   UNL A   1      45.572  31.312  27.011  1.00  0.00     0.031 A 
ATOM     87  C   UNL A   1      47.811  30.680  27.513  1.00  0.00     0.131 A 
ATOM     88  C   UNL A   1      46.046  32.551  26.573  1.00  0.00     0.055 A 
ATOM     89  C   UNL A   1      48.262  31.969  27.228  1.00  0.00     0.041 A 
ATOM     90  F   UNL A   1      48.762  29.822  27.911  1.00  0.00    -0.206 F 
ATOM     91  C   UNL A   1      47.383  32.906  26.711  1.00  0.00     0.022 A 
BRANCH  88  92
ATOM     92  S   UNL A   1      44.886  33.594  25.663  1.00  0.00     0.124 S 
ATOM     93  O   UNL A   1      45.791  34.537  25.008  1.00  0.00    -0.237 OA
ATOM     94  O   UNL A   1      44.226  32.639  24.779  1.00  0.00    -0.237 OA
ATOM     95  O   UNL A   1      44.044  34.163  26.712  1.00  0.00    -0.744 OA
ENDBRANCH  88  92
ENDBRANCH  62  85
ENDBRANCH  36  37
ENDBRANCH  29  31
ENDBRANCH  28  29
ENDBRANCH  27  28
ENDBRANCH   1  27
TORSDOF 18
ENDMDL
