MODEL 1
REMARK VINA RESULT:     -10.3      0.000      0.000
REMARK SMILES CC(=O)Oc1ccc([C@H]2Nc3c(C(=O)OCCOC(=O)c4ccc(-c5c6nc(c(-c7cc(S(=O)(=O)[O-])ccc7F)c7ccc([nH]7)c(-c7cc(S(=O)(=O)[O-])ccc7F)c7nc(c(-c8cc(S(=O)(=O)[O-])ccc8F)c8ccc5[nH]8)C=C7)C=C6)cc4)ccc([N+](=O)[O-])c3[C@H]3C=CC[C@@H]32)cc1
REMARK SMILES IDX 16 1 15 2 13 3 14 4 12 5 9 6 10 7 95 8 11 9 91 11 94 12
REMARK SMILES IDX 90 13 92 14 93 15 84 16 86 17 85 18 8 19 5 20 6 21 97 22
REMARK SMILES IDX 7 23 96 24 4 25 2 26 1 27 3 28 87 29 88 30 89 31 17 32 18 33
REMARK SMILES IDX 19 34 20 35 21 36 22 37 83 38 23 39 82 40 24 41 25 42 26 43
REMARK SMILES IDX 76 44 27 45 81 46 75 47 77 48 28 49 80 50 74 51 73 52 29 54
REMARK SMILES IDX 61 55 41 56 60 57 42 58 45 59 59 60 78 61 43 62 44 63 58 65
REMARK SMILES IDX 79 66 46 67 30 68 31 69 39 70 32 71 38 72 40 73 37 74 33 75
REMARK SMILES IDX 34 76 35 77 36 78 62 79 63 80 71 81 64 82 70 83 72 84 69 85
REMARK SMILES IDX 65 86 66 87 67 88 68 89 47 90 48 91 56 92 49 93 55 94 57 95
REMARK SMILES IDX 54 96 50 97 51 98 52 99 53 100
REMARK H PARENT 10 10 77 53 45 64
REMARK Flexibility Score: inf
ROOT
ATOM      1  C   UNL A   1      48.989  25.990  38.327  1.00  0.00     0.275 C 
ENDROOT
BRANCH   1   2
ATOM      2  O   UNL A   1      47.961  25.032  38.673  1.00  0.00    -0.458 OA
BRANCH   2   3
ATOM      3  C   UNL A   1      46.831  25.554  39.225  1.00  0.00     0.340 C 
ATOM      4  O   UNL A   1      46.715  25.918  40.387  1.00  0.00    -0.246 OA
BRANCH   3   5
ATOM      5  C   UNL A   1      45.663  25.229  38.380  1.00  0.00     0.084 A 
ATOM      6  C   UNL A   1      46.305  22.622  35.545  1.00  0.00     0.114 C 
ATOM      7  N   UNL A   1      46.573  23.476  36.756  1.00  0.00    -0.377 N 
ATOM      8  C   UNL A   1      45.326  23.411  34.677  1.00  0.00     0.031 C 
ATOM      9  C   UNL A   1      45.517  24.296  37.298  1.00  0.00     0.060 A 
ATOM     10  H   UNL A   1      47.463  23.474  37.175  1.00  0.00     0.161 HD
ATOM     11  C   UNL A   1      44.035  23.322  35.497  1.00  0.00     0.056 C 
ATOM     12  C   UNL A   1      44.970  23.028  33.242  1.00  0.00     0.034 C 
ATOM     13  C   UNL A   1      44.234  24.319  36.616  1.00  0.00     0.061 A 
ATOM     14  C   UNL A   1      42.987  23.398  34.442  1.00  0.00    -0.022 C 
ATOM     15  C   UNL A   1      43.493  23.219  33.218  1.00  0.00    -0.030 C 
ATOM     16  C   UNL A   1      44.631  26.140  38.715  1.00  0.00     0.025 A 
ATOM     17  C   UNL A   1      43.238  25.232  37.020  1.00  0.00     0.275 A 
ATOM     18  C   UNL A   1      43.428  26.151  38.042  1.00  0.00     0.087 A 
BRANCH   6  19
ATOM     19  C   UNL A   1      47.409  21.920  34.726  1.00  0.00    -0.025 A 
ATOM     20  C   UNL A   1      49.740  20.318  34.385  1.00  0.00     0.130 A 
ATOM     21  C   UNL A   1      49.854  21.675  34.683  1.00  0.00     0.047 A 
ATOM     22  C   UNL A   1      48.489  19.771  34.132  1.00  0.00     0.047 A 
ATOM     23  C   UNL A   1      48.708  22.470  34.823  1.00  0.00     0.010 A 
ATOM     24  C   UNL A   1      47.329  20.576  34.287  1.00  0.00     0.010 A 
BRANCH  20  25
ATOM     25  O   UNL A   1      50.973  19.603  34.330  1.00  0.00    -0.427 OA
BRANCH  25  26
ATOM     26  C   UNL A   1      52.047  19.501  35.227  1.00  0.00     0.308 C 
ATOM     27  C   UNL A   1      53.206  20.336  34.729  1.00  0.00     0.139 C 
ATOM     28  O   UNL A   1      52.045  18.856  36.266  1.00  0.00    -0.252 OA
ENDBRANCH  25  26
ENDBRANCH  20  25
ENDBRANCH   6  19
BRANCH  17  29
ATOM     29  N   UNL A   1      41.938  25.287  36.394  1.00  0.00     0.063 N 
ATOM     30  O   UNL A   1      41.103  24.446  36.750  1.00  0.00    -0.258 OA
ATOM     31  O   UNL A   1      41.791  26.124  35.492  1.00  0.00    -0.258 OA
ENDBRANCH  17  29
ENDBRANCH   3   5
ENDBRANCH   2   3
ENDBRANCH   1   2
BRANCH   1  32
ATOM     32  C   UNL A   1      49.401  25.888  36.859  1.00  0.00     0.275 C 
BRANCH  32  33
ATOM     33  O   UNL A   1      48.262  26.024  35.995  1.00  0.00    -0.458 OA
BRANCH  33  34
ATOM     34  C   UNL A   1      48.383  27.024  35.092  1.00  0.00     0.338 C 
ATOM     35  O   UNL A   1      49.376  27.350  34.467  1.00  0.00    -0.246 OA
BRANCH  34  36
ATOM     36  C   UNL A   1      47.079  27.635  34.838  1.00  0.00     0.060 A 
ATOM     37  C   UNL A   1      45.956  26.818  34.901  1.00  0.00     0.016 A 
ATOM     38  C   UNL A   1      46.995  28.911  34.297  1.00  0.00     0.016 A 
ATOM     39  C   UNL A   1      44.779  27.196  34.299  1.00  0.00     0.010 A 
ATOM     40  C   UNL A   1      45.768  29.343  33.793  1.00  0.00     0.010 A 
ATOM     41  C   UNL A   1      44.669  28.466  33.741  1.00  0.00    -0.014 A 
BRANCH  41  42
ATOM     42  C   UNL A   1      43.420  28.815  33.031  1.00  0.00     0.031 A 
ATOM     43  C   UNL A   1      43.260  28.378  31.599  1.00  0.00     0.074 A 
ATOM     44  C   UNL A   1      42.463  29.480  33.707  1.00  0.00     0.049 A 
ATOM     45  N   UNL A   1      42.353  28.712  30.722  1.00  0.00    -0.248 NA
ATOM     46  C   UNL A   1      44.293  27.471  31.066  1.00  0.00     0.031 C 
ATOM     47  C   UNL A   1      42.563  29.914  35.110  1.00  0.00     0.029 A 
ATOM     48  N   UNL A   1      41.231  29.930  33.319  1.00  0.00    -0.354 N 
ATOM     49  C   UNL A   1      42.706  28.061  29.541  1.00  0.00     0.074 A 
ATOM     50  C   UNL A   1      43.961  27.391  29.787  1.00  0.00     0.031 C 
ATOM     51  C   UNL A   1      41.456  30.588  35.450  1.00  0.00     0.029 A 
ATOM     52  C   UNL A   1      40.609  30.702  34.275  1.00  0.00     0.049 A 
ATOM     53  H   UNL A   1      40.831  29.722  32.444  1.00  0.00     0.167 HD
ATOM     54  C   UNL A   1      42.006  27.992  28.380  1.00  0.00     0.034 A 
ATOM     55  C   UNL A   1      39.514  31.478  34.180  1.00  0.00     0.034 A 
ATOM     56  C   UNL A   1      40.721  28.655  28.237  1.00  0.00     0.049 A 
ATOM     57  C   UNL A   1      38.791  31.466  32.861  1.00  0.00     0.074 A 
ATOM     58  C   UNL A   1      39.869  28.691  27.148  1.00  0.00     0.029 A 
ATOM     59  N   UNL A   1      40.085  29.382  29.250  1.00  0.00    -0.354 N 
ATOM     60  N   UNL A   1      39.115  30.830  31.755  1.00  0.00    -0.248 NA
ATOM     61  C   UNL A   1      37.558  32.249  32.775  1.00  0.00     0.031 C 
ATOM     62  C   UNL A   1      38.745  29.457  27.488  1.00  0.00     0.029 A 
ATOM     63  C   UNL A   1      38.873  29.885  28.800  1.00  0.00     0.049 A 
ATOM     64  H   UNL A   1      40.447  29.517  30.155  1.00  0.00     0.167 HD
ATOM     65  C   UNL A   1      38.098  31.102  30.852  1.00  0.00     0.074 A 
ATOM     66  C   UNL A   1      37.148  31.951  31.552  1.00  0.00     0.031 C 
ATOM     67  C   UNL A   1      37.950  30.700  29.563  1.00  0.00     0.034 A 
BRANCH  54  68
ATOM     68  C   UNL A   1      42.563  27.140  27.241  1.00  0.00     0.023 A 
ATOM     69  C   UNL A   1      42.391  25.741  27.212  1.00  0.00     0.031 A 
ATOM     70  C   UNL A   1      43.198  27.701  26.125  1.00  0.00     0.131 A 
ATOM     71  C   UNL A   1      42.765  24.961  26.109  1.00  0.00     0.055 A 
ATOM     72  C   UNL A   1      43.581  26.926  25.017  1.00  0.00     0.041 A 
ATOM     73  F   UNL A   1      43.453  29.018  26.076  1.00  0.00    -0.206 F 
ATOM     74  C   UNL A   1      43.352  25.550  24.997  1.00  0.00     0.022 A 
BRANCH  71  75
ATOM     75  S   UNL A   1      42.452  23.172  26.166  1.00  0.00     0.124 S 
ATOM     76  O   UNL A   1      42.938  22.736  24.859  1.00  0.00    -0.237 OA
ATOM     77  O   UNL A   1      43.257  22.752  27.308  1.00  0.00    -0.237 OA
ATOM     78  O   UNL A   1      41.007  23.081  26.356  1.00  0.00    -0.744 OA
ENDBRANCH  71  75
ENDBRANCH  54  68
BRANCH  55  79
ATOM     79  C   UNL A   1      39.108  32.378  35.300  1.00  0.00     0.023 A 
ATOM     80  C   UNL A   1      39.594  33.689  35.410  1.00  0.00     0.031 A 
ATOM     81  C   UNL A   1      38.261  31.909  36.324  1.00  0.00     0.131 A 
ATOM     82  C   UNL A   1      39.288  34.458  36.546  1.00  0.00     0.055 A 
ATOM     83  C   UNL A   1      37.904  32.701  37.416  1.00  0.00     0.041 A 
ATOM     84  F   UNL A   1      37.759  30.664  36.277  1.00  0.00    -0.206 F 
ATOM     85  C   UNL A   1      38.435  33.978  37.542  1.00  0.00     0.022 A 
BRANCH  82  86
ATOM     86  S   UNL A   1      40.126  36.053  36.766  1.00  0.00     0.124 S 
ATOM     87  O   UNL A   1      41.512  35.635  36.949  1.00  0.00    -0.237 OA
ATOM     88  O   UNL A   1      39.819  36.731  35.513  1.00  0.00    -0.237 OA
ATOM     89  O   UNL A   1      39.483  36.614  37.952  1.00  0.00    -0.744 OA
ENDBRANCH  82  86
ENDBRANCH  55  79
BRANCH  67  90
ATOM     90  C   UNL A   1      36.668  31.130  28.897  1.00  0.00     0.023 A 
ATOM     91  C   UNL A   1      35.732  30.191  28.432  1.00  0.00     0.031 A 
ATOM     92  C   UNL A   1      36.415  32.493  28.676  1.00  0.00     0.131 A 
ATOM     93  C   UNL A   1      34.610  30.627  27.712  1.00  0.00     0.055 A 
ATOM     94  C   UNL A   1      35.268  32.924  28.009  1.00  0.00     0.041 A 
ATOM     95  F   UNL A   1      37.284  33.426  29.096  1.00  0.00    -0.206 F 
ATOM     96  C   UNL A   1      34.365  31.988  27.512  1.00  0.00     0.022 A 
BRANCH  93  97
ATOM     97  S   UNL A   1      33.522  29.386  26.963  1.00  0.00     0.124 S 
ATOM     98  O   UNL A   1      32.318  29.506  27.779  1.00  0.00    -0.237 OA
ATOM     99  O   UNL A   1      33.407  29.860  25.587  1.00  0.00    -0.237 OA
ATOM    100  O   UNL A   1      34.262  28.137  27.126  1.00  0.00    -0.744 OA
ENDBRANCH  93  97
ENDBRANCH  67  90
ENDBRANCH  41  42
ENDBRANCH  34  36
ENDBRANCH  33  34
ENDBRANCH  32  33
ENDBRANCH   1  32
TORSDOF 18
ENDMDL
MODEL 2
REMARK VINA RESULT:     -10.2      1.379      7.618
REMARK SMILES CC(=O)Oc1ccc([C@H]2Nc3c(C(=O)OCCOC(=O)c4ccc(-c5c6nc(c(-c7cc(S(=O)(=O)[O-])ccc7F)c7ccc([nH]7)c(-c7cc(S(=O)(=O)[O-])ccc7F)c7nc(c(-c8cc(S(=O)(=O)[O-])ccc8F)c8ccc5[nH]8)C=C7)C=C6)cc4)ccc([N+](=O)[O-])c3[C@H]3C=CC[C@@H]32)cc1
REMARK SMILES IDX 16 1 15 2 13 3 14 4 12 5 9 6 10 7 95 8 11 9 91 11 94 12
REMARK SMILES IDX 90 13 92 14 93 15 84 16 86 17 85 18 8 19 5 20 6 21 97 22
REMARK SMILES IDX 7 23 96 24 4 25 2 26 1 27 3 28 87 29 88 30 89 31 17 32 18 33
REMARK SMILES IDX 19 34 20 35 21 36 22 37 83 38 23 39 82 40 24 41 25 42 26 43
REMARK SMILES IDX 76 44 27 45 81 46 75 47 77 48 28 49 80 50 74 51 73 52 29 54
REMARK SMILES IDX 61 55 41 56 60 57 42 58 45 59 59 60 78 61 43 62 44 63 58 65
REMARK SMILES IDX 79 66 46 67 30 68 31 69 39 70 32 71 38 72 40 73 37 74 33 75
REMARK SMILES IDX 34 76 35 77 36 78 62 79 63 80 71 81 64 82 70 83 72 84 69 85
REMARK SMILES IDX 65 86 66 87 67 88 68 89 47 90 48 91 56 92 49 93 55 94 57 95
REMARK SMILES IDX 54 96 50 97 51 98 52 99 53 100
REMARK H PARENT 10 10 77 53 45 64
REMARK Flexibility Score: inf
ROOT
ATOM      1  C   UNL A   1      49.047  26.241  38.226  1.00  0.00     0.275 C 
ENDROOT
BRANCH   1   2
ATOM      2  O   UNL A   1      48.056  25.267  38.629  1.00  0.00    -0.458 OA
BRANCH   2   3
ATOM      3  C   UNL A   1      46.923  25.775  39.188  1.00  0.00     0.340 C 
ATOM      4  O   UNL A   1      46.818  26.168  40.342  1.00  0.00    -0.246 OA
BRANCH   3   5
ATOM      5  C   UNL A   1      45.749  25.396  38.374  1.00  0.00     0.084 A 
ATOM      6  C   UNL A   1      46.418  22.765  35.568  1.00  0.00     0.114 C 
ATOM      7  N   UNL A   1      46.682  23.648  36.760  1.00  0.00    -0.377 N 
ATOM      8  C   UNL A   1      45.394  23.506  34.710  1.00  0.00     0.031 C 
ATOM      9  C   UNL A   1      45.611  24.442  37.312  1.00  0.00     0.060 A 
ATOM     10  H   UNL A   1      47.581  23.684  37.159  1.00  0.00     0.161 HD
ATOM     11  C   UNL A   1      44.125  23.388  35.559  1.00  0.00     0.056 C 
ATOM     12  C   UNL A   1      45.020  23.088  33.289  1.00  0.00     0.034 C 
ATOM     13  C   UNL A   1      44.314  24.410  36.657  1.00  0.00     0.061 A 
ATOM     14  C   UNL A   1      43.052  23.411  34.526  1.00  0.00    -0.022 C 
ATOM     15  C   UNL A   1      43.537  23.229  33.295  1.00  0.00    -0.030 C 
ATOM     16  C   UNL A   1      44.693  26.277  38.718  1.00  0.00     0.025 A 
ATOM     17  C   UNL A   1      43.296  25.295  37.069  1.00  0.00     0.275 A 
ATOM     18  C   UNL A   1      43.477  26.237  38.072  1.00  0.00     0.087 A 
BRANCH   6  19
ATOM     19  C   UNL A   1      47.527  22.087  34.736  1.00  0.00    -0.025 A 
ATOM     20  C   UNL A   1      50.119  20.985  34.310  1.00  0.00     0.130 A 
ATOM     21  C   UNL A   1      49.910  22.359  34.198  1.00  0.00     0.047 A 
ATOM     22  C   UNL A   1      49.038  20.138  34.508  1.00  0.00     0.047 A 
ATOM     23  C   UNL A   1      48.629  22.899  34.380  1.00  0.00     0.010 A 
ATOM     24  C   UNL A   1      47.743  20.689  34.704  1.00  0.00     0.010 A 
BRANCH  20  25
ATOM     25  O   UNL A   1      51.475  20.565  34.166  1.00  0.00    -0.427 OA
BRANCH  25  26
ATOM     26  C   UNL A   1      52.203  19.511  34.737  1.00  0.00     0.308 C 
ATOM     27  C   UNL A   1      53.562  19.419  34.079  1.00  0.00     0.139 C 
ATOM     28  O   UNL A   1      51.815  18.789  35.645  1.00  0.00    -0.252 OA
ENDBRANCH  25  26
ENDBRANCH  20  25
ENDBRANCH   6  19
BRANCH  17  29
ATOM     29  N   UNL A   1      41.982  25.296  36.471  1.00  0.00     0.063 N 
ATOM     30  O   UNL A   1      41.738  26.185  35.645  1.00  0.00    -0.258 OA
ATOM     31  O   UNL A   1      41.178  24.453  36.895  1.00  0.00    -0.258 OA
ENDBRANCH  17  29
ENDBRANCH   3   5
ENDBRANCH   2   3
ENDBRANCH   1   2
BRANCH   1  32
ATOM     32  C   UNL A   1      49.338  26.181  36.727  1.00  0.00     0.275 C 
BRANCH  32  33
ATOM     33  O   UNL A   1      48.123  26.259  35.965  1.00  0.00    -0.458 OA
BRANCH  33  34
ATOM     34  C   UNL A   1      48.228  27.029  34.858  1.00  0.00     0.338 C 
ATOM     35  O   UNL A   1      49.153  27.081  34.069  1.00  0.00    -0.246 OA
BRANCH  34  36
ATOM     36  C   UNL A   1      46.977  27.750  34.625  1.00  0.00     0.060 A 
ATOM     37  C   UNL A   1      45.788  27.039  34.736  1.00  0.00     0.016 A 
ATOM     38  C   UNL A   1      46.992  29.017  34.058  1.00  0.00     0.016 A 
ATOM     39  C   UNL A   1      44.632  27.510  34.157  1.00  0.00     0.010 A 
ATOM     40  C   UNL A   1      45.795  29.549  33.577  1.00  0.00     0.010 A 
ATOM     41  C   UNL A   1      44.621  28.773  33.575  1.00  0.00    -0.014 A 
BRANCH  41  42
ATOM     42  C   UNL A   1      43.389  29.219  32.891  1.00  0.00     0.031 A 
ATOM     43  C   UNL A   1      42.376  30.011  33.675  1.00  0.00     0.074 A 
ATOM     44  C   UNL A   1      43.240  28.927  31.583  1.00  0.00     0.049 A 
ATOM     45  N   UNL A   1      41.157  30.353  33.356  1.00  0.00    -0.248 NA
ATOM     46  C   UNL A   1      42.776  30.441  35.026  1.00  0.00     0.031 C 
ATOM     47  C   UNL A   1      44.205  28.172  30.769  1.00  0.00     0.029 A 
ATOM     48  N   UNL A   1      42.226  29.202  30.707  1.00  0.00    -0.354 N 
ATOM     49  C   UNL A   1      40.650  31.032  34.463  1.00  0.00     0.074 A 
ATOM     50  C   UNL A   1      41.657  30.970  35.495  1.00  0.00     0.031 C 
ATOM     51  C   UNL A   1      43.724  28.023  29.528  1.00  0.00     0.029 A 
ATOM     52  C   UNL A   1      42.390  28.597  29.480  1.00  0.00     0.049 A 
ATOM     53  H   UNL A   1      41.458  29.774  30.932  1.00  0.00     0.167 HD
ATOM     54  C   UNL A   1      39.469  31.692  34.572  1.00  0.00     0.034 A 
ATOM     55  C   UNL A   1      41.522  28.459  28.463  1.00  0.00     0.034 A 
ATOM     56  C   UNL A   1      38.533  31.750  33.461  1.00  0.00     0.049 A 
ATOM     57  C   UNL A   1      40.180  29.119  28.627  1.00  0.00     0.074 A 
ATOM     58  C   UNL A   1      37.301  32.372  33.383  1.00  0.00     0.029 A 
ATOM     59  N   UNL A   1      38.758  31.176  32.205  1.00  0.00    -0.354 N 
ATOM     60  N   UNL A   1      39.714  29.780  29.665  1.00  0.00    -0.248 NA
ATOM     61  C   UNL A   1      39.259  29.036  27.493  1.00  0.00     0.031 C 
ATOM     62  C   UNL A   1      36.772  32.152  32.104  1.00  0.00     0.029 A 
ATOM     63  C   UNL A   1      37.680  31.410  31.364  1.00  0.00     0.049 A 
ATOM     64  H   UNL A   1      39.568  30.676  31.952  1.00  0.00     0.167 HD
ATOM     65  C   UNL A   1      38.457  30.232  29.290  1.00  0.00     0.074 A 
ATOM     66  C   UNL A   1      38.249  29.774  27.927  1.00  0.00     0.031 C 
ATOM     67  C   UNL A   1      37.547  30.954  29.995  1.00  0.00     0.034 A 
BRANCH  54  68
ATOM     68  C   UNL A   1      39.167  32.440  35.871  1.00  0.00     0.023 A 
ATOM     69  C   UNL A   1      39.667  33.735  36.110  1.00  0.00     0.031 A 
ATOM     70  C   UNL A   1      38.314  31.921  36.854  1.00  0.00     0.131 A 
ATOM     71  C   UNL A   1      39.286  34.493  37.226  1.00  0.00     0.055 A 
ATOM     72  C   UNL A   1      37.930  32.672  37.978  1.00  0.00     0.041 A 
ATOM     73  F   UNL A   1      37.823  30.678  36.744  1.00  0.00    -0.206 F 
ATOM     74  C   UNL A   1      38.404  33.971  38.162  1.00  0.00     0.022 A 
BRANCH  71  75
ATOM     75  S   UNL A   1      39.960  36.170  37.407  1.00  0.00     0.124 S 
ATOM     76  O   UNL A   1      39.111  36.729  38.457  1.00  0.00    -0.237 OA
ATOM     77  O   UNL A   1      41.344  35.909  37.790  1.00  0.00    -0.237 OA
ATOM     78  O   UNL A   1      39.782  36.758  36.083  1.00  0.00    -0.744 OA
ENDBRANCH  71  75
ENDBRANCH  54  68
BRANCH  55  79
ATOM     79  C   UNL A   1      41.848  27.606  27.281  1.00  0.00     0.023 A 
ATOM     80  C   UNL A   1      41.724  26.209  27.319  1.00  0.00     0.031 A 
ATOM     81  C   UNL A   1      42.354  28.184  26.099  1.00  0.00     0.131 A 
ATOM     82  C   UNL A   1      42.163  25.436  26.231  1.00  0.00     0.055 A 
ATOM     83  C   UNL A   1      42.724  27.416  24.994  1.00  0.00     0.041 A 
ATOM     84  F   UNL A   1      42.495  29.516  25.998  1.00  0.00    -0.206 F 
ATOM     85  C   UNL A   1      42.648  26.030  25.064  1.00  0.00     0.022 A 
BRANCH  82  86
ATOM     86  S   UNL A   1      42.209  23.631  26.411  1.00  0.00     0.124 S 
ATOM     87  O   UNL A   1      42.922  23.479  27.674  1.00  0.00    -0.237 OA
ATOM     88  O   UNL A   1      40.791  23.292  26.429  1.00  0.00    -0.237 OA
ATOM     89  O   UNL A   1      42.940  23.189  25.225  1.00  0.00    -0.744 OA
ENDBRANCH  82  86
ENDBRANCH  55  79
BRANCH  67  90
ATOM     90  C   UNL A   1      36.301  31.335  29.239  1.00  0.00     0.023 A 
ATOM     91  C   UNL A   1      35.842  32.663  29.203  1.00  0.00     0.031 A 
ATOM     92  C   UNL A   1      35.538  30.345  28.599  1.00  0.00     0.131 A 
ATOM     93  C   UNL A   1      34.615  32.956  28.589  1.00  0.00     0.055 A 
ATOM     94  C   UNL A   1      34.347  30.653  27.942  1.00  0.00     0.041 A 
ATOM     95  F   UNL A   1      35.933  29.062  28.613  1.00  0.00    -0.206 F 
ATOM     96  C   UNL A   1      33.874  31.962  27.945  1.00  0.00     0.022 A 
BRANCH  93  97
ATOM     97  S   UNL A   1      33.958  34.640  28.723  1.00  0.00     0.124 S 
ATOM     98  O   UNL A   1      34.135  34.924  30.143  1.00  0.00    -0.237 OA
ATOM     99  O   UNL A   1      34.821  35.386  27.813  1.00  0.00    -0.237 OA
ATOM    100  O   UNL A   1      32.570  34.503  28.284  1.00  0.00    -0.744 OA
ENDBRANCH  93  97
ENDBRANCH  67  90
ENDBRANCH  41  42
ENDBRANCH  34  36
ENDBRANCH  33  34
ENDBRANCH  32  33
ENDBRANCH   1  32
TORSDOF 18
ENDMDL
MODEL 3
REMARK VINA RESULT:      -9.8      8.674     14.106
REMARK SMILES CC(=O)Oc1ccc([C@H]2Nc3c(C(=O)OCCOC(=O)c4ccc(-c5c6nc(c(-c7cc(S(=O)(=O)[O-])ccc7F)c7ccc([nH]7)c(-c7cc(S(=O)(=O)[O-])ccc7F)c7nc(c(-c8cc(S(=O)(=O)[O-])ccc8F)c8ccc5[nH]8)C=C7)C=C6)cc4)ccc([N+](=O)[O-])c3[C@H]3C=CC[C@@H]32)cc1
REMARK SMILES IDX 16 1 15 2 13 3 14 4 12 5 9 6 10 7 95 8 11 9 91 11 94 12
REMARK SMILES IDX 90 13 92 14 93 15 84 16 86 17 85 18 8 19 5 20 6 21 97 22
REMARK SMILES IDX 7 23 96 24 4 25 2 26 1 27 3 28 87 29 88 30 89 31 17 32 18 33
REMARK SMILES IDX 19 34 20 35 21 36 22 37 83 38 23 39 82 40 24 41 25 42 26 43
REMARK SMILES IDX 76 44 27 45 81 46 75 47 77 48 28 49 80 50 74 51 73 52 29 54
REMARK SMILES IDX 61 55 41 56 60 57 42 58 45 59 59 60 78 61 43 62 44 63 58 65
REMARK SMILES IDX 79 66 46 67 30 68 31 69 39 70 32 71 38 72 40 73 37 74 33 75
REMARK SMILES IDX 34 76 35 77 36 78 62 79 63 80 71 81 64 82 70 83 72 84 69 85
REMARK SMILES IDX 65 86 66 87 67 88 68 89 47 90 48 91 56 92 49 93 55 94 57 95
REMARK SMILES IDX 54 96 50 97 51 98 52 99 53 100
REMARK H PARENT 10 10 77 53 45 64
REMARK Flexibility Score: inf
ROOT
ATOM      1  C   UNL A   1      45.780  39.508  31.720  1.00  0.00     0.275 C 
ENDROOT
BRANCH   1   2
ATOM      2  O   UNL A   1      44.758  40.251  31.015  1.00  0.00    -0.458 OA
BRANCH   2   3
ATOM      3  C   UNL A   1      45.195  41.009  29.972  1.00  0.00     0.340 C 
ATOM      4  O   UNL A   1      46.019  41.910  30.049  1.00  0.00    -0.246 OA
BRANCH   3   5
ATOM      5  C   UNL A   1      44.249  40.899  28.841  1.00  0.00     0.084 A 
ATOM      6  C   UNL A   1      45.536  42.285  25.425  1.00  0.00     0.114 C 
ATOM      7  N   UNL A   1      45.561  41.868  26.873  1.00  0.00    -0.377 N 
ATOM      8  C   UNL A   1      44.108  42.749  25.142  1.00  0.00     0.031 C 
ATOM      9  C   UNL A   1      44.395  41.250  27.457  1.00  0.00     0.060 A 
ATOM     10  H   UNL A   1      46.367  42.017  27.416  1.00  0.00     0.161 HD
ATOM     11  C   UNL A   1      43.335  41.427  25.169  1.00  0.00     0.056 C 
ATOM     12  C   UNL A   1      43.694  43.481  23.867  1.00  0.00     0.034 C 
ATOM     13  C   UNL A   1      43.202  41.102  26.640  1.00  0.00     0.061 A 
ATOM     14  C   UNL A   1      42.207  41.702  24.236  1.00  0.00    -0.022 C 
ATOM     15  C   UNL A   1      42.412  42.808  23.515  1.00  0.00    -0.030 C 
ATOM     16  C   UNL A   1      43.002  40.485  29.371  1.00  0.00     0.025 A 
ATOM     17  C   UNL A   1      42.000  40.656  27.225  1.00  0.00     0.275 A 
ATOM     18  C   UNL A   1      41.881  40.368  28.578  1.00  0.00     0.087 A 
BRANCH   6  19
ATOM     19  C   UNL A   1      46.605  43.184  24.770  1.00  0.00    -0.025 A 
ATOM     20  C   UNL A   1      47.613  44.954  22.779  1.00  0.00     0.130 A 
ATOM     21  C   UNL A   1      47.651  43.575  22.579  1.00  0.00     0.047 A 
ATOM     22  C   UNL A   1      47.198  45.463  24.001  1.00  0.00     0.047 A 
ATOM     23  C   UNL A   1      47.180  42.702  23.571  1.00  0.00     0.010 A 
ATOM     24  C   UNL A   1      46.710  44.577  24.999  1.00  0.00     0.010 A 
BRANCH  20  25
ATOM     25  O   UNL A   1      48.061  45.738  21.674  1.00  0.00    -0.427 OA
BRANCH  25  26
ATOM     26  C   UNL A   1      47.380  46.354  20.614  1.00  0.00     0.308 C 
ATOM     27  C   UNL A   1      47.160  47.816  20.933  1.00  0.00     0.139 C 
ATOM     28  O   UNL A   1      47.035  45.806  19.577  1.00  0.00    -0.252 OA
ENDBRANCH  25  26
ENDBRANCH  20  25
ENDBRANCH   6  19
BRANCH  17  29
ATOM     29  N   UNL A   1      40.789  40.471  26.461  1.00  0.00     0.063 N 
ATOM     30  O   UNL A   1      40.714  39.456  25.757  1.00  0.00    -0.258 OA
ATOM     31  O   UNL A   1      39.954  41.386  26.512  1.00  0.00    -0.258 OA
ENDBRANCH  17  29
ENDBRANCH   3   5
ENDBRANCH   2   3
ENDBRANCH   1   2
BRANCH   1  32
ATOM     32  C   UNL A   1      46.438  38.450  30.835  1.00  0.00     0.275 C 
BRANCH  32  33
ATOM     33  O   UNL A   1      45.527  37.376  30.553  1.00  0.00    -0.458 OA
BRANCH  33  34
ATOM     34  C   UNL A   1      45.376  37.128  29.233  1.00  0.00     0.338 C 
ATOM     35  O   UNL A   1      45.367  37.930  28.317  1.00  0.00    -0.246 OA
BRANCH  34  36
ATOM     36  C   UNL A   1      45.345  35.685  28.992  1.00  0.00     0.060 A 
ATOM     37  C   UNL A   1      44.896  35.243  27.753  1.00  0.00     0.016 A 
ATOM     38  C   UNL A   1      45.504  34.795  30.045  1.00  0.00     0.016 A 
ATOM     39  C   UNL A   1      44.461  33.949  27.586  1.00  0.00     0.010 A 
ATOM     40  C   UNL A   1      45.176  33.454  29.841  1.00  0.00     0.010 A 
ATOM     41  C   UNL A   1      44.600  33.037  28.627  1.00  0.00    -0.014 A 
BRANCH  41  42
ATOM     42  C   UNL A   1      44.051  31.677  28.446  1.00  0.00     0.031 A 
ATOM     43  C   UNL A   1      44.834  30.687  27.624  1.00  0.00     0.074 A 
ATOM     44  C   UNL A   1      42.888  31.369  29.054  1.00  0.00     0.049 A 
ATOM     45  N   UNL A   1      44.483  29.512  27.177  1.00  0.00    -0.248 NA
ATOM     46  C   UNL A   1      46.188  31.097  27.210  1.00  0.00     0.031 C 
ATOM     47  C   UNL A   1      42.094  32.292  29.879  1.00  0.00     0.029 A 
ATOM     48  N   UNL A   1      42.153  30.216  29.064  1.00  0.00    -0.354 N 
ATOM     49  C   UNL A   1      45.567  29.049  26.432  1.00  0.00     0.074 A 
ATOM     50  C   UNL A   1      46.547  30.108  26.408  1.00  0.00     0.031 C 
ATOM     51  C   UNL A   1      40.976  31.678  30.288  1.00  0.00     0.029 A 
ATOM     52  C   UNL A   1      40.935  30.353  29.693  1.00  0.00     0.049 A 
ATOM     53  H   UNL A   1      42.464  29.373  28.662  1.00  0.00     0.167 HD
ATOM     54  C   UNL A   1      45.736  27.824  25.872  1.00  0.00     0.034 A 
ATOM     55  C   UNL A   1      39.876  29.525  29.713  1.00  0.00     0.034 A 
ATOM     56  C   UNL A   1      44.716  26.795  25.991  1.00  0.00     0.049 A 
ATOM     57  C   UNL A   1      40.039  28.203  29.015  1.00  0.00     0.074 A 
ATOM     58  C   UNL A   1      44.713  25.502  25.500  1.00  0.00     0.029 A 
ATOM     59  N   UNL A   1      43.514  26.947  26.690  1.00  0.00    -0.354 N 
ATOM     60  N   UNL A   1      41.073  27.760  28.333  1.00  0.00    -0.248 NA
ATOM     61  C   UNL A   1      38.917  27.268  29.098  1.00  0.00     0.031 C 
ATOM     62  C   UNL A   1      43.509  24.888  25.873  1.00  0.00     0.029 A 
ATOM     63  C   UNL A   1      42.760  25.784  26.620  1.00  0.00     0.049 A 
ATOM     64  H   UNL A   1      43.241  27.764  27.167  1.00  0.00     0.167 HD
ATOM     65  C   UNL A   1      40.742  26.470  27.942  1.00  0.00     0.074 A 
ATOM     66  C   UNL A   1      39.416  26.211  28.477  1.00  0.00     0.031 C 
ATOM     67  C   UNL A   1      41.453  25.575  27.208  1.00  0.00     0.034 A 
BRANCH  54  68
ATOM     68  C   UNL A   1      47.058  27.518  25.169  1.00  0.00     0.023 A 
ATOM     69  C   UNL A   1      47.185  27.595  23.767  1.00  0.00     0.031 A 
ATOM     70  C   UNL A   1      48.233  27.228  25.874  1.00  0.00     0.131 A 
ATOM     71  C   UNL A   1      48.419  27.461  23.116  1.00  0.00     0.055 A 
ATOM     72  C   UNL A   1      49.474  27.088  25.229  1.00  0.00     0.041 A 
ATOM     73  F   UNL A   1      48.210  27.086  27.208  1.00  0.00    -0.206 F 
ATOM     74  C   UNL A   1      49.575  27.219  23.845  1.00  0.00     0.022 A 
BRANCH  71  75
ATOM     75  S   UNL A   1      48.467  27.625  21.308  1.00  0.00     0.124 S 
ATOM     76  O   UNL A   1      47.165  28.223  21.021  1.00  0.00    -0.237 OA
ATOM     77  O   UNL A   1      49.618  28.499  21.105  1.00  0.00    -0.237 OA
ATOM     78  O   UNL A   1      48.638  26.252  20.841  1.00  0.00    -0.744 OA
ENDBRANCH  71  75
ENDBRANCH  54  68
BRANCH  55  79
ATOM     79  C   UNL A   1      38.576  29.951  30.315  1.00  0.00     0.023 A 
ATOM     80  C   UNL A   1      37.671  30.767  29.620  1.00  0.00     0.031 A 
ATOM     81  C   UNL A   1      38.247  29.589  31.637  1.00  0.00     0.131 A 
ATOM     82  C   UNL A   1      36.521  31.248  30.269  1.00  0.00     0.055 A 
ATOM     83  C   UNL A   1      37.069  30.014  32.253  1.00  0.00     0.041 A 
ATOM     84  F   UNL A   1      39.071  28.808  32.355  1.00  0.00    -0.206 F 
ATOM     85  C   UNL A   1      36.207  30.866  31.575  1.00  0.00     0.022 A 
BRANCH  82  86
ATOM     86  S   UNL A   1      35.502  32.489  29.422  1.00  0.00     0.124 S 
ATOM     87  O   UNL A   1      35.172  31.800  28.179  1.00  0.00    -0.237 OA
ATOM     88  O   UNL A   1      34.405  32.674  30.365  1.00  0.00    -0.237 OA
ATOM     89  O   UNL A   1      36.403  33.631  29.282  1.00  0.00    -0.744 OA
ENDBRANCH  82  86
ENDBRANCH  55  79
BRANCH  67  90
ATOM     90  C   UNL A   1      40.807  24.225  27.036  1.00  0.00     0.023 A 
ATOM     91  C   UNL A   1      39.625  24.066  26.291  1.00  0.00     0.031 A 
ATOM     92  C   UNL A   1      41.352  23.099  27.675  1.00  0.00     0.131 A 
ATOM     93  C   UNL A   1      38.991  22.816  26.255  1.00  0.00     0.055 A 
ATOM     94  C   UNL A   1      40.746  21.845  27.587  1.00  0.00     0.041 A 
ATOM     95  F   UNL A   1      42.475  23.204  28.403  1.00  0.00    -0.206 F 
ATOM     96  C   UNL A   1      39.553  21.702  26.884  1.00  0.00     0.022 A 
BRANCH  93  97
ATOM     97  S   UNL A   1      37.374  22.686  25.446  1.00  0.00     0.124 S 
ATOM     98  O   UNL A   1      37.490  23.669  24.374  1.00  0.00    -0.237 OA
ATOM     99  O   UNL A   1      37.345  21.288  25.028  1.00  0.00    -0.237 OA
ATOM    100  O   UNL A   1      36.431  23.033  26.508  1.00  0.00    -0.744 OA
ENDBRANCH  93  97
ENDBRANCH  67  90
ENDBRANCH  41  42
ENDBRANCH  34  36
ENDBRANCH  33  34
ENDBRANCH  32  33
ENDBRANCH   1  32
TORSDOF 18
ENDMDL
