MODEL 1
REMARK VINA RESULT:     -11.7      0.000      0.000
REMARK SMILES O=C(CC1(CC(=O)OCCOC(=O)c2ccc(-c3c4nc(c(-c5cc(S(=O)(=O)[O-])ccc5F)c5ccc([nH]5)c(-c5cc(S(=O)(=O)[O-])ccc5F)c5nc(c(-c6cc(S(=O)(=O)[O-])ccc6F)c6ccc3[nH]6)C=C5)C=C4)cc2)CCCC1)NNc1ccc([N+](=O)[O-])cc1
REMARK SMILES IDX 8 1 6 2 7 3 5 4 4 5 77 6 80 7 78 8 79 9 3 10 2 11 1 12 81 13
REMARK SMILES IDX 82 15 83 17 84 18 91 19 85 20 90 21 86 22 87 23 88 24 89 25
REMARK SMILES IDX 9 26 10 27 11 28 12 29 13 30 14 31 15 32 76 33 16 34 75 35
REMARK SMILES IDX 17 36 18 37 19 38 69 39 20 40 74 41 68 42 70 43 21 44 73 45
REMARK SMILES IDX 67 46 66 47 22 49 54 50 34 51 53 52 35 53 38 54 52 55 71 56
REMARK SMILES IDX 36 57 37 58 51 60 72 61 39 62 23 63 24 64 32 65 25 66 31 67
REMARK SMILES IDX 33 68 30 69 26 70 27 71 28 72 29 73 55 74 56 75 64 76 57 77
REMARK SMILES IDX 63 78 65 79 62 80 58 81 59 82 60 83 61 84 40 85 41 86 49 87
REMARK SMILES IDX 42 88 48 89 50 90 47 91 43 92 44 93 45 94 46 95
REMARK H PARENT 81 14 82 16 70 48 38 59
REMARK Flexibility Score: inf
ROOT
ATOM      1  O   UNL A   1      31.988  26.788  26.499  1.00  0.00    -0.462 OA
ENDROOT
BRANCH   1   2
ATOM      2  C   UNL A   1      33.165  26.604  25.818  1.00  0.00     0.306 C 
ATOM      3  O   UNL A   1      34.219  27.148  26.137  1.00  0.00    -0.252 OA
BRANCH   2   4
ATOM      4  C   UNL A   1      33.135  25.547  24.643  1.00  0.00     0.130 C 
BRANCH   4   5
ATOM      5  C   UNL A   1      33.071  24.017  24.943  1.00  0.00    -0.010 C 
ATOM      6  C   UNL A   1      33.737  23.518  26.256  1.00  0.00     0.008 C 
ATOM      7  C   UNL A   1      33.972  23.285  23.926  1.00  0.00     0.008 C 
ATOM      8  C   UNL A   1      35.226  23.432  26.020  1.00  0.00     0.001 C 
ATOM      9  C   UNL A   1      35.386  23.466  24.506  1.00  0.00     0.001 C 
BRANCH   5  10
ATOM     10  C   UNL A   1      31.637  23.529  25.156  1.00  0.00     0.109 C 
BRANCH  10  11
ATOM     11  C   UNL A   1      30.623  24.253  24.367  1.00  0.00     0.238 C 
ATOM     12  O   UNL A   1      30.486  23.841  23.221  1.00  0.00    -0.273 OA
ATOM     13  N   UNL A   1      29.937  25.312  24.987  1.00  0.00    -0.270 N 
ATOM     14  H   UNL A   1      30.197  25.632  25.881  1.00  0.00     0.191 HD
BRANCH  13  15
ATOM     15  N   UNL A   1      28.881  25.890  24.294  1.00  0.00    -0.299 N 
ATOM     16  H   UNL A   1      28.032  25.392  24.306  1.00  0.00     0.188 HD
BRANCH  15  17
ATOM     17  C   UNL A   1      28.877  27.099  23.581  1.00  0.00     0.055 A 
ATOM     18  C   UNL A   1      27.633  27.776  23.515  1.00  0.00     0.034 A 
ATOM     19  C   UNL A   1      29.982  27.716  23.009  1.00  0.00     0.034 A 
ATOM     20  C   UNL A   1      27.489  29.026  22.912  1.00  0.00     0.088 A 
ATOM     21  C   UNL A   1      29.855  28.977  22.391  1.00  0.00     0.088 A 
ATOM     22  C   UNL A   1      28.614  29.634  22.362  1.00  0.00     0.269 A 
BRANCH  22  23
ATOM     23  N   UNL A   1      28.491  30.973  21.768  1.00  0.00     0.062 N 
ATOM     24  O   UNL A   1      29.068  31.913  22.335  1.00  0.00    -0.258 OA
ATOM     25  O   UNL A   1      27.810  31.089  20.739  1.00  0.00    -0.258 OA
ENDBRANCH  22  23
ENDBRANCH  15  17
ENDBRANCH  13  15
ENDBRANCH  10  11
ENDBRANCH   5  10
ENDBRANCH   4   5
ENDBRANCH   2   4
ENDBRANCH   1   2
BRANCH   1  26
ATOM     26  C   UNL A   1      31.621  28.136  26.990  1.00  0.00     0.274 C 
BRANCH  26  27
ATOM     27  C   UNL A   1      31.570  29.337  25.908  1.00  0.00     0.275 C 
BRANCH  27  28
ATOM     28  O   UNL A   1      32.758  30.248  25.843  1.00  0.00    -0.458 OA
BRANCH  28  29
ATOM     29  C   UNL A   1      32.973  31.235  26.790  1.00  0.00     0.338 C 
ATOM     30  O   UNL A   1      32.157  32.122  27.077  1.00  0.00    -0.246 OA
BRANCH  29  31
ATOM     31  C   UNL A   1      34.325  31.088  27.491  1.00  0.00     0.060 A 
ATOM     32  C   UNL A   1      34.777  29.839  27.956  1.00  0.00     0.016 A 
ATOM     33  C   UNL A   1      35.163  32.166  27.765  1.00  0.00     0.016 A 
ATOM     34  C   UNL A   1      36.076  29.601  28.434  1.00  0.00     0.010 A 
ATOM     35  C   UNL A   1      36.430  31.961  28.386  1.00  0.00     0.010 A 
ATOM     36  C   UNL A   1      36.920  30.672  28.690  1.00  0.00    -0.014 A 
BRANCH  36  37
ATOM     37  C   UNL A   1      38.145  30.443  29.523  1.00  0.00     0.031 A 
ATOM     38  C   UNL A   1      39.225  29.557  28.952  1.00  0.00     0.074 A 
ATOM     39  C   UNL A   1      38.379  31.056  30.705  1.00  0.00     0.049 A 
ATOM     40  N   UNL A   1      40.267  29.019  29.532  1.00  0.00    -0.248 NA
ATOM     41  C   UNL A   1      39.112  29.251  27.518  1.00  0.00     0.031 C 
ATOM     42  C   UNL A   1      37.547  32.097  31.305  1.00  0.00     0.029 A 
ATOM     43  N   UNL A   1      39.397  30.881  31.622  1.00  0.00    -0.354 N 
ATOM     44  C   UNL A   1      40.902  28.266  28.549  1.00  0.00     0.074 A 
ATOM     45  C   UNL A   1      40.143  28.441  27.329  1.00  0.00     0.031 C 
ATOM     46  C   UNL A   1      38.059  32.432  32.505  1.00  0.00     0.029 A 
ATOM     47  C   UNL A   1      39.216  31.584  32.796  1.00  0.00     0.049 A 
ATOM     48  H   UNL A   1      40.180  30.309  31.453  1.00  0.00     0.167 HD
ATOM     49  C   UNL A   1      41.999  27.478  28.658  1.00  0.00     0.034 A 
ATOM     50  C   UNL A   1      39.862  31.503  33.985  1.00  0.00     0.034 A 
ATOM     51  C   UNL A   1      42.750  27.317  29.878  1.00  0.00     0.049 A 
ATOM     52  C   UNL A   1      41.000  30.510  34.136  1.00  0.00     0.074 A 
ATOM     53  C   UNL A   1      43.849  26.508  30.116  1.00  0.00     0.029 A 
ATOM     54  N   UNL A   1      42.482  27.978  31.068  1.00  0.00    -0.354 N 
ATOM     55  N   UNL A   1      41.524  29.708  33.237  1.00  0.00    -0.248 NA
ATOM     56  C   UNL A   1      41.623  30.403  35.464  1.00  0.00     0.031 C 
ATOM     57  C   UNL A   1      44.197  26.625  31.466  1.00  0.00     0.029 A 
ATOM     58  C   UNL A   1      43.372  27.574  32.049  1.00  0.00     0.049 A 
ATOM     59  H   UNL A   1      41.762  28.638  31.197  1.00  0.00     0.167 HD
ATOM     60  C   UNL A   1      42.555  29.026  33.886  1.00  0.00     0.074 A 
ATOM     61  C   UNL A   1      42.589  29.522  35.245  1.00  0.00     0.031 C 
ATOM     62  C   UNL A   1      43.398  28.077  33.403  1.00  0.00     0.034 A 
BRANCH  49  63
ATOM     63  C   UNL A   1      42.379  26.646  27.456  1.00  0.00     0.023 A 
ATOM     64  C   UNL A   1      42.018  25.294  27.329  1.00  0.00     0.031 A 
ATOM     65  C   UNL A   1      43.159  27.221  26.434  1.00  0.00     0.131 A 
ATOM     66  C   UNL A   1      42.489  24.547  26.236  1.00  0.00     0.055 A 
ATOM     67  C   UNL A   1      43.557  26.493  25.313  1.00  0.00     0.041 A 
ATOM     68  F   UNL A   1      43.557  28.500  26.517  1.00  0.00    -0.206 F 
ATOM     69  C   UNL A   1      43.234  25.143  25.216  1.00  0.00     0.022 A 
BRANCH  66  70
ATOM     70  S   UNL A   1      42.228  22.752  26.234  1.00  0.00     0.124 S 
ATOM     71  O   UNL A   1      40.775  22.665  26.362  1.00  0.00    -0.237 OA
ATOM     72  O   UNL A   1      42.779  22.355  24.943  1.00  0.00    -0.237 OA
ATOM     73  O   UNL A   1      42.978  22.294  27.401  1.00  0.00    -0.744 OA
ENDBRANCH  66  70
ENDBRANCH  49  63
BRANCH  50  74
ATOM     74  C   UNL A   1      39.391  32.281  35.178  1.00  0.00     0.023 A 
ATOM     75  C   UNL A   1      39.817  33.600  35.420  1.00  0.00     0.031 A 
ATOM     76  C   UNL A   1      38.583  31.672  36.158  1.00  0.00     0.131 A 
ATOM     77  C   UNL A   1      39.470  34.246  36.622  1.00  0.00     0.055 A 
ATOM     78  C   UNL A   1      38.191  32.338  37.321  1.00  0.00     0.041 A 
ATOM     79  F   UNL A   1      38.166  30.406  36.001  1.00  0.00    -0.206 F 
ATOM     80  C   UNL A   1      38.647  33.628  37.566  1.00  0.00     0.022 A 
BRANCH  77  81
ATOM     81  S   UNL A   1      40.197  35.870  36.990  1.00  0.00     0.124 S 
ATOM     82  O   UNL A   1      39.571  36.194  38.266  1.00  0.00    -0.237 OA
ATOM     83  O   UNL A   1      41.622  35.558  37.034  1.00  0.00    -0.237 OA
ATOM     84  O   UNL A   1      39.777  36.696  35.860  1.00  0.00    -0.744 OA
ENDBRANCH  77  81
ENDBRANCH  50  74
BRANCH  62  85
ATOM     85  C   UNL A   1      44.473  27.562  34.332  1.00  0.00     0.023 A 
ATOM     86  C   UNL A   1      44.281  26.423  35.134  1.00  0.00     0.031 A 
ATOM     87  C   UNL A   1      45.711  28.225  34.411  1.00  0.00     0.131 A 
ATOM     88  C   UNL A   1      45.292  26.016  36.020  1.00  0.00     0.055 A 
ATOM     89  C   UNL A   1      46.734  27.778  35.248  1.00  0.00     0.041 A 
ATOM     90  F   UNL A   1      45.949  29.318  33.667  1.00  0.00    -0.206 F 
ATOM     91  C   UNL A   1      46.523  26.675  36.069  1.00  0.00     0.022 A 
BRANCH  88  92
ATOM     92  S   UNL A   1      44.943  24.664  37.179  1.00  0.00     0.124 S 
ATOM     93  O   UNL A   1      46.116  24.698  38.046  1.00  0.00    -0.237 OA
ATOM     94  O   UNL A   1      43.687  25.090  37.788  1.00  0.00    -0.237 OA
ATOM     95  O   UNL A   1      44.844  23.488  36.316  1.00  0.00    -0.744 OA
ENDBRANCH  88  92
ENDBRANCH  62  85
ENDBRANCH  36  37
ENDBRANCH  29  31
ENDBRANCH  28  29
ENDBRANCH  27  28
ENDBRANCH  26  27
ENDBRANCH   1  26
TORSDOF 20
ENDMDL
MODEL 2
REMARK VINA RESULT:     -11.7      2.533      4.753
REMARK SMILES O=C(CC1(CC(=O)OCCOC(=O)c2ccc(-c3c4nc(c(-c5cc(S(=O)(=O)[O-])ccc5F)c5ccc([nH]5)c(-c5cc(S(=O)(=O)[O-])ccc5F)c5nc(c(-c6cc(S(=O)(=O)[O-])ccc6F)c6ccc3[nH]6)C=C5)C=C4)cc2)CCCC1)NNc1ccc([N+](=O)[O-])cc1
REMARK SMILES IDX 8 1 6 2 7 3 5 4 4 5 77 6 80 7 78 8 79 9 3 10 2 11 1 12 81 13
REMARK SMILES IDX 82 15 83 17 84 18 91 19 85 20 90 21 86 22 87 23 88 24 89 25
REMARK SMILES IDX 9 26 10 27 11 28 12 29 13 30 14 31 15 32 76 33 16 34 75 35
REMARK SMILES IDX 17 36 18 37 19 38 69 39 20 40 74 41 68 42 70 43 21 44 73 45
REMARK SMILES IDX 67 46 66 47 22 49 54 50 34 51 53 52 35 53 38 54 52 55 71 56
REMARK SMILES IDX 36 57 37 58 51 60 72 61 39 62 23 63 24 64 32 65 25 66 31 67
REMARK SMILES IDX 33 68 30 69 26 70 27 71 28 72 29 73 55 74 56 75 64 76 57 77
REMARK SMILES IDX 63 78 65 79 62 80 58 81 59 82 60 83 61 84 40 85 41 86 49 87
REMARK SMILES IDX 42 88 48 89 50 90 47 91 43 92 44 93 45 94 46 95
REMARK H PARENT 81 14 82 16 70 48 38 59
REMARK Flexibility Score: inf
ROOT
ATOM      1  O   UNL A   1      33.617  27.580  23.107  1.00  0.00    -0.462 OA
ENDROOT
BRANCH   1   2
ATOM      2  C   UNL A   1      33.558  26.221  22.925  1.00  0.00     0.306 C 
ATOM      3  O   UNL A   1      34.005  25.654  21.930  1.00  0.00    -0.252 OA
BRANCH   2   4
ATOM      4  C   UNL A   1      32.980  25.379  24.132  1.00  0.00     0.130 C 
BRANCH   4   5
ATOM      5  C   UNL A   1      31.487  24.925  24.148  1.00  0.00    -0.010 C 
ATOM      6  C   UNL A   1      30.446  25.869  23.487  1.00  0.00     0.008 C 
ATOM      7  C   UNL A   1      30.977  24.989  25.603  1.00  0.00     0.008 C 
ATOM      8  C   UNL A   1      30.142  26.982  24.460  1.00  0.00     0.001 C 
ATOM      9  C   UNL A   1      30.655  26.482  25.803  1.00  0.00     0.001 C 
BRANCH   5  10
ATOM     10  C   UNL A   1      31.262  23.649  23.336  1.00  0.00     0.109 C 
BRANCH  10  11
ATOM     11  C   UNL A   1      32.324  22.636  23.483  1.00  0.00     0.238 C 
ATOM     12  O   UNL A   1      33.027  22.493  22.490  1.00  0.00    -0.273 OA
ATOM     13  N   UNL A   1      32.419  21.954  24.708  1.00  0.00    -0.270 N 
ATOM     14  H   UNL A   1      31.737  22.069  25.409  1.00  0.00     0.191 HD
BRANCH  13  15
ATOM     15  N   UNL A   1      33.510  21.114  24.897  1.00  0.00    -0.299 N 
ATOM     16  H   UNL A   1      34.378  21.556  25.029  1.00  0.00     0.188 HD
BRANCH  15  17
ATOM     17  C   UNL A   1      33.522  19.711  24.921  1.00  0.00     0.055 A 
ATOM     18  C   UNL A   1      34.734  19.094  24.519  1.00  0.00     0.034 A 
ATOM     19  C   UNL A   1      32.494  18.890  25.368  1.00  0.00     0.034 A 
ATOM     20  C   UNL A   1      34.926  17.713  24.568  1.00  0.00     0.088 A 
ATOM     21  C   UNL A   1      32.669  17.492  25.419  1.00  0.00     0.088 A 
ATOM     22  C   UNL A   1      33.890  16.911  25.037  1.00  0.00     0.269 A 
BRANCH  22  23
ATOM     23  N   UNL A   1      34.093  15.460  25.143  1.00  0.00     0.062 N 
ATOM     24  O   UNL A   1      33.103  14.725  25.007  1.00  0.00    -0.258 OA
ATOM     25  O   UNL A   1      35.240  15.051  25.371  1.00  0.00    -0.258 OA
ENDBRANCH  22  23
ENDBRANCH  15  17
ENDBRANCH  13  15
ENDBRANCH  10  11
ENDBRANCH   5  10
ENDBRANCH   4   5
ENDBRANCH   2   4
ENDBRANCH   1   2
BRANCH   1  26
ATOM     26  C   UNL A   1      33.658  28.142  24.476  1.00  0.00     0.274 C 
BRANCH  26  27
ATOM     27  C   UNL A   1      32.866  29.527  24.739  1.00  0.00     0.275 C 
BRANCH  27  28
ATOM     28  O   UNL A   1      32.415  29.800  26.142  1.00  0.00    -0.458 OA
BRANCH  28  29
ATOM     29  C   UNL A   1      32.747  30.972  26.800  1.00  0.00     0.338 C 
ATOM     30  O   UNL A   1      32.022  31.974  26.860  1.00  0.00    -0.246 OA
BRANCH  29  31
ATOM     31  C   UNL A   1      34.107  30.884  27.498  1.00  0.00     0.060 A 
ATOM     32  C   UNL A   1      34.603  29.660  27.983  1.00  0.00     0.016 A 
ATOM     33  C   UNL A   1      34.907  31.996  27.751  1.00  0.00     0.016 A 
ATOM     34  C   UNL A   1      35.912  29.476  28.460  1.00  0.00     0.010 A 
ATOM     35  C   UNL A   1      36.183  31.846  28.369  1.00  0.00     0.010 A 
ATOM     36  C   UNL A   1      36.719  30.580  28.693  1.00  0.00    -0.014 A 
BRANCH  36  37
ATOM     37  C   UNL A   1      37.954  30.409  29.525  1.00  0.00     0.031 A 
ATOM     38  C   UNL A   1      39.062  29.549  28.966  1.00  0.00     0.074 A 
ATOM     39  C   UNL A   1      38.172  31.052  30.694  1.00  0.00     0.049 A 
ATOM     40  N   UNL A   1      40.123  29.058  29.551  1.00  0.00    -0.248 NA
ATOM     41  C   UNL A   1      38.953  29.213  27.538  1.00  0.00     0.031 C 
ATOM     42  C   UNL A   1      37.306  32.074  31.278  1.00  0.00     0.029 A 
ATOM     43  N   UNL A   1      39.198  30.929  31.610  1.00  0.00    -0.354 N 
ATOM     44  C   UNL A   1      40.780  28.309  28.579  1.00  0.00     0.074 A 
ATOM     45  C   UNL A   1      40.010  28.435  27.360  1.00  0.00     0.031 C 
ATOM     46  C   UNL A   1      37.811  32.449  32.470  1.00  0.00     0.029 A 
ATOM     47  C   UNL A   1      38.998  31.646  32.772  1.00  0.00     0.049 A 
ATOM     48  H   UNL A   1      40.000  30.380  31.449  1.00  0.00     0.167 HD
ATOM     49  C   UNL A   1      41.903  27.561  28.699  1.00  0.00     0.034 A 
ATOM     50  C   UNL A   1      39.650  31.610  33.959  1.00  0.00     0.034 A 
ATOM     51  C   UNL A   1      42.664  27.448  29.918  1.00  0.00     0.049 A 
ATOM     52  C   UNL A   1      40.823  30.660  34.124  1.00  0.00     0.074 A 
ATOM     53  C   UNL A   1      43.791  26.682  30.166  1.00  0.00     0.029 A 
ATOM     54  N   UNL A   1      42.378  28.122  31.097  1.00  0.00    -0.354 N 
ATOM     55  N   UNL A   1      41.370  29.859  33.238  1.00  0.00    -0.248 NA
ATOM     56  C   UNL A   1      41.454  30.598  35.450  1.00  0.00     0.031 C 
ATOM     57  C   UNL A   1      44.140  26.836  31.512  1.00  0.00     0.029 A 
ATOM     58  C   UNL A   1      43.286  27.767  32.081  1.00  0.00     0.049 A 
ATOM     59  H   UNL A   1      41.637  28.759  31.217  1.00  0.00     0.167 HD
ATOM     60  C   UNL A   1      42.426  29.225  33.895  1.00  0.00     0.074 A 
ATOM     61  C   UNL A   1      42.449  29.747  35.244  1.00  0.00     0.031 C 
ATOM     62  C   UNL A   1      43.299  28.296  33.425  1.00  0.00     0.034 A 
BRANCH  49  63
ATOM     63  C   UNL A   1      42.307  26.720  27.511  1.00  0.00     0.023 A 
ATOM     64  C   UNL A   1      41.980  25.358  27.404  1.00  0.00     0.031 A 
ATOM     65  C   UNL A   1      43.076  27.298  26.481  1.00  0.00     0.131 A 
ATOM     66  C   UNL A   1      42.472  24.606  26.324  1.00  0.00     0.055 A 
ATOM     67  C   UNL A   1      43.495  26.563  25.373  1.00  0.00     0.041 A 
ATOM     68  F   UNL A   1      43.442  28.588  26.545  1.00  0.00    -0.206 F 
ATOM     69  C   UNL A   1      43.205  25.204  25.296  1.00  0.00     0.022 A 
BRANCH  66  70
ATOM     70  S   UNL A   1      42.256  22.805  26.349  1.00  0.00     0.124 S 
ATOM     71  O   UNL A   1      43.189  22.410  27.401  1.00  0.00    -0.237 OA
ATOM     72  O   UNL A   1      40.839  22.661  26.667  1.00  0.00    -0.237 OA
ATOM     73  O   UNL A   1      42.637  22.394  24.999  1.00  0.00    -0.744 OA
ENDBRANCH  66  70
ENDBRANCH  49  63
BRANCH  50  74
ATOM     74  C   UNL A   1      39.158  32.394  35.140  1.00  0.00     0.023 A 
ATOM     75  C   UNL A   1      39.624  33.692  35.416  1.00  0.00     0.031 A 
ATOM     76  C   UNL A   1      38.283  31.807  36.075  1.00  0.00     0.131 A 
ATOM     77  C   UNL A   1      39.250  34.338  36.609  1.00  0.00     0.055 A 
ATOM     78  C   UNL A   1      37.866  32.476  37.228  1.00  0.00     0.041 A 
ATOM     79  F   UNL A   1      37.823  30.561  35.884  1.00  0.00    -0.206 F 
ATOM     80  C   UNL A   1      38.361  33.745  37.508  1.00  0.00     0.022 A 
BRANCH  77  81
ATOM     81  S   UNL A   1      40.024  35.928  37.029  1.00  0.00     0.124 S 
ATOM     82  O   UNL A   1      41.327  35.503  37.524  1.00  0.00    -0.237 OA
ATOM     83  O   UNL A   1      40.018  36.614  35.741  1.00  0.00    -0.237 OA
ATOM     84  O   UNL A   1      39.126  36.490  38.036  1.00  0.00    -0.744 OA
ENDBRANCH  77  81
ENDBRANCH  50  74
BRANCH  62  85
ATOM     85  C   UNL A   1      44.394  27.835  34.359  1.00  0.00     0.023 A 
ATOM     86  C   UNL A   1      44.249  26.700  35.176  1.00  0.00     0.031 A 
ATOM     87  C   UNL A   1      45.606  28.547  34.427  1.00  0.00     0.131 A 
ATOM     88  C   UNL A   1      45.275  26.344  36.066  1.00  0.00     0.055 A 
ATOM     89  C   UNL A   1      46.647  28.151  35.268  1.00  0.00     0.041 A 
ATOM     90  F   UNL A   1      45.800  29.639  33.669  1.00  0.00    -0.206 F 
ATOM     91  C   UNL A   1      46.480  27.052  36.104  1.00  0.00     0.022 A 
BRANCH  88  92
ATOM     92  S   UNL A   1      44.981  24.995  37.243  1.00  0.00     0.124 S 
ATOM     93  O   UNL A   1      46.295  24.836  37.857  1.00  0.00    -0.237 OA
ATOM     94  O   UNL A   1      43.939  25.551  38.100  1.00  0.00    -0.237 OA
ATOM     95  O   UNL A   1      44.555  23.885  36.393  1.00  0.00    -0.744 OA
ENDBRANCH  88  92
ENDBRANCH  62  85
ENDBRANCH  36  37
ENDBRANCH  29  31
ENDBRANCH  28  29
ENDBRANCH  27  28
ENDBRANCH  26  27
ENDBRANCH   1  26
TORSDOF 20
ENDMDL
MODEL 3
REMARK VINA RESULT:     -11.7      1.588      2.010
REMARK SMILES O=C(CC1(CC(=O)OCCOC(=O)c2ccc(-c3c4nc(c(-c5cc(S(=O)(=O)[O-])ccc5F)c5ccc([nH]5)c(-c5cc(S(=O)(=O)[O-])ccc5F)c5nc(c(-c6cc(S(=O)(=O)[O-])ccc6F)c6ccc3[nH]6)C=C5)C=C4)cc2)CCCC1)NNc1ccc([N+](=O)[O-])cc1
REMARK SMILES IDX 8 1 6 2 7 3 5 4 4 5 77 6 80 7 78 8 79 9 3 10 2 11 1 12 81 13
REMARK SMILES IDX 82 15 83 17 84 18 91 19 85 20 90 21 86 22 87 23 88 24 89 25
REMARK SMILES IDX 9 26 10 27 11 28 12 29 13 30 14 31 15 32 76 33 16 34 75 35
REMARK SMILES IDX 17 36 18 37 19 38 69 39 20 40 74 41 68 42 70 43 21 44 73 45
REMARK SMILES IDX 67 46 66 47 22 49 54 50 34 51 53 52 35 53 38 54 52 55 71 56
REMARK SMILES IDX 36 57 37 58 51 60 72 61 39 62 23 63 24 64 32 65 25 66 31 67
REMARK SMILES IDX 33 68 30 69 26 70 27 71 28 72 29 73 55 74 56 75 64 76 57 77
REMARK SMILES IDX 63 78 65 79 62 80 58 81 59 82 60 83 61 84 40 85 41 86 49 87
REMARK SMILES IDX 42 88 48 89 50 90 47 91 43 92 44 93 45 94 46 95
REMARK H PARENT 81 14 82 16 70 48 38 59
REMARK Flexibility Score: inf
ROOT
ATOM      1  O   UNL A   1      33.158  27.610  22.958  1.00  0.00    -0.462 OA
ENDROOT
BRANCH   1   2
ATOM      2  C   UNL A   1      33.593  26.320  22.785  1.00  0.00     0.306 C 
ATOM      3  O   UNL A   1      33.785  25.816  21.681  1.00  0.00    -0.252 OA
BRANCH   2   4
ATOM      4  C   UNL A   1      33.955  25.522  24.101  1.00  0.00     0.130 C 
BRANCH   4   5
ATOM      5  C   UNL A   1      32.849  24.792  24.924  1.00  0.00    -0.010 C 
ATOM      6  C   UNL A   1      33.317  23.796  26.022  1.00  0.00     0.008 C 
ATOM      7  C   UNL A   1      32.129  23.796  23.991  1.00  0.00     0.008 C 
ATOM      8  C   UNL A   1      33.700  22.502  25.345  1.00  0.00     0.001 C 
ATOM      9  C   UNL A   1      33.079  22.585  23.958  1.00  0.00     0.001 C 
BRANCH   5  10
ATOM     10  C   UNL A   1      32.018  25.762  25.765  1.00  0.00     0.109 C 
BRANCH  10  11
ATOM     11  C   UNL A   1      30.666  26.023  25.235  1.00  0.00     0.238 C 
ATOM     12  O   UNL A   1      29.757  25.582  25.927  1.00  0.00    -0.273 OA
ATOM     13  N   UNL A   1      30.559  26.729  24.023  1.00  0.00    -0.270 N 
ATOM     14  H   UNL A   1      31.356  26.948  23.490  1.00  0.00     0.191 HD
BRANCH  13  15
ATOM     15  N   UNL A   1      29.288  27.105  23.606  1.00  0.00    -0.299 N 
ATOM     16  H   UNL A   1      28.590  26.414  23.669  1.00  0.00     0.188 HD
BRANCH  15  17
ATOM     17  C   UNL A   1      28.878  28.350  23.106  1.00  0.00     0.055 A 
ATOM     18  C   UNL A   1      29.859  29.085  22.392  1.00  0.00     0.034 A 
ATOM     19  C   UNL A   1      27.597  28.883  23.183  1.00  0.00     0.034 A 
ATOM     20  C   UNL A   1      29.579  30.301  21.766  1.00  0.00     0.088 A 
ATOM     21  C   UNL A   1      27.298  30.113  22.561  1.00  0.00     0.088 A 
ATOM     22  C   UNL A   1      28.284  30.806  21.840  1.00  0.00     0.269 A 
BRANCH  22  23
ATOM     23  N   UNL A   1      27.960  32.060  21.145  1.00  0.00     0.062 N 
ATOM     24  O   UNL A   1      27.557  31.985  19.974  1.00  0.00    -0.258 OA
ATOM     25  O   UNL A   1      28.116  33.122  21.764  1.00  0.00    -0.258 OA
ENDBRANCH  22  23
ENDBRANCH  15  17
ENDBRANCH  13  15
ENDBRANCH  10  11
ENDBRANCH   5  10
ENDBRANCH   4   5
ENDBRANCH   2   4
ENDBRANCH   1   2
BRANCH   1  26
ATOM     26  C   UNL A   1      33.726  28.442  24.044  1.00  0.00     0.274 C 
BRANCH  26  27
ATOM     27  C   UNL A   1      32.747  29.518  24.751  1.00  0.00     0.275 C 
BRANCH  27  28
ATOM     28  O   UNL A   1      32.781  29.592  26.247  1.00  0.00    -0.458 OA
BRANCH  28  29
ATOM     29  C   UNL A   1      33.098  30.765  26.912  1.00  0.00     0.338 C 
ATOM     30  O   UNL A   1      32.345  31.743  27.010  1.00  0.00    -0.246 OA
BRANCH  29  31
ATOM     31  C   UNL A   1      34.481  30.710  27.565  1.00  0.00     0.060 A 
ATOM     32  C   UNL A   1      35.058  29.487  27.957  1.00  0.00     0.016 A 
ATOM     33  C   UNL A   1      35.228  31.847  27.866  1.00  0.00     0.016 A 
ATOM     34  C   UNL A   1      36.389  29.347  28.386  1.00  0.00     0.010 A 
ATOM     35  C   UNL A   1      36.529  31.730  28.439  1.00  0.00     0.010 A 
ATOM     36  C   UNL A   1      37.141  30.479  28.667  1.00  0.00    -0.014 A 
BRANCH  36  37
ATOM     37  C   UNL A   1      38.409  30.325  29.452  1.00  0.00     0.031 A 
ATOM     38  C   UNL A   1      39.495  29.454  28.866  1.00  0.00     0.074 A 
ATOM     39  C   UNL A   1      38.673  30.992  30.598  1.00  0.00     0.049 A 
ATOM     40  N   UNL A   1      40.579  28.976  29.419  1.00  0.00    -0.248 NA
ATOM     41  C   UNL A   1      39.330  29.088  27.452  1.00  0.00     0.031 C 
ATOM     42  C   UNL A   1      37.830  32.027  31.194  1.00  0.00     0.029 A 
ATOM     43  N   UNL A   1      39.735  30.889  31.474  1.00  0.00    -0.354 N 
ATOM     44  C   UNL A   1      41.198  28.207  28.438  1.00  0.00     0.074 A 
ATOM     45  C   UNL A   1      40.380  28.307  27.248  1.00  0.00     0.031 C 
ATOM     46  C   UNL A   1      38.382  32.427  32.356  1.00  0.00     0.029 A 
ATOM     47  C   UNL A   1      39.581  31.631  32.627  1.00  0.00     0.049 A 
ATOM     48  H   UNL A   1      40.530  30.338  31.292  1.00  0.00     0.167 HD
ATOM     49  C   UNL A   1      42.326  27.462  28.528  1.00  0.00     0.034 A 
ATOM     50  C   UNL A   1      40.280  31.620  33.787  1.00  0.00     0.034 A 
ATOM     51  C   UNL A   1      43.135  27.375  29.718  1.00  0.00     0.049 A 
ATOM     52  C   UNL A   1      41.459  30.674  33.926  1.00  0.00     0.074 A 
ATOM     53  C   UNL A   1      44.272  26.615  29.937  1.00  0.00     0.029 A 
ATOM     54  N   UNL A   1      42.895  28.074  30.893  1.00  0.00    -0.354 N 
ATOM     55  N   UNL A   1      41.972  29.855  33.035  1.00  0.00    -0.248 NA
ATOM     56  C   UNL A   1      42.144  30.641  35.227  1.00  0.00     0.031 C 
ATOM     57  C   UNL A   1      44.674  26.798  31.264  1.00  0.00     0.029 A 
ATOM     58  C   UNL A   1      43.842  27.740  31.847  1.00  0.00     0.049 A 
ATOM     59  H   UNL A   1      42.159  28.713  31.029  1.00  0.00     0.167 HD
ATOM     60  C   UNL A   1      43.054  29.235  33.663  1.00  0.00     0.074 A 
ATOM     61  C   UNL A   1      43.130  29.786  34.998  1.00  0.00     0.031 C 
ATOM     62  C   UNL A   1      43.909  28.297  33.178  1.00  0.00     0.034 A 
BRANCH  49  63
ATOM     63  C   UNL A   1      42.683  26.597  27.343  1.00  0.00     0.023 A 
ATOM     64  C   UNL A   1      42.241  25.269  27.217  1.00  0.00     0.031 A 
ATOM     65  C   UNL A   1      43.523  27.111  26.336  1.00  0.00     0.131 A 
ATOM     66  C   UNL A   1      42.690  24.483  26.143  1.00  0.00     0.055 A 
ATOM     67  C   UNL A   1      43.903  26.349  25.231  1.00  0.00     0.041 A 
ATOM     68  F   UNL A   1      43.999  28.364  26.419  1.00  0.00    -0.206 F 
ATOM     69  C   UNL A   1      43.497  25.021  25.137  1.00  0.00     0.022 A 
BRANCH  66  70
ATOM     70  S   UNL A   1      42.317  22.709  26.147  1.00  0.00     0.124 S 
ATOM     71  O   UNL A   1      42.776  22.307  24.820  1.00  0.00    -0.237 OA
ATOM     72  O   UNL A   1      43.110  22.222  27.271  1.00  0.00    -0.237 OA
ATOM     73  O   UNL A   1      40.869  22.662  26.339  1.00  0.00    -0.744 OA
ENDBRANCH  66  70
ENDBRANCH  49  63
BRANCH  50  74
ATOM     74  C   UNL A   1      39.835  32.429  34.971  1.00  0.00     0.023 A 
ATOM     75  C   UNL A   1      39.100  31.859  36.026  1.00  0.00     0.031 A 
ATOM     76  C   UNL A   1      40.053  33.820  35.010  1.00  0.00     0.131 A 
ATOM     77  C   UNL A   1      38.577  32.677  37.045  1.00  0.00     0.055 A 
ATOM     78  C   UNL A   1      39.584  34.619  36.056  1.00  0.00     0.041 A 
ATOM     79  F   UNL A   1      40.724  34.430  34.021  1.00  0.00    -0.206 F 
ATOM     80  C   UNL A   1      38.828  34.050  37.075  1.00  0.00     0.022 A 
BRANCH  77  81
ATOM     81  S   UNL A   1      37.468  31.941  38.282  1.00  0.00     0.124 S 
ATOM     82  O   UNL A   1      38.264  32.052  39.498  1.00  0.00    -0.237 OA
ATOM     83  O   UNL A   1      36.301  32.813  38.196  1.00  0.00    -0.237 OA
ATOM     84  O   UNL A   1      37.264  30.580  37.790  1.00  0.00    -0.744 OA
ENDBRANCH  77  81
ENDBRANCH  50  74
BRANCH  62  85
ATOM     85  C   UNL A   1      45.041  27.856  34.077  1.00  0.00     0.023 A 
ATOM     86  C   UNL A   1      44.924  26.748  34.934  1.00  0.00     0.031 A 
ATOM     87  C   UNL A   1      46.259  28.561  34.070  1.00  0.00     0.131 A 
ATOM     88  C   UNL A   1      45.987  26.411  35.788  1.00  0.00     0.055 A 
ATOM     89  C   UNL A   1      47.333  28.183  34.876  1.00  0.00     0.041 A 
ATOM     90  F   UNL A   1      46.427  29.628  33.271  1.00  0.00    -0.206 F 
ATOM     91  C   UNL A   1      47.196  27.110  35.752  1.00  0.00     0.022 A 
BRANCH  88  92
ATOM     92  S   UNL A   1      45.736  25.101  37.018  1.00  0.00     0.124 S 
ATOM     93  O   UNL A   1      46.400  25.657  38.193  1.00  0.00    -0.237 OA
ATOM     94  O   UNL A   1      44.281  25.013  37.089  1.00  0.00    -0.237 OA
ATOM     95  O   UNL A   1      46.397  23.941  36.423  1.00  0.00    -0.744 OA
ENDBRANCH  88  92
ENDBRANCH  62  85
ENDBRANCH  36  37
ENDBRANCH  29  31
ENDBRANCH  28  29
ENDBRANCH  27  28
ENDBRANCH  26  27
ENDBRANCH   1  26
TORSDOF 20
ENDMDL
