MODEL 1
REMARK VINA RESULT:     -11.9      0.000      0.000
REMARK SMILES C[C@@H](C(=O)OCCOC(=O)c1ccc(-c2c3nc(c(-c4cc(S(=O)(=O)[O-])ccc4F)c4ccc([nH]4)c(-c4cc(S(=O)(=O)[O-])ccc4F)c4nc(c(-c5cc(S(=O)(=O)[O-])ccc5F)c5ccc2[nH]5)C=C4)C=C3)cc1)c1ccc(C[C@H]2CCC[C@H]2O)cc1-c1ccc(O)cc1
REMARK SMILES IDX 6 1 5 2 3 3 4 4 2 5 1 6 74 7 75 8 86 9 76 10 85 11 77 12
REMARK SMILES IDX 87 13 88 14 93 15 89 16 92 17 90 18 91 19 78 21 79 22 80 23
REMARK SMILES IDX 83 24 81 25 82 26 84 27 7 29 8 30 9 31 10 32 11 33 12 34
REMARK SMILES IDX 73 35 13 36 72 37 14 38 15 39 16 40 66 41 17 42 71 43 65 44
REMARK SMILES IDX 67 45 18 46 70 47 64 48 63 49 19 51 51 52 31 53 50 54 32 55
REMARK SMILES IDX 35 56 49 57 68 58 33 59 34 60 48 62 69 63 36 64 20 65 21 66
REMARK SMILES IDX 29 67 22 68 28 69 30 70 27 71 23 72 24 73 25 74 26 75 52 76
REMARK SMILES IDX 53 77 61 78 54 79 60 80 62 81 59 82 55 83 56 84 57 85 58 86
REMARK SMILES IDX 37 87 38 88 46 89 39 90 45 91 47 92 44 93 40 94 41 95 42 96
REMARK SMILES IDX 43 97
REMARK H PARENT 91 20 84 28 67 50 35 61
REMARK Flexibility Score: inf
ROOT
ATOM      1  C   UNL A   1      31.900  27.657  25.237  1.00  0.00     0.274 C 
ENDROOT
BRANCH   1   2
ATOM      2  O   UNL A   1      33.134  27.067  24.783  1.00  0.00    -0.462 OA
BRANCH   2   3
ATOM      3  C   UNL A   1      33.367  25.794  25.222  1.00  0.00     0.313 C 
ATOM      4  O   UNL A   1      33.146  25.493  26.388  1.00  0.00    -0.252 OA
BRANCH   3   5
ATOM      5  C   UNL A   1      34.017  24.875  24.127  1.00  0.00     0.127 C 
ATOM      6  C   UNL A   1      33.667  25.461  22.746  1.00  0.00     0.025 C 
BRANCH   5   7
ATOM      7  C   UNL A   1      33.717  23.349  24.290  1.00  0.00    -0.026 A 
ATOM      8  C   UNL A   1      32.419  22.903  23.983  1.00  0.00     0.005 A 
ATOM      9  C   UNL A   1      34.632  22.336  24.705  1.00  0.00    -0.014 A 
ATOM     10  C   UNL A   1      32.095  21.559  23.825  1.00  0.00     0.004 A 
ATOM     11  C   UNL A   1      34.235  20.963  24.638  1.00  0.00     0.012 A 
ATOM     12  C   UNL A   1      32.979  20.558  24.167  1.00  0.00    -0.047 A 
BRANCH   9  13
ATOM     13  C   UNL A   1      35.990  22.596  25.215  1.00  0.00    -0.018 A 
ATOM     14  C   UNL A   1      37.011  21.639  25.069  1.00  0.00     0.012 A 
ATOM     15  C   UNL A   1      36.303  23.807  25.860  1.00  0.00     0.012 A 
ATOM     16  C   UNL A   1      38.316  21.911  25.489  1.00  0.00     0.047 A 
ATOM     17  C   UNL A   1      37.610  24.086  26.273  1.00  0.00     0.047 A 
ATOM     18  C   UNL A   1      38.610  23.140  26.067  1.00  0.00     0.115 A 
BRANCH  18  19
ATOM     19  O   UNL A   1      39.905  23.388  26.415  1.00  0.00    -0.508 OA
ATOM     20  H   UNL A   1      40.150  23.414  27.320  1.00  0.00     0.293 HD
ENDBRANCH  18  19
ENDBRANCH   9  13
BRANCH  12  21
ATOM     21  C   UNL A   1      32.617  19.105  23.946  1.00  0.00     0.041 C 
BRANCH  21  22
ATOM     22  C   UNL A   1      33.398  18.000  24.687  1.00  0.00     0.022 C 
ATOM     23  C   UNL A   1      32.535  17.022  25.502  1.00  0.00     0.007 C 
ATOM     24  C   UNL A   1      34.431  17.131  23.935  1.00  0.00     0.117 C 
ATOM     25  C   UNL A   1      33.120  15.634  25.259  1.00  0.00     0.003 C 
ATOM     26  C   UNL A   1      34.554  15.883  24.805  1.00  0.00     0.032 C 
BRANCH  24  27
ATOM     27  O   UNL A   1      34.056  16.724  22.631  1.00  0.00    -0.393 OA
ATOM     28  H   UNL A   1      33.088  16.716  22.560  1.00  0.00     0.210 HD
ENDBRANCH  24  27
ENDBRANCH  21  22
ENDBRANCH  12  21
ENDBRANCH   5   7
ENDBRANCH   3   5
ENDBRANCH   2   3
ENDBRANCH   1   2
BRANCH   1  29
ATOM     29  C   UNL A   1      31.915  29.184  25.100  1.00  0.00     0.275 C 
BRANCH  29  30
ATOM     30  O   UNL A   1      33.192  29.762  25.440  1.00  0.00    -0.458 OA
BRANCH  30  31
ATOM     31  C   UNL A   1      33.178  30.610  26.501  1.00  0.00     0.338 C 
ATOM     32  O   UNL A   1      32.233  31.295  26.859  1.00  0.00    -0.246 OA
BRANCH  31  33
ATOM     33  C   UNL A   1      34.434  30.507  27.278  1.00  0.00     0.060 A 
ATOM     34  C   UNL A   1      34.815  29.235  27.708  1.00  0.00     0.016 A 
ATOM     35  C   UNL A   1      35.209  31.618  27.629  1.00  0.00     0.016 A 
ATOM     36  C   UNL A   1      35.989  29.060  28.439  1.00  0.00     0.010 A 
ATOM     37  C   UNL A   1      36.376  31.442  28.392  1.00  0.00     0.010 A 
ATOM     38  C   UNL A   1      36.784  30.157  28.790  1.00  0.00    -0.014 A 
BRANCH  38  39
ATOM     39  C   UNL A   1      37.996  29.921  29.618  1.00  0.00     0.031 A 
ATOM     40  C   UNL A   1      39.175  29.207  29.018  1.00  0.00     0.074 A 
ATOM     41  C   UNL A   1      38.094  30.442  30.856  1.00  0.00     0.049 A 
ATOM     42  N   UNL A   1      40.350  28.959  29.540  1.00  0.00    -0.248 NA
ATOM     43  C   UNL A   1      39.009  28.722  27.641  1.00  0.00     0.031 C 
ATOM     44  C   UNL A   1      37.069  31.256  31.502  1.00  0.00     0.029 A 
ATOM     45  N   UNL A   1      39.120  30.408  31.772  1.00  0.00    -0.354 N 
ATOM     46  C   UNL A   1      41.063  28.279  28.559  1.00  0.00     0.074 A 
ATOM     47  C   UNL A   1      40.191  28.169  27.407  1.00  0.00     0.031 C 
ATOM     48  C   UNL A   1      37.530  31.675  32.693  1.00  0.00     0.029 A 
ATOM     49  C   UNL A   1      38.869  31.131  32.917  1.00  0.00     0.049 A 
ATOM     50  H   UNL A   1      39.958  29.913  31.621  1.00  0.00     0.167 HD
ATOM     51  C   UNL A   1      42.318  27.766  28.623  1.00  0.00     0.034 A 
ATOM     52  C   UNL A   1      39.631  31.332  34.014  1.00  0.00     0.034 A 
ATOM     53  C   UNL A   1      43.162  27.831  29.791  1.00  0.00     0.049 A 
ATOM     54  C   UNL A   1      40.988  30.669  34.093  1.00  0.00     0.074 A 
ATOM     55  C   UNL A   1      44.416  27.273  29.980  1.00  0.00     0.029 A 
ATOM     56  N   UNL A   1      42.835  28.477  30.976  1.00  0.00    -0.354 N 
ATOM     57  N   UNL A   1      41.633  29.985  33.175  1.00  0.00    -0.248 NA
ATOM     58  C   UNL A   1      41.714  30.791  35.366  1.00  0.00     0.031 C 
ATOM     59  C   UNL A   1      44.811  27.517  31.300  1.00  0.00     0.029 A 
ATOM     60  C   UNL A   1      43.844  28.298  31.911  1.00  0.00     0.049 A 
ATOM     61  H   UNL A   1      42.007  28.987  31.130  1.00  0.00     0.167 HD
ATOM     62  C   UNL A   1      42.839  29.605  33.761  1.00  0.00     0.074 A 
ATOM     63  C   UNL A   1      42.852  30.169  35.093  1.00  0.00     0.031 C 
ATOM     64  C   UNL A   1      43.842  28.847  33.247  1.00  0.00     0.034 A 
BRANCH  51  65
ATOM     65  C   UNL A   1      42.789  26.982  27.425  1.00  0.00     0.023 A 
ATOM     66  C   UNL A   1      42.688  25.582  27.361  1.00  0.00     0.031 A 
ATOM     67  C   UNL A   1      43.412  27.651  26.356  1.00  0.00     0.131 A 
ATOM     68  C   UNL A   1      43.262  24.892  26.281  1.00  0.00     0.055 A 
ATOM     69  C   UNL A   1      43.916  26.965  25.251  1.00  0.00     0.041 A 
ATOM     70  F   UNL A   1      43.561  28.985  26.380  1.00  0.00    -0.206 F 
ATOM     71  C   UNL A   1      43.855  25.576  25.217  1.00  0.00     0.022 A 
BRANCH  68  72
ATOM     72  S   UNL A   1      43.357  23.082  26.357  1.00  0.00     0.124 S 
ATOM     73  O   UNL A   1      42.694  22.803  27.628  1.00  0.00    -0.237 OA
ATOM     74  O   UNL A   1      42.633  22.678  25.157  1.00  0.00    -0.237 OA
ATOM     75  O   UNL A   1      44.793  22.813  26.339  1.00  0.00    -0.744 OA
ENDBRANCH  68  72
ENDBRANCH  51  65
BRANCH  52  76
ATOM     76  C   UNL A   1      39.139  32.159  35.160  1.00  0.00     0.023 A 
ATOM     77  C   UNL A   1      39.567  33.489  35.328  1.00  0.00     0.031 A 
ATOM     78  C   UNL A   1      38.317  31.608  36.159  1.00  0.00     0.131 A 
ATOM     79  C   UNL A   1      39.220  34.198  36.489  1.00  0.00     0.055 A 
ATOM     80  C   UNL A   1      37.920  32.340  37.279  1.00  0.00     0.041 A 
ATOM     81  F   UNL A   1      37.895  30.336  36.067  1.00  0.00    -0.206 F 
ATOM     82  C   UNL A   1      38.386  33.638  37.459  1.00  0.00     0.022 A 
BRANCH  79  83
ATOM     83  S   UNL A   1      39.971  35.826  36.772  1.00  0.00     0.124 S 
ATOM     84  O   UNL A   1      39.623  36.532  35.544  1.00  0.00    -0.237 OA
ATOM     85  O   UNL A   1      39.289  36.269  37.983  1.00  0.00    -0.237 OA
ATOM     86  O   UNL A   1      41.392  35.523  36.935  1.00  0.00    -0.744 OA
ENDBRANCH  79  83
ENDBRANCH  52  76
BRANCH  64  87
ATOM     87  C   UNL A   1      45.043  28.595  34.129  1.00  0.00     0.023 A 
ATOM     88  C   UNL A   1      45.079  27.527  35.044  1.00  0.00     0.031 A 
ATOM     89  C   UNL A   1      46.173  29.428  34.045  1.00  0.00     0.131 A 
ATOM     90  C   UNL A   1      46.199  27.348  35.870  1.00  0.00     0.055 A 
ATOM     91  C   UNL A   1      47.307  29.212  34.830  1.00  0.00     0.041 A 
ATOM     92  F   UNL A   1      46.197  30.463  33.190  1.00  0.00    -0.206 F 
ATOM     93  C   UNL A   1      47.321  28.173  35.757  1.00  0.00     0.022 A 
BRANCH  90  94
ATOM     94  S   UNL A   1      46.147  26.062  37.150  1.00  0.00     0.124 S 
ATOM     95  O   UNL A   1      45.806  26.831  38.342  1.00  0.00    -0.237 OA
ATOM     96  O   UNL A   1      45.109  25.165  36.651  1.00  0.00    -0.237 OA
ATOM     97  O   UNL A   1      47.500  25.508  37.136  1.00  0.00    -0.744 OA
ENDBRANCH  90  94
ENDBRANCH  64  87
ENDBRANCH  38  39
ENDBRANCH  31  33
ENDBRANCH  30  31
ENDBRANCH  29  30
ENDBRANCH   1  29
TORSDOF 20
ENDMDL
MODEL 2
REMARK VINA RESULT:     -11.7      1.847      2.143
REMARK SMILES C[C@@H](C(=O)OCCOC(=O)c1ccc(-c2c3nc(c(-c4cc(S(=O)(=O)[O-])ccc4F)c4ccc([nH]4)c(-c4cc(S(=O)(=O)[O-])ccc4F)c4nc(c(-c5cc(S(=O)(=O)[O-])ccc5F)c5ccc2[nH]5)C=C4)C=C3)cc1)c1ccc(C[C@H]2CCC[C@H]2O)cc1-c1ccc(O)cc1
REMARK SMILES IDX 6 1 5 2 3 3 4 4 2 5 1 6 74 7 75 8 86 9 76 10 85 11 77 12
REMARK SMILES IDX 87 13 88 14 93 15 89 16 92 17 90 18 91 19 78 21 79 22 80 23
REMARK SMILES IDX 83 24 81 25 82 26 84 27 7 29 8 30 9 31 10 32 11 33 12 34
REMARK SMILES IDX 73 35 13 36 72 37 14 38 15 39 16 40 66 41 17 42 71 43 65 44
REMARK SMILES IDX 67 45 18 46 70 47 64 48 63 49 19 51 51 52 31 53 50 54 32 55
REMARK SMILES IDX 35 56 49 57 68 58 33 59 34 60 48 62 69 63 36 64 20 65 21 66
REMARK SMILES IDX 29 67 22 68 28 69 30 70 27 71 23 72 24 73 25 74 26 75 52 76
REMARK SMILES IDX 53 77 61 78 54 79 60 80 62 81 59 82 55 83 56 84 57 85 58 86
REMARK SMILES IDX 37 87 38 88 46 89 39 90 45 91 47 92 44 93 40 94 41 95 42 96
REMARK SMILES IDX 43 97
REMARK H PARENT 91 20 84 28 67 50 35 61
REMARK Flexibility Score: inf
ROOT
ATOM      1  C   UNL A   1      31.711  27.657  25.585  1.00  0.00     0.274 C 
ENDROOT
BRANCH   1   2
ATOM      2  O   UNL A   1      32.899  27.026  25.068  1.00  0.00    -0.462 OA
BRANCH   2   3
ATOM      3  C   UNL A   1      33.067  25.718  25.426  1.00  0.00     0.313 C 
ATOM      4  O   UNL A   1      32.670  25.321  26.515  1.00  0.00    -0.252 OA
BRANCH   3   5
ATOM      5  C   UNL A   1      33.883  24.890  24.370  1.00  0.00     0.127 C 
ATOM      6  C   UNL A   1      33.640  25.519  22.984  1.00  0.00     0.025 C 
BRANCH   5   7
ATOM      7  C   UNL A   1      33.665  23.344  24.440  1.00  0.00    -0.026 A 
ATOM      8  C   UNL A   1      32.380  22.852  24.150  1.00  0.00     0.005 A 
ATOM      9  C   UNL A   1      34.644  22.354  24.751  1.00  0.00    -0.014 A 
ATOM     10  C   UNL A   1      32.115  21.508  23.913  1.00  0.00     0.004 A 
ATOM     11  C   UNL A   1      34.313  20.970  24.605  1.00  0.00     0.012 A 
ATOM     12  C   UNL A   1      33.060  20.532  24.153  1.00  0.00    -0.047 A 
BRANCH   9  13
ATOM     13  C   UNL A   1      36.008  22.650  25.228  1.00  0.00    -0.018 A 
ATOM     14  C   UNL A   1      36.315  23.897  25.804  1.00  0.00     0.012 A 
ATOM     15  C   UNL A   1      37.035  21.695  25.122  1.00  0.00     0.012 A 
ATOM     16  C   UNL A   1      37.588  24.154  26.320  1.00  0.00     0.047 A 
ATOM     17  C   UNL A   1      38.308  21.948  25.647  1.00  0.00     0.047 A 
ATOM     18  C   UNL A   1      38.567  23.171  26.257  1.00  0.00     0.115 A 
BRANCH  18  19
ATOM     19  O   UNL A   1      39.781  23.441  26.819  1.00  0.00    -0.508 OA
ATOM     20  H   UNL A   1      40.552  23.020  26.492  1.00  0.00     0.293 HD
ENDBRANCH  18  19
ENDBRANCH   9  13
BRANCH  12  21
ATOM     21  C   UNL A   1      32.761  19.081  23.848  1.00  0.00     0.041 C 
BRANCH  21  22
ATOM     22  C   UNL A   1      33.459  17.968  24.658  1.00  0.00     0.022 C 
ATOM     23  C   UNL A   1      32.536  17.152  25.579  1.00  0.00     0.007 C 
ATOM     24  C   UNL A   1      34.373  16.940  23.955  1.00  0.00     0.117 C 
ATOM     25  C   UNL A   1      32.973  15.698  25.440  1.00  0.00     0.003 C 
ATOM     26  C   UNL A   1      34.406  15.764  24.925  1.00  0.00     0.032 C 
BRANCH  24  27
ATOM     27  O   UNL A   1      33.911  16.466  22.702  1.00  0.00    -0.393 OA
ATOM     28  H   UNL A   1      33.153  16.999  22.414  1.00  0.00     0.210 HD
ENDBRANCH  24  27
ENDBRANCH  21  22
ENDBRANCH  12  21
ENDBRANCH   5   7
ENDBRANCH   3   5
ENDBRANCH   2   3
ENDBRANCH   1   2
BRANCH   1  29
ATOM     29  C   UNL A   1      31.639  29.138  25.198  1.00  0.00     0.275 C 
BRANCH  29  30
ATOM     30  O   UNL A   1      32.888  29.830  25.403  1.00  0.00    -0.458 OA
BRANCH  30  31
ATOM     31  C   UNL A   1      32.893  30.721  26.427  1.00  0.00     0.338 C 
ATOM     32  O   UNL A   1      31.979  31.471  26.730  1.00  0.00    -0.246 OA
BRANCH  31  33
ATOM     33  C   UNL A   1      34.122  30.585  27.241  1.00  0.00     0.060 A 
ATOM     34  C   UNL A   1      34.505  29.292  27.605  1.00  0.00     0.016 A 
ATOM     35  C   UNL A   1      34.870  31.679  27.689  1.00  0.00     0.016 A 
ATOM     36  C   UNL A   1      35.654  29.084  28.367  1.00  0.00     0.010 A 
ATOM     37  C   UNL A   1      36.011  31.469  28.482  1.00  0.00     0.010 A 
ATOM     38  C   UNL A   1      36.421  30.167  28.814  1.00  0.00    -0.014 A 
BRANCH  38  39
ATOM     39  C   UNL A   1      37.606  29.893  29.670  1.00  0.00     0.031 A 
ATOM     40  C   UNL A   1      38.801  29.197  29.079  1.00  0.00     0.074 A 
ATOM     41  C   UNL A   1      37.667  30.364  30.929  1.00  0.00     0.049 A 
ATOM     42  N   UNL A   1      39.958  28.923  29.627  1.00  0.00    -0.248 NA
ATOM     43  C   UNL A   1      38.676  28.765  27.680  1.00  0.00     0.031 C 
ATOM     44  C   UNL A   1      36.625  31.159  31.574  1.00  0.00     0.029 A 
ATOM     45  N   UNL A   1      38.664  30.290  31.874  1.00  0.00    -0.354 N 
ATOM     46  C   UNL A   1      40.699  28.277  28.644  1.00  0.00     0.074 A 
ATOM     47  C   UNL A   1      39.862  28.216  27.462  1.00  0.00     0.031 C 
ATOM     48  C   UNL A   1      37.051  31.528  32.794  1.00  0.00     0.029 A 
ATOM     49  C   UNL A   1      38.380  30.970  33.038  1.00  0.00     0.049 A 
ATOM     50  H   UNL A   1      39.504  29.797  31.731  1.00  0.00     0.167 HD
ATOM     51  C   UNL A   1      41.948  27.756  28.726  1.00  0.00     0.034 A 
ATOM     52  C   UNL A   1      39.108  31.125  34.165  1.00  0.00     0.034 A 
ATOM     53  C   UNL A   1      42.756  27.772  29.921  1.00  0.00     0.049 A 
ATOM     54  C   UNL A   1      40.459  30.452  34.260  1.00  0.00     0.074 A 
ATOM     55  C   UNL A   1      44.001  27.200  30.127  1.00  0.00     0.029 A 
ATOM     56  N   UNL A   1      42.394  28.372  31.120  1.00  0.00    -0.354 N 
ATOM     57  N   UNL A   1      41.130  29.801  33.337  1.00  0.00    -0.248 NA
ATOM     58  C   UNL A   1      41.146  30.521  35.560  1.00  0.00     0.031 C 
ATOM     59  C   UNL A   1      44.356  27.391  31.468  1.00  0.00     0.029 A 
ATOM     60  C   UNL A   1      43.373  28.152  32.078  1.00  0.00     0.049 A 
ATOM     61  H   UNL A   1      41.564  28.880  31.268  1.00  0.00     0.167 HD
ATOM     62  C   UNL A   1      42.316  29.392  33.945  1.00  0.00     0.074 A 
ATOM     63  C   UNL A   1      42.289  29.904  35.298  1.00  0.00     0.031 C 
ATOM     64  C   UNL A   1      43.331  28.650  33.434  1.00  0.00     0.034 A 
BRANCH  51  65
ATOM     65  C   UNL A   1      42.454  27.016  27.514  1.00  0.00     0.023 A 
ATOM     66  C   UNL A   1      42.405  25.615  27.419  1.00  0.00     0.031 A 
ATOM     67  C   UNL A   1      43.056  27.731  26.463  1.00  0.00     0.131 A 
ATOM     68  C   UNL A   1      43.009  24.971  26.327  1.00  0.00     0.055 A 
ATOM     69  C   UNL A   1      43.590  27.089  25.346  1.00  0.00     0.041 A 
ATOM     70  F   UNL A   1      43.155  29.069  26.517  1.00  0.00    -0.206 F 
ATOM     71  C   UNL A   1      43.582  25.699  25.281  1.00  0.00     0.022 A 
BRANCH  68  72
ATOM     72  S   UNL A   1      43.171  23.165  26.364  1.00  0.00     0.124 S 
ATOM     73  O   UNL A   1      42.550  22.837  27.645  1.00  0.00    -0.237 OA
ATOM     74  O   UNL A   1      42.433  22.758  25.173  1.00  0.00    -0.237 OA
ATOM     75  O   UNL A   1      44.615  22.949  26.307  1.00  0.00    -0.744 OA
ENDBRANCH  68  72
ENDBRANCH  51  65
BRANCH  52  76
ATOM     76  C   UNL A   1      38.584  31.909  35.327  1.00  0.00     0.023 A 
ATOM     77  C   UNL A   1      38.192  31.266  36.515  1.00  0.00     0.031 A 
ATOM     78  C   UNL A   1      38.373  33.296  35.236  1.00  0.00     0.131 A 
ATOM     79  C   UNL A   1      37.560  31.996  37.535  1.00  0.00     0.055 A 
ATOM     80  C   UNL A   1      37.804  34.029  36.280  1.00  0.00     0.041 A 
ATOM     81  F   UNL A   1      38.705  33.963  34.119  1.00  0.00    -0.206 F 
ATOM     82  C   UNL A   1      37.378  33.377  37.432  1.00  0.00     0.022 A 
BRANCH  79  83
ATOM     83  S   UNL A   1      36.871  31.095  38.951  1.00  0.00     0.124 S 
ATOM     84  O   UNL A   1      35.624  31.815  39.183  1.00  0.00    -0.237 OA
ATOM     85  O   UNL A   1      36.743  29.743  38.419  1.00  0.00    -0.237 OA
ATOM     86  O   UNL A   1      37.888  31.261  39.989  1.00  0.00    -0.744 OA
ENDBRANCH  79  83
ENDBRANCH  52  76
BRANCH  64  87
ATOM     87  C   UNL A   1      44.503  28.358  34.342  1.00  0.00     0.023 A 
ATOM     88  C   UNL A   1      45.514  29.309  34.577  1.00  0.00     0.031 A 
ATOM     89  C   UNL A   1      44.607  27.114  34.991  1.00  0.00     0.131 A 
ATOM     90  C   UNL A   1      46.604  28.986  35.400  1.00  0.00     0.055 A 
ATOM     91  C   UNL A   1      45.666  26.819  35.852  1.00  0.00     0.041 A 
ATOM     92  F   UNL A   1      43.674  26.167  34.805  1.00  0.00    -0.206 F 
ATOM     93  C   UNL A   1      46.678  27.753  36.052  1.00  0.00     0.022 A 
BRANCH  90  94
ATOM     94  S   UNL A   1      47.968  30.174  35.552  1.00  0.00     0.124 S 
ATOM     95  O   UNL A   1      48.303  30.435  34.157  1.00  0.00    -0.237 OA
ATOM     96  O   UNL A   1      47.342  31.278  36.275  1.00  0.00    -0.237 OA
ATOM     97  O   UNL A   1      48.981  29.439  36.306  1.00  0.00    -0.744 OA
ENDBRANCH  90  94
ENDBRANCH  64  87
ENDBRANCH  38  39
ENDBRANCH  31  33
ENDBRANCH  30  31
ENDBRANCH  29  30
ENDBRANCH   1  29
TORSDOF 20
ENDMDL
MODEL 3
REMARK VINA RESULT:     -11.7      4.740     10.370
REMARK SMILES C[C@@H](C(=O)OCCOC(=O)c1ccc(-c2c3nc(c(-c4cc(S(=O)(=O)[O-])ccc4F)c4ccc([nH]4)c(-c4cc(S(=O)(=O)[O-])ccc4F)c4nc(c(-c5cc(S(=O)(=O)[O-])ccc5F)c5ccc2[nH]5)C=C4)C=C3)cc1)c1ccc(C[C@H]2CCC[C@H]2O)cc1-c1ccc(O)cc1
REMARK SMILES IDX 6 1 5 2 3 3 4 4 2 5 1 6 74 7 75 8 86 9 76 10 85 11 77 12
REMARK SMILES IDX 87 13 88 14 93 15 89 16 92 17 90 18 91 19 78 21 79 22 80 23
REMARK SMILES IDX 83 24 81 25 82 26 84 27 7 29 8 30 9 31 10 32 11 33 12 34
REMARK SMILES IDX 73 35 13 36 72 37 14 38 15 39 16 40 66 41 17 42 71 43 65 44
REMARK SMILES IDX 67 45 18 46 70 47 64 48 63 49 19 51 51 52 31 53 50 54 32 55
REMARK SMILES IDX 35 56 49 57 68 58 33 59 34 60 48 62 69 63 36 64 20 65 21 66
REMARK SMILES IDX 29 67 22 68 28 69 30 70 27 71 23 72 24 73 25 74 26 75 52 76
REMARK SMILES IDX 53 77 61 78 54 79 60 80 62 81 59 82 55 83 56 84 57 85 58 86
REMARK SMILES IDX 37 87 38 88 46 89 39 90 45 91 47 92 44 93 40 94 41 95 42 96
REMARK SMILES IDX 43 97
REMARK H PARENT 91 20 84 28 67 50 35 61
REMARK Flexibility Score: inf
ROOT
ATOM      1  C   UNL A   1      34.381  22.442  25.169  1.00  0.00     0.274 C 
ENDROOT
BRANCH   1   2
ATOM      2  O   UNL A   1      34.065  23.593  25.977  1.00  0.00    -0.462 OA
BRANCH   2   3
ATOM      3  C   UNL A   1      33.621  24.686  25.286  1.00  0.00     0.313 C 
ATOM      4  O   UNL A   1      34.216  25.066  24.285  1.00  0.00    -0.252 OA
BRANCH   3   5
ATOM      5  C   UNL A   1      32.401  25.396  25.974  1.00  0.00     0.127 C 
ATOM      6  C   UNL A   1      31.518  24.307  26.614  1.00  0.00     0.025 C 
BRANCH   5   7
ATOM      7  C   UNL A   1      31.637  26.413  25.066  1.00  0.00    -0.026 A 
ATOM      8  C   UNL A   1      30.767  25.893  24.091  1.00  0.00     0.005 A 
ATOM      9  C   UNL A   1      31.710  27.836  25.125  1.00  0.00    -0.014 A 
ATOM     10  C   UNL A   1      29.837  26.670  23.410  1.00  0.00     0.004 A 
ATOM     11  C   UNL A   1      30.815  28.618  24.329  1.00  0.00     0.012 A 
ATOM     12  C   UNL A   1      29.848  28.047  23.491  1.00  0.00    -0.047 A 
BRANCH   9  13
ATOM     13  C   UNL A   1      32.663  28.589  25.962  1.00  0.00    -0.018 A 
ATOM     14  C   UNL A   1      32.244  29.713  26.699  1.00  0.00     0.012 A 
ATOM     15  C   UNL A   1      34.013  28.204  26.049  1.00  0.00     0.012 A 
ATOM     16  C   UNL A   1      33.128  30.386  27.547  1.00  0.00     0.047 A 
ATOM     17  C   UNL A   1      34.897  28.871  26.904  1.00  0.00     0.047 A 
ATOM     18  C   UNL A   1      34.441  29.947  27.659  1.00  0.00     0.115 A 
BRANCH  18  19
ATOM     19  O   UNL A   1      35.258  30.596  28.537  1.00  0.00    -0.508 OA
ATOM     20  H   UNL A   1      35.308  31.532  28.525  1.00  0.00     0.293 HD
ENDBRANCH  18  19
ENDBRANCH   9  13
BRANCH  12  21
ATOM     21  C   UNL A   1      28.799  28.867  22.772  1.00  0.00     0.041 C 
BRANCH  21  22
ATOM     22  C   UNL A   1      29.042  30.370  22.519  1.00  0.00     0.022 C 
ATOM     23  C   UNL A   1      28.734  30.852  21.091  1.00  0.00     0.007 C 
ATOM     24  C   UNL A   1      28.441  31.433  23.465  1.00  0.00     0.117 C 
ATOM     25  C   UNL A   1      28.029  32.196  21.239  1.00  0.00     0.003 C 
ATOM     26  C   UNL A   1      28.428  32.703  22.620  1.00  0.00     0.032 C 
BRANCH  24  27
ATOM     27  O   UNL A   1      27.118  31.183  23.905  1.00  0.00    -0.393 OA
ATOM     28  H   UNL A   1      26.963  31.644  24.745  1.00  0.00     0.210 HD
ENDBRANCH  24  27
ENDBRANCH  21  22
ENDBRANCH  12  21
ENDBRANCH   5   7
ENDBRANCH   3   5
ENDBRANCH   2   3
ENDBRANCH   1   2
BRANCH   1  29
ATOM     29  C   UNL A   1      35.570  21.658  25.737  1.00  0.00     0.275 C 
BRANCH  29  30
ATOM     30  O   UNL A   1      36.814  21.976  25.079  1.00  0.00    -0.458 OA
BRANCH  30  31
ATOM     31  C   UNL A   1      37.930  21.524  25.706  1.00  0.00     0.338 C 
ATOM     32  O   UNL A   1      38.275  20.358  25.803  1.00  0.00    -0.246 OA
BRANCH  31  33
ATOM     33  C   UNL A   1      38.775  22.651  26.162  1.00  0.00     0.060 A 
ATOM     34  C   UNL A   1      38.382  23.935  25.781  1.00  0.00     0.016 A 
ATOM     35  C   UNL A   1      39.950  22.477  26.901  1.00  0.00     0.016 A 
ATOM     36  C   UNL A   1      39.125  25.046  26.176  1.00  0.00     0.010 A 
ATOM     37  C   UNL A   1      40.714  23.597  27.273  1.00  0.00     0.010 A 
ATOM     38  C   UNL A   1      40.297  24.893  26.927  1.00  0.00    -0.014 A 
BRANCH  38  39
ATOM     39  C   UNL A   1      41.082  26.107  27.276  1.00  0.00     0.031 A 
ATOM     40  C   UNL A   1      40.526  27.089  28.269  1.00  0.00     0.074 A 
ATOM     41  C   UNL A   1      42.331  26.277  26.803  1.00  0.00     0.049 A 
ATOM     42  N   UNL A   1      41.072  28.171  28.763  1.00  0.00    -0.248 NA
ATOM     43  C   UNL A   1      39.179  26.801  28.783  1.00  0.00     0.031 C 
ATOM     44  C   UNL A   1      43.028  25.335  25.931  1.00  0.00     0.029 A 
ATOM     45  N   UNL A   1      43.256  27.270  27.028  1.00  0.00    -0.354 N 
ATOM     46  C   UNL A   1      40.132  28.702  29.640  1.00  0.00     0.074 A 
ATOM     47  C   UNL A   1      38.989  27.811  29.620  1.00  0.00     0.031 C 
ATOM     48  C   UNL A   1      44.280  25.778  25.723  1.00  0.00     0.029 A 
ATOM     49  C   UNL A   1      44.469  27.052  26.415  1.00  0.00     0.049 A 
ATOM     50  H   UNL A   1      43.066  28.064  27.579  1.00  0.00     0.167 HD
ATOM     51  C   UNL A   1      40.202  29.842  30.372  1.00  0.00     0.034 A 
ATOM     52  C   UNL A   1      45.600  27.791  26.415  1.00  0.00     0.034 A 
ATOM     53  C   UNL A   1      41.320  30.753  30.348  1.00  0.00     0.049 A 
ATOM     54  C   UNL A   1      45.614  29.104  27.165  1.00  0.00     0.074 A 
ATOM     55  C   UNL A   1      41.452  31.973  30.993  1.00  0.00     0.029 A 
ATOM     56  N   UNL A   1      42.493  30.558  29.630  1.00  0.00    -0.354 N 
ATOM     57  N   UNL A   1      44.699  29.620  27.954  1.00  0.00    -0.248 NA
ATOM     58  C   UNL A   1      46.811  29.945  27.011  1.00  0.00     0.031 C 
ATOM     59  C   UNL A   1      42.668  32.546  30.603  1.00  0.00     0.029 A 
ATOM     60  C   UNL A   1      43.334  31.651  29.783  1.00  0.00     0.049 A 
ATOM     61  H   UNL A   1      42.697  29.761  29.090  1.00  0.00     0.167 HD
ATOM     62  C   UNL A   1      45.216  30.839  28.391  1.00  0.00     0.074 A 
ATOM     63  C   UNL A   1      46.537  30.962  27.815  1.00  0.00     0.031 C 
ATOM     64  C   UNL A   1      44.644  31.777  29.189  1.00  0.00     0.034 A 
BRANCH  51  65
ATOM     65  C   UNL A   1      38.973  30.216  31.160  1.00  0.00     0.023 A 
ATOM     66  C   UNL A   1      38.034  31.147  30.684  1.00  0.00     0.031 A 
ATOM     67  C   UNL A   1      38.777  29.675  32.444  1.00  0.00     0.131 A 
ATOM     68  C   UNL A   1      36.979  31.557  31.514  1.00  0.00     0.055 A 
ATOM     69  C   UNL A   1      37.686  30.033  33.236  1.00  0.00     0.041 A 
ATOM     70  F   UNL A   1      39.660  28.804  32.959  1.00  0.00    -0.206 F 
ATOM     71  C   UNL A   1      36.787  30.990  32.777  1.00  0.00     0.022 A 
BRANCH  68  72
ATOM     72  S   UNL A   1      35.946  32.950  30.984  1.00  0.00     0.124 S 
ATOM     73  O   UNL A   1      36.239  33.010  29.555  1.00  0.00    -0.237 OA
ATOM     74  O   UNL A   1      34.605  32.502  31.343  1.00  0.00    -0.237 OA
ATOM     75  O   UNL A   1      36.458  34.074  31.765  1.00  0.00    -0.744 OA
ENDBRANCH  68  72
ENDBRANCH  51  65
BRANCH  52  76
ATOM     76  C   UNL A   1      46.813  27.355  25.656  1.00  0.00     0.023 A 
ATOM     77  C   UNL A   1      47.080  27.858  24.370  1.00  0.00     0.031 A 
ATOM     78  C   UNL A   1      47.670  26.358  26.157  1.00  0.00     0.131 A 
ATOM     79  C   UNL A   1      48.135  27.325  23.611  1.00  0.00     0.055 A 
ATOM     80  C   UNL A   1      48.757  25.879  25.424  1.00  0.00     0.041 A 
ATOM     81  F   UNL A   1      47.454  25.822  27.369  1.00  0.00    -0.206 F 
ATOM     82  C   UNL A   1      48.985  26.350  24.136  1.00  0.00     0.022 A 
BRANCH  79  83
ATOM     83  S   UNL A   1      48.308  27.841  21.879  1.00  0.00     0.124 S 
ATOM     84  O   UNL A   1      47.112  28.654  21.690  1.00  0.00    -0.237 OA
ATOM     85  O   UNL A   1      49.577  28.560  21.902  1.00  0.00    -0.237 OA
ATOM     86  O   UNL A   1      48.324  26.576  21.145  1.00  0.00    -0.744 OA
ENDBRANCH  79  83
ENDBRANCH  52  76
BRANCH  64  87
ATOM     87  C   UNL A   1      45.454  33.016  29.493  1.00  0.00     0.023 A 
ATOM     88  C   UNL A   1      45.357  34.177  28.704  1.00  0.00     0.031 A 
ATOM     89  C   UNL A   1      46.328  33.041  30.595  1.00  0.00     0.131 A 
ATOM     90  C   UNL A   1      46.152  35.295  28.999  1.00  0.00     0.055 A 
ATOM     91  C   UNL A   1      47.076  34.175  30.916  1.00  0.00     0.041 A 
ATOM     92  F   UNL A   1      46.464  31.963  31.384  1.00  0.00    -0.206 F 
ATOM     93  C   UNL A   1      46.999  35.307  30.110  1.00  0.00     0.022 A 
BRANCH  90  94
ATOM     94  S   UNL A   1      46.122  36.714  27.868  1.00  0.00     0.124 S 
ATOM     95  O   UNL A   1      47.325  37.441  28.258  1.00  0.00    -0.237 OA
ATOM     96  O   UNL A   1      46.161  36.071  26.558  1.00  0.00    -0.237 OA
ATOM     97  O   UNL A   1      44.862  37.383  28.189  1.00  0.00    -0.744 OA
ENDBRANCH  90  94
ENDBRANCH  64  87
ENDBRANCH  38  39
ENDBRANCH  31  33
ENDBRANCH  30  31
ENDBRANCH  29  30
ENDBRANCH   1  29
TORSDOF 20
ENDMDL
