MODEL 1
REMARK VINA RESULT:     -10.4      0.000      0.000
REMARK SMILES CCc1ccsc1CNC(=O)N[C@@H](CCO)C(=O)OCCOC(=O)c1ccc(-c2c3nc(c(-c4cc(S(=O)(=O)[O-])ccc4F)c4ccc([nH]4)c(-c4cc(S(=O)(=O)[O-])ccc4F)c4nc(c(-c5cc(S(=O)(=O)[O-])ccc5F)c5ccc2[nH]5)C=C4)C=C3)cc1
REMARK SMILES IDX 20 1 19 2 17 3 18 4 13 5 12 6 9 7 10 8 11 10 8 12 7 13 3 14
REMARK SMILES IDX 4 15 5 16 6 17 2 18 1 19 14 20 15 21 16 22 21 24 22 25 23 26
REMARK SMILES IDX 24 27 25 28 26 29 87 30 27 31 86 32 28 33 29 34 30 35 80 36
REMARK SMILES IDX 31 37 85 38 79 39 81 40 32 41 84 42 78 43 77 44 33 46 65 47
REMARK SMILES IDX 45 48 64 49 46 50 49 51 63 52 82 53 47 54 48 55 62 57 83 58
REMARK SMILES IDX 50 59 34 60 35 61 43 62 36 63 42 64 44 65 41 66 37 67 38 68
REMARK SMILES IDX 39 69 40 70 66 71 67 72 75 73 68 74 74 75 76 76 73 77 69 78
REMARK SMILES IDX 70 79 71 80 72 81 51 82 52 83 60 84 53 85 59 86 61 87 58 88
REMARK SMILES IDX 54 89 55 90 56 91 57 92
REMARK H PARENT 9 9 12 11 16 23 81 45 49 56
REMARK Flexibility Score: inf
ROOT
ATOM      1  C   UNL A   1      31.325  29.692  25.307  1.00  0.00     0.274 C 
ENDROOT
BRANCH   1   2
ATOM      2  O   UNL A   1      31.445  28.332  25.770  1.00  0.00    -0.461 OA
BRANCH   2   3
ATOM      3  C   UNL A   1      32.352  27.556  25.108  1.00  0.00     0.328 C 
ATOM      4  O   UNL A   1      33.480  27.918  24.792  1.00  0.00    -0.250 OA
BRANCH   3   5
ATOM      5  C   UNL A   1      31.786  26.169  24.756  1.00  0.00     0.196 C 
BRANCH   5   6
ATOM      6  N   UNL A   1      31.229  25.451  25.897  1.00  0.00    -0.324 N 
ATOM      7  N   UNL A   1      31.060  23.176  25.270  1.00  0.00    -0.333 N 
ATOM      8  C   UNL A   1      30.808  24.199  26.092  1.00  0.00     0.315 C 
ATOM      9  H   UNL A   1      30.488  22.396  25.456  1.00  0.00     0.165 HD
ATOM     10  O   UNL A   1      30.124  23.983  27.096  1.00  0.00    -0.249 OA
ATOM     11  H   UNL A   1      31.144  26.014  26.700  1.00  0.00     0.166 HD
BRANCH   7  12
ATOM     12  C   UNL A   1      31.975  22.940  24.168  1.00  0.00     0.165 C 
BRANCH  12  13
ATOM     13  C   UNL A   1      33.011  21.885  24.470  1.00  0.00     0.027 A 
ATOM     14  C   UNL A   1      34.396  21.982  24.319  1.00  0.00    -0.033 A 
ATOM     15  C   UNL A   1      35.040  20.733  24.631  1.00  0.00     0.016 A 
ATOM     16  C   UNL A   1      34.155  19.754  25.013  1.00  0.00     0.065 A 
ATOM     17  S   UNL A   1      32.558  20.327  25.052  1.00  0.00    -0.147 S 
BRANCH  14  18
ATOM     18  C   UNL A   1      35.177  23.172  23.820  1.00  0.00     0.033 C 
ATOM     19  C   UNL A   1      36.637  22.889  23.503  1.00  0.00     0.009 C 
ENDBRANCH  14  18
ENDBRANCH  12  13
ENDBRANCH   7  12
ENDBRANCH   5   6
BRANCH   5  20
ATOM     20  C   UNL A   1      30.762  26.286  23.618  1.00  0.00     0.065 C 
BRANCH  20  21
ATOM     21  C   UNL A   1      31.327  26.028  22.223  1.00  0.00     0.159 C 
BRANCH  21  22
ATOM     22  O   UNL A   1      31.242  27.183  21.402  1.00  0.00    -0.396 OA
ATOM     23  H   UNL A   1      30.853  26.944  20.546  1.00  0.00     0.210 HD
ENDBRANCH  21  22
ENDBRANCH  20  21
ENDBRANCH   5  20
ENDBRANCH   3   5
ENDBRANCH   2   3
ENDBRANCH   1   2
BRANCH   1  24
ATOM     24  C   UNL A   1      31.758  30.692  26.384  1.00  0.00     0.275 C 
BRANCH  24  25
ATOM     25  O   UNL A   1      33.153  31.037  26.274  1.00  0.00    -0.458 OA
BRANCH  25  26
ATOM     26  C   UNL A   1      33.616  31.814  27.280  1.00  0.00     0.338 C 
ATOM     27  O   UNL A   1      33.013  32.728  27.826  1.00  0.00    -0.246 OA
BRANCH  26  28
ATOM     28  C   UNL A   1      34.926  31.337  27.745  1.00  0.00     0.060 A 
ATOM     29  C   UNL A   1      35.037  29.990  28.068  1.00  0.00     0.016 A 
ATOM     30  C   UNL A   1      35.982  32.212  28.015  1.00  0.00     0.016 A 
ATOM     31  C   UNL A   1      36.168  29.529  28.731  1.00  0.00     0.010 A 
ATOM     32  C   UNL A   1      37.138  31.730  28.656  1.00  0.00     0.010 A 
ATOM     33  C   UNL A   1      37.223  30.389  29.065  1.00  0.00    -0.014 A 
BRANCH  33  34
ATOM     34  C   UNL A   1      38.328  29.850  29.916  1.00  0.00     0.031 A 
ATOM     35  C   UNL A   1      39.303  28.835  29.367  1.00  0.00     0.074 A 
ATOM     36  C   UNL A   1      38.574  30.397  31.126  1.00  0.00     0.049 A 
ATOM     37  N   UNL A   1      40.432  28.414  29.886  1.00  0.00    -0.248 NA
ATOM     38  C   UNL A   1      38.999  28.248  28.054  1.00  0.00     0.031 C 
ATOM     39  C   UNL A   1      37.763  31.442  31.755  1.00  0.00     0.029 A 
ATOM     40  N   UNL A   1      39.591  30.183  32.025  1.00  0.00    -0.354 N 
ATOM     41  C   UNL A   1      40.996  27.564  28.941  1.00  0.00     0.074 A 
ATOM     42  C   UNL A   1      40.060  27.482  27.841  1.00  0.00     0.031 C 
ATOM     43  C   UNL A   1      38.337  31.807  32.912  1.00  0.00     0.029 A 
ATOM     44  C   UNL A   1      39.515  30.977  33.148  1.00  0.00     0.049 A 
ATOM     45  H   UNL A   1      40.308  29.525  31.879  1.00  0.00     0.167 HD
ATOM     46  C   UNL A   1      42.191  26.924  28.970  1.00  0.00     0.034 A 
ATOM     47  C   UNL A   1      40.282  31.016  34.257  1.00  0.00     0.034 A 
ATOM     48  C   UNL A   1      43.094  26.927  30.093  1.00  0.00     0.049 A 
ATOM     49  C   UNL A   1      41.466  30.091  34.369  1.00  0.00     0.074 A 
ATOM     50  C   UNL A   1      44.314  26.283  30.219  1.00  0.00     0.029 A 
ATOM     51  N   UNL A   1      42.859  27.565  31.301  1.00  0.00    -0.354 N 
ATOM     52  N   UNL A   1      41.982  29.299  33.459  1.00  0.00    -0.248 NA
ATOM     53  C   UNL A   1      42.156  30.052  35.665  1.00  0.00     0.031 C 
ATOM     54  C   UNL A   1      44.771  26.460  31.531  1.00  0.00     0.029 A 
ATOM     55  C   UNL A   1      43.873  27.273  32.202  1.00  0.00     0.049 A 
ATOM     56  H   UNL A   1      42.084  28.142  31.492  1.00  0.00     0.167 HD
ATOM     57  C   UNL A   1      43.063  28.672  34.074  1.00  0.00     0.074 A 
ATOM     58  C   UNL A   1      43.138  29.196  35.422  1.00  0.00     0.031 C 
ATOM     59  C   UNL A   1      43.918  27.748  33.564  1.00  0.00     0.034 A 
BRANCH  46  60
ATOM     60  C   UNL A   1      42.567  26.117  27.756  1.00  0.00     0.023 A 
ATOM     61  C   UNL A   1      42.150  24.782  27.607  1.00  0.00     0.031 A 
ATOM     62  C   UNL A   1      43.341  26.691  26.734  1.00  0.00     0.131 A 
ATOM     63  C   UNL A   1      42.535  24.056  26.470  1.00  0.00     0.055 A 
ATOM     64  C   UNL A   1      43.687  25.975  25.587  1.00  0.00     0.041 A 
ATOM     65  F   UNL A   1      43.780  27.955  26.840  1.00  0.00    -0.206 F 
ATOM     66  C   UNL A   1      43.289  24.647  25.453  1.00  0.00     0.022 A 
BRANCH  63  67
ATOM     67  S   UNL A   1      42.114  22.293  26.375  1.00  0.00     0.124 S 
ATOM     68  O   UNL A   1      42.744  21.902  25.117  1.00  0.00    -0.237 OA
ATOM     69  O   UNL A   1      42.722  21.763  27.589  1.00  0.00    -0.237 OA
ATOM     70  O   UNL A   1      40.652  22.292  26.357  1.00  0.00    -0.744 OA
ENDBRANCH  63  67
ENDBRANCH  46  60
BRANCH  47  71
ATOM     71  C   UNL A   1      39.904  31.898  35.400  1.00  0.00     0.023 A 
ATOM     72  C   UNL A   1      39.016  31.469  36.399  1.00  0.00     0.031 A 
ATOM     73  C   UNL A   1      40.393  33.217  35.474  1.00  0.00     0.131 A 
ATOM     74  C   UNL A   1      38.629  32.359  37.415  1.00  0.00     0.055 A 
ATOM     75  C   UNL A   1      40.047  34.077  36.514  1.00  0.00     0.041 A 
ATOM     76  F   UNL A   1      41.230  33.683  34.534  1.00  0.00    -0.206 F 
ATOM     77  C   UNL A   1      39.152  33.653  37.489  1.00  0.00     0.022 A 
BRANCH  74  78
ATOM     78  S   UNL A   1      37.368  31.828  38.608  1.00  0.00     0.124 S 
ATOM     79  O   UNL A   1      37.076  30.475  38.150  1.00  0.00    -0.237 OA
ATOM     80  O   UNL A   1      38.085  31.936  39.874  1.00  0.00    -0.237 OA
ATOM     81  O   UNL A   1      36.292  32.797  38.420  1.00  0.00    -0.744 OA
ENDBRANCH  74  78
ENDBRANCH  47  71
BRANCH  59  82
ATOM     82  C   UNL A   1      45.001  27.237  34.482  1.00  0.00     0.023 A 
ATOM     83  C   UNL A   1      44.781  26.131  35.325  1.00  0.00     0.031 A 
ATOM     84  C   UNL A   1      46.253  27.873  34.541  1.00  0.00     0.131 A 
ATOM     85  C   UNL A   1      45.777  25.728  36.227  1.00  0.00     0.055 A 
ATOM     86  C   UNL A   1      47.261  27.432  35.401  1.00  0.00     0.041 A 
ATOM     87  F   UNL A   1      46.518  28.935  33.765  1.00  0.00    -0.206 F 
ATOM     88  C   UNL A   1      47.021  26.363  36.260  1.00  0.00     0.022 A 
BRANCH  85  89
ATOM     89  S   UNL A   1      45.391  24.421  37.424  1.00  0.00     0.124 S 
ATOM     90  O   UNL A   1      45.228  23.256  36.561  1.00  0.00    -0.237 OA
ATOM     91  O   UNL A   1      46.574  24.421  38.279  1.00  0.00    -0.237 OA
ATOM     92  O   UNL A   1      44.164  24.894  38.064  1.00  0.00    -0.744 OA
ENDBRANCH  85  89
ENDBRANCH  59  82
ENDBRANCH  33  34
ENDBRANCH  26  28
ENDBRANCH  25  26
ENDBRANCH  24  25
ENDBRANCH   1  24
TORSDOF 21
ENDMDL
MODEL 2
REMARK VINA RESULT:     -10.2      1.857      2.426
REMARK SMILES CCc1ccsc1CNC(=O)N[C@@H](CCO)C(=O)OCCOC(=O)c1ccc(-c2c3nc(c(-c4cc(S(=O)(=O)[O-])ccc4F)c4ccc([nH]4)c(-c4cc(S(=O)(=O)[O-])ccc4F)c4nc(c(-c5cc(S(=O)(=O)[O-])ccc5F)c5ccc2[nH]5)C=C4)C=C3)cc1
REMARK SMILES IDX 20 1 19 2 17 3 18 4 13 5 12 6 9 7 10 8 11 10 8 12 7 13 3 14
REMARK SMILES IDX 4 15 5 16 6 17 2 18 1 19 14 20 15 21 16 22 21 24 22 25 23 26
REMARK SMILES IDX 24 27 25 28 26 29 87 30 27 31 86 32 28 33 29 34 30 35 80 36
REMARK SMILES IDX 31 37 85 38 79 39 81 40 32 41 84 42 78 43 77 44 33 46 65 47
REMARK SMILES IDX 45 48 64 49 46 50 49 51 63 52 82 53 47 54 48 55 62 57 83 58
REMARK SMILES IDX 50 59 34 60 35 61 43 62 36 63 42 64 44 65 41 66 37 67 38 68
REMARK SMILES IDX 39 69 40 70 66 71 67 72 75 73 68 74 74 75 76 76 73 77 69 78
REMARK SMILES IDX 70 79 71 80 72 81 51 82 52 83 60 84 53 85 59 86 61 87 58 88
REMARK SMILES IDX 54 89 55 90 56 91 57 92
REMARK H PARENT 9 9 12 11 16 23 81 45 49 56
REMARK Flexibility Score: inf
ROOT
ATOM      1  C   UNL A   1      31.123  30.605  25.182  1.00  0.00     0.274 C 
ENDROOT
BRANCH   1   2
ATOM      2  O   UNL A   1      31.197  29.206  25.523  1.00  0.00    -0.461 OA
BRANCH   2   3
ATOM      3  C   UNL A   1      31.951  28.430  24.689  1.00  0.00     0.328 C 
ATOM      4  O   UNL A   1      32.821  27.650  25.059  1.00  0.00    -0.250 OA
BRANCH   3   5
ATOM      5  C   UNL A   1      31.617  28.674  23.207  1.00  0.00     0.196 C 
BRANCH   5   6
ATOM      6  N   UNL A   1      32.511  27.992  22.278  1.00  0.00    -0.324 N 
ATOM      7  N   UNL A   1      32.173  25.668  22.570  1.00  0.00    -0.333 N 
ATOM      8  C   UNL A   1      32.842  26.714  22.076  1.00  0.00     0.315 C 
ATOM      9  H   UNL A   1      32.686  24.831  22.506  1.00  0.00     0.165 HD
ATOM     10  O   UNL A   1      33.848  26.492  21.398  1.00  0.00    -0.249 OA
ATOM     11  H   UNL A   1      32.973  28.609  21.667  1.00  0.00     0.166 HD
BRANCH   7  12
ATOM     12  C   UNL A   1      30.870  25.473  23.179  1.00  0.00     0.165 C 
BRANCH  12  13
ATOM     13  C   UNL A   1      30.907  24.568  24.387  1.00  0.00     0.027 A 
ATOM     14  C   UNL A   1      31.310  23.232  24.440  1.00  0.00    -0.033 A 
ATOM     15  C   UNL A   1      31.121  22.686  25.758  1.00  0.00     0.016 A 
ATOM     16  C   UNL A   1      30.609  23.598  26.648  1.00  0.00     0.065 A 
ATOM     17  S   UNL A   1      30.396  25.123  25.936  1.00  0.00    -0.147 S 
BRANCH  14  18
ATOM     18  C   UNL A   1      31.805  22.385  23.294  1.00  0.00     0.033 C 
ATOM     19  C   UNL A   1      33.312  22.407  23.091  1.00  0.00     0.009 C 
ENDBRANCH  14  18
ENDBRANCH  12  13
ENDBRANCH   7  12
ENDBRANCH   5   6
BRANCH   5  20
ATOM     20  C   UNL A   1      30.149  28.319  22.928  1.00  0.00     0.065 C 
BRANCH  20  21
ATOM     21  C   UNL A   1      29.393  29.346  22.087  1.00  0.00     0.159 C 
BRANCH  21  22
ATOM     22  O   UNL A   1      30.259  30.034  21.197  1.00  0.00    -0.396 OA
ATOM     23  H   UNL A   1      30.946  30.494  21.705  1.00  0.00     0.210 HD
ENDBRANCH  21  22
ENDBRANCH  20  21
ENDBRANCH   5  20
ENDBRANCH   3   5
ENDBRANCH   2   3
ENDBRANCH   1   2
BRANCH   1  24
ATOM     24  C   UNL A   1      31.439  31.494  26.389  1.00  0.00     0.275 C 
BRANCH  24  25
ATOM     25  O   UNL A   1      32.627  31.065  27.083  1.00  0.00    -0.458 OA
BRANCH  25  26
ATOM     26  C   UNL A   1      33.436  32.073  27.479  1.00  0.00     0.338 C 
ATOM     27  O   UNL A   1      33.127  33.252  27.586  1.00  0.00    -0.246 OA
BRANCH  26  28
ATOM     28  C   UNL A   1      34.745  31.554  27.903  1.00  0.00     0.060 A 
ATOM     29  C   UNL A   1      34.810  30.218  28.277  1.00  0.00     0.016 A 
ATOM     30  C   UNL A   1      35.850  32.389  28.086  1.00  0.00     0.016 A 
ATOM     31  C   UNL A   1      35.950  29.731  28.905  1.00  0.00     0.010 A 
ATOM     32  C   UNL A   1      37.014  31.879  28.692  1.00  0.00     0.010 A 
ATOM     33  C   UNL A   1      37.058  30.553  29.154  1.00  0.00    -0.014 A 
BRANCH  33  34
ATOM     34  C   UNL A   1      38.177  29.997  29.975  1.00  0.00     0.031 A 
ATOM     35  C   UNL A   1      39.142  28.994  29.388  1.00  0.00     0.074 A 
ATOM     36  C   UNL A   1      38.443  30.520  31.191  1.00  0.00     0.049 A 
ATOM     37  N   UNL A   1      40.280  28.563  29.879  1.00  0.00    -0.248 NA
ATOM     38  C   UNL A   1      38.816  28.434  28.070  1.00  0.00     0.031 C 
ATOM     39  C   UNL A   1      37.644  31.552  31.855  1.00  0.00     0.029 A 
ATOM     40  N   UNL A   1      39.476  30.288  32.068  1.00  0.00    -0.354 N 
ATOM     41  C   UNL A   1      40.828  27.732  28.908  1.00  0.00     0.074 A 
ATOM     42  C   UNL A   1      39.873  27.672  27.823  1.00  0.00     0.031 C 
ATOM     43  C   UNL A   1      38.237  31.893  33.009  1.00  0.00     0.029 A 
ATOM     44  C   UNL A   1      39.419  31.059  33.207  1.00  0.00     0.049 A 
ATOM     45  H   UNL A   1      40.190  29.633  31.896  1.00  0.00     0.167 HD
ATOM     46  C   UNL A   1      42.023  27.092  28.904  1.00  0.00     0.034 A 
ATOM     47  C   UNL A   1      40.205  31.076  34.304  1.00  0.00     0.034 A 
ATOM     48  C   UNL A   1      42.945  27.072  30.011  1.00  0.00     0.049 A 
ATOM     49  C   UNL A   1      41.390  30.149  34.377  1.00  0.00     0.074 A 
ATOM     50  C   UNL A   1      44.167  26.427  30.103  1.00  0.00     0.029 A 
ATOM     51  N   UNL A   1      42.731  27.687  31.235  1.00  0.00    -0.354 N 
ATOM     52  N   UNL A   1      41.891  29.376  33.442  1.00  0.00    -0.248 NA
ATOM     53  C   UNL A   1      42.102  30.084  35.660  1.00  0.00     0.031 C 
ATOM     54  C   UNL A   1      44.646  26.577  31.410  1.00  0.00     0.029 A 
ATOM     55  C   UNL A   1      43.760  27.377  32.113  1.00  0.00     0.049 A 
ATOM     56  H   UNL A   1      41.959  28.259  31.451  1.00  0.00     0.167 HD
ATOM     57  C   UNL A   1      42.983  28.737  34.026  1.00  0.00     0.074 A 
ATOM     58  C   UNL A   1      43.080  29.234  35.383  1.00  0.00     0.031 C 
ATOM     59  C   UNL A   1      43.828  27.824  33.483  1.00  0.00     0.034 A 
BRANCH  46  60
ATOM     60  C   UNL A   1      42.378  26.310  27.667  1.00  0.00     0.023 A 
ATOM     61  C   UNL A   1      42.050  24.948  27.544  1.00  0.00     0.031 A 
ATOM     62  C   UNL A   1      43.043  26.934  26.599  1.00  0.00     0.131 A 
ATOM     63  C   UNL A   1      42.413  24.247  26.384  1.00  0.00     0.055 A 
ATOM     64  C   UNL A   1      43.366  26.241  25.431  1.00  0.00     0.041 A 
ATOM     65  F   UNL A   1      43.395  28.227  26.678  1.00  0.00    -0.206 F 
ATOM     66  C   UNL A   1      43.056  24.888  25.322  1.00  0.00     0.022 A 
BRANCH  63  67
ATOM     67  S   UNL A   1      42.115  22.458  26.314  1.00  0.00     0.124 S 
ATOM     68  O   UNL A   1      42.782  22.092  25.068  1.00  0.00    -0.237 OA
ATOM     69  O   UNL A   1      42.745  21.990  27.542  1.00  0.00    -0.237 OA
ATOM     70  O   UNL A   1      40.656  22.357  26.283  1.00  0.00    -0.744 OA
ENDBRANCH  63  67
ENDBRANCH  46  60
BRANCH  47  71
ATOM     71  C   UNL A   1      39.846  31.934  35.471  1.00  0.00     0.023 A 
ATOM     72  C   UNL A   1      38.960  31.494  36.465  1.00  0.00     0.031 A 
ATOM     73  C   UNL A   1      40.354  33.244  35.573  1.00  0.00     0.131 A 
ATOM     74  C   UNL A   1      38.592  32.363  37.506  1.00  0.00     0.055 A 
ATOM     75  C   UNL A   1      40.027  34.083  36.637  1.00  0.00     0.041 A 
ATOM     76  F   UNL A   1      41.191  33.722  34.639  1.00  0.00    -0.206 F 
ATOM     77  C   UNL A   1      39.132  33.647  37.607  1.00  0.00     0.022 A 
BRANCH  74  78
ATOM     78  S   UNL A   1      37.332  31.820  38.694  1.00  0.00     0.124 S 
ATOM     79  O   UNL A   1      38.062  31.885  39.954  1.00  0.00    -0.237 OA
ATOM     80  O   UNL A   1      36.286  32.820  38.504  1.00  0.00    -0.237 OA
ATOM     81  O   UNL A   1      36.992  30.474  38.237  1.00  0.00    -0.744 OA
ENDBRANCH  74  78
ENDBRANCH  47  71
BRANCH  59  82
ATOM     82  C   UNL A   1      44.927  27.295  34.372  1.00  0.00     0.023 A 
ATOM     83  C   UNL A   1      46.171  27.947  34.460  1.00  0.00     0.031 A 
ATOM     84  C   UNL A   1      44.745  26.117  35.117  1.00  0.00     0.131 A 
ATOM     85  C   UNL A   1      47.202  27.389  35.231  1.00  0.00     0.055 A 
ATOM     86  C   UNL A   1      45.757  25.596  35.927  1.00  0.00     0.041 A 
ATOM     87  F   UNL A   1      43.582  25.450  35.068  1.00  0.00    -0.206 F 
ATOM     88  C   UNL A   1      46.998  26.225  35.976  1.00  0.00     0.022 A 
BRANCH  85  89
ATOM     89  S   UNL A   1      48.846  28.153  35.172  1.00  0.00     0.124 S 
ATOM     90  O   UNL A   1      49.722  27.012  35.417  1.00  0.00    -0.237 OA
ATOM     91  O   UNL A   1      48.884  28.708  33.822  1.00  0.00    -0.237 OA
ATOM     92  O   UNL A   1      48.803  29.142  36.248  1.00  0.00    -0.744 OA
ENDBRANCH  85  89
ENDBRANCH  59  82
ENDBRANCH  33  34
ENDBRANCH  26  28
ENDBRANCH  25  26
ENDBRANCH  24  25
ENDBRANCH   1  24
TORSDOF 21
ENDMDL
MODEL 3
REMARK VINA RESULT:     -10.1      1.686      2.245
REMARK SMILES CCc1ccsc1CNC(=O)N[C@@H](CCO)C(=O)OCCOC(=O)c1ccc(-c2c3nc(c(-c4cc(S(=O)(=O)[O-])ccc4F)c4ccc([nH]4)c(-c4cc(S(=O)(=O)[O-])ccc4F)c4nc(c(-c5cc(S(=O)(=O)[O-])ccc5F)c5ccc2[nH]5)C=C4)C=C3)cc1
REMARK SMILES IDX 20 1 19 2 17 3 18 4 13 5 12 6 9 7 10 8 11 10 8 12 7 13 3 14
REMARK SMILES IDX 4 15 5 16 6 17 2 18 1 19 14 20 15 21 16 22 21 24 22 25 23 26
REMARK SMILES IDX 24 27 25 28 26 29 87 30 27 31 86 32 28 33 29 34 30 35 80 36
REMARK SMILES IDX 31 37 85 38 79 39 81 40 32 41 84 42 78 43 77 44 33 46 65 47
REMARK SMILES IDX 45 48 64 49 46 50 49 51 63 52 82 53 47 54 48 55 62 57 83 58
REMARK SMILES IDX 50 59 34 60 35 61 43 62 36 63 42 64 44 65 41 66 37 67 38 68
REMARK SMILES IDX 39 69 40 70 66 71 67 72 75 73 68 74 74 75 76 76 73 77 69 78
REMARK SMILES IDX 70 79 71 80 72 81 51 82 52 83 60 84 53 85 59 86 61 87 58 88
REMARK SMILES IDX 54 89 55 90 56 91 57 92
REMARK H PARENT 9 9 12 11 16 23 81 45 49 56
REMARK Flexibility Score: inf
ROOT
ATOM      1  C   UNL A   1      31.369  29.821  24.784  1.00  0.00     0.274 C 
ENDROOT
BRANCH   1   2
ATOM      2  O   UNL A   1      32.578  29.037  24.763  1.00  0.00    -0.461 OA
BRANCH   2   3
ATOM      3  C   UNL A   1      32.873  28.428  23.577  1.00  0.00     0.328 C 
ATOM      4  O   UNL A   1      33.930  28.558  22.970  1.00  0.00    -0.250 OA
BRANCH   3   5
ATOM      5  C   UNL A   1      31.701  27.580  23.051  1.00  0.00     0.196 C 
BRANCH   5   6
ATOM      6  N   UNL A   1      32.006  26.841  21.831  1.00  0.00    -0.324 N 
ATOM      7  N   UNL A   1      33.771  25.351  22.346  1.00  0.00    -0.333 N 
ATOM      8  C   UNL A   1      32.958  25.972  21.485  1.00  0.00     0.315 C 
ATOM      9  H   UNL A   1      34.541  24.933  21.898  1.00  0.00     0.165 HD
ATOM     10  O   UNL A   1      33.103  25.744  20.281  1.00  0.00    -0.249 OA
ATOM     11  H   UNL A   1      31.369  27.023  21.103  1.00  0.00     0.166 HD
BRANCH   7  12
ATOM     12  C   UNL A   1      33.789  25.149  23.783  1.00  0.00     0.165 C 
BRANCH  12  13
ATOM     13  C   UNL A   1      33.684  23.696  24.181  1.00  0.00     0.027 A 
ATOM     14  C   UNL A   1      34.684  22.723  24.127  1.00  0.00    -0.033 A 
ATOM     15  C   UNL A   1      34.173  21.433  24.511  1.00  0.00     0.016 A 
ATOM     16  C   UNL A   1      32.842  21.463  24.849  1.00  0.00     0.065 A 
ATOM     17  S   UNL A   1      32.203  23.033  24.761  1.00  0.00    -0.147 S 
BRANCH  14  18
ATOM     18  C   UNL A   1      36.107  22.904  23.660  1.00  0.00     0.033 C 
ATOM     19  C   UNL A   1      37.104  21.926  24.262  1.00  0.00     0.009 C 
ENDBRANCH  14  18
ENDBRANCH  12  13
ENDBRANCH   7  12
ENDBRANCH   5   6
BRANCH   5  20
ATOM     20  C   UNL A   1      31.186  26.644  24.155  1.00  0.00     0.065 C 
BRANCH  20  21
ATOM     21  C   UNL A   1      29.800  26.056  23.896  1.00  0.00     0.159 C 
BRANCH  21  22
ATOM     22  O   UNL A   1      29.124  25.755  25.108  1.00  0.00    -0.396 OA
ATOM     23  H   UNL A   1      28.175  25.660  24.934  1.00  0.00     0.210 HD
ENDBRANCH  21  22
ENDBRANCH  20  21
ENDBRANCH   5  20
ENDBRANCH   3   5
ENDBRANCH   2   3
ENDBRANCH   1   2
BRANCH   1  24
ATOM     24  C   UNL A   1      31.403  30.877  25.893  1.00  0.00     0.275 C 
BRANCH  24  25
ATOM     25  O   UNL A   1      32.426  30.603  26.871  1.00  0.00    -0.458 OA
BRANCH  25  26
ATOM     26  C   UNL A   1      33.161  31.682  27.226  1.00  0.00     0.338 C 
ATOM     27  O   UNL A   1      32.775  32.842  27.263  1.00  0.00    -0.246 OA
BRANCH  26  28
ATOM     28  C   UNL A   1      34.490  31.272  27.701  1.00  0.00     0.060 A 
ATOM     29  C   UNL A   1      34.665  29.934  28.033  1.00  0.00     0.016 A 
ATOM     30  C   UNL A   1      35.500  32.199  27.971  1.00  0.00     0.016 A 
ATOM     31  C   UNL A   1      35.813  29.533  28.704  1.00  0.00     0.010 A 
ATOM     32  C   UNL A   1      36.675  31.778  28.621  1.00  0.00     0.010 A 
ATOM     33  C   UNL A   1      36.824  30.445  29.039  1.00  0.00    -0.014 A 
BRANCH  33  34
ATOM     34  C   UNL A   1      37.949  29.965  29.899  1.00  0.00     0.031 A 
ATOM     35  C   UNL A   1      38.978  29.001  29.359  1.00  0.00     0.074 A 
ATOM     36  C   UNL A   1      38.158  30.528  31.108  1.00  0.00     0.049 A 
ATOM     37  N   UNL A   1      40.123  28.640  29.887  1.00  0.00    -0.248 NA
ATOM     38  C   UNL A   1      38.713  28.396  28.046  1.00  0.00     0.031 C 
ATOM     39  C   UNL A   1      37.290  31.531  31.729  1.00  0.00     0.029 A 
ATOM     40  N   UNL A   1      39.179  30.369  32.015  1.00  0.00    -0.354 N 
ATOM     41  C   UNL A   1      40.737  27.817  28.949  1.00  0.00     0.074 A 
ATOM     42  C   UNL A   1      39.813  27.684  27.843  1.00  0.00     0.031 C 
ATOM     43  C   UNL A   1      37.837  31.928  32.889  1.00  0.00     0.029 A 
ATOM     44  C   UNL A   1      39.054  31.160  33.135  1.00  0.00     0.049 A 
ATOM     45  H   UNL A   1      39.929  29.748  31.876  1.00  0.00     0.167 HD
ATOM     46  C   UNL A   1      41.963  27.239  28.987  1.00  0.00     0.034 A 
ATOM     47  C   UNL A   1      39.810  31.242  34.249  1.00  0.00     0.034 A 
ATOM     48  C   UNL A   1      42.857  27.291  30.116  1.00  0.00     0.049 A 
ATOM     49  C   UNL A   1      41.039  30.379  34.371  1.00  0.00     0.074 A 
ATOM     50  C   UNL A   1      44.108  26.712  30.253  1.00  0.00     0.029 A 
ATOM     51  N   UNL A   1      42.581  27.920  31.321  1.00  0.00    -0.354 N 
ATOM     52  N   UNL A   1      41.602  29.612  33.467  1.00  0.00    -0.248 NA
ATOM     53  C   UNL A   1      41.721  30.379  35.672  1.00  0.00     0.031 C 
ATOM     54  C   UNL A   1      44.546  26.915  31.567  1.00  0.00     0.029 A 
ATOM     55  C   UNL A   1      43.603  27.683  32.229  1.00  0.00     0.049 A 
ATOM     56  H   UNL A   1      41.776  28.457  31.505  1.00  0.00     0.167 HD
ATOM     57  C   UNL A   1      42.709  29.043  34.092  1.00  0.00     0.074 A 
ATOM     58  C   UNL A   1      42.748  29.574  35.438  1.00  0.00     0.031 C 
ATOM     59  C   UNL A   1      43.614  28.163  33.590  1.00  0.00     0.034 A 
BRANCH  46  60
ATOM     60  C   UNL A   1      42.388  26.450  27.778  1.00  0.00     0.023 A 
ATOM     61  C   UNL A   1      42.042  25.094  27.631  1.00  0.00     0.031 A 
ATOM     62  C   UNL A   1      43.138  27.060  26.760  1.00  0.00     0.131 A 
ATOM     63  C   UNL A   1      42.471  24.386  26.498  1.00  0.00     0.055 A 
ATOM     64  C   UNL A   1      43.528  26.360  25.616  1.00  0.00     0.041 A 
ATOM     65  F   UNL A   1      43.510  28.345  26.864  1.00  0.00    -0.206 F 
ATOM     66  C   UNL A   1      43.200  25.013  25.484  1.00  0.00     0.022 A 
BRANCH  63  67
ATOM     67  S   UNL A   1      42.143  22.603  26.406  1.00  0.00     0.124 S 
ATOM     68  O   UNL A   1      40.708  22.549  26.667  1.00  0.00    -0.237 OA
ATOM     69  O   UNL A   1      42.561  22.280  25.047  1.00  0.00    -0.237 OA
ATOM     70  O   UNL A   1      42.983  22.047  27.466  1.00  0.00    -0.744 OA
ENDBRANCH  63  67
ENDBRANCH  46  60
BRANCH  47  71
ATOM     71  C   UNL A   1      39.380  32.106  35.387  1.00  0.00     0.023 A 
ATOM     72  C   UNL A   1      39.842  33.423  35.528  1.00  0.00     0.031 A 
ATOM     73  C   UNL A   1      38.532  31.593  36.389  1.00  0.00     0.131 A 
ATOM     74  C   UNL A   1      39.471  34.175  36.655  1.00  0.00     0.055 A 
ATOM     75  C   UNL A   1      38.124  32.362  37.477  1.00  0.00     0.041 A 
ATOM     76  F   UNL A   1      38.076  30.333  36.312  1.00  0.00    -0.206 F 
ATOM     77  C   UNL A   1      38.602  33.660  37.621  1.00  0.00     0.022 A 
BRANCH  74  78
ATOM     78  S   UNL A   1      40.200  35.821  36.886  1.00  0.00     0.124 S 
ATOM     79  O   UNL A   1      39.636  36.557  35.762  1.00  0.00    -0.237 OA
ATOM     80  O   UNL A   1      39.704  36.188  38.209  1.00  0.00    -0.237 OA
ATOM     81  O   UNL A   1      41.637  35.570  36.811  1.00  0.00    -0.744 OA
ENDBRANCH  74  78
ENDBRANCH  47  71
BRANCH  59  82
ATOM     82  C   UNL A   1      44.715  27.711  34.517  1.00  0.00     0.023 A 
ATOM     83  C   UNL A   1      44.570  26.561  35.315  1.00  0.00     0.031 A 
ATOM     84  C   UNL A   1      45.908  28.445  34.629  1.00  0.00     0.131 A 
ATOM     85  C   UNL A   1      45.576  26.209  36.228  1.00  0.00     0.055 A 
ATOM     86  C   UNL A   1      46.930  28.059  35.499  1.00  0.00     0.041 A 
ATOM     87  F   UNL A   1      46.100  29.553  33.897  1.00  0.00    -0.206 F 
ATOM     88  C   UNL A   1      46.762  26.943  36.314  1.00  0.00     0.022 A 
BRANCH  85  89
ATOM     89  S   UNL A   1      45.275  24.832  37.370  1.00  0.00     0.124 S 
ATOM     90  O   UNL A   1      44.215  25.366  38.219  1.00  0.00    -0.237 OA
ATOM     91  O   UNL A   1      44.885  23.755  36.465  1.00  0.00    -0.237 OA
ATOM     92  O   UNL A   1      46.565  24.648  38.033  1.00  0.00    -0.744 OA
ENDBRANCH  85  89
ENDBRANCH  59  82
ENDBRANCH  33  34
ENDBRANCH  26  28
ENDBRANCH  25  26
ENDBRANCH  24  25
ENDBRANCH   1  24
TORSDOF 21
ENDMDL
