MODEL 1
REMARK VINA RESULT:     -13.1      0.000      0.000
REMARK SMILES O=C(CCN1C(=O)/C(=C/c2c3ccccc3cc3ccccc23)SC1=S)OCCOC(=O)c1ccc(-c2c3nc(c(-c4cc(S(=O)(=O)[O-])ccc4F)c4ccc([nH]4)c(-c4cc(S(=O)(=O)[O-])ccc4F)c4nc(c(-c5cc(S(=O)(=O)[O-])ccc5F)c5ccc2[nH]5)C=C4)C=C3)cc1
REMARK SMILES IDX 28 1 27 2 2 3 1 4 3 5 4 6 5 7 6 8 25 9 7 10 8 11 24 12 26 13
REMARK SMILES IDX 9 14 10 15 11 16 23 17 12 18 16 19 18 20 22 21 13 22 15 23
REMARK SMILES IDX 17 24 19 25 21 26 14 27 20 28 29 29 30 30 31 31 32 32 33 33
REMARK SMILES IDX 34 34 95 35 35 36 94 37 36 38 37 39 38 40 88 41 39 42 93 43
REMARK SMILES IDX 87 44 89 45 40 46 92 47 86 48 85 49 41 51 73 52 53 53 72 54
REMARK SMILES IDX 54 55 57 56 71 57 90 58 55 59 56 60 70 62 91 63 58 64 42 65
REMARK SMILES IDX 43 66 51 67 44 68 50 69 52 70 49 71 45 72 46 73 47 74 48 75
REMARK SMILES IDX 74 76 75 77 83 78 76 79 82 80 84 81 81 82 77 83 78 84 79 85
REMARK SMILES IDX 80 86 59 87 60 88 68 89 61 90 67 91 69 92 66 93 62 94 63 95
REMARK SMILES IDX 64 96 65 97
REMARK H PARENT 89 50 57 61
REMARK Flexibility Score: inf
ROOT
ATOM      1  C   UNL A   1      35.352  21.288  24.994  1.00  0.00     0.274 C 
ENDROOT
BRANCH   1   2
ATOM      2  O   UNL A   1      34.266  20.349  24.899  1.00  0.00    -0.462 OA
BRANCH   2   3
ATOM      3  C   UNL A   1      33.026  20.819  24.592  1.00  0.00     0.307 C 
ATOM      4  O   UNL A   1      32.016  20.184  24.872  1.00  0.00    -0.252 OA
BRANCH   3   5
ATOM      5  C   UNL A   1      32.985  22.071  23.747  1.00  0.00     0.144 C 
BRANCH   5   6
ATOM      6  C   UNL A   1      31.586  22.657  23.560  1.00  0.00     0.139 C 
BRANCH   6   7
ATOM      7  N   UNL A   1      31.426  23.971  24.196  1.00  0.00    -0.292 N 
ATOM      8  C   UNL A   1      31.704  25.116  23.468  1.00  0.00     0.266 C 
ATOM      9  C   UNL A   1      31.035  24.175  25.503  1.00  0.00     0.148 C 
ATOM     10  O   UNL A   1      32.182  25.169  22.345  1.00  0.00    -0.268 OA
ATOM     11  C   UNL A   1      31.315  26.327  24.246  1.00  0.00     0.081 C 
ATOM     12  S   UNL A   1      30.513  25.845  25.684  1.00  0.00    -0.054 SA
ATOM     13  S   UNL A   1      30.979  23.088  26.762  1.00  0.00    -0.052 S 
ATOM     14  C   UNL A   1      31.578  27.559  23.783  1.00  0.00     0.030 C 
BRANCH  14  15
ATOM     15  C   UNL A   1      31.070  28.870  24.277  1.00  0.00    -0.009 A 
ATOM     16  C   UNL A   1      29.902  29.498  23.736  1.00  0.00    -0.010 A 
ATOM     17  C   UNL A   1      31.827  29.508  25.323  1.00  0.00    -0.010 A 
ATOM     18  C   UNL A   1      28.994  28.891  22.832  1.00  0.00     0.009 A 
ATOM     19  C   UNL A   1      29.615  30.827  24.118  1.00  0.00    -0.017 A 
ATOM     20  C   UNL A   1      31.437  30.796  25.751  1.00  0.00    -0.017 A 
ATOM     21  C   UNL A   1      32.957  28.941  25.976  1.00  0.00     0.009 A 
ATOM     22  C   UNL A   1      27.960  29.602  22.219  1.00  0.00     0.001 A 
ATOM     23  C   UNL A   1      28.568  31.535  23.502  1.00  0.00     0.009 A 
ATOM     24  C   UNL A   1      30.373  31.446  25.118  1.00  0.00     0.017 A 
ATOM     25  C   UNL A   1      32.117  31.440  26.802  1.00  0.00     0.009 A 
ATOM     26  C   UNL A   1      33.622  29.586  27.022  1.00  0.00     0.001 A 
ATOM     27  C   UNL A   1      27.763  30.936  22.537  1.00  0.00     0.001 A 
ATOM     28  C   UNL A   1      33.196  30.835  27.442  1.00  0.00     0.001 A 
ENDBRANCH  14  15
ENDBRANCH   6   7
ENDBRANCH   5   6
ENDBRANCH   3   5
ENDBRANCH   2   3
ENDBRANCH   1   2
BRANCH   1  29
ATOM     29  C   UNL A   1      36.729  20.623  25.054  1.00  0.00     0.275 C 
BRANCH  29  30
ATOM     30  O   UNL A   1      37.768  21.612  25.079  1.00  0.00    -0.458 OA
BRANCH  30  31
ATOM     31  C   UNL A   1      38.853  21.255  25.818  1.00  0.00     0.338 C 
ATOM     32  O   UNL A   1      39.401  20.172  25.813  1.00  0.00    -0.246 OA
BRANCH  31  33
ATOM     33  C   UNL A   1      39.420  22.457  26.474  1.00  0.00     0.060 A 
ATOM     34  C   UNL A   1      38.839  23.688  26.153  1.00  0.00     0.016 A 
ATOM     35  C   UNL A   1      40.469  22.394  27.398  1.00  0.00     0.016 A 
ATOM     36  C   UNL A   1      39.333  24.864  26.717  1.00  0.00     0.010 A 
ATOM     37  C   UNL A   1      40.964  23.576  27.963  1.00  0.00     0.010 A 
ATOM     38  C   UNL A   1      40.419  24.821  27.600  1.00  0.00    -0.014 A 
BRANCH  38  39
ATOM     39  C   UNL A   1      41.078  26.091  27.994  1.00  0.00     0.031 A 
ATOM     40  C   UNL A   1      42.498  26.334  27.558  1.00  0.00     0.074 A 
ATOM     41  C   UNL A   1      40.411  27.046  28.669  1.00  0.00     0.049 A 
ATOM     42  N   UNL A   1      43.250  27.391  27.724  1.00  0.00    -0.248 NA
ATOM     43  C   UNL A   1      43.152  25.234  26.833  1.00  0.00     0.031 C 
ATOM     44  C   UNL A   1      39.023  26.950  29.118  1.00  0.00     0.029 A 
ATOM     45  N   UNL A   1      40.815  28.291  29.087  1.00  0.00    -0.354 N 
ATOM     46  C   UNL A   1      44.459  27.094  27.104  1.00  0.00     0.074 A 
ATOM     47  C   UNL A   1      44.356  25.736  26.612  1.00  0.00     0.031 C 
ATOM     48  C   UNL A   1      38.690  28.091  29.749  1.00  0.00     0.029 A 
ATOM     49  C   UNL A   1      39.845  28.988  29.769  1.00  0.00     0.049 A 
ATOM     50  H   UNL A   1      41.714  28.649  28.915  1.00  0.00     0.167 HD
ATOM     51  C   UNL A   1      45.548  27.885  26.940  1.00  0.00     0.034 A 
ATOM     52  C   UNL A   1      39.889  30.206  30.349  1.00  0.00     0.034 A 
ATOM     53  C   UNL A   1      45.657  29.226  27.459  1.00  0.00     0.049 A 
ATOM     54  C   UNL A   1      41.155  31.027  30.253  1.00  0.00     0.074 A 
ATOM     55  C   UNL A   1      46.715  30.111  27.345  1.00  0.00     0.029 A 
ATOM     56  N   UNL A   1      44.682  29.871  28.207  1.00  0.00    -0.354 N 
ATOM     57  N   UNL A   1      42.282  30.745  29.639  1.00  0.00    -0.248 NA
ATOM     58  C   UNL A   1      41.148  32.338  30.918  1.00  0.00     0.031 C 
ATOM     59  C   UNL A   1      46.410  31.259  28.084  1.00  0.00     0.029 A 
ATOM     60  C   UNL A   1      45.129  31.126  28.594  1.00  0.00     0.049 A 
ATOM     61  H   UNL A   1      43.801  29.493  28.431  1.00  0.00     0.167 HD
ATOM     62  C   UNL A   1      43.100  31.859  29.815  1.00  0.00     0.074 A 
ATOM     63  C   UNL A   1      42.337  32.818  30.585  1.00  0.00     0.031 C 
ATOM     64  C   UNL A   1      44.366  32.073  29.372  1.00  0.00     0.034 A 
BRANCH  51  65
ATOM     65  C   UNL A   1      46.721  27.291  26.201  1.00  0.00     0.023 A 
ATOM     66  C   UNL A   1      47.721  26.565  26.872  1.00  0.00     0.031 A 
ATOM     67  C   UNL A   1      46.863  27.487  24.816  1.00  0.00     0.131 A 
ATOM     68  C   UNL A   1      48.853  26.123  26.172  1.00  0.00     0.055 A 
ATOM     69  C   UNL A   1      47.955  26.977  24.111  1.00  0.00     0.041 A 
ATOM     70  F   UNL A   1      45.953  28.194  24.130  1.00  0.00    -0.206 F 
ATOM     71  C   UNL A   1      48.965  26.303  24.793  1.00  0.00     0.022 A 
BRANCH  68  72
ATOM     72  S   UNL A   1      50.242  25.437  27.115  1.00  0.00     0.124 S 
ATOM     73  O   UNL A   1      49.633  24.258  27.723  1.00  0.00    -0.237 OA
ATOM     74  O   UNL A   1      51.233  25.181  26.077  1.00  0.00    -0.237 OA
ATOM     75  O   UNL A   1      50.580  26.507  28.051  1.00  0.00    -0.744 OA
ENDBRANCH  68  72
ENDBRANCH  51  65
BRANCH  52  76
ATOM     76  C   UNL A   1      38.715  30.727  31.107  1.00  0.00     0.023 A 
ATOM     77  C   UNL A   1      37.764  31.560  30.495  1.00  0.00     0.031 A 
ATOM     78  C   UNL A   1      38.572  30.458  32.479  1.00  0.00     0.131 A 
ATOM     79  C   UNL A   1      36.742  32.136  31.266  1.00  0.00     0.055 A 
ATOM     80  C   UNL A   1      37.524  30.993  33.230  1.00  0.00     0.041 A 
ATOM     81  F   UNL A   1      39.455  29.670  33.113  1.00  0.00    -0.206 F 
ATOM     82  C   UNL A   1      36.608  31.849  32.626  1.00  0.00     0.022 A 
BRANCH  79  83
ATOM     83  S   UNL A   1      35.637  33.344  30.481  1.00  0.00     0.124 S 
ATOM     84  O   UNL A   1      34.387  32.597  30.409  1.00  0.00    -0.237 OA
ATOM     85  O   UNL A   1      35.672  34.448  31.434  1.00  0.00    -0.237 OA
ATOM     86  O   UNL A   1      36.282  33.610  29.198  1.00  0.00    -0.744 OA
ENDBRANCH  79  83
ENDBRANCH  52  76
BRANCH  64  87
ATOM     87  C   UNL A   1      44.987  33.418  29.668  1.00  0.00     0.023 A 
ATOM     88  C   UNL A   1      44.806  34.524  28.819  1.00  0.00     0.031 A 
ATOM     89  C   UNL A   1      45.770  33.593  30.823  1.00  0.00     0.131 A 
ATOM     90  C   UNL A   1      45.440  35.743  29.113  1.00  0.00     0.055 A 
ATOM     91  C   UNL A   1      46.351  34.823  31.139  1.00  0.00     0.041 A 
ATOM     92  F   UNL A   1      45.977  32.572  31.669  1.00  0.00    -0.206 F 
ATOM     93  C   UNL A   1      46.197  35.903  30.276  1.00  0.00     0.022 A 
BRANCH  90  94
ATOM     94  S   UNL A   1      45.323  37.100  27.915  1.00  0.00     0.124 S 
ATOM     95  O   UNL A   1      43.916  37.476  28.016  1.00  0.00    -0.237 OA
ATOM     96  O   UNL A   1      46.279  38.067  28.442  1.00  0.00    -0.237 OA
ATOM     97  O   UNL A   1      45.708  36.475  26.650  1.00  0.00    -0.744 OA
ENDBRANCH  90  94
ENDBRANCH  64  87
ENDBRANCH  38  39
ENDBRANCH  31  33
ENDBRANCH  30  31
ENDBRANCH  29  30
ENDBRANCH   1  29
TORSDOF 17
ENDMDL
MODEL 2
REMARK VINA RESULT:     -13.0      1.516      2.618
REMARK SMILES O=C(CCN1C(=O)/C(=C/c2c3ccccc3cc3ccccc23)SC1=S)OCCOC(=O)c1ccc(-c2c3nc(c(-c4cc(S(=O)(=O)[O-])ccc4F)c4ccc([nH]4)c(-c4cc(S(=O)(=O)[O-])ccc4F)c4nc(c(-c5cc(S(=O)(=O)[O-])ccc5F)c5ccc2[nH]5)C=C4)C=C3)cc1
REMARK SMILES IDX 28 1 27 2 2 3 1 4 3 5 4 6 5 7 6 8 25 9 7 10 8 11 24 12 26 13
REMARK SMILES IDX 9 14 10 15 11 16 23 17 12 18 16 19 18 20 22 21 13 22 15 23
REMARK SMILES IDX 17 24 19 25 21 26 14 27 20 28 29 29 30 30 31 31 32 32 33 33
REMARK SMILES IDX 34 34 95 35 35 36 94 37 36 38 37 39 38 40 88 41 39 42 93 43
REMARK SMILES IDX 87 44 89 45 40 46 92 47 86 48 85 49 41 51 73 52 53 53 72 54
REMARK SMILES IDX 54 55 57 56 71 57 90 58 55 59 56 60 70 62 91 63 58 64 42 65
REMARK SMILES IDX 43 66 51 67 44 68 50 69 52 70 49 71 45 72 46 73 47 74 48 75
REMARK SMILES IDX 74 76 75 77 83 78 76 79 82 80 84 81 81 82 77 83 78 84 79 85
REMARK SMILES IDX 80 86 59 87 60 88 68 89 61 90 67 91 69 92 66 93 62 94 63 95
REMARK SMILES IDX 64 96 65 97
REMARK H PARENT 89 50 57 61
REMARK Flexibility Score: inf
ROOT
ATOM      1  C   UNL A   1      36.194  20.994  25.425  1.00  0.00     0.274 C 
ENDROOT
BRANCH   1   2
ATOM      2  O   UNL A   1      35.255  19.977  25.031  1.00  0.00    -0.462 OA
BRANCH   2   3
ATOM      3  C   UNL A   1      33.967  20.344  24.783  1.00  0.00     0.307 C 
ATOM      4  O   UNL A   1      33.026  19.652  25.150  1.00  0.00    -0.252 OA
BRANCH   3   5
ATOM      5  C   UNL A   1      33.785  21.551  23.893  1.00  0.00     0.144 C 
BRANCH   5   6
ATOM      6  C   UNL A   1      32.395  22.183  23.970  1.00  0.00     0.139 C 
BRANCH   6   7
ATOM      7  N   UNL A   1      32.406  23.516  24.585  1.00  0.00    -0.292 N 
ATOM      8  C   UNL A   1      32.615  24.630  23.789  1.00  0.00     0.266 C 
ATOM      9  C   UNL A   1      32.246  23.767  25.932  1.00  0.00     0.148 C 
ATOM     10  O   UNL A   1      32.903  24.636  22.602  1.00  0.00    -0.268 OA
ATOM     11  C   UNL A   1      32.419  25.875  24.585  1.00  0.00     0.081 C 
ATOM     12  S   UNL A   1      31.843  25.466  26.148  1.00  0.00    -0.054 SA
ATOM     13  S   UNL A   1      32.346  22.710  27.214  1.00  0.00    -0.052 S 
ATOM     14  C   UNL A   1      32.660  27.083  24.050  1.00  0.00     0.030 C 
BRANCH  14  15
ATOM     15  C   UNL A   1      32.304  28.427  24.583  1.00  0.00    -0.009 A 
ATOM     16  C   UNL A   1      33.087  29.095  25.579  1.00  0.00    -0.010 A 
ATOM     17  C   UNL A   1      31.104  29.034  24.068  1.00  0.00    -0.010 A 
ATOM     18  C   UNL A   1      34.364  28.673  26.030  1.00  0.00     0.009 A 
ATOM     19  C   UNL A   1      32.565  30.265  26.173  1.00  0.00    -0.017 A 
ATOM     20  C   UNL A   1      30.676  30.263  24.617  1.00  0.00    -0.017 A 
ATOM     21  C   UNL A   1      30.295  28.491  23.031  1.00  0.00     0.009 A 
ATOM     22  C   UNL A   1      35.011  29.275  27.112  1.00  0.00     0.001 A 
ATOM     23  C   UNL A   1      33.227  30.869  27.257  1.00  0.00     0.009 A 
ATOM     24  C   UNL A   1      31.385  30.832  25.680  1.00  0.00     0.017 A 
ATOM     25  C   UNL A   1      29.536  30.916  24.114  1.00  0.00     0.009 A 
ATOM     26  C   UNL A   1      29.167  29.151  22.535  1.00  0.00     0.001 A 
ATOM     27  C   UNL A   1      34.427  30.361  27.743  1.00  0.00     0.001 A 
ATOM     28  C   UNL A   1      28.791  30.371  23.072  1.00  0.00     0.001 A 
ENDBRANCH  14  15
ENDBRANCH   6   7
ENDBRANCH   5   6
ENDBRANCH   3   5
ENDBRANCH   2   3
ENDBRANCH   1   2
BRANCH   1  29
ATOM     29  C   UNL A   1      37.639  20.673  25.034  1.00  0.00     0.275 C 
BRANCH  29  30
ATOM     30  O   UNL A   1      38.498  21.788  25.312  1.00  0.00    -0.458 OA
BRANCH  30  31
ATOM     31  C   UNL A   1      39.442  21.535  26.259  1.00  0.00     0.338 C 
ATOM     32  O   UNL A   1      40.000  20.474  26.451  1.00  0.00    -0.246 OA
BRANCH  31  33
ATOM     33  C   UNL A   1      39.866  22.810  26.886  1.00  0.00     0.060 A 
ATOM     34  C   UNL A   1      39.183  23.966  26.494  1.00  0.00     0.016 A 
ATOM     35  C   UNL A   1      40.880  22.883  27.847  1.00  0.00     0.016 A 
ATOM     36  C   UNL A   1      39.540  25.204  27.028  1.00  0.00     0.010 A 
ATOM     37  C   UNL A   1      41.237  24.127  28.381  1.00  0.00     0.010 A 
ATOM     38  C   UNL A   1      40.590  25.299  27.949  1.00  0.00    -0.014 A 
BRANCH  38  39
ATOM     39  C   UNL A   1      41.109  26.641  28.315  1.00  0.00     0.031 A 
ATOM     40  C   UNL A   1      42.538  26.977  27.984  1.00  0.00     0.074 A 
ATOM     41  C   UNL A   1      40.311  27.572  28.869  1.00  0.00     0.049 A 
ATOM     42  N   UNL A   1      43.186  28.102  28.144  1.00  0.00    -0.248 NA
ATOM     43  C   UNL A   1      43.339  25.897  27.388  1.00  0.00     0.031 C 
ATOM     44  C   UNL A   1      38.901  27.386  29.206  1.00  0.00     0.029 A 
ATOM     45  N   UNL A   1      40.576  28.869  29.239  1.00  0.00    -0.354 N 
ATOM     46  C   UNL A   1      44.465  27.874  27.648  1.00  0.00     0.074 A 
ATOM     47  C   UNL A   1      44.514  26.486  27.237  1.00  0.00     0.031 C 
ATOM     48  C   UNL A   1      38.424  28.529  29.733  1.00  0.00     0.029 A 
ATOM     49  C   UNL A   1      39.498  29.519  29.792  1.00  0.00     0.049 A 
ATOM     50  H   UNL A   1      41.456  29.292  29.120  1.00  0.00     0.167 HD
ATOM     51  C   UNL A   1      45.498  28.743  27.525  1.00  0.00     0.034 A 
ATOM     52  C   UNL A   1      39.394  30.768  30.295  1.00  0.00     0.034 A 
ATOM     53  C   UNL A   1      45.454  30.116  27.964  1.00  0.00     0.049 A 
ATOM     54  C   UNL A   1      40.594  31.686  30.252  1.00  0.00     0.074 A 
ATOM     55  C   UNL A   1      46.445  31.079  27.883  1.00  0.00     0.029 A 
ATOM     56  N   UNL A   1      44.368  30.718  28.586  1.00  0.00    -0.354 N 
ATOM     57  N   UNL A   1      41.790  31.466  29.754  1.00  0.00    -0.248 NA
ATOM     58  C   UNL A   1      40.425  33.027  30.829  1.00  0.00     0.031 C 
ATOM     59  C   UNL A   1      45.986  32.238  28.518  1.00  0.00     0.029 A 
ATOM     60  C   UNL A   1      44.679  32.026  28.927  1.00  0.00     0.049 A 
ATOM     61  H   UNL A   1      43.504  30.280  28.759  1.00  0.00     0.167 HD
ATOM     62  C   UNL A   1      42.498  32.653  29.926  1.00  0.00     0.074 A 
ATOM     63  C   UNL A   1      41.597  33.587  30.566  1.00  0.00     0.031 C 
ATOM     64  C   UNL A   1      43.777  32.948  29.576  1.00  0.00     0.034 A 
BRANCH  51  65
ATOM     65  C   UNL A   1      46.775  28.209  26.926  1.00  0.00     0.023 A 
ATOM     66  C   UNL A   1      47.006  28.241  25.540  1.00  0.00     0.031 A 
ATOM     67  C   UNL A   1      47.756  27.625  27.746  1.00  0.00     0.131 A 
ATOM     68  C   UNL A   1      48.155  27.635  25.008  1.00  0.00     0.055 A 
ATOM     69  C   UNL A   1      48.933  27.093  27.217  1.00  0.00     0.041 A 
ATOM     70  F   UNL A   1      47.577  27.545  29.074  1.00  0.00    -0.206 F 
ATOM     71  C   UNL A   1      49.131  27.084  25.839  1.00  0.00     0.022 A 
BRANCH  68  72
ATOM     72  S   UNL A   1      48.283  27.452  23.208  1.00  0.00     0.124 S 
ATOM     73  O   UNL A   1      49.582  28.063  22.941  1.00  0.00    -0.237 OA
ATOM     74  O   UNL A   1      48.209  26.007  23.031  1.00  0.00    -0.237 OA
ATOM     75  O   UNL A   1      47.135  28.203  22.706  1.00  0.00    -0.744 OA
ENDBRANCH  68  72
ENDBRANCH  51  65
BRANCH  52  76
ATOM     76  C   UNL A   1      38.120  31.230  30.916  1.00  0.00     0.023 A 
ATOM     77  C   UNL A   1      37.248  32.095  30.235  1.00  0.00     0.031 A 
ATOM     78  C   UNL A   1      37.795  30.871  32.236  1.00  0.00     0.131 A 
ATOM     79  C   UNL A   1      36.122  32.613  30.894  1.00  0.00     0.055 A 
ATOM     80  C   UNL A   1      36.647  31.348  32.870  1.00  0.00     0.041 A 
ATOM     81  F   UNL A   1      38.596  30.049  32.933  1.00  0.00    -0.206 F 
ATOM     82  C   UNL A   1      35.809  32.236  32.202  1.00  0.00     0.022 A 
BRANCH  79  83
ATOM     83  S   UNL A   1      35.115  33.862  30.046  1.00  0.00     0.124 S 
ATOM     84  O   UNL A   1      35.945  34.175  28.889  1.00  0.00    -0.237 OA
ATOM     85  O   UNL A   1      33.886  33.125  29.775  1.00  0.00    -0.237 OA
ATOM     86  O   UNL A   1      34.994  34.930  31.036  1.00  0.00    -0.744 OA
ENDBRANCH  79  83
ENDBRANCH  52  76
BRANCH  64  87
ATOM     87  C   UNL A   1      44.261  34.355  29.837  1.00  0.00     0.023 A 
ATOM     88  C   UNL A   1      44.014  35.406  28.935  1.00  0.00     0.031 A 
ATOM     89  C   UNL A   1      44.979  34.648  31.010  1.00  0.00     0.131 A 
ATOM     90  C   UNL A   1      44.522  36.688  29.199  1.00  0.00     0.055 A 
ATOM     91  C   UNL A   1      45.432  35.937  31.294  1.00  0.00     0.041 A 
ATOM     92  F   UNL A   1      45.243  33.684  31.907  1.00  0.00    -0.206 F 
ATOM     93  C   UNL A   1      45.215  36.963  30.380  1.00  0.00     0.022 A 
BRANCH  90  94
ATOM     94  S   UNL A   1      44.330  37.981  27.940  1.00  0.00     0.124 S 
ATOM     95  O   UNL A   1      44.557  39.196  28.715  1.00  0.00    -0.237 OA
ATOM     96  O   UNL A   1      45.370  37.636  26.976  1.00  0.00    -0.237 OA
ATOM     97  O   UNL A   1      42.960  37.796  27.464  1.00  0.00    -0.744 OA
ENDBRANCH  90  94
ENDBRANCH  64  87
ENDBRANCH  38  39
ENDBRANCH  31  33
ENDBRANCH  30  31
ENDBRANCH  29  30
ENDBRANCH   1  29
TORSDOF 17
ENDMDL
MODEL 3
REMARK VINA RESULT:     -12.9      4.614     10.216
REMARK SMILES O=C(CCN1C(=O)/C(=C/c2c3ccccc3cc3ccccc23)SC1=S)OCCOC(=O)c1ccc(-c2c3nc(c(-c4cc(S(=O)(=O)[O-])ccc4F)c4ccc([nH]4)c(-c4cc(S(=O)(=O)[O-])ccc4F)c4nc(c(-c5cc(S(=O)(=O)[O-])ccc5F)c5ccc2[nH]5)C=C4)C=C3)cc1
REMARK SMILES IDX 28 1 27 2 2 3 1 4 3 5 4 6 5 7 6 8 25 9 7 10 8 11 24 12 26 13
REMARK SMILES IDX 9 14 10 15 11 16 23 17 12 18 16 19 18 20 22 21 13 22 15 23
REMARK SMILES IDX 17 24 19 25 21 26 14 27 20 28 29 29 30 30 31 31 32 32 33 33
REMARK SMILES IDX 34 34 95 35 35 36 94 37 36 38 37 39 38 40 88 41 39 42 93 43
REMARK SMILES IDX 87 44 89 45 40 46 92 47 86 48 85 49 41 51 73 52 53 53 72 54
REMARK SMILES IDX 54 55 57 56 71 57 90 58 55 59 56 60 70 62 91 63 58 64 42 65
REMARK SMILES IDX 43 66 51 67 44 68 50 69 52 70 49 71 45 72 46 73 47 74 48 75
REMARK SMILES IDX 74 76 75 77 83 78 76 79 82 80 84 81 81 82 77 83 78 84 79 85
REMARK SMILES IDX 80 86 59 87 60 88 68 89 61 90 67 91 69 92 66 93 62 94 63 95
REMARK SMILES IDX 64 96 65 97
REMARK H PARENT 89 50 57 61
REMARK Flexibility Score: inf
ROOT
ATOM      1  C   UNL A   1      31.483  29.352  25.509  1.00  0.00     0.274 C 
ENDROOT
BRANCH   1   2
ATOM      2  O   UNL A   1      30.709  29.479  24.302  1.00  0.00    -0.462 OA
BRANCH   2   3
ATOM      3  C   UNL A   1      30.431  28.353  23.589  1.00  0.00     0.307 C 
ATOM      4  O   UNL A   1      30.098  28.411  22.411  1.00  0.00    -0.252 OA
BRANCH   3   5
ATOM      5  C   UNL A   1      30.394  27.065  24.377  1.00  0.00     0.144 C 
BRANCH   5   6
ATOM      6  C   UNL A   1      30.293  25.805  23.516  1.00  0.00     0.139 C 
BRANCH   6   7
ATOM      7  N   UNL A   1      31.521  25.000  23.535  1.00  0.00    -0.292 N 
ATOM      8  C   UNL A   1      31.694  24.047  24.525  1.00  0.00     0.266 C 
ATOM      9  C   UNL A   1      32.564  25.126  22.641  1.00  0.00     0.148 C 
ATOM     10  O   UNL A   1      30.965  23.852  25.486  1.00  0.00    -0.268 OA
ATOM     11  C   UNL A   1      32.918  23.241  24.255  1.00  0.00     0.081 C 
ATOM     12  S   UNL A   1      33.565  23.683  22.728  1.00  0.00    -0.054 SA
ATOM     13  S   UNL A   1      32.889  26.366  21.578  1.00  0.00    -0.052 S 
ATOM     14  C   UNL A   1      33.344  22.317  25.131  1.00  0.00     0.030 C 
BRANCH  14  15
ATOM     15  C   UNL A   1      34.379  21.262  24.945  1.00  0.00    -0.009 A 
ATOM     16  C   UNL A   1      34.058  19.933  24.518  1.00  0.00    -0.010 A 
ATOM     17  C   UNL A   1      35.740  21.627  25.241  1.00  0.00    -0.010 A 
ATOM     18  C   UNL A   1      32.791  19.513  24.043  1.00  0.00     0.009 A 
ATOM     19  C   UNL A   1      35.069  18.947  24.570  1.00  0.00    -0.017 A 
ATOM     20  C   UNL A   1      36.739  20.631  25.174  1.00  0.00    -0.017 A 
ATOM     21  C   UNL A   1      36.176  22.933  25.603  1.00  0.00     0.009 A 
ATOM     22  C   UNL A   1      32.494  18.172  23.787  1.00  0.00     0.001 A 
ATOM     23  C   UNL A   1      34.764  17.600  24.304  1.00  0.00     0.009 A 
ATOM     24  C   UNL A   1      36.384  19.310  24.883  1.00  0.00     0.017 A 
ATOM     25  C   UNL A   1      38.089  20.950  25.409  1.00  0.00     0.009 A 
ATOM     26  C   UNL A   1      37.520  23.241  25.829  1.00  0.00     0.001 A 
ATOM     27  C   UNL A   1      33.478  17.210  23.944  1.00  0.00     0.001 A 
ATOM     28  C   UNL A   1      38.480  22.249  25.723  1.00  0.00     0.001 A 
ENDBRANCH  14  15
ENDBRANCH   6   7
ENDBRANCH   5   6
ENDBRANCH   3   5
ENDBRANCH   2   3
ENDBRANCH   1   2
BRANCH   1  29
ATOM     29  C   UNL A   1      32.989  29.507  25.286  1.00  0.00     0.275 C 
BRANCH  29  30
ATOM     30  O   UNL A   1      33.713  29.192  26.483  1.00  0.00    -0.458 OA
BRANCH  30  31
ATOM     31  C   UNL A   1      34.153  30.284  27.166  1.00  0.00     0.338 C 
ATOM     32  O   UNL A   1      33.531  31.308  27.362  1.00  0.00    -0.246 OA
BRANCH  31  33
ATOM     33  C   UNL A   1      35.434  29.961  27.840  1.00  0.00     0.060 A 
ATOM     34  C   UNL A   1      36.595  30.037  27.064  1.00  0.00     0.016 A 
ATOM     35  C   UNL A   1      35.514  29.620  29.195  1.00  0.00     0.016 A 
ATOM     36  C   UNL A   1      37.834  29.729  27.625  1.00  0.00     0.010 A 
ATOM     37  C   UNL A   1      36.759  29.310  29.756  1.00  0.00     0.010 A 
ATOM     38  C   UNL A   1      37.922  29.331  28.965  1.00  0.00    -0.014 A 
BRANCH  38  39
ATOM     39  C   UNL A   1      39.203  28.778  29.471  1.00  0.00     0.031 A 
ATOM     40  C   UNL A   1      39.821  29.393  30.697  1.00  0.00     0.074 A 
ATOM     41  C   UNL A   1      39.778  27.706  28.895  1.00  0.00     0.049 A 
ATOM     42  N   UNL A   1      40.892  29.036  31.357  1.00  0.00    -0.248 NA
ATOM     43  C   UNL A   1      39.130  30.565  31.256  1.00  0.00     0.031 C 
ATOM     44  C   UNL A   1      39.263  26.997  27.725  1.00  0.00     0.029 A 
ATOM     45  N   UNL A   1      40.923  27.022  29.226  1.00  0.00    -0.354 N 
ATOM     46  C   UNL A   1      40.993  29.925  32.422  1.00  0.00     0.074 A 
ATOM     47  C   UNL A   1      39.906  30.871  32.283  1.00  0.00     0.031 C 
ATOM     48  C   UNL A   1      40.090  25.975  27.437  1.00  0.00     0.029 A 
ATOM     49  C   UNL A   1      41.203  25.971  28.385  1.00  0.00     0.049 A 
ATOM     50  H   UNL A   1      41.489  27.263  29.993  1.00  0.00     0.167 HD
ATOM     51  C   UNL A   1      41.894  29.941  33.435  1.00  0.00     0.034 A 
ATOM     52  C   UNL A   1      42.243  25.110  28.379  1.00  0.00     0.034 A 
ATOM     53  C   UNL A   1      42.994  29.015  33.552  1.00  0.00     0.049 A 
ATOM     54  C   UNL A   1      43.300  25.217  29.453  1.00  0.00     0.074 A 
ATOM     55  C   UNL A   1      43.960  28.945  34.540  1.00  0.00     0.029 A 
ATOM     56  N   UNL A   1      43.287  28.009  32.641  1.00  0.00    -0.354 N 
ATOM     57  N   UNL A   1      43.368  26.046  30.471  1.00  0.00    -0.248 NA
ATOM     58  C   UNL A   1      44.417  24.263  29.384  1.00  0.00     0.031 C 
ATOM     59  C   UNL A   1      44.876  27.947  34.191  1.00  0.00     0.029 A 
ATOM     60  C   UNL A   1      44.440  27.340  33.024  1.00  0.00     0.049 A 
ATOM     61  H   UNL A   1      42.754  27.802  31.839  1.00  0.00     0.167 HD
ATOM     62  C   UNL A   1      44.512  25.685  31.180  1.00  0.00     0.074 A 
ATOM     63  C   UNL A   1      45.100  24.563  30.479  1.00  0.00     0.031 C 
ATOM     64  C   UNL A   1      45.026  26.228  32.314  1.00  0.00     0.034 A 
BRANCH  51  65
ATOM     65  C   UNL A   1      41.742  31.027  34.470  1.00  0.00     0.023 A 
ATOM     66  C   UNL A   1      40.659  31.042  35.366  1.00  0.00     0.031 A 
ATOM     67  C   UNL A   1      42.668  32.083  34.535  1.00  0.00     0.131 A 
ATOM     68  C   UNL A   1      40.489  32.126  36.240  1.00  0.00     0.055 A 
ATOM     69  C   UNL A   1      42.535  33.120  35.460  1.00  0.00     0.041 A 
ATOM     70  F   UNL A   1      43.706  32.133  33.687  1.00  0.00    -0.206 F 
ATOM     71  C   UNL A   1      41.432  33.152  36.310  1.00  0.00     0.022 A 
BRANCH  68  72
ATOM     72  S   UNL A   1      38.942  32.247  37.181  1.00  0.00     0.124 S 
ATOM     73  O   UNL A   1      38.270  33.352  36.503  1.00  0.00    -0.237 OA
ATOM     74  O   UNL A   1      38.353  30.927  36.991  1.00  0.00    -0.237 OA
ATOM     75  O   UNL A   1      39.392  32.540  38.540  1.00  0.00    -0.744 OA
ENDBRANCH  68  72
ENDBRANCH  51  65
BRANCH  52  76
ATOM     76  C   UNL A   1      42.368  24.082  27.305  1.00  0.00     0.023 A 
ATOM     77  C   UNL A   1      41.881  22.777  27.484  1.00  0.00     0.031 A 
ATOM     78  C   UNL A   1      43.050  24.374  26.110  1.00  0.00     0.131 A 
ATOM     79  C   UNL A   1      42.127  21.800  26.507  1.00  0.00     0.055 A 
ATOM     80  C   UNL A   1      43.247  23.411  25.119  1.00  0.00     0.041 A 
ATOM     81  F   UNL A   1      43.538  25.605  25.891  1.00  0.00    -0.206 F 
ATOM     82  C   UNL A   1      42.796  22.110  25.322  1.00  0.00     0.022 A 
BRANCH  79  83
ATOM     83  S   UNL A   1      41.638  20.086  26.849  1.00  0.00     0.124 S 
ATOM     84  O   UNL A   1      42.876  19.523  27.372  1.00  0.00    -0.237 OA
ATOM     85  O   UNL A   1      40.557  20.267  27.812  1.00  0.00    -0.237 OA
ATOM     86  O   UNL A   1      41.226  19.583  25.540  1.00  0.00    -0.744 OA
ENDBRANCH  79  83
ENDBRANCH  52  76
BRANCH  64  87
ATOM     87  C   UNL A   1      46.261  25.581  32.895  1.00  0.00     0.023 A 
ATOM     88  C   UNL A   1      46.184  24.519  33.813  1.00  0.00     0.031 A 
ATOM     89  C   UNL A   1      47.538  26.037  32.518  1.00  0.00     0.131 A 
ATOM     90  C   UNL A   1      47.359  23.979  34.359  1.00  0.00     0.055 A 
ATOM     91  C   UNL A   1      48.704  25.459  33.022  1.00  0.00     0.041 A 
ATOM     92  F   UNL A   1      47.672  27.048  31.646  1.00  0.00    -0.206 F 
ATOM     93  C   UNL A   1      48.618  24.431  33.957  1.00  0.00     0.022 A 
BRANCH  90  94
ATOM     94  S   UNL A   1      47.222  22.725  35.663  1.00  0.00     0.124 S 
ATOM     95  O   UNL A   1      47.376  21.484  34.909  1.00  0.00    -0.237 OA
ATOM     96  O   UNL A   1      48.326  23.072  36.550  1.00  0.00    -0.237 OA
ATOM     97  O   UNL A   1      45.888  22.951  36.217  1.00  0.00    -0.744 OA
ENDBRANCH  90  94
ENDBRANCH  64  87
ENDBRANCH  38  39
ENDBRANCH  31  33
ENDBRANCH  30  31
ENDBRANCH  29  30
ENDBRANCH   1  29
TORSDOF 17
ENDMDL
