MODEL 1
REMARK VINA RESULT:     -13.9      0.000      0.000
REMARK SMILES O=C(OCCOC(=O)c1ccc([C@H]2CCCN(C(=O)c3ccc4[nH]ccc4c3)C2)cc1)c1ccc(-c2c3nc(c(-c4cc(S(=O)(=O)[O-])ccc4F)c4ccc([nH]4)c(-c4cc(S(=O)(=O)[O-])ccc4F)c4nc(c(-c5cc(S(=O)(=O)[O-])ccc5F)c5ccc2[nH]5)C=C4)C=C3)cc1
REMARK SMILES IDX 4 1 3 2 2 3 1 4 32 5 33 6 94 7 34 8 93 9 35 10 36 11 37 12
REMARK SMILES IDX 87 13 38 14 92 15 86 16 88 17 39 18 91 19 85 20 84 21 40 23
REMARK SMILES IDX 72 24 52 25 71 26 53 27 56 28 70 29 89 30 54 31 55 32 69 34
REMARK SMILES IDX 90 35 57 36 41 37 42 38 50 39 43 40 49 41 51 42 48 43 44 44
REMARK SMILES IDX 45 45 46 46 47 47 73 48 74 49 82 50 75 51 81 52 83 53 80 54
REMARK SMILES IDX 76 55 77 56 78 57 79 58 58 59 59 60 67 61 60 62 66 63 68 64
REMARK SMILES IDX 65 65 61 66 62 67 63 68 64 69 5 70 6 71 7 72 8 73 9 74 10 75
REMARK SMILES IDX 31 76 11 77 30 78 12 79 13 80 14 81 29 82 15 83 17 84 16 85
REMARK SMILES IDX 18 86 19 87 20 88 21 89 28 90 22 91 27 92 23 93 26 94 24 95
REMARK SMILES IDX 25 96
REMARK H PARENT 88 22 56 33 24 97
REMARK Flexibility Score: inf
ROOT
ATOM      1  C   UNL A   1      43.444  21.564  25.386  1.00  0.00     0.275 C 
ENDROOT
BRANCH   1   2
ATOM      2  O   UNL A   1      43.126  22.807  24.745  1.00  0.00    -0.458 OA
BRANCH   2   3
ATOM      3  C   UNL A   1      43.722  24.014  24.885  1.00  0.00     0.338 C 
ATOM      4  O   UNL A   1      44.766  24.226  24.268  1.00  0.00    -0.246 OA
BRANCH   3   5
ATOM      5  C   UNL A   1      43.270  25.045  25.873  1.00  0.00     0.060 A 
ATOM      6  C   UNL A   1      43.712  26.369  25.977  1.00  0.00     0.016 A 
ATOM      7  C   UNL A   1      42.312  24.608  26.796  1.00  0.00     0.016 A 
ATOM      8  C   UNL A   1      43.144  27.264  26.901  1.00  0.00     0.010 A 
ATOM      9  C   UNL A   1      41.759  25.490  27.723  1.00  0.00     0.010 A 
ATOM     10  C   UNL A   1      42.150  26.836  27.776  1.00  0.00    -0.014 A 
BRANCH  10  11
ATOM     11  C   UNL A   1      41.649  27.705  28.876  1.00  0.00     0.031 A 
ATOM     12  C   UNL A   1      42.314  27.566  30.217  1.00  0.00     0.074 A 
ATOM     13  C   UNL A   1      40.605  28.542  28.714  1.00  0.00     0.049 A 
ATOM     14  N   UNL A   1      41.966  28.052  31.376  1.00  0.00    -0.248 NA
ATOM     15  C   UNL A   1      43.534  26.743  30.245  1.00  0.00     0.031 C 
ATOM     16  C   UNL A   1      39.919  28.808  27.451  1.00  0.00     0.029 A 
ATOM     17  N   UNL A   1      39.895  29.287  29.629  1.00  0.00    -0.354 N 
ATOM     18  C   UNL A   1      42.946  27.621  32.264  1.00  0.00     0.074 A 
ATOM     19  C   UNL A   1      43.817  26.727  31.534  1.00  0.00     0.031 C 
ATOM     20  C   UNL A   1      38.834  29.570  27.684  1.00  0.00     0.029 A 
ATOM     21  C   UNL A   1      38.744  29.848  29.112  1.00  0.00     0.049 A 
ATOM     22  H   UNL A   1      40.181  29.408  30.563  1.00  0.00     0.167 HD
ATOM     23  C   UNL A   1      43.141  27.990  33.554  1.00  0.00     0.034 A 
ATOM     24  C   UNL A   1      37.716  30.469  29.731  1.00  0.00     0.034 A 
ATOM     25  C   UNL A   1      42.244  28.868  34.257  1.00  0.00     0.049 A 
ATOM     26  C   UNL A   1      37.824  30.695  31.221  1.00  0.00     0.074 A 
ATOM     27  C   UNL A   1      42.332  29.351  35.548  1.00  0.00     0.029 A 
ATOM     28  N   UNL A   1      41.069  29.381  33.716  1.00  0.00    -0.354 N 
ATOM     29  N   UNL A   1      38.774  30.311  32.045  1.00  0.00    -0.248 NA
ATOM     30  C   UNL A   1      36.745  31.457  31.861  1.00  0.00     0.031 C 
ATOM     31  C   UNL A   1      41.178  30.100  35.809  1.00  0.00     0.029 A 
ATOM     32  C   UNL A   1      40.403  30.142  34.659  1.00  0.00     0.049 A 
ATOM     33  H   UNL A   1      40.756  29.223  32.797  1.00  0.00     0.167 HD
ATOM     34  C   UNL A   1      38.448  30.857  33.284  1.00  0.00     0.074 A 
ATOM     35  C   UNL A   1      37.187  31.551  33.108  1.00  0.00     0.031 C 
ATOM     36  C   UNL A   1      39.148  30.827  34.447  1.00  0.00     0.034 A 
BRANCH  23  37
ATOM     37  C   UNL A   1      44.357  27.416  34.244  1.00  0.00     0.023 A 
ATOM     38  C   UNL A   1      44.263  26.242  35.018  1.00  0.00     0.031 A 
ATOM     39  C   UNL A   1      45.582  28.102  34.239  1.00  0.00     0.131 A 
ATOM     40  C   UNL A   1      45.323  25.869  35.858  1.00  0.00     0.055 A 
ATOM     41  C   UNL A   1      46.669  27.665  35.000  1.00  0.00     0.041 A 
ATOM     42  F   UNL A   1      45.729  29.235  33.536  1.00  0.00    -0.206 F 
ATOM     43  C   UNL A   1      46.535  26.559  35.837  1.00  0.00     0.022 A 
BRANCH  40  44
ATOM     44  S   UNL A   1      45.008  24.613  37.130  1.00  0.00     0.124 S 
ATOM     45  O   UNL A   1      46.193  24.747  37.976  1.00  0.00    -0.237 OA
ATOM     46  O   UNL A   1      43.753  25.066  37.716  1.00  0.00    -0.237 OA
ATOM     47  O   UNL A   1      44.932  23.367  36.371  1.00  0.00    -0.744 OA
ENDBRANCH  40  44
ENDBRANCH  23  37
BRANCH  24  48
ATOM     48  C   UNL A   1      36.473  30.847  28.984  1.00  0.00     0.023 A 
ATOM     49  C   UNL A   1      35.954  32.149  28.967  1.00  0.00     0.031 A 
ATOM     50  C   UNL A   1      35.742  29.861  28.298  1.00  0.00     0.131 A 
ATOM     51  C   UNL A   1      34.735  32.411  28.309  1.00  0.00     0.055 A 
ATOM     52  C   UNL A   1      34.547  30.122  27.629  1.00  0.00     0.041 A 
ATOM     53  F   UNL A   1      36.193  28.608  28.263  1.00  0.00    -0.206 F 
ATOM     54  C   UNL A   1      34.031  31.407  27.639  1.00  0.00     0.022 A 
BRANCH  51  55
ATOM     55  S   UNL A   1      34.049  34.090  28.368  1.00  0.00     0.124 S 
ATOM     56  O   UNL A   1      34.773  34.747  27.287  1.00  0.00    -0.237 OA
ATOM     57  O   UNL A   1      32.631  33.841  28.133  1.00  0.00    -0.237 OA
ATOM     58  O   UNL A   1      34.383  34.550  29.715  1.00  0.00    -0.744 OA
ENDBRANCH  51  55
ENDBRANCH  24  48
BRANCH  36  59
ATOM     59  C   UNL A   1      38.616  31.653  35.589  1.00  0.00     0.023 A 
ATOM     60  C   UNL A   1      37.985  31.076  36.702  1.00  0.00     0.031 A 
ATOM     61  C   UNL A   1      38.792  33.050  35.567  1.00  0.00     0.131 A 
ATOM     62  C   UNL A   1      37.525  31.902  37.739  1.00  0.00     0.055 A 
ATOM     63  C   UNL A   1      38.379  33.857  36.624  1.00  0.00     0.041 A 
ATOM     64  F   UNL A   1      39.390  33.645  34.522  1.00  0.00    -0.206 F 
ATOM     65  C   UNL A   1      37.736  33.284  37.715  1.00  0.00     0.022 A 
BRANCH  62  66
ATOM     66  S   UNL A   1      36.598  31.155  39.108  1.00  0.00     0.124 S 
ATOM     67  O   UNL A   1      36.337  29.813  38.599  1.00  0.00    -0.237 OA
ATOM     68  O   UNL A   1      37.540  31.243  40.220  1.00  0.00    -0.237 OA
ATOM     69  O   UNL A   1      35.419  32.011  39.231  1.00  0.00    -0.744 OA
ENDBRANCH  62  66
ENDBRANCH  36  59
ENDBRANCH  10  11
ENDBRANCH   3   5
ENDBRANCH   2   3
ENDBRANCH   1   2
BRANCH   1  70
ATOM     70  C   UNL A   1      42.277  20.915  26.137  1.00  0.00     0.275 C 
BRANCH  70  71
ATOM     71  O   UNL A   1      40.982  21.382  25.724  1.00  0.00    -0.458 OA
BRANCH  71  72
ATOM     72  C   UNL A   1      40.152  21.781  26.725  1.00  0.00     0.338 C 
ATOM     73  O   UNL A   1      40.414  21.816  27.916  1.00  0.00    -0.246 OA
BRANCH  72  74
ATOM     74  C   UNL A   1      38.889  22.300  26.148  1.00  0.00     0.060 A 
ATOM     75  C   UNL A   1      38.146  21.477  25.298  1.00  0.00     0.016 A 
ATOM     76  C   UNL A   1      38.415  23.572  26.459  1.00  0.00     0.016 A 
ATOM     77  C   UNL A   1      36.882  21.887  24.846  1.00  0.00     0.005 A 
ATOM     78  C   UNL A   1      37.168  23.990  25.969  1.00  0.00     0.005 A 
ATOM     79  C   UNL A   1      36.349  23.136  25.208  1.00  0.00    -0.043 A 
BRANCH  79  80
ATOM     80  C   UNL A   1      34.904  23.489  24.816  1.00  0.00     0.039 C 
ATOM     81  C   UNL A   1      34.432  22.622  23.625  1.00  0.00     0.012 C 
ATOM     82  C   UNL A   1      33.879  23.345  25.955  1.00  0.00     0.128 C 
ATOM     83  C   UNL A   1      32.966  22.843  23.244  1.00  0.00     0.022 C 
ATOM     84  N   UNL A   1      32.500  23.554  25.518  1.00  0.00    -0.338 N 
ATOM     85  C   UNL A   1      32.052  22.664  24.449  1.00  0.00     0.120 C 
BRANCH  84  86
ATOM     86  C   UNL A   1      31.710  24.485  26.180  1.00  0.00     0.253 C 
ATOM     87  O   UNL A   1      31.137  24.271  27.247  1.00  0.00    -0.269 OA
BRANCH  86  88
ATOM     88  C   UNL A   1      31.593  25.839  25.610  1.00  0.00     0.040 A 
ATOM     89  C   UNL A   1      32.058  26.912  26.374  1.00  0.00     0.016 A 
ATOM     90  C   UNL A   1      30.986  26.031  24.361  1.00  0.00     0.024 A 
ATOM     91  C   UNL A   1      31.954  28.220  25.897  1.00  0.00     0.027 A 
ATOM     92  C   UNL A   1      30.861  27.347  23.874  1.00  0.00     0.000 A 
ATOM     93  C   UNL A   1      31.352  28.405  24.646  1.00  0.00     0.045 A 
ATOM     94  C   UNL A   1      30.306  27.916  22.695  1.00  0.00     0.028 A 
ATOM     95  N   UNL A   1      31.122  29.563  23.935  1.00  0.00    -0.361 N 
ATOM     96  C   UNL A   1      30.482  29.279  22.763  1.00  0.00     0.083 A 
ATOM     97  H   UNL A   1      31.382  30.465  24.229  1.00  0.00     0.166 HD
ENDBRANCH  86  88
ENDBRANCH  84  86
ENDBRANCH  79  80
ENDBRANCH  72  74
ENDBRANCH  71  72
ENDBRANCH  70  71
ENDBRANCH   1  70
TORSDOF 17
ENDMDL
MODEL 2
REMARK VINA RESULT:     -13.4      2.039      2.398
REMARK SMILES O=C(OCCOC(=O)c1ccc([C@H]2CCCN(C(=O)c3ccc4[nH]ccc4c3)C2)cc1)c1ccc(-c2c3nc(c(-c4cc(S(=O)(=O)[O-])ccc4F)c4ccc([nH]4)c(-c4cc(S(=O)(=O)[O-])ccc4F)c4nc(c(-c5cc(S(=O)(=O)[O-])ccc5F)c5ccc2[nH]5)C=C4)C=C3)cc1
REMARK SMILES IDX 4 1 3 2 2 3 1 4 32 5 33 6 94 7 34 8 93 9 35 10 36 11 37 12
REMARK SMILES IDX 87 13 38 14 92 15 86 16 88 17 39 18 91 19 85 20 84 21 40 23
REMARK SMILES IDX 72 24 52 25 71 26 53 27 56 28 70 29 89 30 54 31 55 32 69 34
REMARK SMILES IDX 90 35 57 36 41 37 42 38 50 39 43 40 49 41 51 42 48 43 44 44
REMARK SMILES IDX 45 45 46 46 47 47 73 48 74 49 82 50 75 51 81 52 83 53 80 54
REMARK SMILES IDX 76 55 77 56 78 57 79 58 58 59 59 60 67 61 60 62 66 63 68 64
REMARK SMILES IDX 65 65 61 66 62 67 63 68 64 69 5 70 6 71 7 72 8 73 9 74 10 75
REMARK SMILES IDX 31 76 11 77 30 78 12 79 13 80 14 81 29 82 15 83 17 84 16 85
REMARK SMILES IDX 18 86 19 87 20 88 21 89 28 90 22 91 27 92 23 93 26 94 24 95
REMARK SMILES IDX 25 96
REMARK H PARENT 88 22 56 33 24 97
REMARK Flexibility Score: inf
ROOT
ATOM      1  C   UNL A   1      42.646  21.018  25.990  1.00  0.00     0.275 C 
ENDROOT
BRANCH   1   2
ATOM      2  O   UNL A   1      42.419  22.157  25.150  1.00  0.00    -0.458 OA
BRANCH   2   3
ATOM      3  C   UNL A   1      43.087  23.335  25.113  1.00  0.00     0.338 C 
ATOM      4  O   UNL A   1      44.062  23.431  24.368  1.00  0.00    -0.246 OA
BRANCH   3   5
ATOM      5  C   UNL A   1      42.803  24.471  26.048  1.00  0.00     0.060 A 
ATOM      6  C   UNL A   1      43.471  25.699  26.114  1.00  0.00     0.016 A 
ATOM      7  C   UNL A   1      41.763  24.249  26.959  1.00  0.00     0.016 A 
ATOM      8  C   UNL A   1      43.051  26.718  26.986  1.00  0.00     0.010 A 
ATOM      9  C   UNL A   1      41.356  25.253  27.835  1.00  0.00     0.010 A 
ATOM     10  C   UNL A   1      41.978  26.510  27.847  1.00  0.00    -0.014 A 
BRANCH  10  11
ATOM     11  C   UNL A   1      41.616  27.500  28.898  1.00  0.00     0.031 A 
ATOM     12  C   UNL A   1      42.333  27.396  30.215  1.00  0.00     0.074 A 
ATOM     13  C   UNL A   1      40.645  28.419  28.719  1.00  0.00     0.049 A 
ATOM     14  N   UNL A   1      42.091  27.996  31.348  1.00  0.00    -0.248 NA
ATOM     15  C   UNL A   1      43.473  26.466  30.252  1.00  0.00     0.031 C 
ATOM     16  C   UNL A   1      39.922  28.656  27.471  1.00  0.00     0.029 A 
ATOM     17  N   UNL A   1      40.054  29.291  29.605  1.00  0.00    -0.354 N 
ATOM     18  C   UNL A   1      43.071  27.540  32.222  1.00  0.00     0.074 A 
ATOM     19  C   UNL A   1      43.819  26.517  31.526  1.00  0.00     0.031 C 
ATOM     20  C   UNL A   1      38.924  29.533  27.692  1.00  0.00     0.029 A 
ATOM     21  C   UNL A   1      38.933  29.920  29.098  1.00  0.00     0.049 A 
ATOM     22  H   UNL A   1      40.397  29.452  30.513  1.00  0.00     0.167 HD
ATOM     23  C   UNL A   1      43.365  27.981  33.470  1.00  0.00     0.034 A 
ATOM     24  C   UNL A   1      38.000  30.679  29.712  1.00  0.00     0.034 A 
ATOM     25  C   UNL A   1      42.589  28.989  34.142  1.00  0.00     0.049 A 
ATOM     26  C   UNL A   1      38.204  31.001  31.174  1.00  0.00     0.074 A 
ATOM     27  C   UNL A   1      42.787  29.554  35.387  1.00  0.00     0.029 A 
ATOM     28  N   UNL A   1      41.439  29.570  33.617  1.00  0.00    -0.354 N 
ATOM     29  N   UNL A   1      39.156  30.590  31.982  1.00  0.00    -0.248 NA
ATOM     30  C   UNL A   1      37.233  31.907  31.801  1.00  0.00     0.031 C 
ATOM     31  C   UNL A   1      41.721  30.426  35.641  1.00  0.00     0.029 A 
ATOM     32  C   UNL A   1      40.895  30.457  34.527  1.00  0.00     0.049 A 
ATOM     33  H   UNL A   1      41.067  29.377  32.727  1.00  0.00     0.167 HD
ATOM     34  C   UNL A   1      38.945  31.253  33.188  1.00  0.00     0.074 A 
ATOM     35  C   UNL A   1      37.746  32.048  33.016  1.00  0.00     0.031 C 
ATOM     36  C   UNL A   1      39.698  31.241  34.318  1.00  0.00     0.034 A 
BRANCH  23  37
ATOM     37  C   UNL A   1      44.557  27.346  34.148  1.00  0.00     0.023 A 
ATOM     38  C   UNL A   1      44.426  26.139  34.862  1.00  0.00     0.031 A 
ATOM     39  C   UNL A   1      45.797  28.003  34.193  1.00  0.00     0.131 A 
ATOM     40  C   UNL A   1      45.464  25.701  35.697  1.00  0.00     0.055 A 
ATOM     41  C   UNL A   1      46.864  27.504  34.946  1.00  0.00     0.041 A 
ATOM     42  F   UNL A   1      45.980  29.165  33.547  1.00  0.00    -0.206 F 
ATOM     43  C   UNL A   1      46.692  26.363  35.726  1.00  0.00     0.022 A 
BRANCH  40  44
ATOM     44  S   UNL A   1      45.103  24.393  36.903  1.00  0.00     0.124 S 
ATOM     45  O   UNL A   1      46.431  24.121  37.450  1.00  0.00    -0.237 OA
ATOM     46  O   UNL A   1      44.164  25.047  37.805  1.00  0.00    -0.237 OA
ATOM     47  O   UNL A   1      44.543  23.319  36.086  1.00  0.00    -0.744 OA
ENDBRANCH  40  44
ENDBRANCH  23  37
BRANCH  24  48
ATOM     48  C   UNL A   1      36.760  31.118  28.993  1.00  0.00     0.023 A 
ATOM     49  C   UNL A   1      35.814  30.222  28.478  1.00  0.00     0.031 A 
ATOM     50  C   UNL A   1      36.531  32.487  28.766  1.00  0.00     0.131 A 
ATOM     51  C   UNL A   1      34.714  30.708  27.742  1.00  0.00     0.055 A 
ATOM     52  C   UNL A   1      35.433  32.971  28.056  1.00  0.00     0.041 A 
ATOM     53  F   UNL A   1      37.386  33.389  29.246  1.00  0.00    -0.206 F 
ATOM     54  C   UNL A   1      34.517  32.075  27.530  1.00  0.00     0.022 A 
BRANCH  51  55
ATOM     55  S   UNL A   1      33.546  29.520  27.021  1.00  0.00     0.124 S 
ATOM     56  O   UNL A   1      34.334  28.949  25.935  1.00  0.00    -0.237 OA
ATOM     57  O   UNL A   1      33.280  28.639  28.154  1.00  0.00    -0.237 OA
ATOM     58  O   UNL A   1      32.419  30.354  26.606  1.00  0.00    -0.744 OA
ENDBRANCH  51  55
ENDBRANCH  24  48
BRANCH  36  59
ATOM     59  C   UNL A   1      39.303  32.194  35.416  1.00  0.00     0.023 A 
ATOM     60  C   UNL A   1      39.803  33.503  35.487  1.00  0.00     0.031 A 
ATOM     61  C   UNL A   1      38.370  31.779  36.385  1.00  0.00     0.131 A 
ATOM     62  C   UNL A   1      39.384  34.347  36.528  1.00  0.00     0.055 A 
ATOM     63  C   UNL A   1      37.920  32.637  37.385  1.00  0.00     0.041 A 
ATOM     64  F   UNL A   1      37.867  30.534  36.356  1.00  0.00    -0.206 F 
ATOM     65  C   UNL A   1      38.433  33.928  37.464  1.00  0.00     0.022 A 
BRANCH  62  66
ATOM     66  S   UNL A   1      40.135  35.990  36.680  1.00  0.00     0.124 S 
ATOM     67  O   UNL A   1      39.331  36.592  37.739  1.00  0.00    -0.237 OA
ATOM     68  O   UNL A   1      41.519  35.682  37.027  1.00  0.00    -0.237 OA
ATOM     69  O   UNL A   1      39.949  36.576  35.353  1.00  0.00    -0.744 OA
ENDBRANCH  62  66
ENDBRANCH  36  59
ENDBRANCH  10  11
ENDBRANCH   3   5
ENDBRANCH   2   3
ENDBRANCH   1   2
BRANCH   1  70
ATOM     70  C   UNL A   1      41.410  20.527  26.749  1.00  0.00     0.275 C 
BRANCH  70  71
ATOM     71  O   UNL A   1      40.188  21.179  26.365  1.00  0.00    -0.458 OA
BRANCH  71  72
ATOM     72  C   UNL A   1      39.307  20.415  25.664  1.00  0.00     0.338 C 
ATOM     73  O   UNL A   1      39.425  19.231  25.395  1.00  0.00    -0.246 OA
BRANCH  72  74
ATOM     74  C   UNL A   1      38.089  21.205  25.367  1.00  0.00     0.060 A 
ATOM     75  C   UNL A   1      38.161  22.600  25.409  1.00  0.00     0.016 A 
ATOM     76  C   UNL A   1      36.888  20.590  25.020  1.00  0.00     0.016 A 
ATOM     77  C   UNL A   1      37.064  23.376  25.000  1.00  0.00     0.005 A 
ATOM     78  C   UNL A   1      35.784  21.374  24.652  1.00  0.00     0.005 A 
ATOM     79  C   UNL A   1      35.867  22.776  24.573  1.00  0.00    -0.043 A 
BRANCH  79  80
ATOM     80  C   UNL A   1      34.742  23.653  23.995  1.00  0.00     0.039 C 
ATOM     81  C   UNL A   1      34.160  23.019  22.710  1.00  0.00     0.012 C 
ATOM     82  C   UNL A   1      33.582  23.925  24.969  1.00  0.00     0.128 C 
ATOM     83  C   UNL A   1      32.963  23.781  22.135  1.00  0.00     0.022 C 
ATOM     84  N   UNL A   1      32.468  24.642  24.350  1.00  0.00    -0.338 N 
ATOM     85  C   UNL A   1      31.881  23.980  23.188  1.00  0.00     0.120 C 
BRANCH  84  86
ATOM     86  C   UNL A   1      32.003  25.812  24.936  1.00  0.00     0.253 C 
ATOM     87  O   UNL A   1      31.904  25.986  26.150  1.00  0.00    -0.269 OA
BRANCH  86  88
ATOM     88  C   UNL A   1      31.660  26.948  24.061  1.00  0.00     0.040 A 
ATOM     89  C   UNL A   1      32.704  27.611  23.413  1.00  0.00     0.016 A 
ATOM     90  C   UNL A   1      30.328  27.366  23.934  1.00  0.00     0.024 A 
ATOM     91  C   UNL A   1      32.444  28.709  22.589  1.00  0.00     0.027 A 
ATOM     92  C   UNL A   1      30.053  28.482  23.119  1.00  0.00     0.000 A 
ATOM     93  C   UNL A   1      31.110  29.119  22.462  1.00  0.00     0.045 A 
ATOM     94  C   UNL A   1      28.866  29.183  22.771  1.00  0.00     0.028 A 
ATOM     95  N   UNL A   1      30.566  30.149  21.726  1.00  0.00    -0.361 N 
ATOM     96  C   UNL A   1      29.215  30.202  21.916  1.00  0.00     0.083 A 
ATOM     97  H   UNL A   1      31.077  30.758  21.147  1.00  0.00     0.166 HD
ENDBRANCH  86  88
ENDBRANCH  84  86
ENDBRANCH  79  80
ENDBRANCH  72  74
ENDBRANCH  71  72
ENDBRANCH  70  71
ENDBRANCH   1  70
TORSDOF 17
ENDMDL
MODEL 3
REMARK VINA RESULT:     -13.2      4.571     10.723
REMARK SMILES O=C(OCCOC(=O)c1ccc([C@H]2CCCN(C(=O)c3ccc4[nH]ccc4c3)C2)cc1)c1ccc(-c2c3nc(c(-c4cc(S(=O)(=O)[O-])ccc4F)c4ccc([nH]4)c(-c4cc(S(=O)(=O)[O-])ccc4F)c4nc(c(-c5cc(S(=O)(=O)[O-])ccc5F)c5ccc2[nH]5)C=C4)C=C3)cc1
REMARK SMILES IDX 4 1 3 2 2 3 1 4 32 5 33 6 94 7 34 8 93 9 35 10 36 11 37 12
REMARK SMILES IDX 87 13 38 14 92 15 86 16 88 17 39 18 91 19 85 20 84 21 40 23
REMARK SMILES IDX 72 24 52 25 71 26 53 27 56 28 70 29 89 30 54 31 55 32 69 34
REMARK SMILES IDX 90 35 57 36 41 37 42 38 50 39 43 40 49 41 51 42 48 43 44 44
REMARK SMILES IDX 45 45 46 46 47 47 73 48 74 49 82 50 75 51 81 52 83 53 80 54
REMARK SMILES IDX 76 55 77 56 78 57 79 58 58 59 59 60 67 61 60 62 66 63 68 64
REMARK SMILES IDX 65 65 61 66 62 67 63 68 64 69 5 70 6 71 7 72 8 73 9 74 10 75
REMARK SMILES IDX 31 76 11 77 30 78 12 79 13 80 14 81 29 82 15 83 17 84 16 85
REMARK SMILES IDX 18 86 19 87 20 88 21 89 28 90 22 91 27 92 23 93 26 94 24 95
REMARK SMILES IDX 25 96
REMARK H PARENT 88 22 56 33 24 97
REMARK Flexibility Score: inf
ROOT
ATOM      1  C   UNL A   1      34.276  34.095  30.950  1.00  0.00     0.275 C 
ENDROOT
BRANCH   1   2
ATOM      2  O   UNL A   1      34.400  32.827  31.609  1.00  0.00    -0.458 OA
BRANCH   2   3
ATOM      3  C   UNL A   1      35.363  32.401  32.460  1.00  0.00     0.338 C 
ATOM      4  O   UNL A   1      35.279  32.720  33.646  1.00  0.00    -0.246 OA
BRANCH   3   5
ATOM      5  C   UNL A   1      36.608  31.701  32.008  1.00  0.00     0.060 A 
ATOM      6  C   UNL A   1      37.528  31.010  32.806  1.00  0.00     0.016 A 
ATOM      7  C   UNL A   1      36.870  31.774  30.634  1.00  0.00     0.016 A 
ATOM      8  C   UNL A   1      38.618  30.323  32.245  1.00  0.00     0.010 A 
ATOM      9  C   UNL A   1      37.959  31.106  30.078  1.00  0.00     0.010 A 
ATOM     10  C   UNL A   1      38.837  30.352  30.871  1.00  0.00    -0.014 A 
BRANCH  10  11
ATOM     11  C   UNL A   1      40.070  29.781  30.264  1.00  0.00     0.031 A 
ATOM     12  C   UNL A   1      41.224  30.719  30.043  1.00  0.00     0.074 A 
ATOM     13  C   UNL A   1      40.148  28.496  29.864  1.00  0.00     0.049 A 
ATOM     14  N   UNL A   1      42.330  30.540  29.376  1.00  0.00    -0.248 NA
ATOM     15  C   UNL A   1      41.091  32.053  30.652  1.00  0.00     0.031 C 
ATOM     16  C   UNL A   1      39.121  27.477  30.078  1.00  0.00     0.029 A 
ATOM     17  N   UNL A   1      41.114  27.833  29.141  1.00  0.00    -0.354 N 
ATOM     18  C   UNL A   1      43.039  31.728  29.515  1.00  0.00     0.074 A 
ATOM     19  C   UNL A   1      42.179  32.658  30.211  1.00  0.00     0.031 C 
ATOM     20  C   UNL A   1      39.462  26.354  29.418  1.00  0.00     0.029 A 
ATOM     21  C   UNL A   1      40.730  26.570  28.732  1.00  0.00     0.049 A 
ATOM     22  H   UNL A   1      41.995  28.221  28.935  1.00  0.00     0.167 HD
ATOM     23  C   UNL A   1      44.318  31.999  29.154  1.00  0.00     0.034 A 
ATOM     24  C   UNL A   1      41.314  25.713  27.867  1.00  0.00     0.034 A 
ATOM     25  C   UNL A   1      45.143  31.056  28.446  1.00  0.00     0.049 A 
ATOM     26  C   UNL A   1      42.651  26.104  27.282  1.00  0.00     0.074 A 
ATOM     27  C   UNL A   1      46.460  31.179  28.047  1.00  0.00     0.029 A 
ATOM     28  N   UNL A   1      44.708  29.808  28.012  1.00  0.00    -0.354 N 
ATOM     29  N   UNL A   1      43.328  27.218  27.449  1.00  0.00    -0.248 NA
ATOM     30  C   UNL A   1      43.317  25.119  26.421  1.00  0.00     0.031 C 
ATOM     31  C   UNL A   1      46.798  30.035  27.314  1.00  0.00     0.029 A 
ATOM     32  C   UNL A   1      45.715  29.167  27.315  1.00  0.00     0.049 A 
ATOM     33  H   UNL A   1      43.812  29.435  28.176  1.00  0.00     0.167 HD
ATOM     34  C   UNL A   1      44.536  27.035  26.781  1.00  0.00     0.074 A 
ATOM     35  C   UNL A   1      44.470  25.723  26.166  1.00  0.00     0.031 C 
ATOM     36  C   UNL A   1      45.617  27.854  26.719  1.00  0.00     0.034 A 
BRANCH  23  37
ATOM     37  C   UNL A   1      44.849  33.365  29.519  1.00  0.00     0.023 A 
ATOM     38  C   UNL A   1      44.818  34.426  28.592  1.00  0.00     0.031 A 
ATOM     39  C   UNL A   1      45.500  33.584  30.744  1.00  0.00     0.131 A 
ATOM     40  C   UNL A   1      45.542  35.600  28.845  1.00  0.00     0.055 A 
ATOM     41  C   UNL A   1      46.132  34.797  31.031  1.00  0.00     0.041 A 
ATOM     42  F   UNL A   1      45.578  32.608  31.661  1.00  0.00    -0.206 F 
ATOM     43  C   UNL A   1      46.180  35.803  30.069  1.00  0.00     0.022 A 
BRANCH  40  44
ATOM     44  S   UNL A   1      45.819  36.751  27.469  1.00  0.00     0.124 S 
ATOM     45  O   UNL A   1      46.877  37.604  28.007  1.00  0.00    -0.237 OA
ATOM     46  O   UNL A   1      46.209  35.858  26.385  1.00  0.00    -0.237 OA
ATOM     47  O   UNL A   1      44.524  37.407  27.304  1.00  0.00    -0.744 OA
ENDBRANCH  40  44
ENDBRANCH  23  37
BRANCH  24  48
ATOM     48  C   UNL A   1      40.623  24.455  27.433  1.00  0.00     0.023 A 
ATOM     49  C   UNL A   1      41.202  23.184  27.546  1.00  0.00     0.031 A 
ATOM     50  C   UNL A   1      39.352  24.527  26.835  1.00  0.00     0.131 A 
ATOM     51  C   UNL A   1      40.523  22.056  27.041  1.00  0.00     0.055 A 
ATOM     52  C   UNL A   1      38.671  23.410  26.353  1.00  0.00     0.041 A 
ATOM     53  F   UNL A   1      38.743  25.705  26.715  1.00  0.00    -0.206 F 
ATOM     54  C   UNL A   1      39.262  22.161  26.448  1.00  0.00     0.022 A 
BRANCH  51  55
ATOM     55  S   UNL A   1      41.330  20.433  27.133  1.00  0.00     0.124 S 
ATOM     56  O   UNL A   1      42.733  20.805  27.267  1.00  0.00    -0.237 OA
ATOM     57  O   UNL A   1      40.702  19.854  28.316  1.00  0.00    -0.237 OA
ATOM     58  O   UNL A   1      40.969  19.798  25.866  1.00  0.00    -0.744 OA
ENDBRANCH  51  55
ENDBRANCH  24  48
BRANCH  36  59
ATOM     59  C   UNL A   1      46.853  27.310  26.051  1.00  0.00     0.023 A 
ATOM     60  C   UNL A   1      47.872  26.666  26.769  1.00  0.00     0.031 A 
ATOM     61  C   UNL A   1      46.978  27.411  24.652  1.00  0.00     0.131 A 
ATOM     62  C   UNL A   1      48.992  26.170  26.083  1.00  0.00     0.055 A 
ATOM     63  C   UNL A   1      48.067  26.871  23.973  1.00  0.00     0.041 A 
ATOM     64  F   UNL A   1      46.027  28.020  23.925  1.00  0.00    -0.206 F 
ATOM     65  C   UNL A   1      49.085  26.251  24.690  1.00  0.00     0.022 A 
BRANCH  62  66
ATOM     66  S   UNL A   1      50.358  25.456  27.037  1.00  0.00     0.124 S 
ATOM     67  O   UNL A   1      49.710  24.324  27.691  1.00  0.00    -0.237 OA
ATOM     68  O   UNL A   1      51.333  25.122  26.004  1.00  0.00    -0.237 OA
ATOM     69  O   UNL A   1      50.757  26.542  27.932  1.00  0.00    -0.744 OA
ENDBRANCH  62  66
ENDBRANCH  36  59
ENDBRANCH  10  11
ENDBRANCH   3   5
ENDBRANCH   2   3
ENDBRANCH   1   2
BRANCH   1  70
ATOM     70  C   UNL A   1      34.046  34.009  29.438  1.00  0.00     0.275 C 
BRANCH  70  71
ATOM     71  O   UNL A   1      33.756  32.684  28.963  1.00  0.00    -0.458 OA
BRANCH  71  72
ATOM     72  C   UNL A   1      34.572  32.218  27.980  1.00  0.00     0.338 C 
ATOM     73  O   UNL A   1      35.608  32.732  27.591  1.00  0.00    -0.246 OA
BRANCH  72  74
ATOM     74  C   UNL A   1      34.087  30.898  27.513  1.00  0.00     0.060 A 
ATOM     75  C   UNL A   1      32.743  30.760  27.155  1.00  0.00     0.016 A 
ATOM     76  C   UNL A   1      34.943  29.807  27.396  1.00  0.00     0.016 A 
ATOM     77  C   UNL A   1      32.285  29.564  26.581  1.00  0.00     0.005 A 
ATOM     78  C   UNL A   1      34.467  28.601  26.858  1.00  0.00     0.005 A 
ATOM     79  C   UNL A   1      33.149  28.474  26.382  1.00  0.00    -0.043 A 
BRANCH  79  80
ATOM     80  C   UNL A   1      32.648  27.235  25.619  1.00  0.00     0.039 C 
ATOM     81  C   UNL A   1      31.104  27.148  25.670  1.00  0.00     0.012 C 
ATOM     82  C   UNL A   1      33.088  27.172  24.146  1.00  0.00     0.128 C 
ATOM     83  C   UNL A   1      30.525  25.997  24.843  1.00  0.00     0.022 C 
ATOM     84  N   UNL A   1      32.486  26.060  23.413  1.00  0.00    -0.338 N 
ATOM     85  C   UNL A   1      31.025  26.048  23.405  1.00  0.00     0.120 C 
BRANCH  84  86
ATOM     86  C   UNL A   1      33.306  25.174  22.726  1.00  0.00     0.253 C 
ATOM     87  O   UNL A   1      33.781  25.394  21.612  1.00  0.00    -0.269 OA
BRANCH  86  88
ATOM     88  C   UNL A   1      33.690  23.914  23.387  1.00  0.00     0.040 A 
ATOM     89  C   UNL A   1      35.051  23.656  23.562  1.00  0.00     0.016 A 
ATOM     90  C   UNL A   1      32.708  22.992  23.776  1.00  0.00     0.024 A 
ATOM     91  C   UNL A   1      35.476  22.469  24.162  1.00  0.00     0.027 A 
ATOM     92  C   UNL A   1      33.123  21.783  24.369  1.00  0.00     0.000 A 
ATOM     93  C   UNL A   1      34.491  21.554  24.554  1.00  0.00     0.045 A 
ATOM     94  C   UNL A   1      32.441  20.638  24.862  1.00  0.00     0.028 A 
ATOM     95  N   UNL A   1      34.614  20.324  25.164  1.00  0.00    -0.361 N 
ATOM     96  C   UNL A   1      33.384  19.760  25.343  1.00  0.00     0.083 A 
ATOM     97  H   UNL A   1      35.466  19.912  25.432  1.00  0.00     0.166 HD
ENDBRANCH  86  88
ENDBRANCH  84  86
ENDBRANCH  79  80
ENDBRANCH  72  74
ENDBRANCH  71  72
ENDBRANCH  70  71
ENDBRANCH   1  70
TORSDOF 17
ENDMDL
