MODEL 1
REMARK VINA RESULT:     -11.9      0.000      0.000
REMARK SMILES O=C(CCCN1C(=O)/C(=C\c2ccc(O)c(O)c2)SC1=S)OCCOC(=O)c1ccc(-c2c3nc(c(-c4cc(S(=O)(=O)[O-])ccc4F)c4ccc([nH]4)c(-c4cc(S(=O)(=O)[O-])ccc4F)c4nc(c(-c5cc(S(=O)(=O)[O-])ccc5F)c5ccc2[nH]5)C=C4)C=C3)cc1
REMARK SMILES IDX 23 1 22 2 2 3 1 4 3 5 4 6 5 7 6 8 7 9 20 10 8 11 9 12 19 13
REMARK SMILES IDX 21 14 10 15 11 16 12 17 18 18 13 19 16 20 14 21 17 22 15 24
REMARK SMILES IDX 24 26 25 27 26 28 27 29 28 30 29 31 90 32 30 33 89 34 31 35
REMARK SMILES IDX 32 36 33 37 83 38 34 39 88 40 82 41 84 42 35 43 87 44 81 45
REMARK SMILES IDX 80 46 36 48 68 49 48 50 67 51 49 52 52 53 66 54 85 55 50 56
REMARK SMILES IDX 51 57 65 59 86 60 53 61 37 62 38 63 46 64 39 65 45 66 47 67
REMARK SMILES IDX 44 68 40 69 41 70 42 71 43 72 69 73 70 74 78 75 71 76 77 77
REMARK SMILES IDX 79 78 76 79 72 80 73 81 74 82 75 83 54 84 55 85 63 86 56 87
REMARK SMILES IDX 62 88 64 89 61 90 57 91 58 92 59 93 60 94
REMARK H PARENT 17 23 15 25 84 47 52 58
REMARK Flexibility Score: inf
ROOT
ATOM      1  C   UNL A   1      31.750  31.004  26.307  1.00  0.00     0.274 C 
ENDROOT
BRANCH   1   2
ATOM      2  O   UNL A   1      31.482  29.969  27.265  1.00  0.00    -0.462 OA
BRANCH   2   3
ATOM      3  C   UNL A   1      32.096  28.765  27.146  1.00  0.00     0.305 C 
ATOM      4  O   UNL A   1      31.645  27.769  27.703  1.00  0.00    -0.252 OA
BRANCH   3   5
ATOM      5  C   UNL A   1      33.432  28.744  26.432  1.00  0.00     0.124 C 
BRANCH   5   6
ATOM      6  C   UNL A   1      33.709  27.462  25.651  1.00  0.00     0.034 C 
BRANCH   6   7
ATOM      7  C   UNL A   1      33.179  27.411  24.208  1.00  0.00     0.128 C 
BRANCH   7   8
ATOM      8  N   UNL A   1      31.770  27.032  23.998  1.00  0.00    -0.293 N 
ATOM      9  C   UNL A   1      30.870  28.045  23.688  1.00  0.00     0.266 C 
ATOM     10  C   UNL A   1      31.214  25.787  24.215  1.00  0.00     0.148 C 
ATOM     11  O   UNL A   1      31.155  29.231  23.591  1.00  0.00    -0.268 OA
ATOM     12  C   UNL A   1      29.505  27.494  23.446  1.00  0.00     0.081 C 
ATOM     13  S   UNL A   1      29.507  25.804  23.769  1.00  0.00    -0.054 SA
ATOM     14  S   UNL A   1      31.934  24.409  24.807  1.00  0.00    -0.052 S 
ATOM     15  C   UNL A   1      28.419  28.159  23.024  1.00  0.00     0.029 C 
BRANCH  15  16
ATOM     16  C   UNL A   1      28.382  29.598  22.747  1.00  0.00    -0.020 A 
ATOM     17  C   UNL A   1      28.041  30.516  23.754  1.00  0.00     0.012 A 
ATOM     18  C   UNL A   1      28.634  30.056  21.449  1.00  0.00     0.058 A 
ATOM     19  C   UNL A   1      27.890  31.875  23.458  1.00  0.00     0.051 A 
ATOM     20  C   UNL A   1      28.493  31.409  21.168  1.00  0.00     0.157 A 
ATOM     21  C   UNL A   1      28.105  32.309  22.157  1.00  0.00     0.157 A 
BRANCH  20  22
ATOM     22  O   UNL A   1      28.712  31.852  19.895  1.00  0.00    -0.504 OA
ATOM     23  H   UNL A   1      27.994  31.933  19.297  1.00  0.00     0.293 HD
ENDBRANCH  20  22
BRANCH  21  24
ATOM     24  O   UNL A   1      27.935  33.618  21.798  1.00  0.00    -0.504 OA
ATOM     25  H   UNL A   1      28.345  33.949  21.023  1.00  0.00     0.293 HD
ENDBRANCH  21  24
ENDBRANCH  15  16
ENDBRANCH   7   8
ENDBRANCH   6   7
ENDBRANCH   5   6
ENDBRANCH   3   5
ENDBRANCH   2   3
ENDBRANCH   1   2
BRANCH   1  26
ATOM     26  C   UNL A   1      31.578  32.415  26.874  1.00  0.00     0.275 C 
BRANCH  26  27
ATOM     27  O   UNL A   1      32.784  33.180  26.725  1.00  0.00    -0.458 OA
BRANCH  27  28
ATOM     28  C   UNL A   1      33.282  33.655  27.898  1.00  0.00     0.338 C 
ATOM     29  O   UNL A   1      32.722  34.425  28.653  1.00  0.00    -0.246 OA
BRANCH  28  30
ATOM     30  C   UNL A   1      34.556  32.972  28.229  1.00  0.00     0.060 A 
ATOM     31  C   UNL A   1      34.479  31.619  28.583  1.00  0.00     0.016 A 
ATOM     32  C   UNL A   1      35.793  33.625  28.215  1.00  0.00     0.016 A 
ATOM     33  C   UNL A   1      35.626  30.932  28.980  1.00  0.00     0.010 A 
ATOM     34  C   UNL A   1      36.943  32.934  28.613  1.00  0.00     0.010 A 
ATOM     35  C   UNL A   1      36.858  31.596  29.037  1.00  0.00    -0.014 A 
BRANCH  35  36
ATOM     36  C   UNL A   1      38.001  30.945  29.726  1.00  0.00     0.031 A 
ATOM     37  C   UNL A   1      38.275  31.310  31.160  1.00  0.00     0.074 A 
ATOM     38  C   UNL A   1      38.752  30.016  29.109  1.00  0.00     0.049 A 
ATOM     39  N   UNL A   1      39.202  30.868  31.970  1.00  0.00    -0.248 NA
ATOM     40  C   UNL A   1      37.380  32.315  31.756  1.00  0.00     0.031 C 
ATOM     41  C   UNL A   1      38.565  29.552  27.736  1.00  0.00     0.029 A 
ATOM     42  N   UNL A   1      39.828  29.295  29.565  1.00  0.00    -0.354 N 
ATOM     43  C   UNL A   1      38.998  31.534  33.174  1.00  0.00     0.074 A 
ATOM     44  C   UNL A   1      37.893  32.446  32.969  1.00  0.00     0.031 C 
ATOM     45  C   UNL A   1      39.502  28.628  27.458  1.00  0.00     0.029 A 
ATOM     46  C   UNL A   1      40.370  28.454  28.622  1.00  0.00     0.049 A 
ATOM     47  H   UNL A   1      40.179  29.373  30.482  1.00  0.00     0.167 HD
ATOM     48  C   UNL A   1      39.660  31.390  34.349  1.00  0.00     0.034 A 
ATOM     49  C   UNL A   1      41.451  27.651  28.688  1.00  0.00     0.034 A 
ATOM     50  C   UNL A   1      40.776  30.495  34.537  1.00  0.00     0.049 A 
ATOM     51  C   UNL A   1      42.233  27.570  29.979  1.00  0.00     0.074 A 
ATOM     52  C   UNL A   1      41.515  30.267  35.684  1.00  0.00     0.029 A 
ATOM     53  N   UNL A   1      41.325  29.692  33.545  1.00  0.00    -0.354 N 
ATOM     54  N   UNL A   1      42.018  28.189  31.117  1.00  0.00    -0.248 NA
ATOM     55  C   UNL A   1      43.397  26.673  29.994  1.00  0.00     0.031 C 
ATOM     56  C   UNL A   1      42.552  29.380  35.369  1.00  0.00     0.029 A 
ATOM     57  C   UNL A   1      42.414  28.994  34.044  1.00  0.00     0.049 A 
ATOM     58  H   UNL A   1      40.990  29.629  32.622  1.00  0.00     0.167 HD
ATOM     59  C   UNL A   1      43.000  27.728  31.992  1.00  0.00     0.074 A 
ATOM     60  C   UNL A   1      43.803  26.777  31.252  1.00  0.00     0.031 C 
ATOM     61  C   UNL A   1      43.212  28.054  33.294  1.00  0.00     0.034 A 
BRANCH  48  62
ATOM     62  C   UNL A   1      39.217  32.264  35.496  1.00  0.00     0.023 A 
ATOM     63  C   UNL A   1      39.692  33.579  35.647  1.00  0.00     0.031 A 
ATOM     64  C   UNL A   1      38.357  31.756  36.486  1.00  0.00     0.131 A 
ATOM     65  C   UNL A   1      39.371  34.311  36.801  1.00  0.00     0.055 A 
ATOM     66  C   UNL A   1      37.976  32.520  37.591  1.00  0.00     0.041 A 
ATOM     67  F   UNL A   1      37.893  30.500  36.409  1.00  0.00    -0.206 F 
ATOM     68  C   UNL A   1      38.497  33.799  37.762  1.00  0.00     0.022 A 
BRANCH  65  69
ATOM     69  S   UNL A   1      40.241  35.873  37.104  1.00  0.00     0.124 S 
ATOM     70  O   UNL A   1      41.637  35.462  36.984  1.00  0.00    -0.237 OA
ATOM     71  O   UNL A   1      39.733  36.730  36.039  1.00  0.00    -0.237 OA
ATOM     72  O   UNL A   1      39.823  36.241  38.456  1.00  0.00    -0.744 OA
ENDBRANCH  65  69
ENDBRANCH  48  62
BRANCH  49  73
ATOM     73  C   UNL A   1      41.891  26.880  27.490  1.00  0.00     0.023 A 
ATOM     74  C   UNL A   1      41.699  25.493  27.402  1.00  0.00     0.031 A 
ATOM     75  C   UNL A   1      42.569  27.521  26.437  1.00  0.00     0.131 A 
ATOM     76  C   UNL A   1      42.216  24.783  26.307  1.00  0.00     0.055 A 
ATOM     77  C   UNL A   1      43.040  26.818  25.326  1.00  0.00     0.041 A 
ATOM     78  F   UNL A   1      42.781  28.846  26.473  1.00  0.00    -0.206 F 
ATOM     79  C   UNL A   1      42.875  25.438  25.263  1.00  0.00     0.022 A 
BRANCH  76  80
ATOM     80  S   UNL A   1      42.083  22.973  26.299  1.00  0.00     0.124 S 
ATOM     81  O   UNL A   1      42.653  22.640  24.998  1.00  0.00    -0.237 OA
ATOM     82  O   UNL A   1      42.882  22.606  27.464  1.00  0.00    -0.237 OA
ATOM     83  O   UNL A   1      40.648  22.737  26.432  1.00  0.00    -0.744 OA
ENDBRANCH  76  80
ENDBRANCH  49  73
BRANCH  61  84
ATOM     84  C   UNL A   1      44.325  27.334  34.014  1.00  0.00     0.023 A 
ATOM     85  C   UNL A   1      44.132  26.084  34.626  1.00  0.00     0.031 A 
ATOM     86  C   UNL A   1      45.606  27.911  34.081  1.00  0.00     0.131 A 
ATOM     87  C   UNL A   1      45.190  25.470  35.315  1.00  0.00     0.055 A 
ATOM     88  C   UNL A   1      46.669  27.274  34.722  1.00  0.00     0.041 A 
ATOM     89  F   UNL A   1      45.848  29.105  33.515  1.00  0.00    -0.206 F 
ATOM     90  C   UNL A   1      46.461  26.051  35.354  1.00  0.00     0.022 A 
BRANCH  87  91
ATOM     91  S   UNL A   1      44.869  23.935  36.227  1.00  0.00     0.124 S 
ATOM     92  O   UNL A   1      44.632  24.428  37.580  1.00  0.00    -0.237 OA
ATOM     93  O   UNL A   1      43.705  23.396  35.532  1.00  0.00    -0.237 OA
ATOM     94  O   UNL A   1      46.102  23.169  36.055  1.00  0.00    -0.744 OA
ENDBRANCH  87  91
ENDBRANCH  61  84
ENDBRANCH  35  36
ENDBRANCH  28  30
ENDBRANCH  27  28
ENDBRANCH  26  27
ENDBRANCH   1  26
TORSDOF 20
ENDMDL
MODEL 2
REMARK VINA RESULT:     -11.5      2.004      4.054
REMARK SMILES O=C(CCCN1C(=O)/C(=C\c2ccc(O)c(O)c2)SC1=S)OCCOC(=O)c1ccc(-c2c3nc(c(-c4cc(S(=O)(=O)[O-])ccc4F)c4ccc([nH]4)c(-c4cc(S(=O)(=O)[O-])ccc4F)c4nc(c(-c5cc(S(=O)(=O)[O-])ccc5F)c5ccc2[nH]5)C=C4)C=C3)cc1
REMARK SMILES IDX 23 1 22 2 2 3 1 4 3 5 4 6 5 7 6 8 7 9 20 10 8 11 9 12 19 13
REMARK SMILES IDX 21 14 10 15 11 16 12 17 18 18 13 19 16 20 14 21 17 22 15 24
REMARK SMILES IDX 24 26 25 27 26 28 27 29 28 30 29 31 90 32 30 33 89 34 31 35
REMARK SMILES IDX 32 36 33 37 83 38 34 39 88 40 82 41 84 42 35 43 87 44 81 45
REMARK SMILES IDX 80 46 36 48 68 49 48 50 67 51 49 52 52 53 66 54 85 55 50 56
REMARK SMILES IDX 51 57 65 59 86 60 53 61 37 62 38 63 46 64 39 65 45 66 47 67
REMARK SMILES IDX 44 68 40 69 41 70 42 71 43 72 69 73 70 74 78 75 71 76 77 77
REMARK SMILES IDX 79 78 76 79 72 80 73 81 74 82 75 83 54 84 55 85 63 86 56 87
REMARK SMILES IDX 62 88 64 89 61 90 57 91 58 92 59 93 60 94
REMARK H PARENT 17 23 15 25 84 47 52 58
REMARK Flexibility Score: inf
ROOT
ATOM      1  C   UNL A   1      31.381  31.065  26.089  1.00  0.00     0.274 C 
ENDROOT
BRANCH   1   2
ATOM      2  O   UNL A   1      32.652  30.434  25.868  1.00  0.00    -0.462 OA
BRANCH   2   3
ATOM      3  C   UNL A   1      32.904  29.218  26.415  1.00  0.00     0.305 C 
ATOM      4  O   UNL A   1      34.009  28.694  26.304  1.00  0.00    -0.252 OA
BRANCH   3   5
ATOM      5  C   UNL A   1      31.729  28.481  27.023  1.00  0.00     0.124 C 
BRANCH   5   6
ATOM      6  C   UNL A   1      31.625  27.014  26.617  1.00  0.00     0.034 C 
BRANCH   6   7
ATOM      7  C   UNL A   1      30.890  26.719  25.298  1.00  0.00     0.128 C 
BRANCH   7   8
ATOM      8  N   UNL A   1      31.686  26.262  24.145  1.00  0.00    -0.293 N 
ATOM      9  C   UNL A   1      32.194  24.969  24.185  1.00  0.00     0.266 C 
ATOM     10  C   UNL A   1      32.105  27.033  23.080  1.00  0.00     0.148 C 
ATOM     11  O   UNL A   1      32.044  24.184  25.112  1.00  0.00    -0.268 OA
ATOM     12  C   UNL A   1      32.919  24.639  22.924  1.00  0.00     0.081 C 
ATOM     13  S   UNL A   1      32.981  26.034  21.920  1.00  0.00    -0.054 SA
ATOM     14  S   UNL A   1      31.887  28.662  22.818  1.00  0.00    -0.052 S 
ATOM     15  C   UNL A   1      33.444  23.455  22.569  1.00  0.00     0.029 C 
BRANCH  15  16
ATOM     16  C   UNL A   1      33.415  22.251  23.404  1.00  0.00    -0.020 A 
ATOM     17  C   UNL A   1      32.341  21.349  23.328  1.00  0.00     0.012 A 
ATOM     18  C   UNL A   1      34.440  22.029  24.329  1.00  0.00     0.058 A 
ATOM     19  C   UNL A   1      32.257  20.266  24.210  1.00  0.00     0.051 A 
ATOM     20  C   UNL A   1      34.353  20.945  25.192  1.00  0.00     0.157 A 
ATOM     21  C   UNL A   1      33.263  20.081  25.148  1.00  0.00     0.157 A 
BRANCH  20  22
ATOM     22  O   UNL A   1      35.342  20.745  26.114  1.00  0.00    -0.504 OA
ATOM     23  H   UNL A   1      35.838  19.949  26.104  1.00  0.00     0.293 HD
ENDBRANCH  20  22
BRANCH  21  24
ATOM     24  O   UNL A   1      33.217  19.064  26.062  1.00  0.00    -0.504 OA
ATOM     25  H   UNL A   1      33.085  19.255  26.970  1.00  0.00     0.293 HD
ENDBRANCH  21  24
ENDBRANCH  15  16
ENDBRANCH   7   8
ENDBRANCH   6   7
ENDBRANCH   5   6
ENDBRANCH   3   5
ENDBRANCH   2   3
ENDBRANCH   1   2
BRANCH   1  26
ATOM     26  C   UNL A   1      31.476  32.338  26.933  1.00  0.00     0.275 C 
BRANCH  26  27
ATOM     27  O   UNL A   1      32.730  33.004  26.720  1.00  0.00    -0.458 OA
BRANCH  27  28
ATOM     28  C   UNL A   1      33.256  33.558  27.845  1.00  0.00     0.338 C 
ATOM     29  O   UNL A   1      32.712  34.375  28.561  1.00  0.00    -0.246 OA
BRANCH  28  30
ATOM     30  C   UNL A   1      34.541  32.902  28.188  1.00  0.00     0.060 A 
ATOM     31  C   UNL A   1      34.492  31.545  28.528  1.00  0.00     0.016 A 
ATOM     32  C   UNL A   1      35.762  33.586  28.198  1.00  0.00     0.016 A 
ATOM     33  C   UNL A   1      35.649  30.882  28.936  1.00  0.00     0.010 A 
ATOM     34  C   UNL A   1      36.923  32.918  28.607  1.00  0.00     0.010 A 
ATOM     35  C   UNL A   1      36.863  31.575  29.017  1.00  0.00    -0.014 A 
BRANCH  35  36
ATOM     36  C   UNL A   1      38.012  30.945  29.716  1.00  0.00     0.031 A 
ATOM     37  C   UNL A   1      38.274  31.324  31.149  1.00  0.00     0.074 A 
ATOM     38  C   UNL A   1      38.779  30.021  29.110  1.00  0.00     0.049 A 
ATOM     39  N   UNL A   1      39.203  30.901  31.966  1.00  0.00    -0.248 NA
ATOM     40  C   UNL A   1      37.363  32.321  31.733  1.00  0.00     0.031 C 
ATOM     41  C   UNL A   1      38.605  29.545  27.740  1.00  0.00     0.029 A 
ATOM     42  N   UNL A   1      39.862  29.319  29.576  1.00  0.00    -0.354 N 
ATOM     43  C   UNL A   1      38.985  31.573  33.164  1.00  0.00     0.074 A 
ATOM     44  C   UNL A   1      37.868  32.469  32.947  1.00  0.00     0.031 C 
ATOM     45  C   UNL A   1      39.556  28.632  27.473  1.00  0.00     0.029 A 
ATOM     46  C   UNL A   1      40.421  28.478  28.642  1.00  0.00     0.049 A 
ATOM     47  H   UNL A   1      40.208  29.408  30.494  1.00  0.00     0.167 HD
ATOM     48  C   UNL A   1      39.643  31.447  34.344  1.00  0.00     0.034 A 
ATOM     49  C   UNL A   1      41.512  27.690  28.720  1.00  0.00     0.034 A 
ATOM     50  C   UNL A   1      40.770  30.569  34.543  1.00  0.00     0.049 A 
ATOM     51  C   UNL A   1      42.288  27.630  30.015  1.00  0.00     0.074 A 
ATOM     52  C   UNL A   1      41.507  30.360  35.695  1.00  0.00     0.029 A 
ATOM     53  N   UNL A   1      41.335  29.766  33.560  1.00  0.00    -0.354 N 
ATOM     54  N   UNL A   1      42.059  28.255  31.147  1.00  0.00    -0.248 NA
ATOM     55  C   UNL A   1      43.465  26.749  30.042  1.00  0.00     0.031 C 
ATOM     56  C   UNL A   1      42.557  29.484  35.392  1.00  0.00     0.029 A 
ATOM     57  C   UNL A   1      42.430  29.087  34.070  1.00  0.00     0.049 A 
ATOM     58  H   UNL A   1      41.005  29.691  32.636  1.00  0.00     0.167 HD
ATOM     59  C   UNL A   1      43.044  27.813  32.030  1.00  0.00     0.074 A 
ATOM     60  C   UNL A   1      43.863  26.868  31.301  1.00  0.00     0.031 C 
ATOM     61  C   UNL A   1      43.245  28.152  33.330  1.00  0.00     0.034 A 
BRANCH  48  62
ATOM     62  C   UNL A   1      39.182  32.323  35.482  1.00  0.00     0.023 A 
ATOM     63  C   UNL A   1      39.638  33.646  35.624  1.00  0.00     0.031 A 
ATOM     64  C   UNL A   1      38.325  31.812  36.471  1.00  0.00     0.131 A 
ATOM     65  C   UNL A   1      39.302  34.382  36.771  1.00  0.00     0.055 A 
ATOM     66  C   UNL A   1      37.927  32.578  37.568  1.00  0.00     0.041 A 
ATOM     67  F   UNL A   1      37.878  30.549  36.401  1.00  0.00    -0.206 F 
ATOM     68  C   UNL A   1      38.430  33.866  37.732  1.00  0.00     0.022 A 
BRANCH  65  69
ATOM     69  S   UNL A   1      40.149  35.959  37.067  1.00  0.00     0.124 S 
ATOM     70  O   UNL A   1      39.778  36.721  35.877  1.00  0.00    -0.237 OA
ATOM     71  O   UNL A   1      39.557  36.405  38.323  1.00  0.00    -0.237 OA
ATOM     72  O   UNL A   1      41.559  35.582  37.140  1.00  0.00    -0.744 OA
ENDBRANCH  65  69
ENDBRANCH  48  62
BRANCH  49  73
ATOM     73  C   UNL A   1      41.969  26.917  27.530  1.00  0.00     0.023 A 
ATOM     74  C   UNL A   1      41.745  25.535  27.426  1.00  0.00     0.031 A 
ATOM     75  C   UNL A   1      42.692  27.547  26.501  1.00  0.00     0.131 A 
ATOM     76  C   UNL A   1      42.277  24.820  26.342  1.00  0.00     0.055 A 
ATOM     77  C   UNL A   1      43.178  26.840  25.400  1.00  0.00     0.041 A 
ATOM     78  F   UNL A   1      42.935  28.866  26.553  1.00  0.00    -0.206 F 
ATOM     79  C   UNL A   1      42.982  25.465  25.322  1.00  0.00     0.022 A 
BRANCH  76  80
ATOM     80  S   UNL A   1      42.100  23.014  26.318  1.00  0.00     0.124 S 
ATOM     81  O   UNL A   1      40.654  22.856  26.433  1.00  0.00    -0.237 OA
ATOM     82  O   UNL A   1      42.683  22.670  25.025  1.00  0.00    -0.237 OA
ATOM     83  O   UNL A   1      42.871  22.581  27.481  1.00  0.00    -0.744 OA
ENDBRANCH  76  80
ENDBRANCH  49  73
BRANCH  61  84
ATOM     84  C   UNL A   1      44.364  27.453  34.062  1.00  0.00     0.023 A 
ATOM     85  C   UNL A   1      44.152  26.275  34.799  1.00  0.00     0.031 A 
ATOM     86  C   UNL A   1      45.670  27.975  34.011  1.00  0.00     0.131 A 
ATOM     87  C   UNL A   1      45.220  25.682  35.492  1.00  0.00     0.055 A 
ATOM     88  C   UNL A   1      46.738  27.353  34.657  1.00  0.00     0.041 A 
ATOM     89  F   UNL A   1      45.929  29.098  33.322  1.00  0.00    -0.206 F 
ATOM     90  C   UNL A   1      46.514  26.205  35.413  1.00  0.00     0.022 A 
BRANCH  87  91
ATOM     91  S   UNL A   1      44.886  24.255  36.561  1.00  0.00     0.124 S 
ATOM     92  O   UNL A   1      46.217  23.931  37.062  1.00  0.00    -0.237 OA
ATOM     93  O   UNL A   1      43.953  24.808  37.538  1.00  0.00    -0.237 OA
ATOM     94  O   UNL A   1      44.311  23.269  35.648  1.00  0.00    -0.744 OA
ENDBRANCH  87  91
ENDBRANCH  61  84
ENDBRANCH  35  36
ENDBRANCH  28  30
ENDBRANCH  27  28
ENDBRANCH  26  27
ENDBRANCH   1  26
TORSDOF 20
ENDMDL
MODEL 3
REMARK VINA RESULT:     -11.2      4.976     10.418
REMARK SMILES O=C(CCCN1C(=O)/C(=C\c2ccc(O)c(O)c2)SC1=S)OCCOC(=O)c1ccc(-c2c3nc(c(-c4cc(S(=O)(=O)[O-])ccc4F)c4ccc([nH]4)c(-c4cc(S(=O)(=O)[O-])ccc4F)c4nc(c(-c5cc(S(=O)(=O)[O-])ccc5F)c5ccc2[nH]5)C=C4)C=C3)cc1
REMARK SMILES IDX 23 1 22 2 2 3 1 4 3 5 4 6 5 7 6 8 7 9 20 10 8 11 9 12 19 13
REMARK SMILES IDX 21 14 10 15 11 16 12 17 18 18 13 19 16 20 14 21 17 22 15 24
REMARK SMILES IDX 24 26 25 27 26 28 27 29 28 30 29 31 90 32 30 33 89 34 31 35
REMARK SMILES IDX 32 36 33 37 83 38 34 39 88 40 82 41 84 42 35 43 87 44 81 45
REMARK SMILES IDX 80 46 36 48 68 49 48 50 67 51 49 52 52 53 66 54 85 55 50 56
REMARK SMILES IDX 51 57 65 59 86 60 53 61 37 62 38 63 46 64 39 65 45 66 47 67
REMARK SMILES IDX 44 68 40 69 41 70 42 71 43 72 69 73 70 74 78 75 71 76 77 77
REMARK SMILES IDX 79 78 76 79 72 80 73 81 74 82 75 83 54 84 55 85 63 86 56 87
REMARK SMILES IDX 62 88 64 89 61 90 57 91 58 92 59 93 60 94
REMARK H PARENT 17 23 15 25 84 47 52 58
REMARK Flexibility Score: inf
ROOT
ATOM      1  C   UNL A   1      37.401  20.136  24.865  1.00  0.00     0.274 C 
ENDROOT
BRANCH   1   2
ATOM      2  O   UNL A   1      37.294  21.568  24.888  1.00  0.00    -0.462 OA
BRANCH   2   3
ATOM      3  C   UNL A   1      36.212  22.153  25.461  1.00  0.00     0.305 C 
ATOM      4  O   UNL A   1      35.596  21.593  26.363  1.00  0.00    -0.252 OA
BRANCH   3   5
ATOM      5  C   UNL A   1      35.714  23.438  24.833  1.00  0.00     0.124 C 
BRANCH   5   6
ATOM      6  C   UNL A   1      35.463  23.350  23.330  1.00  0.00     0.034 C 
BRANCH   6   7
ATOM      7  C   UNL A   1      33.992  23.280  22.884  1.00  0.00     0.128 C 
BRANCH   7   8
ATOM      8  N   UNL A   1      32.950  23.259  23.927  1.00  0.00    -0.293 N 
ATOM      9  C   UNL A   1      32.557  24.477  24.470  1.00  0.00     0.266 C 
ATOM     10  C   UNL A   1      32.415  22.138  24.530  1.00  0.00     0.148 C 
ATOM     11  O   UNL A   1      33.021  25.566  24.159  1.00  0.00    -0.268 OA
ATOM     12  C   UNL A   1      31.457  24.292  25.460  1.00  0.00     0.081 C 
ATOM     13  S   UNL A   1      31.158  22.612  25.674  1.00  0.00    -0.054 SA
ATOM     14  S   UNL A   1      32.811  20.538  24.302  1.00  0.00    -0.052 S 
ATOM     15  C   UNL A   1      30.764  25.248  26.098  1.00  0.00     0.029 C 
BRANCH  15  16
ATOM     16  C   UNL A   1      30.998  26.687  25.944  1.00  0.00    -0.020 A 
ATOM     17  C   UNL A   1      30.575  27.365  24.788  1.00  0.00     0.012 A 
ATOM     18  C   UNL A   1      31.704  27.380  26.933  1.00  0.00     0.058 A 
ATOM     19  C   UNL A   1      30.906  28.709  24.590  1.00  0.00     0.051 A 
ATOM     20  C   UNL A   1      32.018  28.717  26.732  1.00  0.00     0.157 A 
ATOM     21  C   UNL A   1      31.640  29.374  25.563  1.00  0.00     0.157 A 
BRANCH  20  22
ATOM     22  O   UNL A   1      32.731  29.386  27.686  1.00  0.00    -0.504 OA
ATOM     23  H   UNL A   1      33.633  29.177  27.829  1.00  0.00     0.293 HD
ENDBRANCH  20  22
BRANCH  21  24
ATOM     24  O   UNL A   1      32.027  30.677  25.409  1.00  0.00    -0.504 OA
ATOM     25  H   UNL A   1      32.671  30.902  24.767  1.00  0.00     0.293 HD
ENDBRANCH  21  24
ENDBRANCH  15  16
ENDBRANCH   7   8
ENDBRANCH   6   7
ENDBRANCH   5   6
ENDBRANCH   3   5
ENDBRANCH   2   3
ENDBRANCH   1   2
BRANCH   1  26
ATOM     26  C   UNL A   1      38.808  19.627  25.188  1.00  0.00     0.275 C 
BRANCH  26  27
ATOM     27  O   UNL A   1      39.256  20.128  26.457  1.00  0.00    -0.458 OA
BRANCH  27  28
ATOM     28  C   UNL A   1      40.583  20.425  26.493  1.00  0.00     0.338 C 
ATOM     29  O   UNL A   1      41.478  19.755  26.017  1.00  0.00    -0.246 OA
BRANCH  28  30
ATOM     30  C   UNL A   1      40.791  21.782  27.053  1.00  0.00     0.060 A 
ATOM     31  C   UNL A   1      40.111  22.838  26.432  1.00  0.00     0.016 A 
ATOM     32  C   UNL A   1      41.635  22.032  28.140  1.00  0.00     0.016 A 
ATOM     33  C   UNL A   1      40.318  24.150  26.857  1.00  0.00     0.010 A 
ATOM     34  C   UNL A   1      41.840  23.350  28.566  1.00  0.00     0.010 A 
ATOM     35  C   UNL A   1      41.214  24.418  27.898  1.00  0.00    -0.014 A 
BRANCH  35  36
ATOM     36  C   UNL A   1      41.638  25.819  28.147  1.00  0.00     0.031 A 
ATOM     37  C   UNL A   1      43.010  26.243  27.694  1.00  0.00     0.074 A 
ATOM     38  C   UNL A   1      40.810  26.710  28.720  1.00  0.00     0.049 A 
ATOM     39  N   UNL A   1      43.595  27.409  27.787  1.00  0.00    -0.248 NA
ATOM     40  C   UNL A   1      43.831  25.205  27.051  1.00  0.00     0.031 C 
ATOM     41  C   UNL A   1      39.449  26.431  29.170  1.00  0.00     0.029 A 
ATOM     42  N   UNL A   1      41.000  28.036  29.022  1.00  0.00    -0.354 N 
ATOM     43  C   UNL A   1      44.849  27.249  27.209  1.00  0.00     0.074 A 
ATOM     44  C   UNL A   1      44.957  25.859  26.816  1.00  0.00     0.031 C 
ATOM     45  C   UNL A   1      38.927  27.552  29.698  1.00  0.00     0.029 A 
ATOM     46  C   UNL A   1      39.924  28.620  29.648  1.00  0.00     0.049 A 
ATOM     47  H   UNL A   1      41.828  28.524  28.808  1.00  0.00     0.167 HD
ATOM     48  C   UNL A   1      45.820  28.175  27.008  1.00  0.00     0.034 A 
ATOM     49  C   UNL A   1      39.772  29.867  30.139  1.00  0.00     0.034 A 
ATOM     50  C   UNL A   1      45.713  29.552  27.425  1.00  0.00     0.049 A 
ATOM     51  C   UNL A   1      40.899  30.862  29.987  1.00  0.00     0.074 A 
ATOM     52  C   UNL A   1      46.631  30.574  27.268  1.00  0.00     0.029 A 
ATOM     53  N   UNL A   1      44.625  30.095  28.098  1.00  0.00    -0.354 N 
ATOM     54  N   UNL A   1      42.073  30.704  29.419  1.00  0.00    -0.248 NA
ATOM     55  C   UNL A   1      40.674  32.207  30.534  1.00  0.00     0.031 C 
ATOM     56  C   UNL A   1      46.130  31.716  27.905  1.00  0.00     0.029 A 
ATOM     57  C   UNL A   1      44.864  31.428  28.393  1.00  0.00     0.049 A 
ATOM     58  H   UNL A   1      43.805  29.604  28.331  1.00  0.00     0.167 HD
ATOM     59  C   UNL A   1      42.709  31.940  29.512  1.00  0.00     0.074 A 
ATOM     60  C   UNL A   1      41.789  32.832  30.184  1.00  0.00     0.031 C 
ATOM     61  C   UNL A   1      43.941  32.307  29.071  1.00  0.00     0.034 A 
BRANCH  48  62
ATOM     62  C   UNL A   1      47.094  27.701  26.355  1.00  0.00     0.023 A 
ATOM     63  C   UNL A   1      47.360  27.943  24.996  1.00  0.00     0.031 A 
ATOM     64  C   UNL A   1      48.029  26.945  27.085  1.00  0.00     0.131 A 
ATOM     65  C   UNL A   1      48.486  27.364  24.389  1.00  0.00     0.055 A 
ATOM     66  C   UNL A   1      49.189  26.442  26.495  1.00  0.00     0.041 A 
ATOM     67  F   UNL A   1      47.816  26.661  28.379  1.00  0.00    -0.206 F 
ATOM     68  C   UNL A   1      49.415  26.635  25.135  1.00  0.00     0.022 A 
BRANCH  65  69
ATOM     69  S   UNL A   1      48.632  27.441  22.583  1.00  0.00     0.124 S 
ATOM     70  O   UNL A   1      47.423  28.177  22.220  1.00  0.00    -0.237 OA
ATOM     71  O   UNL A   1      49.892  28.151  22.398  1.00  0.00    -0.237 OA
ATOM     72  O   UNL A   1      48.640  26.037  22.180  1.00  0.00    -0.744 OA
ENDBRANCH  65  69
ENDBRANCH  48  62
BRANCH  49  73
ATOM     73  C   UNL A   1      38.521  30.247  30.854  1.00  0.00     0.023 A 
ATOM     74  C   UNL A   1      37.496  30.956  30.209  1.00  0.00     0.031 A 
ATOM     75  C   UNL A   1      38.361  29.955  32.221  1.00  0.00     0.131 A 
ATOM     76  C   UNL A   1      36.377  31.386  30.938  1.00  0.00     0.055 A 
ATOM     77  C   UNL A   1      37.224  30.344  32.931  1.00  0.00     0.041 A 
ATOM     78  F   UNL A   1      39.314  29.281  32.886  1.00  0.00    -0.206 F 
ATOM     79  C   UNL A   1      36.228  31.075  32.293  1.00  0.00     0.022 A 
BRANCH  76  80
ATOM     80  S   UNL A   1      35.145  32.430  30.110  1.00  0.00     0.124 S 
ATOM     81  O   UNL A   1      34.230  32.735  31.205  1.00  0.00    -0.237 OA
ATOM     82  O   UNL A   1      35.961  33.538  29.628  1.00  0.00    -0.237 OA
ATOM     83  O   UNL A   1      34.604  31.558  29.069  1.00  0.00    -0.744 OA
ENDBRANCH  76  80
ENDBRANCH  49  73
BRANCH  61  84
ATOM     84  C   UNL A   1      44.340  33.751  29.255  1.00  0.00     0.023 A 
ATOM     85  C   UNL A   1      43.897  34.763  28.386  1.00  0.00     0.031 A 
ATOM     86  C   UNL A   1      45.173  34.118  30.327  1.00  0.00     0.131 A 
ATOM     87  C   UNL A   1      44.325  36.086  28.578  1.00  0.00     0.055 A 
ATOM     88  C   UNL A   1      45.554  35.442  30.545  1.00  0.00     0.041 A 
ATOM     89  F   UNL A   1      45.627  33.191  31.187  1.00  0.00    -0.206 F 
ATOM     90  C   UNL A   1      45.138  36.434  29.661  1.00  0.00     0.022 A 
BRANCH  87  91
ATOM     91  S   UNL A   1      43.866  37.342  27.352  1.00  0.00     0.124 S 
ATOM     92  O   UNL A   1      43.232  38.361  28.183  1.00  0.00    -0.237 OA
ATOM     93  O   UNL A   1      45.157  37.703  26.776  1.00  0.00    -0.237 OA
ATOM     94  O   UNL A   1      42.964  36.629  26.451  1.00  0.00    -0.744 OA
ENDBRANCH  87  91
ENDBRANCH  61  84
ENDBRANCH  35  36
ENDBRANCH  28  30
ENDBRANCH  27  28
ENDBRANCH  26  27
ENDBRANCH   1  26
TORSDOF 20
ENDMDL
