MODEL 1
REMARK VINA RESULT:     -14.5      0.000      0.000
REMARK SMILES O=C(OCCOC(=O)[C@@H]1CC=CC[C@H]1C(=O)N1CC[NH+](Cc2ccc3c(c2)OCO3)CC1)c1ccc(-c2c3nc(c(-c4cc(S(=O)(=O)[O-])ccc4F)c4ccc([nH]4)c(-c4cc(S(=O)(=O)[O-])ccc4F)c4nc(c(-c5cc(S(=O)(=O)[O-])ccc5F)c5ccc2[nH]5)C=C4)C=C3)cc1
REMARK SMILES IDX 4 1 3 2 2 3 1 4 33 5 34 6 95 7 35 8 94 9 36 10 37 11 38 12
REMARK SMILES IDX 88 13 39 14 93 15 87 16 89 17 40 18 92 19 86 20 85 21 41 23
REMARK SMILES IDX 73 24 53 25 72 26 54 27 57 28 71 29 90 30 55 31 56 32 70 34
REMARK SMILES IDX 91 35 58 36 42 37 43 38 51 39 44 40 50 41 52 42 49 43 45 44
REMARK SMILES IDX 46 45 47 46 48 47 74 48 75 49 83 50 76 51 82 52 84 53 81 54
REMARK SMILES IDX 77 55 78 56 79 57 80 58 59 59 60 60 68 61 61 62 67 63 69 64
REMARK SMILES IDX 66 65 62 66 63 67 64 68 65 69 5 70 6 71 7 72 8 73 9 74 10 75
REMARK SMILES IDX 14 76 11 77 13 78 12 79 15 80 16 81 17 82 18 83 32 84 19 85
REMARK SMILES IDX 31 86 20 87 21 89 22 90 23 91 27 92 24 93 26 94 25 95 28 96
REMARK SMILES IDX 30 97 29 98
REMARK H PARENT 89 22 57 33 20 88
REMARK Flexibility Score: inf
ROOT
ATOM      1  C   UNL A   1      39.575  21.198  26.021  1.00  0.00     0.275 C 
ENDROOT
BRANCH   1   2
ATOM      2  O   UNL A   1      40.848  21.429  25.363  1.00  0.00    -0.458 OA
BRANCH   2   3
ATOM      3  C   UNL A   1      41.955  21.849  26.019  1.00  0.00     0.338 C 
ATOM      4  O   UNL A   1      42.976  21.183  26.086  1.00  0.00    -0.246 OA
BRANCH   3   5
ATOM      5  C   UNL A   1      41.890  23.289  26.490  1.00  0.00     0.060 A 
ATOM      6  C   UNL A   1      40.333  23.748  27.238  1.00  0.00     0.016 A 
ATOM      7  C   UNL A   1      43.211  24.613  26.363  1.00  0.00     0.016 A 
ATOM      8  C   UNL A   1      40.016  25.296  27.890  1.00  0.00     0.010 A 
ATOM      9  C   UNL A   1      42.717  26.328  26.857  1.00  0.00     0.010 A 
ATOM     10  C   UNL A   1      41.182  26.559  27.774  1.00  0.00    -0.014 A 
BRANCH  10  11
ATOM     11  C   UNL A   1      40.932  27.576  28.873  1.00  0.00     0.031 A 
ATOM     12  C   UNL A   1      41.797  27.542  30.080  1.00  0.00     0.074 A 
ATOM     13  C   UNL A   1      40.073  28.630  28.724  1.00  0.00     0.049 A 
ATOM     14  N   UNL A   1      41.698  28.243  31.175  1.00  0.00    -0.248 NA
ATOM     15  C   UNL A   1      42.971  26.663  30.012  1.00  0.00     0.031 C 
ATOM     16  C   UNL A   1      39.431  29.109  27.490  1.00  0.00     0.029 A 
ATOM     17  N   UNL A   1      39.489  29.461  29.657  1.00  0.00    -0.354 N 
ATOM     18  C   UNL A   1      42.815  27.914  31.924  1.00  0.00     0.074 A 
ATOM     19  C   UNL A   1      43.545  26.907  31.181  1.00  0.00     0.031 C 
ATOM     20  C   UNL A   1      38.377  29.887  27.763  1.00  0.00     0.029 A 
ATOM     21  C   UNL A   1      38.358  30.117  29.186  1.00  0.00     0.049 A 
ATOM     22  H   UNL A   1      39.840  29.579  30.570  1.00  0.00     0.167 HD
ATOM     23  C   UNL A   1      43.195  28.437  33.112  1.00  0.00     0.034 A 
ATOM     24  C   UNL A   1      37.419  30.857  29.806  1.00  0.00     0.034 A 
ATOM     25  C   UNL A   1      42.414  29.411  33.832  1.00  0.00     0.049 A 
ATOM     26  C   UNL A   1      37.714  31.217  31.228  1.00  0.00     0.074 A 
ATOM     27  C   UNL A   1      42.647  29.953  35.082  1.00  0.00     0.029 A 
ATOM     28  N   UNL A   1      41.229  29.977  33.367  1.00  0.00    -0.354 N 
ATOM     29  N   UNL A   1      38.749  30.864  31.952  1.00  0.00    -0.248 NA
ATOM     30  C   UNL A   1      36.784  32.132  31.893  1.00  0.00     0.031 C 
ATOM     31  C   UNL A   1      41.560  30.769  35.410  1.00  0.00     0.029 A 
ATOM     32  C   UNL A   1      40.694  30.818  34.328  1.00  0.00     0.049 A 
ATOM     33  H   UNL A   1      40.830  29.803  32.484  1.00  0.00     0.167 HD
ATOM     34  C   UNL A   1      38.641  31.578  33.132  1.00  0.00     0.074 A 
ATOM     35  C   UNL A   1      37.432  32.374  33.022  1.00  0.00     0.031 C 
ATOM     36  C   UNL A   1      39.480  31.591  34.196  1.00  0.00     0.034 A 
BRANCH  23  37
ATOM     37  C   UNL A   1      44.451  27.874  33.717  1.00  0.00     0.023 A 
ATOM     38  C   UNL A   1      45.708  28.460  33.483  1.00  0.00     0.031 A 
ATOM     39  C   UNL A   1      44.403  26.671  34.440  1.00  0.00     0.131 A 
ATOM     40  C   UNL A   1      46.871  27.791  33.890  1.00  0.00     0.055 A 
ATOM     41  C   UNL A   1      45.560  26.056  34.917  1.00  0.00     0.041 A 
ATOM     42  F   UNL A   1      43.232  26.052  34.660  1.00  0.00    -0.206 F 
ATOM     43  C   UNL A   1      46.805  26.606  34.626  1.00  0.00     0.022 A 
BRANCH  40  44
ATOM     44  S   UNL A   1      48.474  28.401  33.296  1.00  0.00     0.124 S 
ATOM     45  O   UNL A   1      48.150  29.779  32.938  1.00  0.00    -0.237 OA
ATOM     46  O   UNL A   1      49.334  28.227  34.460  1.00  0.00    -0.237 OA
ATOM     47  O   UNL A   1      48.774  27.526  32.163  1.00  0.00    -0.744 OA
ENDBRANCH  40  44
ENDBRANCH  23  37
BRANCH  24  48
ATOM     48  C   UNL A   1      36.180  31.339  29.114  1.00  0.00     0.023 A 
ATOM     49  C   UNL A   1      35.780  32.685  29.167  1.00  0.00     0.031 A 
ATOM     50  C   UNL A   1      35.314  30.431  28.474  1.00  0.00     0.131 A 
ATOM     51  C   UNL A   1      34.519  33.069  28.674  1.00  0.00     0.055 A 
ATOM     52  C   UNL A   1      34.083  30.827  27.939  1.00  0.00     0.041 A 
ATOM     53  F   UNL A   1      35.638  29.131  28.384  1.00  0.00    -0.206 F 
ATOM     54  C   UNL A   1      33.668  32.150  28.057  1.00  0.00     0.022 A 
BRANCH  51  55
ATOM     55  S   UNL A   1      33.946  34.766  28.977  1.00  0.00     0.124 S 
ATOM     56  O   UNL A   1      34.732  35.521  28.008  1.00  0.00    -0.237 OA
ATOM     57  O   UNL A   1      32.518  34.654  28.697  1.00  0.00    -0.237 OA
ATOM     58  O   UNL A   1      34.289  34.998  30.378  1.00  0.00    -0.744 OA
ENDBRANCH  51  55
ENDBRANCH  24  48
BRANCH  36  59
ATOM     59  C   UNL A   1      39.123  32.531  35.311  1.00  0.00     0.023 A 
ATOM     60  C   UNL A   1      38.440  32.086  36.453  1.00  0.00     0.031 A 
ATOM     61  C   UNL A   1      39.469  33.890  35.224  1.00  0.00     0.131 A 
ATOM     62  C   UNL A   1      38.073  33.006  37.441  1.00  0.00     0.055 A 
ATOM     63  C   UNL A   1      39.175  34.785  36.250  1.00  0.00     0.041 A 
ATOM     64  F   UNL A   1      40.109  34.366  34.143  1.00  0.00    -0.206 F 
ATOM     65  C   UNL A   1      38.461  34.346  37.361  1.00  0.00     0.022 A 
BRANCH  62  66
ATOM     66  S   UNL A   1      36.989  32.442  38.778  1.00  0.00     0.124 S 
ATOM     67  O   UNL A   1      37.052  30.992  38.623  1.00  0.00    -0.237 OA
ATOM     68  O   UNL A   1      37.645  32.984  39.963  1.00  0.00    -0.237 OA
ATOM     69  O   UNL A   1      35.699  33.046  38.449  1.00  0.00    -0.744 OA
ENDBRANCH  62  66
ENDBRANCH  36  59
ENDBRANCH  10  11
ENDBRANCH   3   5
ENDBRANCH   2   3
ENDBRANCH   1   2
BRANCH   1  70
ATOM     70  C   UNL A   1      38.320  21.883  25.433  1.00  0.00     0.274 C 
BRANCH  70  71
ATOM     71  O   UNL A   1      37.084  21.341  25.954  1.00  0.00    -0.462 OA
BRANCH  71  72
ATOM     72  C   UNL A   1      35.983  22.107  25.782  1.00  0.00     0.310 C 
ATOM     73  O   UNL A   1      36.050  23.327  25.647  1.00  0.00    -0.252 OA
BRANCH  72  74
ATOM     74  C   UNL A   1      34.628  21.343  25.690  1.00  0.00     0.115 C 
ATOM     75  C   UNL A   1      35.124  20.111  24.872  1.00  0.00     0.043 C 
ATOM     76  C   UNL A   1      33.018  22.115  25.212  1.00  0.00     0.097 C 
ATOM     77  C   UNL A   1      34.225  18.968  24.653  1.00  0.00    -0.030 C 
ATOM     78  C   UNL A   1      32.271  20.411  24.979  1.00  0.00     0.041 C 
ATOM     79  C   UNL A   1      32.919  19.127  24.681  1.00  0.00    -0.030 C 
BRANCH  76  80
ATOM     80  C   UNL A   1      31.865  23.792  26.103  1.00  0.00     0.227 C 
ATOM     81  O   UNL A   1      31.583  24.085  27.301  1.00  0.00    -0.275 OA
ATOM     82  N   UNL A   1      31.280  25.137  25.300  1.00  0.00    -0.331 N 
ATOM     83  C   UNL A   1      31.087  26.379  26.071  1.00  0.00     0.181 C 
ATOM     84  C   UNL A   1      30.726  25.308  23.895  1.00  0.00     0.181 C 
ATOM     85  C   UNL A   1      31.293  27.694  25.214  1.00  0.00     0.284 C 
ATOM     86  C   UNL A   1      31.224  26.533  23.140  1.00  0.00     0.284 C 
ATOM     87  N   UNL A   1      30.855  27.766  23.798  1.00  0.00    -0.328 N 
ATOM     88  H   UNL A   1      31.358  28.581  23.445  1.00  0.00     0.348 HD
BRANCH  87  89
ATOM     89  C   UNL A   1      29.489  28.199  23.454  1.00  0.00     0.299 C 
BRANCH  89  90
ATOM     90  C   UNL A   1      29.310  29.618  22.953  1.00  0.00     0.010 A 
ATOM     91  C   UNL A   1      29.432  30.670  23.882  1.00  0.00     0.013 A 
ATOM     92  C   UNL A   1      28.882  29.906  21.637  1.00  0.00     0.060 A 
ATOM     93  C   UNL A   1      28.992  31.958  23.578  1.00  0.00     0.051 A 
ATOM     94  C   UNL A   1      28.475  31.199  21.357  1.00  0.00     0.166 A 
ATOM     95  C   UNL A   1      28.501  32.187  22.314  1.00  0.00     0.165 A 
ATOM     96  O   UNL A   1      27.938  31.638  20.184  1.00  0.00    -0.454 OA
ATOM     97  O   UNL A   1      27.971  33.359  21.877  1.00  0.00    -0.454 OA
ATOM     98  C   UNL A   1      27.618  33.004  20.527  1.00  0.00     0.468 C 
ENDBRANCH  89  90
ENDBRANCH  87  89
ENDBRANCH  76  80
ENDBRANCH  72  74
ENDBRANCH  71  72
ENDBRANCH  70  71
ENDBRANCH   1  70
TORSDOF 17
ENDMDL
MODEL 2
REMARK VINA RESULT:     -14.4      2.083      2.567
REMARK SMILES O=C(OCCOC(=O)[C@@H]1CC=CC[C@H]1C(=O)N1CC[NH+](Cc2ccc3c(c2)OCO3)CC1)c1ccc(-c2c3nc(c(-c4cc(S(=O)(=O)[O-])ccc4F)c4ccc([nH]4)c(-c4cc(S(=O)(=O)[O-])ccc4F)c4nc(c(-c5cc(S(=O)(=O)[O-])ccc5F)c5ccc2[nH]5)C=C4)C=C3)cc1
REMARK SMILES IDX 4 1 3 2 2 3 1 4 33 5 34 6 95 7 35 8 94 9 36 10 37 11 38 12
REMARK SMILES IDX 88 13 39 14 93 15 87 16 89 17 40 18 92 19 86 20 85 21 41 23
REMARK SMILES IDX 73 24 53 25 72 26 54 27 57 28 71 29 90 30 55 31 56 32 70 34
REMARK SMILES IDX 91 35 58 36 42 37 43 38 51 39 44 40 50 41 52 42 49 43 45 44
REMARK SMILES IDX 46 45 47 46 48 47 74 48 75 49 83 50 76 51 82 52 84 53 81 54
REMARK SMILES IDX 77 55 78 56 79 57 80 58 59 59 60 60 68 61 61 62 67 63 69 64
REMARK SMILES IDX 66 65 62 66 63 67 64 68 65 69 5 70 6 71 7 72 8 73 9 74 10 75
REMARK SMILES IDX 14 76 11 77 13 78 12 79 15 80 16 81 17 82 18 83 32 84 19 85
REMARK SMILES IDX 31 86 20 87 21 89 22 90 23 91 27 92 24 93 26 94 25 95 28 96
REMARK SMILES IDX 30 97 29 98
REMARK H PARENT 89 22 57 33 20 88
REMARK Flexibility Score: inf
ROOT
ATOM      1  C   UNL A   1      39.488  20.991  25.958  1.00  0.00     0.275 C 
ENDROOT
BRANCH   1   2
ATOM      2  O   UNL A   1      40.770  21.364  25.390  1.00  0.00    -0.458 OA
BRANCH   2   3
ATOM      3  C   UNL A   1      41.821  21.773  26.139  1.00  0.00     0.338 C 
ATOM      4  O   UNL A   1      42.817  21.089  26.309  1.00  0.00    -0.246 OA
BRANCH   3   5
ATOM      5  C   UNL A   1      41.743  23.222  26.581  1.00  0.00     0.060 A 
ATOM      6  C   UNL A   1      40.211  23.662  27.388  1.00  0.00     0.016 A 
ATOM      7  C   UNL A   1      43.026  24.572  26.367  1.00  0.00     0.016 A 
ATOM      8  C   UNL A   1      39.886  25.217  28.020  1.00  0.00     0.010 A 
ATOM      9  C   UNL A   1      42.514  26.286  26.845  1.00  0.00     0.010 A 
ATOM     10  C   UNL A   1      41.016  26.504  27.825  1.00  0.00    -0.014 A 
BRANCH  10  11
ATOM     11  C   UNL A   1      40.791  27.539  28.911  1.00  0.00     0.031 A 
ATOM     12  C   UNL A   1      41.662  27.505  30.114  1.00  0.00     0.074 A 
ATOM     13  C   UNL A   1      39.950  28.607  28.753  1.00  0.00     0.049 A 
ATOM     14  N   UNL A   1      41.582  28.222  31.200  1.00  0.00    -0.248 NA
ATOM     15  C   UNL A   1      42.819  26.604  30.052  1.00  0.00     0.031 C 
ATOM     16  C   UNL A   1      39.311  29.081  27.516  1.00  0.00     0.029 A 
ATOM     17  N   UNL A   1      39.387  29.460  29.678  1.00  0.00    -0.354 N 
ATOM     18  C   UNL A   1      42.697  27.882  31.947  1.00  0.00     0.074 A 
ATOM     19  C   UNL A   1      43.404  26.853  31.214  1.00  0.00     0.031 C 
ATOM     20  C   UNL A   1      38.273  29.882  27.784  1.00  0.00     0.029 A 
ATOM     21  C   UNL A   1      38.266  30.131  29.204  1.00  0.00     0.049 A 
ATOM     22  H   UNL A   1      39.745  29.584  30.588  1.00  0.00     0.167 HD
ATOM     23  C   UNL A   1      43.093  28.414  33.127  1.00  0.00     0.034 A 
ATOM     24  C   UNL A   1      37.344  30.896  29.819  1.00  0.00     0.034 A 
ATOM     25  C   UNL A   1      42.334  29.412  33.838  1.00  0.00     0.049 A 
ATOM     26  C   UNL A   1      37.653  31.269  31.236  1.00  0.00     0.074 A 
ATOM     27  C   UNL A   1      42.584  29.965  35.079  1.00  0.00     0.029 A 
ATOM     28  N   UNL A   1      41.157  29.993  33.371  1.00  0.00    -0.354 N 
ATOM     29  N   UNL A   1      38.686  30.907  31.958  1.00  0.00    -0.248 NA
ATOM     30  C   UNL A   1      36.744  32.211  31.893  1.00  0.00     0.031 C 
ATOM     31  C   UNL A   1      41.514  30.806  35.402  1.00  0.00     0.029 A 
ATOM     32  C   UNL A   1      40.643  30.857  34.324  1.00  0.00     0.049 A 
ATOM     33  H   UNL A   1      40.750  29.815  32.493  1.00  0.00     0.167 HD
ATOM     34  C   UNL A   1      38.598  31.638  33.129  1.00  0.00     0.074 A 
ATOM     35  C   UNL A   1      37.403  32.455  33.015  1.00  0.00     0.031 C 
ATOM     36  C   UNL A   1      39.443  31.650  34.189  1.00  0.00     0.034 A 
BRANCH  23  37
ATOM     37  C   UNL A   1      44.341  27.836  33.732  1.00  0.00     0.023 A 
ATOM     38  C   UNL A   1      44.297  26.720  34.587  1.00  0.00     0.031 A 
ATOM     39  C   UNL A   1      45.575  28.480  33.545  1.00  0.00     0.131 A 
ATOM     40  C   UNL A   1      45.447  26.340  35.293  1.00  0.00     0.055 A 
ATOM     41  C   UNL A   1      46.735  28.044  34.185  1.00  0.00     0.041 A 
ATOM     42  F   UNL A   1      45.664  29.572  32.768  1.00  0.00    -0.206 F 
ATOM     43  C   UNL A   1      46.671  26.979  35.079  1.00  0.00     0.022 A 
BRANCH  40  44
ATOM     44  S   UNL A   1      45.285  25.114  36.620  1.00  0.00     0.124 S 
ATOM     45  O   UNL A   1      43.838  25.084  36.818  1.00  0.00    -0.237 OA
ATOM     46  O   UNL A   1      45.873  23.919  36.025  1.00  0.00    -0.237 OA
ATOM     47  O   UNL A   1      46.046  25.700  37.723  1.00  0.00    -0.744 OA
ENDBRANCH  40  44
ENDBRANCH  23  37
BRANCH  24  48
ATOM     48  C   UNL A   1      36.110  31.392  29.128  1.00  0.00     0.023 A 
ATOM     49  C   UNL A   1      35.738  32.747  29.160  1.00  0.00     0.031 A 
ATOM     50  C   UNL A   1      35.221  30.491  28.510  1.00  0.00     0.131 A 
ATOM     51  C   UNL A   1      34.482  33.149  28.669  1.00  0.00     0.055 A 
ATOM     52  C   UNL A   1      33.994  30.903  27.976  1.00  0.00     0.041 A 
ATOM     53  F   UNL A   1      35.518  29.184  28.440  1.00  0.00    -0.206 F 
ATOM     54  C   UNL A   1      33.608  32.237  28.074  1.00  0.00     0.022 A 
BRANCH  51  55
ATOM     55  S   UNL A   1      33.946  34.862  28.947  1.00  0.00     0.124 S 
ATOM     56  O   UNL A   1      32.526  34.784  28.622  1.00  0.00    -0.237 OA
ATOM     57  O   UNL A   1      34.273  35.053  30.356  1.00  0.00    -0.237 OA
ATOM     58  O   UNL A   1      34.761  35.631  28.009  1.00  0.00    -0.744 OA
ENDBRANCH  51  55
ENDBRANCH  24  48
BRANCH  36  59
ATOM     59  C   UNL A   1      39.109  32.611  35.293  1.00  0.00     0.023 A 
ATOM     60  C   UNL A   1      39.678  33.893  35.345  1.00  0.00     0.031 A 
ATOM     61  C   UNL A   1      38.212  32.234  36.306  1.00  0.00     0.131 A 
ATOM     62  C   UNL A   1      39.387  34.735  36.423  1.00  0.00     0.055 A 
ATOM     63  C   UNL A   1      37.861  33.109  37.332  1.00  0.00     0.041 A 
ATOM     64  F   UNL A   1      37.654  31.012  36.308  1.00  0.00    -0.206 F 
ATOM     65  C   UNL A   1      38.460  34.364  37.401  1.00  0.00     0.022 A 
BRANCH  62  66
ATOM     66  S   UNL A   1      40.319  36.279  36.581  1.00  0.00     0.124 S 
ATOM     67  O   UNL A   1      39.757  36.846  37.803  1.00  0.00    -0.237 OA
ATOM     68  O   UNL A   1      41.697  35.806  36.674  1.00  0.00    -0.237 OA
ATOM     69  O   UNL A   1      39.992  37.002  35.353  1.00  0.00    -0.744 OA
ENDBRANCH  62  66
ENDBRANCH  36  59
ENDBRANCH  10  11
ENDBRANCH   3   5
ENDBRANCH   2   3
ENDBRANCH   1   2
BRANCH   1  70
ATOM     70  C   UNL A   1      38.221  21.683  25.406  1.00  0.00     0.274 C 
BRANCH  70  71
ATOM     71  O   UNL A   1      37.060  20.820  25.407  1.00  0.00    -0.462 OA
BRANCH  71  72
ATOM     72  C   UNL A   1      35.872  21.426  25.633  1.00  0.00     0.310 C 
ATOM     73  O   UNL A   1      35.796  22.567  26.083  1.00  0.00    -0.252 OA
BRANCH  72  74
ATOM     74  C   UNL A   1      34.605  20.620  25.217  1.00  0.00     0.115 C 
ATOM     75  C   UNL A   1      35.317  19.308  24.763  1.00  0.00     0.043 C 
ATOM     76  C   UNL A   1      33.240  21.280  24.161  1.00  0.00     0.097 C 
ATOM     77  C   UNL A   1      34.517  18.123  24.419  1.00  0.00    -0.030 C 
ATOM     78  C   UNL A   1      32.581  19.541  23.926  1.00  0.00     0.041 C 
ATOM     79  C   UNL A   1      33.272  18.248  24.014  1.00  0.00    -0.030 C 
BRANCH  76  80
ATOM     80  C   UNL A   1      31.888  23.024  24.421  1.00  0.00     0.227 C 
ATOM     81  O   UNL A   1      30.627  23.121  24.464  1.00  0.00    -0.275 OA
ATOM     82  N   UNL A   1      32.341  24.589  24.801  1.00  0.00    -0.331 N 
ATOM     83  C   UNL A   1      31.366  25.445  25.502  1.00  0.00     0.181 C 
ATOM     84  C   UNL A   1      33.561  25.406  24.411  1.00  0.00     0.181 C 
ATOM     85  C   UNL A   1      32.036  26.512  26.461  1.00  0.00     0.284 C 
ATOM     86  C   UNL A   1      34.206  26.200  25.539  1.00  0.00     0.284 C 
ATOM     87  N   UNL A   1      33.306  27.186  26.095  1.00  0.00    -0.328 N 
ATOM     88  H   UNL A   1      33.625  27.571  26.984  1.00  0.00     0.348 HD
BRANCH  87  89
ATOM     89  C   UNL A   1      33.296  28.438  25.316  1.00  0.00     0.299 C 
BRANCH  89  90
ATOM     90  C   UNL A   1      32.151  28.649  24.346  1.00  0.00     0.010 A 
ATOM     91  C   UNL A   1      32.295  28.159  23.033  1.00  0.00     0.013 A 
ATOM     92  C   UNL A   1      31.026  29.442  24.668  1.00  0.00     0.060 A 
ATOM     93  C   UNL A   1      31.437  28.566  22.011  1.00  0.00     0.051 A 
ATOM     94  C   UNL A   1      30.178  29.810  23.637  1.00  0.00     0.166 A 
ATOM     95  C   UNL A   1      30.400  29.407  22.341  1.00  0.00     0.165 A 
ATOM     96  O   UNL A   1      29.108  30.648  23.735  1.00  0.00    -0.454 OA
ATOM     97  O   UNL A   1      29.519  29.951  21.461  1.00  0.00    -0.454 OA
ATOM     98  C   UNL A   1      28.703  30.735  22.352  1.00  0.00     0.468 C 
ENDBRANCH  89  90
ENDBRANCH  87  89
ENDBRANCH  76  80
ENDBRANCH  72  74
ENDBRANCH  71  72
ENDBRANCH  70  71
ENDBRANCH   1  70
TORSDOF 17
ENDMDL
MODEL 3
REMARK VINA RESULT:     -14.3      2.755      9.692
REMARK SMILES O=C(OCCOC(=O)[C@@H]1CC=CC[C@H]1C(=O)N1CC[NH+](Cc2ccc3c(c2)OCO3)CC1)c1ccc(-c2c3nc(c(-c4cc(S(=O)(=O)[O-])ccc4F)c4ccc([nH]4)c(-c4cc(S(=O)(=O)[O-])ccc4F)c4nc(c(-c5cc(S(=O)(=O)[O-])ccc5F)c5ccc2[nH]5)C=C4)C=C3)cc1
REMARK SMILES IDX 4 1 3 2 2 3 1 4 33 5 34 6 95 7 35 8 94 9 36 10 37 11 38 12
REMARK SMILES IDX 88 13 39 14 93 15 87 16 89 17 40 18 92 19 86 20 85 21 41 23
REMARK SMILES IDX 73 24 53 25 72 26 54 27 57 28 71 29 90 30 55 31 56 32 70 34
REMARK SMILES IDX 91 35 58 36 42 37 43 38 51 39 44 40 50 41 52 42 49 43 45 44
REMARK SMILES IDX 46 45 47 46 48 47 74 48 75 49 83 50 76 51 82 52 84 53 81 54
REMARK SMILES IDX 77 55 78 56 79 57 80 58 59 59 60 60 68 61 61 62 67 63 69 64
REMARK SMILES IDX 66 65 62 66 63 67 64 68 65 69 5 70 6 71 7 72 8 73 9 74 10 75
REMARK SMILES IDX 14 76 11 77 13 78 12 79 15 80 16 81 17 82 18 83 32 84 19 85
REMARK SMILES IDX 31 86 20 87 21 89 22 90 23 91 27 92 24 93 26 94 25 95 28 96
REMARK SMILES IDX 30 97 29 98
REMARK H PARENT 89 22 57 33 20 88
REMARK Flexibility Score: inf
ROOT
ATOM      1  C   UNL A   1      33.366  31.382  27.317  1.00  0.00     0.275 C 
ENDROOT
BRANCH   1   2
ATOM      2  O   UNL A   1      32.697  32.661  27.467  1.00  0.00    -0.458 OA
BRANCH   2   3
ATOM      3  C   UNL A   1      33.188  33.670  28.224  1.00  0.00     0.338 C 
ATOM      4  O   UNL A   1      32.508  34.619  28.581  1.00  0.00    -0.246 OA
BRANCH   3   5
ATOM      5  C   UNL A   1      34.588  33.426  28.753  1.00  0.00     0.060 A 
ATOM      6  C   UNL A   1      34.640  32.685  30.378  1.00  0.00     0.016 A 
ATOM      7  C   UNL A   1      36.225  33.819  27.929  1.00  0.00     0.016 A 
ATOM      8  C   UNL A   1      36.091  32.267  31.181  1.00  0.00     0.010 A 
ATOM      9  C   UNL A   1      37.749  33.575  28.953  1.00  0.00     0.010 A 
ATOM     10  C   UNL A   1      37.623  32.632  30.485  1.00  0.00    -0.014 A 
BRANCH  10  11
ATOM     11  C   UNL A   1      38.671  31.694  31.056  1.00  0.00     0.031 A 
ATOM     12  C   UNL A   1      39.281  32.028  32.369  1.00  0.00     0.074 A 
ATOM     13  C   UNL A   1      38.944  30.470  30.509  1.00  0.00     0.049 A 
ATOM     14  N   UNL A   1      40.259  31.429  32.990  1.00  0.00    -0.248 NA
ATOM     15  C   UNL A   1      38.658  33.129  33.112  1.00  0.00     0.031 C 
ATOM     16  C   UNL A   1      38.186  29.749  29.475  1.00  0.00     0.029 A 
ATOM     17  N   UNL A   1      40.022  29.625  30.675  1.00  0.00    -0.354 N 
ATOM     18  C   UNL A   1      40.355  32.061  34.218  1.00  0.00     0.074 A 
ATOM     19  C   UNL A   1      39.374  33.127  34.227  1.00  0.00     0.031 C 
ATOM     20  C   UNL A   1      38.930  28.792  28.909  1.00  0.00     0.029 A 
ATOM     21  C   UNL A   1      40.163  28.699  29.649  1.00  0.00     0.049 A 
ATOM     22  H   UNL A   1      40.632  29.673  31.448  1.00  0.00     0.167 HD
ATOM     23  C   UNL A   1      41.178  31.747  35.245  1.00  0.00     0.034 A 
ATOM     24  C   UNL A   1      41.151  27.836  29.342  1.00  0.00     0.034 A 
ATOM     25  C   UNL A   1      42.166  30.700  35.174  1.00  0.00     0.049 A 
ATOM     26  C   UNL A   1      42.223  27.685  30.374  1.00  0.00     0.074 A 
ATOM     27  C   UNL A   1      43.115  30.343  36.112  1.00  0.00     0.029 A 
ATOM     28  N   UNL A   1      42.342  29.851  34.084  1.00  0.00    -0.354 N 
ATOM     29  N   UNL A   1      42.339  28.320  31.516  1.00  0.00    -0.248 NA
ATOM     30  C   UNL A   1      43.240  26.657  30.138  1.00  0.00     0.031 C 
ATOM     31  C   UNL A   1      43.922  29.346  35.555  1.00  0.00     0.029 A 
ATOM     32  C   UNL A   1      43.419  29.009  34.306  1.00  0.00     0.049 A 
ATOM     33  H   UNL A   1      41.784  29.850  33.273  1.00  0.00     0.167 HD
ATOM     34  C   UNL A   1      43.394  27.714  32.175  1.00  0.00     0.074 A 
ATOM     35  C   UNL A   1      43.884  26.670  31.294  1.00  0.00     0.031 C 
ATOM     36  C   UNL A   1      43.894  27.983  33.406  1.00  0.00     0.034 A 
BRANCH  23  37
ATOM     37  C   UNL A   1      41.087  32.623  36.464  1.00  0.00     0.023 A 
ATOM     38  C   UNL A   1      40.107  32.411  37.450  1.00  0.00     0.031 A 
ATOM     39  C   UNL A   1      41.914  33.751  36.580  1.00  0.00     0.131 A 
ATOM     40  C   UNL A   1      39.921  33.366  38.460  1.00  0.00     0.055 A 
ATOM     41  C   UNL A   1      41.780  34.652  37.637  1.00  0.00     0.041 A 
ATOM     42  F   UNL A   1      42.841  34.018  35.646  1.00  0.00    -0.206 F 
ATOM     43  C   UNL A   1      40.767  34.473  38.573  1.00  0.00     0.022 A 
BRANCH  40  44
ATOM     44  S   UNL A   1      38.454  33.235  39.519  1.00  0.00     0.124 S 
ATOM     45  O   UNL A   1      38.515  34.489  40.264  1.00  0.00    -0.237 OA
ATOM     46  O   UNL A   1      37.370  33.119  38.550  1.00  0.00    -0.237 OA
ATOM     47  O   UNL A   1      38.712  32.034  40.313  1.00  0.00    -0.744 OA
ENDBRANCH  40  44
ENDBRANCH  23  37
BRANCH  24  48
ATOM     48  C   UNL A   1      41.161  27.035  28.074  1.00  0.00     0.023 A 
ATOM     49  C   UNL A   1      40.853  25.664  28.065  1.00  0.00     0.031 A 
ATOM     50  C   UNL A   1      41.587  27.612  26.862  1.00  0.00     0.131 A 
ATOM     51  C   UNL A   1      41.058  24.900  26.901  1.00  0.00     0.055 A 
ATOM     52  C   UNL A   1      41.739  26.858  25.692  1.00  0.00     0.041 A 
ATOM     53  F   UNL A   1      41.891  28.917  26.801  1.00  0.00    -0.206 F 
ATOM     54  C   UNL A   1      41.495  25.488  25.713  1.00  0.00     0.022 A 
BRANCH  51  55
ATOM     55  S   UNL A   1      40.876  23.095  27.000  1.00  0.00     0.124 S 
ATOM     56  O   UNL A   1      41.741  22.650  25.914  1.00  0.00    -0.237 OA
ATOM     57  O   UNL A   1      41.350  22.820  28.352  1.00  0.00    -0.237 OA
ATOM     58  O   UNL A   1      39.446  22.884  26.787  1.00  0.00    -0.744 OA
ENDBRANCH  51  55
ENDBRANCH  24  48
BRANCH  36  59
ATOM     59  C   UNL A   1      45.011  27.098  33.876  1.00  0.00     0.023 A 
ATOM     60  C   UNL A   1      44.757  25.891  34.544  1.00  0.00     0.031 A 
ATOM     61  C   UNL A   1      46.347  27.473  33.654  1.00  0.00     0.131 A 
ATOM     62  C   UNL A   1      45.827  25.126  35.020  1.00  0.00     0.055 A 
ATOM     63  C   UNL A   1      47.407  26.664  34.055  1.00  0.00     0.041 A 
ATOM     64  F   UNL A   1      46.640  28.628  33.033  1.00  0.00    -0.206 F 
ATOM     65  C   UNL A   1      47.150  25.489  34.754  1.00  0.00     0.022 A 
BRANCH  62  66
ATOM     66  S   UNL A   1      45.460  23.704  36.080  1.00  0.00     0.124 S 
ATOM     67  O   UNL A   1      44.091  23.382  35.689  1.00  0.00    -0.237 OA
ATOM     68  O   UNL A   1      46.480  22.741  35.679  1.00  0.00    -0.237 OA
ATOM     69  O   UNL A   1      45.610  24.241  37.432  1.00  0.00    -0.744 OA
ENDBRANCH  62  66
ENDBRANCH  36  59
ENDBRANCH  10  11
ENDBRANCH   3   5
ENDBRANCH   2   3
ENDBRANCH   1   2
BRANCH   1  70
ATOM     70  C   UNL A   1      32.491  30.127  27.099  1.00  0.00     0.274 C 
BRANCH  70  71
ATOM     71  O   UNL A   1      31.598  30.251  25.967  1.00  0.00    -0.462 OA
BRANCH  71  72
ATOM     72  C   UNL A   1      31.921  29.520  24.876  1.00  0.00     0.310 C 
ATOM     73  O   UNL A   1      33.069  29.141  24.659  1.00  0.00    -0.252 OA
BRANCH  72  74
ATOM     74  C   UNL A   1      30.734  29.122  23.947  1.00  0.00     0.115 C 
ATOM     75  C   UNL A   1      29.896  30.430  24.088  1.00  0.00     0.043 C 
ATOM     76  C   UNL A   1      29.843  27.505  24.016  1.00  0.00     0.097 C 
ATOM     77  C   UNL A   1      28.709  30.633  23.243  1.00  0.00    -0.030 C 
ATOM     78  C   UNL A   1      28.477  28.212  22.943  1.00  0.00     0.041 C 
ATOM     79  C   UNL A   1      28.055  29.605  22.746  1.00  0.00    -0.030 C 
BRANCH  76  80
ATOM     80  C   UNL A   1      30.560  25.416  23.779  1.00  0.00     0.227 C 
ATOM     81  O   UNL A   1      30.152  24.454  23.066  1.00  0.00    -0.275 OA
ATOM     82  N   UNL A   1      31.963  24.765  24.417  1.00  0.00    -0.331 N 
ATOM     83  C   UNL A   1      32.582  23.625  23.716  1.00  0.00     0.181 C 
ATOM     84  C   UNL A   1      32.684  25.020  25.730  1.00  0.00     0.181 C 
ATOM     85  C   UNL A   1      34.158  23.574  23.864  1.00  0.00     0.284 C 
ATOM     86  C   UNL A   1      34.196  25.165  25.629  1.00  0.00     0.284 C 
ATOM     87  N   UNL A   1      34.827  23.964  25.129  1.00  0.00    -0.328 N 
ATOM     88  H   UNL A   1      35.796  24.104  24.842  1.00  0.00     0.348 HD
BRANCH  87  89
ATOM     89  C   UNL A   1      35.065  22.971  26.192  1.00  0.00     0.299 C 
BRANCH  89  90
ATOM     90  C   UNL A   1      34.799  21.516  25.862  1.00  0.00     0.010 A 
ATOM     91  C   UNL A   1      35.847  20.760  25.301  1.00  0.00     0.013 A 
ATOM     92  C   UNL A   1      33.509  20.944  25.958  1.00  0.00     0.060 A 
ATOM     93  C   UNL A   1      35.607  19.526  24.698  1.00  0.00     0.051 A 
ATOM     94  C   UNL A   1      33.306  19.706  25.371  1.00  0.00     0.166 A 
ATOM     95  C   UNL A   1      34.323  19.035  24.733  1.00  0.00     0.165 A 
ATOM     96  O   UNL A   1      32.117  19.048  25.272  1.00  0.00    -0.454 OA
ATOM     97  O   UNL A   1      33.904  17.887  24.137  1.00  0.00    -0.454 OA
ATOM     98  C   UNL A   1      32.507  17.902  24.484  1.00  0.00     0.468 C 
ENDBRANCH  89  90
ENDBRANCH  87  89
ENDBRANCH  76  80
ENDBRANCH  72  74
ENDBRANCH  71  72
ENDBRANCH  70  71
ENDBRANCH   1  70
TORSDOF 17
ENDMDL
