MODEL 1
REMARK VINA RESULT:     -12.5      0.000      0.000
REMARK SMILES CCOC(=O)c1ccc(NC(=O)[C@H]2CC(C)=C(C)C[C@@H]2C(=O)OCCOC(=O)c2ccc(-c3c4nc(c(-c5cc(S(=O)(=O)[O-])ccc5F)c5ccc([nH]5)c(-c5cc(S(=O)(=O)[O-])ccc5F)c5nc(c(-c6cc(S(=O)(=O)[O-])ccc6F)c6ccc3[nH]6)C=C5)C=C4)cc2)cc1
REMARK SMILES IDX 24 1 23 2 21 3 22 4 20 5 13 6 14 7 15 8 19 9 16 10 17 11
REMARK SMILES IDX 18 12 11 13 10 14 12 16 9 17 6 18 7 19 93 20 8 21 92 22 4 23
REMARK SMILES IDX 5 24 3 25 2 26 1 27 25 28 26 29 27 30 28 31 29 32 30 33
REMARK SMILES IDX 91 34 31 35 90 36 32 37 33 38 34 39 84 40 35 41 89 42 83 43
REMARK SMILES IDX 85 44 36 45 88 46 82 47 81 48 37 50 69 51 49 52 68 53 50 54
REMARK SMILES IDX 53 55 67 56 86 57 51 58 52 59 66 61 87 62 54 63 38 64 39 65
REMARK SMILES IDX 47 66 40 67 46 68 48 69 45 70 41 71 42 72 43 73 44 74 70 75
REMARK SMILES IDX 71 76 79 77 72 78 78 79 80 80 77 81 73 82 74 83 75 84 76 85
REMARK SMILES IDX 55 86 56 87 64 88 57 89 63 90 65 91 62 92 58 93 59 94 60 95
REMARK SMILES IDX 61 96
REMARK H PARENT 10 15 85 49 53 60
REMARK Flexibility Score: inf
ROOT
ATOM      1  C   UNL A   1      34.911  21.690  24.961  1.00  0.00     0.274 C 
ENDROOT
BRANCH   1   2
ATOM      2  O   UNL A   1      35.046  23.080  25.328  1.00  0.00    -0.462 OA
BRANCH   2   3
ATOM      3  C   UNL A   1      34.037  23.621  26.066  1.00  0.00     0.310 C 
ATOM      4  O   UNL A   1      33.836  23.345  27.246  1.00  0.00    -0.252 OA
BRANCH   3   5
ATOM      5  C   UNL A   1      33.075  24.505  25.268  1.00  0.00     0.116 C 
ATOM      6  C   UNL A   1      33.723  25.110  24.030  1.00  0.00     0.097 C 
ATOM      7  C   UNL A   1      33.918  26.652  24.156  1.00  0.00     0.045 C 
ATOM      8  C   UNL A   1      33.291  27.401  25.326  1.00  0.00    -0.074 C 
ATOM      9  C   UNL A   1      32.169  25.362  26.148  1.00  0.00     0.046 C 
ATOM     10  C   UNL A   1      33.644  28.869  25.398  1.00  0.00     0.039 C 
ATOM     11  C   UNL A   1      32.481  26.814  26.225  1.00  0.00    -0.073 C 
ATOM     12  C   UNL A   1      31.754  27.541  27.334  1.00  0.00     0.039 C 
BRANCH   6  13
ATOM     13  C   UNL A   1      33.049  24.633  22.716  1.00  0.00     0.228 C 
ATOM     14  N   UNL A   1      31.782  25.030  22.316  1.00  0.00    -0.326 N 
ATOM     15  H   UNL A   1      31.403  24.413  21.648  1.00  0.00     0.169 HD
ATOM     16  O   UNL A   1      33.565  23.740  22.036  1.00  0.00    -0.274 OA
BRANCH  14  17
ATOM     17  C   UNL A   1      30.888  26.088  22.615  1.00  0.00     0.041 A 
ATOM     18  C   UNL A   1      29.085  28.234  23.094  1.00  0.00     0.060 A 
ATOM     19  C   UNL A   1      28.907  27.012  23.712  1.00  0.00     0.018 A 
ATOM     20  C   UNL A   1      30.233  28.442  22.328  1.00  0.00     0.018 A 
ATOM     21  C   UNL A   1      29.841  25.996  23.517  1.00  0.00     0.027 A 
ATOM     22  C   UNL A   1      31.131  27.370  22.097  1.00  0.00     0.027 A 
BRANCH  18  23
ATOM     23  C   UNL A   1      28.040  29.243  23.363  1.00  0.00     0.338 C 
ATOM     24  O   UNL A   1      26.854  29.027  23.212  1.00  0.00    -0.246 OA
BRANCH  23  25
ATOM     25  O   UNL A   1      28.635  30.447  23.556  1.00  0.00    -0.462 OA
BRANCH  25  26
ATOM     26  C   UNL A   1      27.849  31.577  23.139  1.00  0.00     0.230 C 
ATOM     27  C   UNL A   1      28.314  32.022  21.763  1.00  0.00     0.049 C 
ENDBRANCH  25  26
ENDBRANCH  23  25
ENDBRANCH  18  23
ENDBRANCH  14  17
ENDBRANCH   6  13
ENDBRANCH   3   5
ENDBRANCH   2   3
ENDBRANCH   1   2
BRANCH   1  28
ATOM     28  C   UNL A   1      36.249  20.961  24.914  1.00  0.00     0.275 C 
BRANCH  28  29
ATOM     29  O   UNL A   1      37.314  21.918  24.974  1.00  0.00    -0.458 OA
BRANCH  29  30
ATOM     30  C   UNL A   1      38.429  21.467  25.593  1.00  0.00     0.338 C 
ATOM     31  O   UNL A   1      38.995  20.401  25.420  1.00  0.00    -0.246 OA
BRANCH  30  32
ATOM     32  C   UNL A   1      38.980  22.534  26.432  1.00  0.00     0.060 A 
ATOM     33  C   UNL A   1      38.490  23.816  26.224  1.00  0.00     0.016 A 
ATOM     34  C   UNL A   1      40.092  22.330  27.237  1.00  0.00     0.016 A 
ATOM     35  C   UNL A   1      39.155  24.920  26.718  1.00  0.00     0.010 A 
ATOM     36  C   UNL A   1      40.723  23.440  27.810  1.00  0.00     0.010 A 
ATOM     37  C   UNL A   1      40.292  24.748  27.508  1.00  0.00    -0.014 A 
BRANCH  37  38
ATOM     38  C   UNL A   1      41.106  25.939  27.859  1.00  0.00     0.031 A 
ATOM     39  C   UNL A   1      40.501  26.981  28.757  1.00  0.00     0.074 A 
ATOM     40  C   UNL A   1      42.390  26.042  27.468  1.00  0.00     0.049 A 
ATOM     41  N   UNL A   1      40.897  28.203  28.996  1.00  0.00    -0.248 NA
ATOM     42  C   UNL A   1      39.267  26.600  29.464  1.00  0.00     0.031 C 
ATOM     43  C   UNL A   1      43.131  25.031  26.708  1.00  0.00     0.029 A 
ATOM     44  N   UNL A   1      43.312  27.036  27.677  1.00  0.00    -0.354 N 
ATOM     45  C   UNL A   1      39.913  28.766  29.803  1.00  0.00     0.074 A 
ATOM     46  C   UNL A   1      38.908  27.748  30.019  1.00  0.00     0.031 C 
ATOM     47  C   UNL A   1      44.402  25.434  26.562  1.00  0.00     0.029 A 
ATOM     48  C   UNL A   1      44.532  26.784  27.092  1.00  0.00     0.049 A 
ATOM     49  H   UNL A   1      43.119  27.850  28.195  1.00  0.00     0.167 HD
ATOM     50  C   UNL A   1      39.861  30.028  30.297  1.00  0.00     0.034 A 
ATOM     51  C   UNL A   1      45.607  27.582  26.938  1.00  0.00     0.034 A 
ATOM     52  C   UNL A   1      40.924  30.987  30.107  1.00  0.00     0.049 A 
ATOM     53  C   UNL A   1      45.512  28.993  27.454  1.00  0.00     0.074 A 
ATOM     54  C   UNL A   1      40.991  32.303  30.525  1.00  0.00     0.029 A 
ATOM     55  N   UNL A   1      42.125  30.717  29.457  1.00  0.00    -0.354 N 
ATOM     56  N   UNL A   1      44.517  29.578  28.085  1.00  0.00    -0.248 NA
ATOM     57  C   UNL A   1      46.671  29.858  27.215  1.00  0.00     0.031 C 
ATOM     58  C   UNL A   1      42.204  32.843  30.081  1.00  0.00     0.029 A 
ATOM     59  C   UNL A   1      42.931  31.844  29.451  1.00  0.00     0.049 A 
ATOM     60  H   UNL A   1      42.367  29.850  29.059  1.00  0.00     0.167 HD
ATOM     61  C   UNL A   1      44.935  30.883  28.322  1.00  0.00     0.074 A 
ATOM     62  C   UNL A   1      46.285  30.982  27.800  1.00  0.00     0.031 C 
ATOM     63  C   UNL A   1      44.266  31.913  28.902  1.00  0.00     0.034 A 
BRANCH  50  64
ATOM     64  C   UNL A   1      38.587  30.453  30.991  1.00  0.00     0.023 A 
ATOM     65  C   UNL A   1      37.521  31.067  30.310  1.00  0.00     0.031 A 
ATOM     66  C   UNL A   1      38.467  30.296  32.384  1.00  0.00     0.131 A 
ATOM     67  C   UNL A   1      36.424  31.568  31.030  1.00  0.00     0.055 A 
ATOM     68  C   UNL A   1      37.336  30.718  33.084  1.00  0.00     0.041 A 
ATOM     69  F   UNL A   1      39.463  29.745  33.098  1.00  0.00    -0.206 F 
ATOM     70  C   UNL A   1      36.311  31.375  32.409  1.00  0.00     0.022 A 
BRANCH  67  71
ATOM     71  S   UNL A   1      35.217  32.611  30.166  1.00  0.00     0.124 S 
ATOM     72  O   UNL A   1      34.214  32.825  31.206  1.00  0.00    -0.237 OA
ATOM     73  O   UNL A   1      36.012  33.776  29.796  1.00  0.00    -0.237 OA
ATOM     74  O   UNL A   1      34.777  31.776  29.049  1.00  0.00    -0.744 OA
ENDBRANCH  67  71
ENDBRANCH  50  64
BRANCH  51  75
ATOM     75  C   UNL A   1      46.807  27.106  26.187  1.00  0.00     0.023 A 
ATOM     76  C   UNL A   1      47.088  27.569  24.892  1.00  0.00     0.031 A 
ATOM     77  C   UNL A   1      47.679  26.150  26.744  1.00  0.00     0.131 A 
ATOM     78  C   UNL A   1      48.190  27.055  24.188  1.00  0.00     0.055 A 
ATOM     79  C   UNL A   1      48.808  25.692  26.066  1.00  0.00     0.041 A 
ATOM     80  F   UNL A   1      47.455  25.659  27.974  1.00  0.00    -0.206 F 
ATOM     81  C   UNL A   1      49.062  26.135  24.774  1.00  0.00     0.022 A 
BRANCH  78  82
ATOM     82  S   UNL A   1      48.419  27.542  22.455  1.00  0.00     0.124 S 
ATOM     83  O   UNL A   1      49.671  28.287  22.519  1.00  0.00    -0.237 OA
ATOM     84  O   UNL A   1      48.473  26.249  21.781  1.00  0.00    -0.237 OA
ATOM     85  O   UNL A   1      47.231  28.343  22.168  1.00  0.00    -0.744 OA
ENDBRANCH  78  82
ENDBRANCH  51  75
BRANCH  63  86
ATOM     86  C   UNL A   1      45.022  33.212  29.023  1.00  0.00     0.023 A 
ATOM     87  C   UNL A   1      45.822  33.494  30.145  1.00  0.00     0.031 A 
ATOM     88  C   UNL A   1      44.895  34.201  28.032  1.00  0.00     0.131 A 
ATOM     89  C   UNL A   1      46.394  34.765  30.289  1.00  0.00     0.055 A 
ATOM     90  C   UNL A   1      45.528  35.439  28.147  1.00  0.00     0.041 A 
ATOM     91  F   UNL A   1      44.142  33.984  26.942  1.00  0.00    -0.206 F 
ATOM     92  C   UNL A   1      46.266  35.733  29.290  1.00  0.00     0.022 A 
BRANCH  89  93
ATOM     93  S   UNL A   1      47.191  35.182  31.864  1.00  0.00     0.124 S 
ATOM     94  O   UNL A   1      48.526  34.619  31.686  1.00  0.00    -0.237 OA
ATOM     95  O   UNL A   1      47.111  36.639  31.878  1.00  0.00    -0.237 OA
ATOM     96  O   UNL A   1      46.360  34.505  32.857  1.00  0.00    -0.744 OA
ENDBRANCH  89  93
ENDBRANCH  63  86
ENDBRANCH  37  38
ENDBRANCH  30  32
ENDBRANCH  29  30
ENDBRANCH  28  29
ENDBRANCH   1  28
TORSDOF 19
ENDMDL
MODEL 2
REMARK VINA RESULT:     -12.3      4.751     10.070
REMARK SMILES CCOC(=O)c1ccc(NC(=O)[C@H]2CC(C)=C(C)C[C@@H]2C(=O)OCCOC(=O)c2ccc(-c3c4nc(c(-c5cc(S(=O)(=O)[O-])ccc5F)c5ccc([nH]5)c(-c5cc(S(=O)(=O)[O-])ccc5F)c5nc(c(-c6cc(S(=O)(=O)[O-])ccc6F)c6ccc3[nH]6)C=C5)C=C4)cc2)cc1
REMARK SMILES IDX 24 1 23 2 21 3 22 4 20 5 13 6 14 7 15 8 19 9 16 10 17 11
REMARK SMILES IDX 18 12 11 13 10 14 12 16 9 17 6 18 7 19 93 20 8 21 92 22 4 23
REMARK SMILES IDX 5 24 3 25 2 26 1 27 25 28 26 29 27 30 28 31 29 32 30 33
REMARK SMILES IDX 91 34 31 35 90 36 32 37 33 38 34 39 84 40 35 41 89 42 83 43
REMARK SMILES IDX 85 44 36 45 88 46 82 47 81 48 37 50 69 51 49 52 68 53 50 54
REMARK SMILES IDX 53 55 67 56 86 57 51 58 52 59 66 61 87 62 54 63 38 64 39 65
REMARK SMILES IDX 47 66 40 67 46 68 48 69 45 70 41 71 42 72 43 73 44 74 70 75
REMARK SMILES IDX 71 76 79 77 72 78 78 79 80 80 77 81 73 82 74 83 75 84 76 85
REMARK SMILES IDX 55 86 56 87 64 88 57 89 63 90 65 91 62 92 58 93 59 94 60 95
REMARK SMILES IDX 61 96
REMARK H PARENT 10 15 85 49 53 60
REMARK Flexibility Score: inf
ROOT
ATOM      1  C   UNL A   1      32.967  28.641  24.456  1.00  0.00     0.274 C 
ENDROOT
BRANCH   1   2
ATOM      2  O   UNL A   1      32.404  27.514  23.752  1.00  0.00    -0.462 OA
BRANCH   2   3
ATOM      3  C   UNL A   1      33.283  26.615  23.228  1.00  0.00     0.310 C 
ATOM      4  O   UNL A   1      33.977  26.842  22.240  1.00  0.00    -0.252 OA
BRANCH   3   5
ATOM      5  C   UNL A   1      33.241  25.233  23.886  1.00  0.00     0.116 C 
ATOM      6  C   UNL A   1      33.264  25.306  25.406  1.00  0.00     0.097 C 
ATOM      7  C   UNL A   1      34.602  24.772  26.005  1.00  0.00     0.045 C 
ATOM      8  C   UNL A   1      35.608  24.071  25.102  1.00  0.00    -0.074 C 
ATOM      9  C   UNL A   1      34.088  24.192  23.161  1.00  0.00     0.046 C 
ATOM     10  C   UNL A   1      36.910  23.700  25.775  1.00  0.00     0.039 C 
ATOM     11  C   UNL A   1      35.366  23.793  23.808  1.00  0.00    -0.073 C 
ATOM     12  C   UNL A   1      36.292  23.005  22.908  1.00  0.00     0.039 C 
BRANCH   6  13
ATOM     13  C   UNL A   1      31.975  24.727  26.047  1.00  0.00     0.228 C 
ATOM     14  N   UNL A   1      31.502  23.448  25.797  1.00  0.00    -0.326 N 
ATOM     15  H   UNL A   1      30.548  23.363  26.028  1.00  0.00     0.169 HD
ATOM     16  O   UNL A   1      31.219  25.454  26.701  1.00  0.00    -0.274 OA
BRANCH  14  17
ATOM     17  C   UNL A   1      32.027  22.232  25.295  1.00  0.00     0.041 A 
ATOM     18  C   UNL A   1      33.038  19.733  24.390  1.00  0.00     0.060 A 
ATOM     19  C   UNL A   1      32.317  20.551  23.543  1.00  0.00     0.018 A 
ATOM     20  C   UNL A   1      33.372  20.204  25.660  1.00  0.00     0.018 A 
ATOM     21  C   UNL A   1      31.890  21.801  23.986  1.00  0.00     0.027 A 
ATOM     22  C   UNL A   1      32.870  21.453  26.104  1.00  0.00     0.027 A 
BRANCH  18  23
ATOM     23  C   UNL A   1      33.443  18.429  23.826  1.00  0.00     0.338 C 
ATOM     24  O   UNL A   1      32.847  17.885  22.918  1.00  0.00    -0.246 OA
BRANCH  23  25
ATOM     25  O   UNL A   1      34.390  17.881  24.628  1.00  0.00    -0.462 OA
BRANCH  25  26
ATOM     26  C   UNL A   1      34.325  16.448  24.738  1.00  0.00     0.230 C 
ATOM     27  C   UNL A   1      35.588  15.946  25.417  1.00  0.00     0.049 C 
ENDBRANCH  25  26
ENDBRANCH  23  25
ENDBRANCH  18  23
ENDBRANCH  14  17
ENDBRANCH   6  13
ENDBRANCH   3   5
ENDBRANCH   2   3
ENDBRANCH   1   2
BRANCH   1  28
ATOM     28  C   UNL A   1      32.007  29.235  25.481  1.00  0.00     0.275 C 
BRANCH  28  29
ATOM     29  O   UNL A   1      32.678  29.369  26.740  1.00  0.00    -0.458 OA
BRANCH  29  30
ATOM     30  C   UNL A   1      33.092  30.627  27.015  1.00  0.00     0.338 C 
ATOM     31  O   UNL A   1      32.408  31.632  27.103  1.00  0.00    -0.246 OA
BRANCH  30  32
ATOM     32  C   UNL A   1      34.517  30.602  27.355  1.00  0.00     0.060 A 
ATOM     33  C   UNL A   1      35.136  29.360  27.390  1.00  0.00     0.016 A 
ATOM     34  C   UNL A   1      35.173  31.726  27.840  1.00  0.00     0.016 A 
ATOM     35  C   UNL A   1      36.362  29.193  28.001  1.00  0.00     0.010 A 
ATOM     36  C   UNL A   1      36.452  31.577  28.386  1.00  0.00     0.010 A 
ATOM     37  C   UNL A   1      37.033  30.299  28.522  1.00  0.00    -0.014 A 
BRANCH  37  38
ATOM     38  C   UNL A   1      38.244  30.076  29.350  1.00  0.00     0.031 A 
ATOM     39  C   UNL A   1      39.355  29.236  28.784  1.00  0.00     0.074 A 
ATOM     40  C   UNL A   1      38.396  30.691  30.538  1.00  0.00     0.049 A 
ATOM     41  N   UNL A   1      40.376  28.692  29.390  1.00  0.00    -0.248 NA
ATOM     42  C   UNL A   1      39.289  28.949  27.342  1.00  0.00     0.031 C 
ATOM     43  C   UNL A   1      37.449  31.639  31.132  1.00  0.00     0.029 A 
ATOM     44  N   UNL A   1      39.417  30.632  31.452  1.00  0.00    -0.354 N 
ATOM     45  C   UNL A   1      41.020  27.923  28.425  1.00  0.00     0.074 A 
ATOM     46  C   UNL A   1      40.278  28.080  27.193  1.00  0.00     0.031 C 
ATOM     47  C   UNL A   1      37.958  32.109  32.281  1.00  0.00     0.029 A 
ATOM     48  C   UNL A   1      39.194  31.397  32.574  1.00  0.00     0.049 A 
ATOM     49  H   UNL A   1      40.231  30.094  31.318  1.00  0.00     0.167 HD
ATOM     50  C   UNL A   1      42.123  27.149  28.575  1.00  0.00     0.034 A 
ATOM     51  C   UNL A   1      39.873  31.460  33.736  1.00  0.00     0.034 A 
ATOM     52  C   UNL A   1      42.867  27.078  29.811  1.00  0.00     0.049 A 
ATOM     53  C   UNL A   1      41.068  30.559  33.899  1.00  0.00     0.074 A 
ATOM     54  C   UNL A   1      43.981  26.316  30.112  1.00  0.00     0.029 A 
ATOM     55  N   UNL A   1      42.579  27.825  30.950  1.00  0.00    -0.354 N 
ATOM     56  N   UNL A   1      41.591  29.713  33.038  1.00  0.00    -0.248 NA
ATOM     57  C   UNL A   1      41.749  30.600  35.197  1.00  0.00     0.031 C 
ATOM     58  C   UNL A   1      44.331  26.559  31.445  1.00  0.00     0.029 A 
ATOM     59  C   UNL A   1      43.484  27.530  31.958  1.00  0.00     0.049 A 
ATOM     60  H   UNL A   1      41.839  28.468  31.029  1.00  0.00     0.167 HD
ATOM     61  C   UNL A   1      42.667  29.123  33.692  1.00  0.00     0.074 A 
ATOM     62  C   UNL A   1      42.738  29.742  35.002  1.00  0.00     0.031 C 
ATOM     63  C   UNL A   1      43.513  28.151  33.262  1.00  0.00     0.034 A 
BRANCH  50  64
ATOM     64  C   UNL A   1      42.514  26.260  27.417  1.00  0.00     0.023 A 
ATOM     65  C   UNL A   1      42.021  24.952  27.264  1.00  0.00     0.031 A 
ATOM     66  C   UNL A   1      43.456  26.716  26.477  1.00  0.00     0.131 A 
ATOM     67  C   UNL A   1      42.529  24.125  26.248  1.00  0.00     0.055 A 
ATOM     68  C   UNL A   1      43.893  25.919  25.417  1.00  0.00     0.041 A 
ATOM     69  F   UNL A   1      43.988  27.945  26.583  1.00  0.00    -0.206 F 
ATOM     70  C   UNL A   1      43.442  24.608  25.307  1.00  0.00     0.022 A 
BRANCH  67  71
ATOM     71  S   UNL A   1      42.098  22.363  26.262  1.00  0.00     0.124 S 
ATOM     72  O   UNL A   1      42.826  21.872  25.095  1.00  0.00    -0.237 OA
ATOM     73  O   UNL A   1      42.600  21.924  27.559  1.00  0.00    -0.237 OA
ATOM     74  O   UNL A   1      40.642  22.363  26.123  1.00  0.00    -0.744 OA
ENDBRANCH  67  71
ENDBRANCH  50  64
BRANCH  51  75
ATOM     75  C   UNL A   1      39.387  32.320  34.856  1.00  0.00     0.023 A 
ATOM     76  C   UNL A   1      38.795  31.763  36.000  1.00  0.00     0.031 A 
ATOM     77  C   UNL A   1      39.479  33.724  34.785  1.00  0.00     0.131 A 
ATOM     78  C   UNL A   1      38.292  32.602  37.008  1.00  0.00     0.055 A 
ATOM     79  C   UNL A   1      39.037  34.550  35.818  1.00  0.00     0.041 A 
ATOM     80  F   UNL A   1      40.023  34.317  33.709  1.00  0.00    -0.206 F 
ATOM     81  C   UNL A   1      38.427  33.990  36.934  1.00  0.00     0.022 A 
BRANCH  78  82
ATOM     82  S   UNL A   1      37.375  31.855  38.384  1.00  0.00     0.124 S 
ATOM     83  O   UNL A   1      38.308  32.027  39.491  1.00  0.00    -0.237 OA
ATOM     84  O   UNL A   1      36.169  32.674  38.426  1.00  0.00    -0.237 OA
ATOM     85  O   UNL A   1      37.173  30.474  37.949  1.00  0.00    -0.744 OA
ENDBRANCH  78  82
ENDBRANCH  51  75
BRANCH  63  86
ATOM     86  C   UNL A   1      44.600  27.743  34.224  1.00  0.00     0.023 A 
ATOM     87  C   UNL A   1      44.417  26.684  35.131  1.00  0.00     0.031 A 
ATOM     88  C   UNL A   1      45.809  28.458  34.272  1.00  0.00     0.131 A 
ATOM     89  C   UNL A   1      45.393  26.426  36.105  1.00  0.00     0.055 A 
ATOM     90  C   UNL A   1      46.807  28.149  35.196  1.00  0.00     0.041 A 
ATOM     91  F   UNL A   1      46.033  29.480  33.430  1.00  0.00    -0.206 F 
ATOM     92  C   UNL A   1      46.593  27.140  36.132  1.00  0.00     0.022 A 
BRANCH  89  93
ATOM     93  S   UNL A   1      45.010  25.237  37.420  1.00  0.00     0.124 S 
ATOM     94  O   UNL A   1      45.464  23.981  36.833  1.00  0.00    -0.237 OA
ATOM     95  O   UNL A   1      45.801  25.743  38.536  1.00  0.00    -0.237 OA
ATOM     96  O   UNL A   1      43.562  25.360  37.580  1.00  0.00    -0.744 OA
ENDBRANCH  89  93
ENDBRANCH  63  86
ENDBRANCH  37  38
ENDBRANCH  30  32
ENDBRANCH  29  30
ENDBRANCH  28  29
ENDBRANCH   1  28
TORSDOF 19
ENDMDL
MODEL 3
REMARK VINA RESULT:     -12.2      4.621      9.995
REMARK SMILES CCOC(=O)c1ccc(NC(=O)[C@H]2CC(C)=C(C)C[C@@H]2C(=O)OCCOC(=O)c2ccc(-c3c4nc(c(-c5cc(S(=O)(=O)[O-])ccc5F)c5ccc([nH]5)c(-c5cc(S(=O)(=O)[O-])ccc5F)c5nc(c(-c6cc(S(=O)(=O)[O-])ccc6F)c6ccc3[nH]6)C=C5)C=C4)cc2)cc1
REMARK SMILES IDX 24 1 23 2 21 3 22 4 20 5 13 6 14 7 15 8 19 9 16 10 17 11
REMARK SMILES IDX 18 12 11 13 10 14 12 16 9 17 6 18 7 19 93 20 8 21 92 22 4 23
REMARK SMILES IDX 5 24 3 25 2 26 1 27 25 28 26 29 27 30 28 31 29 32 30 33
REMARK SMILES IDX 91 34 31 35 90 36 32 37 33 38 34 39 84 40 35 41 89 42 83 43
REMARK SMILES IDX 85 44 36 45 88 46 82 47 81 48 37 50 69 51 49 52 68 53 50 54
REMARK SMILES IDX 53 55 67 56 86 57 51 58 52 59 66 61 87 62 54 63 38 64 39 65
REMARK SMILES IDX 47 66 40 67 46 68 48 69 45 70 41 71 42 72 43 73 44 74 70 75
REMARK SMILES IDX 71 76 79 77 72 78 78 79 80 80 77 81 73 82 74 83 75 84 76 85
REMARK SMILES IDX 55 86 56 87 64 88 57 89 63 90 65 91 62 92 58 93 59 94 60 95
REMARK SMILES IDX 61 96
REMARK H PARENT 10 15 85 49 53 60
REMARK Flexibility Score: inf
ROOT
ATOM      1  C   UNL A   1      31.470  28.249  26.062  1.00  0.00     0.274 C 
ENDROOT
BRANCH   1   2
ATOM      2  O   UNL A   1      32.191  27.495  25.062  1.00  0.00    -0.462 OA
BRANCH   2   3
ATOM      3  C   UNL A   1      33.303  26.829  25.478  1.00  0.00     0.310 C 
ATOM      4  O   UNL A   1      34.243  27.372  26.053  1.00  0.00    -0.252 OA
BRANCH   3   5
ATOM      5  C   UNL A   1      33.359  25.361  25.048  1.00  0.00     0.116 C 
ATOM      6  C   UNL A   1      32.311  25.018  23.998  1.00  0.00     0.097 C 
ATOM      7  C   UNL A   1      31.197  24.079  24.555  1.00  0.00     0.045 C 
ATOM      8  C   UNL A   1      31.356  23.454  25.936  1.00  0.00    -0.074 C 
ATOM      9  C   UNL A   1      33.620  24.401  26.205  1.00  0.00     0.046 C 
ATOM     10  C   UNL A   1      30.163  22.656  26.409  1.00  0.00     0.039 C 
ATOM     11  C   UNL A   1      32.468  23.589  26.680  1.00  0.00    -0.073 C 
ATOM     12  C   UNL A   1      32.708  22.898  28.004  1.00  0.00     0.039 C 
BRANCH   6  13
ATOM     13  C   UNL A   1      32.945  24.566  22.655  1.00  0.00     0.228 C 
ATOM     14  N   UNL A   1      33.436  23.289  22.429  1.00  0.00    -0.326 N 
ATOM     15  H   UNL A   1      34.060  23.271  21.667  1.00  0.00     0.169 HD
ATOM     16  O   UNL A   1      33.183  25.392  21.766  1.00  0.00    -0.274 OA
BRANCH  14  17
ATOM     17  C   UNL A   1      33.279  22.005  23.005  1.00  0.00     0.041 A 
ATOM     18  C   UNL A   1      32.961  19.378  24.047  1.00  0.00     0.060 A 
ATOM     19  C   UNL A   1      33.914  20.232  24.566  1.00  0.00     0.018 A 
ATOM     20  C   UNL A   1      32.070  19.864  23.089  1.00  0.00     0.018 A 
ATOM     21  C   UNL A   1      34.006  21.538  24.087  1.00  0.00     0.027 A 
ATOM     22  C   UNL A   1      32.230  21.175  22.577  1.00  0.00     0.027 A 
BRANCH  18  23
ATOM     23  C   UNL A   1      32.945  18.017  24.621  1.00  0.00     0.338 C 
ATOM     24  O   UNL A   1      31.942  17.494  25.063  1.00  0.00    -0.246 OA
BRANCH  23  25
ATOM     25  O   UNL A   1      34.225  17.595  24.777  1.00  0.00    -0.462 OA
BRANCH  25  26
ATOM     26  C   UNL A   1      34.383  16.165  24.818  1.00  0.00     0.230 C 
ATOM     27  C   UNL A   1      35.725  15.834  25.449  1.00  0.00     0.049 C 
ENDBRANCH  25  26
ENDBRANCH  23  25
ENDBRANCH  18  23
ENDBRANCH  14  17
ENDBRANCH   6  13
ENDBRANCH   3   5
ENDBRANCH   2   3
ENDBRANCH   1   2
BRANCH   1  28
ATOM     28  C   UNL A   1      31.836  29.729  26.060  1.00  0.00     0.275 C 
BRANCH  28  29
ATOM     29  O   UNL A   1      32.458  30.066  27.307  1.00  0.00    -0.458 OA
BRANCH  29  30
ATOM     30  C   UNL A   1      33.069  31.272  27.311  1.00  0.00     0.338 C 
ATOM     31  O   UNL A   1      32.548  32.370  27.208  1.00  0.00    -0.246 OA
BRANCH  30  32
ATOM     32  C   UNL A   1      34.491  31.092  27.617  1.00  0.00     0.060 A 
ATOM     33  C   UNL A   1      34.927  29.793  27.843  1.00  0.00     0.016 A 
ATOM     34  C   UNL A   1      35.322  32.169  27.894  1.00  0.00     0.016 A 
ATOM     35  C   UNL A   1      36.145  29.547  28.445  1.00  0.00     0.010 A 
ATOM     36  C   UNL A   1      36.591  31.921  28.428  1.00  0.00     0.010 A 
ATOM     37  C   UNL A   1      36.990  30.610  28.760  1.00  0.00    -0.014 A 
BRANCH  37  38
ATOM     38  C   UNL A   1      38.195  30.346  29.585  1.00  0.00     0.031 A 
ATOM     39  C   UNL A   1      39.293  29.503  29.000  1.00  0.00     0.074 A 
ATOM     40  C   UNL A   1      38.353  30.926  30.789  1.00  0.00     0.049 A 
ATOM     41  N   UNL A   1      40.304  28.927  29.594  1.00  0.00    -0.248 NA
ATOM     42  C   UNL A   1      39.228  29.255  27.551  1.00  0.00     0.031 C 
ATOM     43  C   UNL A   1      37.420  31.874  31.406  1.00  0.00     0.029 A 
ATOM     44  N   UNL A   1      39.370  30.827  31.704  1.00  0.00    -0.354 N 
ATOM     45  C   UNL A   1      40.939  28.173  28.611  1.00  0.00     0.074 A 
ATOM     46  C   UNL A   1      40.203  28.374  27.382  1.00  0.00     0.031 C 
ATOM     47  C   UNL A   1      37.932  32.305  32.568  1.00  0.00     0.029 A 
ATOM     48  C   UNL A   1      39.156  31.566  32.845  1.00  0.00     0.049 A 
ATOM     49  H   UNL A   1      40.175  30.279  31.558  1.00  0.00     0.167 HD
ATOM     50  C   UNL A   1      42.028  27.377  28.743  1.00  0.00     0.034 A 
ATOM     51  C   UNL A   1      39.832  31.587  34.010  1.00  0.00     0.034 A 
ATOM     52  C   UNL A   1      42.767  27.262  29.980  1.00  0.00     0.049 A 
ATOM     53  C   UNL A   1      41.012  30.662  34.153  1.00  0.00     0.074 A 
ATOM     54  C   UNL A   1      43.868  26.475  30.263  1.00  0.00     0.029 A 
ATOM     55  N   UNL A   1      42.488  27.983  31.137  1.00  0.00    -0.354 N 
ATOM     56  N   UNL A   1      41.524  29.831  33.271  1.00  0.00    -0.248 NA
ATOM     57  C   UNL A   1      41.689  30.659  35.453  1.00  0.00     0.031 C 
ATOM     58  C   UNL A   1      44.217  26.676  31.603  1.00  0.00     0.029 A 
ATOM     59  C   UNL A   1      43.385  27.647  32.139  1.00  0.00     0.049 A 
ATOM     60  H   UNL A   1      41.758  28.636  31.231  1.00  0.00     0.167 HD
ATOM     61  C   UNL A   1      42.588  29.207  33.913  1.00  0.00     0.074 A 
ATOM     62  C   UNL A   1      42.665  29.790  35.239  1.00  0.00     0.031 C 
ATOM     63  C   UNL A   1      43.420  28.233  33.459  1.00  0.00     0.034 A 
BRANCH  50  64
ATOM     64  C   UNL A   1      42.409  26.513  27.563  1.00  0.00     0.023 A 
ATOM     65  C   UNL A   1      41.952  25.191  27.412  1.00  0.00     0.031 A 
ATOM     66  C   UNL A   1      43.304  27.009  26.598  1.00  0.00     0.131 A 
ATOM     67  C   UNL A   1      42.452  24.392  26.371  1.00  0.00     0.055 A 
ATOM     68  C   UNL A   1      43.731  26.237  25.515  1.00  0.00     0.041 A 
ATOM     69  F   UNL A   1      43.801  28.252  26.700  1.00  0.00    -0.206 F 
ATOM     70  C   UNL A   1      43.318  24.913  25.406  1.00  0.00     0.022 A 
BRANCH  67  71
ATOM     71  S   UNL A   1      42.077  22.616  26.379  1.00  0.00     0.124 S 
ATOM     72  O   UNL A   1      42.713  22.187  27.622  1.00  0.00    -0.237 OA
ATOM     73  O   UNL A   1      40.619  22.600  26.369  1.00  0.00    -0.237 OA
ATOM     74  O   UNL A   1      42.715  22.124  25.159  1.00  0.00    -0.744 OA
ENDBRANCH  67  71
ENDBRANCH  50  64
BRANCH  51  75
ATOM     75  C   UNL A   1      39.357  32.425  35.152  1.00  0.00     0.023 A 
ATOM     76  C   UNL A   1      39.841  33.727  35.352  1.00  0.00     0.031 A 
ATOM     77  C   UNL A   1      38.429  31.921  36.084  1.00  0.00     0.131 A 
ATOM     78  C   UNL A   1      39.421  34.466  36.470  1.00  0.00     0.055 A 
ATOM     79  C   UNL A   1      37.966  32.683  37.156  1.00  0.00     0.041 A 
ATOM     80  F   UNL A   1      37.940  30.677  35.953  1.00  0.00    -0.206 F 
ATOM     81  C   UNL A   1      38.472  33.961  37.362  1.00  0.00     0.022 A 
BRANCH  78  82
ATOM     82  S   UNL A   1      40.201  36.072  36.794  1.00  0.00     0.124 S 
ATOM     83  O   UNL A   1      39.936  36.788  35.552  1.00  0.00    -0.237 OA
ATOM     84  O   UNL A   1      39.470  36.533  37.970  1.00  0.00    -0.237 OA
ATOM     85  O   UNL A   1      41.602  35.728  37.030  1.00  0.00    -0.744 OA
ENDBRANCH  78  82
ENDBRANCH  51  75
BRANCH  63  86
ATOM     86  C   UNL A   1      44.497  27.782  34.413  1.00  0.00     0.023 A 
ATOM     87  C   UNL A   1      44.220  26.889  35.463  1.00  0.00     0.031 A 
ATOM     88  C   UNL A   1      45.800  28.297  34.304  1.00  0.00     0.131 A 
ATOM     89  C   UNL A   1      45.210  26.604  36.413  1.00  0.00     0.055 A 
ATOM     90  C   UNL A   1      46.802  27.951  35.212  1.00  0.00     0.041 A 
ATOM     91  F   UNL A   1      46.117  29.155  33.321  1.00  0.00    -0.206 F 
ATOM     92  C   UNL A   1      46.504  27.116  36.284  1.00  0.00     0.022 A 
BRANCH  89  93
ATOM     93  S   UNL A   1      44.745  25.667  37.895  1.00  0.00     0.124 S 
ATOM     94  O   UNL A   1      43.560  26.388  38.348  1.00  0.00    -0.237 OA
ATOM     95  O   UNL A   1      44.510  24.331  37.357  1.00  0.00    -0.237 OA
ATOM     96  O   UNL A   1      45.916  25.791  38.760  1.00  0.00    -0.744 OA
ENDBRANCH  89  93
ENDBRANCH  63  86
ENDBRANCH  37  38
ENDBRANCH  30  32
ENDBRANCH  29  30
ENDBRANCH  28  29
ENDBRANCH   1  28
TORSDOF 19
ENDMDL
