MODEL 1
REMARK VINA RESULT:     -11.2      0.000      0.000
REMARK SMILES C#CCN(CC(=O)OCCOC(=O)c1ccc(-c2c3nc(c(-c4cc(S(=O)(=O)[O-])ccc4F)c4ccc([nH]4)c(-c4cc(S(=O)(=O)[O-])ccc4F)c4nc(c(-c5cc(S(=O)(=O)[O-])ccc5F)c5ccc2[nH]5)C=C4)C=C3)cc1)C(=O)[C@H](c1ccc(Cl)cc1)C(C)C
REMARK SMILES IDX 9 1 8 2 6 3 7 4 5 5 4 6 3 7 2 8 1 9 77 10 78 11 79 12 87 13
REMARK SMILES IDX 88 14 89 15 80 16 81 17 86 18 82 19 85 20 83 21 84 22 10 23
REMARK SMILES IDX 11 24 12 25 13 26 14 27 15 28 76 29 16 30 75 31 17 32 18 33
REMARK SMILES IDX 19 34 69 35 20 36 74 37 68 38 70 39 21 40 73 41 67 42 66 43
REMARK SMILES IDX 22 45 54 46 34 47 53 48 35 49 38 50 52 51 71 52 36 53 37 54
REMARK SMILES IDX 51 56 72 57 39 58 23 59 24 60 32 61 25 62 31 63 33 64 30 65
REMARK SMILES IDX 26 66 27 67 28 68 29 69 55 70 56 71 64 72 57 73 63 74 65 75
REMARK SMILES IDX 62 76 58 77 59 78 60 79 61 80 40 81 41 82 49 83 42 84 48 85
REMARK SMILES IDX 50 86 47 87 43 88 44 89 45 90 46 91
REMARK H PARENT 70 44 38 55
REMARK Flexibility Score: inf
ROOT
ATOM      1  C   UNL A   1      34.125  21.446  24.273  1.00  0.00     0.274 C 
ENDROOT
BRANCH   1   2
ATOM      2  O   UNL A   1      33.588  22.457  23.389  1.00  0.00    -0.461 OA
BRANCH   2   3
ATOM      3  C   UNL A   1      32.255  22.337  23.173  1.00  0.00     0.325 C 
ATOM      4  O   UNL A   1      31.758  21.500  22.419  1.00  0.00    -0.250 OA
BRANCH   3   5
ATOM      5  C   UNL A   1      31.366  23.327  23.949  1.00  0.00     0.243 C 
BRANCH   5   6
ATOM      6  N   UNL A   1      31.725  24.248  25.115  1.00  0.00    -0.320 N 
BRANCH   6   7
ATOM      7  C   UNL A   1      31.728  23.454  26.258  1.00  0.00     0.210 C 
BRANCH   7   8
ATOM      8  C   UNL A   1      30.400  23.005  26.847  1.00  0.00    -0.085 C 
ATOM      9  C   UNL A   1      29.261  22.619  27.352  1.00  0.00     0.006 C 
ENDBRANCH   7   8
ENDBRANCH   6   7
BRANCH   6  10
ATOM     10  C   UNL A   1      31.607  25.632  25.453  1.00  0.00     0.231 C 
ATOM     11  O   UNL A   1      31.325  25.898  26.646  1.00  0.00    -0.274 OA
BRANCH  10  12
ATOM     12  C   UNL A   1      31.941  26.954  24.621  1.00  0.00     0.111 C 
BRANCH  12  13
ATOM     13  C   UNL A   1      32.681  26.715  23.274  1.00  0.00    -0.000 C 
ATOM     14  C   UNL A   1      33.256  28.020  22.699  1.00  0.00     0.008 C 
ATOM     15  C   UNL A   1      33.880  25.765  23.392  1.00  0.00     0.008 C 
ENDBRANCH  12  13
BRANCH  12  16
ATOM     16  C   UNL A   1      30.781  27.895  24.442  1.00  0.00    -0.035 A 
ATOM     17  C   UNL A   1      29.443  27.643  23.230  1.00  0.00     0.006 A 
ATOM     18  C   UNL A   1      31.179  29.573  24.989  1.00  0.00     0.006 A 
ATOM     19  C   UNL A   1      28.401  29.068  22.714  1.00  0.00     0.021 A 
ATOM     20  C   UNL A   1      30.211  31.002  24.392  1.00  0.00     0.021 A 
ATOM     21  C   UNL A   1      28.771  30.736  23.349  1.00  0.00     0.041 A 
ATOM     22  Cl  UNL A   1      27.867  32.098  22.825  1.00  0.00    -0.084 Cl
ENDBRANCH  12  16
ENDBRANCH  10  12
ENDBRANCH   6  10
ENDBRANCH   5   6
ENDBRANCH   3   5
ENDBRANCH   2   3
ENDBRANCH   1   2
BRANCH   1  23
ATOM     23  C   UNL A   1      35.506  21.837  24.842  1.00  0.00     0.275 C 
BRANCH  23  24
ATOM     24  O   UNL A   1      36.289  20.700  25.365  1.00  0.00    -0.458 OA
BRANCH  24  25
ATOM     25  C   UNL A   1      37.769  20.916  25.489  1.00  0.00     0.338 C 
ATOM     26  O   UNL A   1      38.139  19.839  24.957  1.00  0.00    -0.246 OA
BRANCH  25  27
ATOM     27  C   UNL A   1      38.881  22.501  26.410  1.00  0.00     0.060 A 
ATOM     28  C   UNL A   1      38.764  23.999  26.148  1.00  0.00     0.016 A 
ATOM     29  C   UNL A   1      40.116  22.495  27.290  1.00  0.00     0.016 A 
ATOM     30  C   UNL A   1      39.752  24.968  26.142  1.00  0.00     0.010 A 
ATOM     31  C   UNL A   1      41.008  23.566  27.573  1.00  0.00     0.010 A 
ATOM     32  C   UNL A   1      40.841  24.785  26.952  1.00  0.00    -0.014 A 
BRANCH  32  33
ATOM     33  C   UNL A   1      41.543  26.012  27.321  1.00  0.00     0.031 A 
ATOM     34  C   UNL A   1      42.883  26.334  26.766  1.00  0.00     0.074 A 
ATOM     35  C   UNL A   1      40.789  26.883  28.020  1.00  0.00     0.049 A 
ATOM     36  N   UNL A   1      43.558  27.442  26.883  1.00  0.00    -0.248 NA
ATOM     37  C   UNL A   1      43.549  25.304  25.958  1.00  0.00     0.031 C 
ATOM     38  C   UNL A   1      39.407  26.623  28.476  1.00  0.00     0.029 A 
ATOM     39  N   UNL A   1      41.019  28.161  28.415  1.00  0.00    -0.354 N 
ATOM     40  C   UNL A   1      44.727  27.247  26.162  1.00  0.00     0.074 A 
ATOM     41  C   UNL A   1      44.659  25.924  25.582  1.00  0.00     0.031 C 
ATOM     42  C   UNL A   1      38.898  27.731  29.014  1.00  0.00     0.029 A 
ATOM     43  C   UNL A   1      39.969  28.699  29.116  1.00  0.00     0.049 A 
ATOM     44  H   UNL A   1      41.851  28.651  28.220  1.00  0.00     0.167 HD
ATOM     45  C   UNL A   1      45.777  28.095  26.066  1.00  0.00     0.034 A 
ATOM     46  C   UNL A   1      39.920  29.812  29.859  1.00  0.00     0.034 A 
ATOM     47  C   UNL A   1      45.825  29.333  26.807  1.00  0.00     0.049 A 
ATOM     48  C   UNL A   1      41.167  30.636  29.883  1.00  0.00     0.074 A 
ATOM     49  C   UNL A   1      46.859  30.243  26.906  1.00  0.00     0.029 A 
ATOM     50  N   UNL A   1      44.799  29.803  27.626  1.00  0.00    -0.354 N 
ATOM     51  N   UNL A   1      42.290  30.436  29.228  1.00  0.00    -0.248 NA
ATOM     52  C   UNL A   1      41.155  31.817  30.739  1.00  0.00     0.031 C 
ATOM     53  C   UNL A   1      46.504  31.192  27.870  1.00  0.00     0.029 A 
ATOM     54  C   UNL A   1      45.199  30.954  28.280  1.00  0.00     0.049 A 
ATOM     55  H   UNL A   1      43.917  29.376  27.725  1.00  0.00     0.167 HD
ATOM     56  C   UNL A   1      43.120  31.488  29.576  1.00  0.00     0.074 A 
ATOM     57  C   UNL A   1      42.351  32.327  30.480  1.00  0.00     0.031 C 
ATOM     58  C   UNL A   1      44.396  31.742  29.187  1.00  0.00     0.034 A 
BRANCH  45  59
ATOM     59  C   UNL A   1      46.982  27.635  25.287  1.00  0.00     0.023 A 
ATOM     60  C   UNL A   1      47.176  27.966  23.935  1.00  0.00     0.031 A 
ATOM     61  C   UNL A   1      47.944  26.816  25.908  1.00  0.00     0.131 A 
ATOM     62  C   UNL A   1      48.284  27.451  23.241  1.00  0.00     0.055 A 
ATOM     63  C   UNL A   1      49.077  26.364  25.233  1.00  0.00     0.041 A 
ATOM     64  F   UNL A   1      47.786  26.426  27.183  1.00  0.00    -0.206 F 
ATOM     65  C   UNL A   1      49.249  26.675  23.888  1.00  0.00     0.022 A 
BRANCH  62  66
ATOM     66  S   UNL A   1      48.386  27.700  21.446  1.00  0.00     0.124 S 
ATOM     67  O   UNL A   1      49.445  28.702  21.347  1.00  0.00    -0.237 OA
ATOM     68  O   UNL A   1      48.719  26.366  20.960  1.00  0.00    -0.237 OA
ATOM     69  O   UNL A   1      47.051  28.178  21.090  1.00  0.00    -0.744 OA
ENDBRANCH  62  66
ENDBRANCH  45  59
BRANCH  46  70
ATOM     70  C   UNL A   1      38.726  30.104  30.692  1.00  0.00     0.023 A 
ATOM     71  C   UNL A   1      37.750  31.002  30.256  1.00  0.00     0.031 A 
ATOM     72  C   UNL A   1      38.545  29.493  31.952  1.00  0.00     0.131 A 
ATOM     73  C   UNL A   1      36.667  31.310  31.092  1.00  0.00     0.055 A 
ATOM     74  C   UNL A   1      37.424  29.737  32.742  1.00  0.00     0.041 A 
ATOM     75  F   UNL A   1      39.451  28.619  32.425  1.00  0.00    -0.206 F 
ATOM     76  C   UNL A   1      36.484  30.670  32.320  1.00  0.00     0.022 A 
BRANCH  73  77
ATOM     77  S   UNL A   1      35.575  32.667  30.601  1.00  0.00     0.124 S 
ATOM     78  O   UNL A   1      35.457  32.443  29.164  1.00  0.00    -0.237 OA
ATOM     79  O   UNL A   1      34.381  32.395  31.394  1.00  0.00    -0.237 OA
ATOM     80  O   UNL A   1      36.324  33.860  30.988  1.00  0.00    -0.744 OA
ENDBRANCH  73  77
ENDBRANCH  46  70
BRANCH  58  81
ATOM     81  C   UNL A   1      44.994  33.016  29.711  1.00  0.00     0.023 A 
ATOM     82  C   UNL A   1      44.857  34.231  29.023  1.00  0.00     0.031 A 
ATOM     83  C   UNL A   1      45.737  32.998  30.904  1.00  0.00     0.131 A 
ATOM     84  C   UNL A   1      45.524  35.366  29.493  1.00  0.00     0.055 A 
ATOM     85  C   UNL A   1      46.320  34.153  31.415  1.00  0.00     0.041 A 
ATOM     86  F   UNL A   1      45.904  31.855  31.589  1.00  0.00    -0.206 F 
ATOM     87  C   UNL A   1      46.231  35.342  30.699  1.00  0.00     0.022 A 
BRANCH  84  88
ATOM     88  S   UNL A   1      45.572  36.834  28.432  1.00  0.00     0.124 S 
ATOM     89  O   UNL A   1      44.743  36.416  27.306  1.00  0.00    -0.237 OA
ATOM     90  O   UNL A   1      45.002  37.863  29.295  1.00  0.00    -0.237 OA
ATOM     91  O   UNL A   1      46.994  36.991  28.133  1.00  0.00    -0.744 OA
ENDBRANCH  84  88
ENDBRANCH  58  81
ENDBRANCH  32  33
ENDBRANCH  25  27
ENDBRANCH  24  25
ENDBRANCH  23  24
ENDBRANCH   1  23
TORSDOF 21
ENDMDL
MODEL 2
REMARK VINA RESULT:     -11.0      1.814      7.850
REMARK SMILES C#CCN(CC(=O)OCCOC(=O)c1ccc(-c2c3nc(c(-c4cc(S(=O)(=O)[O-])ccc4F)c4ccc([nH]4)c(-c4cc(S(=O)(=O)[O-])ccc4F)c4nc(c(-c5cc(S(=O)(=O)[O-])ccc5F)c5ccc2[nH]5)C=C4)C=C3)cc1)C(=O)[C@H](c1ccc(Cl)cc1)C(C)C
REMARK SMILES IDX 9 1 8 2 6 3 7 4 5 5 4 6 3 7 2 8 1 9 77 10 78 11 79 12 87 13
REMARK SMILES IDX 88 14 89 15 80 16 81 17 86 18 82 19 85 20 83 21 84 22 10 23
REMARK SMILES IDX 11 24 12 25 13 26 14 27 15 28 76 29 16 30 75 31 17 32 18 33
REMARK SMILES IDX 19 34 69 35 20 36 74 37 68 38 70 39 21 40 73 41 67 42 66 43
REMARK SMILES IDX 22 45 54 46 34 47 53 48 35 49 38 50 52 51 71 52 36 53 37 54
REMARK SMILES IDX 51 56 72 57 39 58 23 59 24 60 32 61 25 62 31 63 33 64 30 65
REMARK SMILES IDX 26 66 27 67 28 68 29 69 55 70 56 71 64 72 57 73 63 74 65 75
REMARK SMILES IDX 62 76 58 77 59 78 60 79 61 80 40 81 41 82 49 83 42 84 48 85
REMARK SMILES IDX 50 86 47 87 43 88 44 89 45 90 46 91
REMARK H PARENT 70 44 38 55
REMARK Flexibility Score: inf
ROOT
ATOM      1  C   UNL A   1      34.601  22.275  24.362  1.00  0.00     0.274 C 
ENDROOT
BRANCH   1   2
ATOM      2  O   UNL A   1      34.111  21.967  25.688  1.00  0.00    -0.461 OA
BRANCH   2   3
ATOM      3  C   UNL A   1      33.045  22.716  26.061  1.00  0.00     0.325 C 
ATOM      4  O   UNL A   1      32.184  22.332  26.853  1.00  0.00    -0.250 OA
BRANCH   3   5
ATOM      5  C   UNL A   1      32.966  24.119  25.429  1.00  0.00     0.243 C 
BRANCH   5   6
ATOM      6  N   UNL A   1      31.770  25.063  25.303  1.00  0.00    -0.320 N 
BRANCH   6   7
ATOM      7  C   UNL A   1      31.249  24.869  24.026  1.00  0.00     0.210 C 
BRANCH   7   8
ATOM      8  C   UNL A   1      32.125  25.163  22.820  1.00  0.00    -0.085 C 
ATOM      9  C   UNL A   1      32.878  25.416  21.784  1.00  0.00     0.006 C 
ENDBRANCH   7   8
ENDBRANCH   6   7
BRANCH   6  10
ATOM     10  C   UNL A   1      31.336  26.310  25.849  1.00  0.00     0.231 C 
ATOM     11  O   UNL A   1      30.288  26.288  26.538  1.00  0.00    -0.274 OA
BRANCH  10  12
ATOM     12  C   UNL A   1      32.039  27.744  25.897  1.00  0.00     0.111 C 
BRANCH  12  13
ATOM     13  C   UNL A   1      33.583  27.725  25.711  1.00  0.00    -0.000 C 
ATOM     14  C   UNL A   1      33.990  28.096  24.275  1.00  0.00     0.008 C 
ATOM     15  C   UNL A   1      34.323  28.726  26.610  1.00  0.00     0.008 C 
ENDBRANCH  12  13
BRANCH  12  16
ATOM     16  C   UNL A   1      31.401  28.788  25.023  1.00  0.00    -0.035 A 
ATOM     17  C   UNL A   1      31.247  30.545  25.483  1.00  0.00     0.006 A 
ATOM     18  C   UNL A   1      30.217  28.067  23.860  1.00  0.00     0.006 A 
ATOM     19  C   UNL A   1      30.007  31.604  24.632  1.00  0.00     0.021 A 
ATOM     20  C   UNL A   1      28.916  29.097  23.096  1.00  0.00     0.021 A 
ATOM     21  C   UNL A   1      28.883  30.869  23.399  1.00  0.00     0.041 A 
ATOM     22  Cl  UNL A   1      27.663  31.813  22.646  1.00  0.00    -0.084 Cl
ENDBRANCH  12  16
ENDBRANCH  10  12
ENDBRANCH   6  10
ENDBRANCH   5   6
ENDBRANCH   3   5
ENDBRANCH   2   3
ENDBRANCH   1   2
BRANCH   1  23
ATOM     23  C   UNL A   1      35.999  21.676  24.099  1.00  0.00     0.275 C 
BRANCH  23  24
ATOM     24  O   UNL A   1      36.492  20.796  25.177  1.00  0.00    -0.458 OA
BRANCH  24  25
ATOM     25  C   UNL A   1      37.927  20.981  25.579  1.00  0.00     0.338 C 
ATOM     26  O   UNL A   1      38.330  19.826  25.290  1.00  0.00    -0.246 OA
BRANCH  25  27
ATOM     27  C   UNL A   1      38.923  22.648  26.487  1.00  0.00     0.060 A 
ATOM     28  C   UNL A   1      38.744  24.130  26.169  1.00  0.00     0.016 A 
ATOM     29  C   UNL A   1      40.121  22.732  27.413  1.00  0.00     0.016 A 
ATOM     30  C   UNL A   1      39.683  25.146  26.167  1.00  0.00     0.010 A 
ATOM     31  C   UNL A   1      40.948  23.854  27.693  1.00  0.00     0.010 A 
ATOM     32  C   UNL A   1      40.747  25.044  27.024  1.00  0.00    -0.014 A 
BRANCH  32  33
ATOM     33  C   UNL A   1      41.373  26.315  27.377  1.00  0.00     0.031 A 
ATOM     34  C   UNL A   1      40.660  27.327  28.199  1.00  0.00     0.074 A 
ATOM     35  C   UNL A   1      42.684  26.383  27.072  1.00  0.00     0.049 A 
ATOM     36  N   UNL A   1      41.133  28.426  28.714  1.00  0.00    -0.248 NA
ATOM     37  C   UNL A   1      39.247  27.073  28.513  1.00  0.00     0.031 C 
ATOM     38  C   UNL A   1      43.437  25.329  26.359  1.00  0.00     0.029 A 
ATOM     39  N   UNL A   1      43.631  27.311  27.361  1.00  0.00    -0.354 N 
ATOM     40  C   UNL A   1      40.080  28.997  29.414  1.00  0.00     0.074 A 
ATOM     41  C   UNL A   1      38.948  28.107  29.288  1.00  0.00     0.031 C 
ATOM     42  C   UNL A   1      44.733  25.642  26.340  1.00  0.00     0.029 A 
ATOM     43  C   UNL A   1      44.866  26.987  26.856  1.00  0.00     0.049 A 
ATOM     44  H   UNL A   1      43.452  28.130  27.878  1.00  0.00     0.167 HD
ATOM     45  C   UNL A   1      40.074  30.195  30.043  1.00  0.00     0.034 A 
ATOM     46  C   UNL A   1      45.960  27.747  26.725  1.00  0.00     0.034 A 
ATOM     47  C   UNL A   1      41.205  31.090  29.986  1.00  0.00     0.049 A 
ATOM     48  C   UNL A   1      45.857  29.137  27.266  1.00  0.00     0.074 A 
ATOM     49  C   UNL A   1      41.315  32.378  30.472  1.00  0.00     0.029 A 
ATOM     50  N   UNL A   1      42.411  30.798  29.350  1.00  0.00    -0.354 N 
ATOM     51  N   UNL A   1      44.848  29.694  27.900  1.00  0.00    -0.248 NA
ATOM     52  C   UNL A   1      47.017  30.002  27.074  1.00  0.00     0.031 C 
ATOM     53  C   UNL A   1      42.534  32.900  30.029  1.00  0.00     0.029 A 
ATOM     54  C   UNL A   1      43.244  31.901  29.377  1.00  0.00     0.049 A 
ATOM     55  H   UNL A   1      42.636  29.932  28.939  1.00  0.00     0.167 HD
ATOM     56  C   UNL A   1      45.261  30.979  28.208  1.00  0.00     0.074 A 
ATOM     57  C   UNL A   1      46.621  31.097  27.707  1.00  0.00     0.031 C 
ATOM     58  C   UNL A   1      44.587  31.970  28.845  1.00  0.00     0.034 A 
BRANCH  45  59
ATOM     59  C   UNL A   1      38.783  30.649  30.674  1.00  0.00     0.023 A 
ATOM     60  C   UNL A   1      37.768  31.284  29.937  1.00  0.00     0.031 A 
ATOM     61  C   UNL A   1      38.579  30.468  32.055  1.00  0.00     0.131 A 
ATOM     62  C   UNL A   1      36.615  31.747  30.593  1.00  0.00     0.055 A 
ATOM     63  C   UNL A   1      37.402  30.869  32.687  1.00  0.00     0.041 A 
ATOM     64  F   UNL A   1      39.534  29.913  32.817  1.00  0.00    -0.206 F 
ATOM     65  C   UNL A   1      36.413  31.519  31.956  1.00  0.00     0.022 A 
BRANCH  62  66
ATOM     66  S   UNL A   1      35.431  32.767  29.667  1.00  0.00     0.124 S 
ATOM     67  O   UNL A   1      35.084  31.882  28.558  1.00  0.00    -0.237 OA
ATOM     68  O   UNL A   1      34.381  33.004  30.651  1.00  0.00    -0.237 OA
ATOM     69  O   UNL A   1      36.213  33.944  29.294  1.00  0.00    -0.744 OA
ENDBRANCH  62  66
ENDBRANCH  45  59
BRANCH  46  70
ATOM     70  C   UNL A   1      47.135  27.244  25.969  1.00  0.00     0.023 A 
ATOM     71  C   UNL A   1      48.171  26.572  26.621  1.00  0.00     0.031 A 
ATOM     72  C   UNL A   1      47.246  27.437  24.576  1.00  0.00     0.131 A 
ATOM     73  C   UNL A   1      49.299  26.167  25.893  1.00  0.00     0.055 A 
ATOM     74  C   UNL A   1      48.330  26.958  23.843  1.00  0.00     0.041 A 
ATOM     75  F   UNL A   1      46.280  28.077  23.894  1.00  0.00    -0.206 F 
ATOM     76  C   UNL A   1      49.378  26.334  24.509  1.00  0.00     0.022 A 
BRANCH  73  77
ATOM     77  S   UNL A   1      50.724  25.539  26.816  1.00  0.00     0.124 S 
ATOM     78  O   UNL A   1      50.125  24.441  27.567  1.00  0.00    -0.237 OA
ATOM     79  O   UNL A   1      51.636  25.162  25.743  1.00  0.00    -0.237 OA
ATOM     80  O   UNL A   1      51.141  26.689  27.617  1.00  0.00    -0.744 OA
ENDBRANCH  73  77
ENDBRANCH  46  70
BRANCH  58  81
ATOM     81  C   UNL A   1      45.356  33.239  29.071  1.00  0.00     0.023 A 
ATOM     82  C   UNL A   1      45.289  34.312  28.168  1.00  0.00     0.031 A 
ATOM     83  C   UNL A   1      46.190  33.357  30.196  1.00  0.00     0.131 A 
ATOM     84  C   UNL A   1      46.108  35.428  28.365  1.00  0.00     0.055 A 
ATOM     85  C   UNL A   1      46.930  34.511  30.434  1.00  0.00     0.041 A 
ATOM     86  F   UNL A   1      46.293  32.352  31.080  1.00  0.00    -0.206 F 
ATOM     87  C   UNL A   1      46.907  35.547  29.506  1.00  0.00     0.022 A 
BRANCH  84  88
ATOM     88  S   UNL A   1      46.219  36.654  27.036  1.00  0.00     0.124 S 
ATOM     89  O   UNL A   1      44.825  37.055  26.881  1.00  0.00    -0.237 OA
ATOM     90  O   UNL A   1      47.111  37.657  27.610  1.00  0.00    -0.237 OA
ATOM     91  O   UNL A   1      46.776  35.894  25.918  1.00  0.00    -0.744 OA
ENDBRANCH  84  88
ENDBRANCH  58  81
ENDBRANCH  32  33
ENDBRANCH  25  27
ENDBRANCH  24  25
ENDBRANCH  23  24
ENDBRANCH   1  23
TORSDOF 21
ENDMDL
MODEL 3
REMARK VINA RESULT:     -10.9      1.436      7.824
REMARK SMILES C#CCN(CC(=O)OCCOC(=O)c1ccc(-c2c3nc(c(-c4cc(S(=O)(=O)[O-])ccc4F)c4ccc([nH]4)c(-c4cc(S(=O)(=O)[O-])ccc4F)c4nc(c(-c5cc(S(=O)(=O)[O-])ccc5F)c5ccc2[nH]5)C=C4)C=C3)cc1)C(=O)[C@H](c1ccc(Cl)cc1)C(C)C
REMARK SMILES IDX 9 1 8 2 6 3 7 4 5 5 4 6 3 7 2 8 1 9 77 10 78 11 79 12 87 13
REMARK SMILES IDX 88 14 89 15 80 16 81 17 86 18 82 19 85 20 83 21 84 22 10 23
REMARK SMILES IDX 11 24 12 25 13 26 14 27 15 28 76 29 16 30 75 31 17 32 18 33
REMARK SMILES IDX 19 34 69 35 20 36 74 37 68 38 70 39 21 40 73 41 67 42 66 43
REMARK SMILES IDX 22 45 54 46 34 47 53 48 35 49 38 50 52 51 71 52 36 53 37 54
REMARK SMILES IDX 51 56 72 57 39 58 23 59 24 60 32 61 25 62 31 63 33 64 30 65
REMARK SMILES IDX 26 66 27 67 28 68 29 69 55 70 56 71 64 72 57 73 63 74 65 75
REMARK SMILES IDX 62 76 58 77 59 78 60 79 61 80 40 81 41 82 49 83 42 84 48 85
REMARK SMILES IDX 50 86 47 87 43 88 44 89 45 90 46 91
REMARK H PARENT 70 44 38 55
REMARK Flexibility Score: inf
ROOT
ATOM      1  C   UNL A   1      35.978  21.780  26.041  1.00  0.00     0.274 C 
ENDROOT
BRANCH   1   2
ATOM      2  O   UNL A   1      34.796  22.550  25.720  1.00  0.00    -0.461 OA
BRANCH   2   3
ATOM      3  C   UNL A   1      35.063  23.829  25.360  1.00  0.00     0.325 C 
ATOM      4  O   UNL A   1      36.083  24.434  25.691  1.00  0.00    -0.250 OA
BRANCH   3   5
ATOM      5  C   UNL A   1      33.995  24.508  24.481  1.00  0.00     0.243 C 
BRANCH   5   6
ATOM      6  N   UNL A   1      33.586  25.979  24.408  1.00  0.00    -0.320 N 
BRANCH   6   7
ATOM      7  C   UNL A   1      33.315  26.378  25.715  1.00  0.00     0.210 C 
BRANCH   7   8
ATOM      8  C   UNL A   1      33.823  27.728  26.194  1.00  0.00    -0.085 C 
ATOM      9  C   UNL A   1      34.259  28.887  26.604  1.00  0.00     0.006 C 
ENDBRANCH   7   8
ENDBRANCH   6   7
BRANCH   6  10
ATOM     10  C   UNL A   1      32.990  26.873  23.466  1.00  0.00     0.231 C 
ATOM     11  O   UNL A   1      33.757  27.396  22.623  1.00  0.00    -0.274 OA
BRANCH  10  12
ATOM     12  C   UNL A   1      31.460  27.217  23.160  1.00  0.00     0.111 C 
BRANCH  12  13
ATOM     13  C   UNL A   1      30.424  26.392  23.976  1.00  0.00    -0.000 C 
ATOM     14  C   UNL A   1      28.990  26.904  23.761  1.00  0.00     0.008 C 
ATOM     15  C   UNL A   1      30.383  24.907  23.593  1.00  0.00     0.008 C 
ENDBRANCH  12  13
BRANCH  12  16
ATOM     16  C   UNL A   1      31.127  28.684  23.187  1.00  0.00    -0.035 A 
ATOM     17  C   UNL A   1      31.019  29.675  24.714  1.00  0.00     0.006 A 
ATOM     18  C   UNL A   1      30.185  29.192  21.729  1.00  0.00     0.006 A 
ATOM     19  C   UNL A   1      30.099  31.267  24.702  1.00  0.00     0.021 A 
ATOM     20  C   UNL A   1      29.183  30.719  21.753  1.00  0.00     0.021 A 
ATOM     21  C   UNL A   1      29.229  31.799  23.191  1.00  0.00     0.041 A 
ATOM     22  Cl  UNL A   1      28.296  33.239  23.172  1.00  0.00    -0.084 Cl
ENDBRANCH  12  16
ENDBRANCH  10  12
ENDBRANCH   6  10
ENDBRANCH   5   6
ENDBRANCH   3   5
ENDBRANCH   2   3
ENDBRANCH   1   2
BRANCH   1  23
ATOM     23  C   UNL A   1      36.644  21.177  24.785  1.00  0.00     0.275 C 
BRANCH  23  24
ATOM     24  O   UNL A   1      37.497  20.003  25.057  1.00  0.00    -0.458 OA
BRANCH  24  25
ATOM     25  C   UNL A   1      38.849  20.290  25.644  1.00  0.00     0.338 C 
ATOM     26  O   UNL A   1      39.344  19.145  25.488  1.00  0.00    -0.246 OA
BRANCH  25  27
ATOM     27  C   UNL A   1      39.625  22.059  26.576  1.00  0.00     0.060 A 
ATOM     28  C   UNL A   1      39.398  23.509  26.162  1.00  0.00     0.016 A 
ATOM     29  C   UNL A   1      40.693  22.262  27.632  1.00  0.00     0.016 A 
ATOM     30  C   UNL A   1      40.268  24.584  26.219  1.00  0.00     0.010 A 
ATOM     31  C   UNL A   1      41.411  23.448  27.950  1.00  0.00     0.010 A 
ATOM     32  C   UNL A   1      41.223  24.590  27.201  1.00  0.00    -0.014 A 
BRANCH  32  33
ATOM     33  C   UNL A   1      41.724  25.915  27.559  1.00  0.00     0.031 A 
ATOM     34  C   UNL A   1      40.917  26.849  28.387  1.00  0.00     0.074 A 
ATOM     35  C   UNL A   1      43.021  26.110  27.253  1.00  0.00     0.049 A 
ATOM     36  N   UNL A   1      41.283  27.986  28.906  1.00  0.00    -0.248 NA
ATOM     37  C   UNL A   1      39.536  26.458  28.701  1.00  0.00     0.031 C 
ATOM     38  C   UNL A   1      43.872  25.137  26.534  1.00  0.00     0.029 A 
ATOM     39  N   UNL A   1      43.875  27.124  27.545  1.00  0.00    -0.354 N 
ATOM     40  C   UNL A   1      40.181  28.449  29.610  1.00  0.00     0.074 A 
ATOM     41  C   UNL A   1      39.140  27.455  29.481  1.00  0.00     0.031 C 
ATOM     42  C   UNL A   1      45.131  25.574  26.514  1.00  0.00     0.029 A 
ATOM     43  C   UNL A   1      45.134  26.923  27.037  1.00  0.00     0.049 A 
ATOM     44  H   UNL A   1      43.618  27.919  28.065  1.00  0.00     0.167 HD
ATOM     45  C   UNL A   1      40.061  29.638  30.245  1.00  0.00     0.034 A 
ATOM     46  C   UNL A   1      46.150  27.786  26.908  1.00  0.00     0.034 A 
ATOM     47  C   UNL A   1      41.100  30.639  30.191  1.00  0.00     0.049 A 
ATOM     48  C   UNL A   1      45.914  29.157  27.455  1.00  0.00     0.074 A 
ATOM     49  C   UNL A   1      41.085  31.929  30.683  1.00  0.00     0.029 A 
ATOM     50  N   UNL A   1      42.327  30.468  29.552  1.00  0.00    -0.354 N 
ATOM     51  N   UNL A   1      44.857  29.611  28.094  1.00  0.00    -0.248 NA
ATOM     52  C   UNL A   1      46.984  30.130  27.267  1.00  0.00     0.031 C 
ATOM     53  C   UNL A   1      42.247  32.569  30.240  1.00  0.00     0.029 A 
ATOM     54  C   UNL A   1      43.050  31.646  29.583  1.00  0.00     0.049 A 
ATOM     55  H   UNL A   1      42.634  29.630  29.137  1.00  0.00     0.167 HD
ATOM     56  C   UNL A   1      45.144  30.928  28.407  1.00  0.00     0.074 A 
ATOM     57  C   UNL A   1      46.485  31.179  27.904  1.00  0.00     0.031 C 
ATOM     58  C   UNL A   1      44.379  31.847  29.049  1.00  0.00     0.034 A 
BRANCH  45  59
ATOM     59  C   UNL A   1      38.733  29.963  30.879  1.00  0.00     0.023 A 
ATOM     60  C   UNL A   1      37.758  30.739  30.229  1.00  0.00     0.031 A 
ATOM     61  C   UNL A   1      38.452  29.508  32.181  1.00  0.00     0.131 A 
ATOM     62  C   UNL A   1      36.565  31.066  30.898  1.00  0.00     0.055 A 
ATOM     63  C   UNL A   1      37.238  29.779  32.813  1.00  0.00     0.041 A 
ATOM     64  F   UNL A   1      39.365  28.805  32.870  1.00  0.00    -0.206 F 
ATOM     65  C   UNL A   1      36.288  30.569  32.173  1.00  0.00     0.022 A 
BRANCH  62  66
ATOM     66  S   UNL A   1      35.430  32.257  30.131  1.00  0.00     0.124 S 
ATOM     67  O   UNL A   1      34.400  32.386  31.158  1.00  0.00    -0.237 OA
ATOM     68  O   UNL A   1      36.284  33.423  29.929  1.00  0.00    -0.237 OA
ATOM     69  O   UNL A   1      35.000  31.581  28.908  1.00  0.00    -0.744 OA
ENDBRANCH  62  66
ENDBRANCH  45  59
BRANCH  46  70
ATOM     70  C   UNL A   1      47.366  27.402  26.148  1.00  0.00     0.023 A 
ATOM     71  C   UNL A   1      47.506  27.738  24.800  1.00  0.00     0.031 A 
ATOM     72  C   UNL A   1      48.412  26.677  26.760  1.00  0.00     0.131 A 
ATOM     73  C   UNL A   1      48.635  27.304  24.091  1.00  0.00     0.055 A 
ATOM     74  C   UNL A   1      49.570  26.322  26.072  1.00  0.00     0.041 A 
ATOM     75  F   UNL A   1      48.335  26.325  28.055  1.00  0.00    -0.206 F 
ATOM     76  C   UNL A   1      49.677  26.618  24.719  1.00  0.00     0.022 A 
BRANCH  73  77
ATOM     77  S   UNL A   1      48.649  27.534  22.296  1.00  0.00     0.124 S 
ATOM     78  O   UNL A   1      49.899  28.262  22.104  1.00  0.00    -0.237 OA
ATOM     79  O   UNL A   1      48.626  26.158  21.815  1.00  0.00    -0.237 OA
ATOM     80  O   UNL A   1      47.432  28.305  22.045  1.00  0.00    -0.744 OA
ENDBRANCH  73  77
ENDBRANCH  46  70
BRANCH  58  81
ATOM     81  C   UNL A   1      45.022  33.184  29.280  1.00  0.00     0.023 A 
ATOM     82  C   UNL A   1      44.815  34.261  28.406  1.00  0.00     0.031 A 
ATOM     83  C   UNL A   1      45.877  33.364  30.380  1.00  0.00     0.131 A 
ATOM     84  C   UNL A   1      45.523  35.451  28.602  1.00  0.00     0.055 A 
ATOM     85  C   UNL A   1      46.504  34.582  30.622  1.00  0.00     0.041 A 
ATOM     86  F   UNL A   1      46.113  32.357  31.237  1.00  0.00    -0.206 F 
ATOM     87  C   UNL A   1      46.344  35.628  29.719  1.00  0.00     0.022 A 
BRANCH  84  88
ATOM     88  S   UNL A   1      45.463  36.709  27.300  1.00  0.00     0.124 S 
ATOM     89  O   UNL A   1      46.612  36.343  26.478  1.00  0.00    -0.237 OA
ATOM     90  O   UNL A   1      44.153  36.478  26.701  1.00  0.00    -0.237 OA
ATOM     91  O   UNL A   1      45.599  37.965  28.034  1.00  0.00    -0.744 OA
ENDBRANCH  84  88
ENDBRANCH  58  81
ENDBRANCH  32  33
ENDBRANCH  25  27
ENDBRANCH  24  25
ENDBRANCH  23  24
ENDBRANCH   1  23
TORSDOF 21
ENDMDL
