MODEL 1
REMARK VINA RESULT:      -9.9      0.000      0.000
REMARK SMILES CC(=O)Oc1ccccc1SCCCCCC(=O)OCCOC(=O)c1ccc(-c2c3nc(c(-c4cc(S(=O)(=O)[O-])ccc4F)c4ccc([nH]4)c(-c4cc(S(=O)(=O)[O-])ccc4F)c4nc(c(-c5cc(S(=O)(=O)[O-])ccc5F)c5ccc2[nH]5)C=C4)C=C3)cc1
REMARK SMILES IDX 17 1 18 2 16 3 15 4 14 5 13 6 12 7 11 8 10 9 5 10 6 11 7 12
REMARK SMILES IDX 9 13 8 14 4 15 2 16 1 17 3 18 19 19 20 20 21 21 22 22 23 23
REMARK SMILES IDX 24 24 25 25 26 26 87 27 27 28 86 29 28 30 29 31 30 32 80 33
REMARK SMILES IDX 31 34 85 35 79 36 81 37 32 38 84 39 78 40 77 41 33 43 65 44
REMARK SMILES IDX 45 45 64 46 46 47 49 48 63 49 82 50 47 51 48 52 62 54 83 55
REMARK SMILES IDX 50 56 34 57 35 58 43 59 36 60 42 61 44 62 41 63 37 64 38 65
REMARK SMILES IDX 39 66 40 67 66 68 67 69 75 70 68 71 74 72 76 73 73 74 69 75
REMARK SMILES IDX 70 76 71 77 72 78 51 79 52 80 60 81 53 82 59 83 61 84 58 85
REMARK SMILES IDX 54 86 55 87 56 88 57 89
REMARK H PARENT 81 42 49 53
REMARK Flexibility Score: inf
ROOT
ATOM      1  C   UNL A   1      31.844  26.888  26.456  1.00  0.00     0.305 C 
ATOM      2  O   UNL A   1      31.177  25.865  26.531  1.00  0.00    -0.252 OA
ENDROOT
BRANCH   1   3
ATOM      3  C   UNL A   1      33.329  26.898  26.252  1.00  0.00     0.123 C 
BRANCH   3   4
ATOM      4  C   UNL A   1      33.860  25.905  25.200  1.00  0.00     0.012 C 
BRANCH   4   5
ATOM      5  C   UNL A   1      33.738  26.279  23.706  1.00  0.00     0.001 C 
BRANCH   5   6
ATOM      6  C   UNL A   1      32.810  25.522  22.741  1.00  0.00     0.011 C 
BRANCH   6   7
ATOM      7  C   UNL A   1      31.792  24.418  23.117  1.00  0.00     0.075 C 
BRANCH   7   8
ATOM      8  S   UNL A   1      32.073  22.642  23.508  1.00  0.00    -0.122 SA
BRANCH   8   9
ATOM      9  C   UNL A   1      32.829  22.556  25.115  1.00  0.00     0.050 A 
ATOM     10  C   UNL A   1      34.178  22.341  25.437  1.00  0.00     0.144 A 
ATOM     11  C   UNL A   1      34.603  22.383  26.777  1.00  0.00     0.048 A 
ATOM     12  C   UNL A   1      33.673  22.534  27.809  1.00  0.00     0.004 A 
ATOM     13  C   UNL A   1      31.905  22.594  26.179  1.00  0.00     0.019 A 
ATOM     14  C   UNL A   1      32.317  22.578  27.512  1.00  0.00     0.001 A 
BRANCH  10  15
ATOM     15  O   UNL A   1      35.134  21.851  24.513  1.00  0.00    -0.426 OA
BRANCH  15  16
ATOM     16  C   UNL A   1      35.910  22.793  23.895  1.00  0.00     0.308 C 
ATOM     17  C   UNL A   1      37.022  23.319  24.723  1.00  0.00     0.139 C 
ATOM     18  O   UNL A   1      35.763  23.194  22.750  1.00  0.00    -0.252 OA
ENDBRANCH  15  16
ENDBRANCH  10  15
ENDBRANCH   8   9
ENDBRANCH   7   8
ENDBRANCH   6   7
ENDBRANCH   5   6
ENDBRANCH   4   5
ENDBRANCH   3   4
ENDBRANCH   1   3
BRANCH   1  19
ATOM     19  O   UNL A   1      31.353  28.150  26.517  1.00  0.00    -0.462 OA
BRANCH  19  20
ATOM     20  C   UNL A   1      31.352  28.837  25.260  1.00  0.00     0.274 C 
BRANCH  20  21
ATOM     21  C   UNL A   1      31.654  30.316  25.515  1.00  0.00     0.275 C 
BRANCH  21  22
ATOM     22  O   UNL A   1      33.013  30.465  25.975  1.00  0.00    -0.458 OA
BRANCH  22  23
ATOM     23  C   UNL A   1      33.215  31.376  26.956  1.00  0.00     0.338 C 
ATOM     24  O   UNL A   1      32.523  32.349  27.205  1.00  0.00    -0.246 OA
BRANCH  23  25
ATOM     25  C   UNL A   1      34.467  31.072  27.672  1.00  0.00     0.060 A 
ATOM     26  C   UNL A   1      34.744  29.783  28.133  1.00  0.00     0.016 A 
ATOM     27  C   UNL A   1      35.350  32.117  27.946  1.00  0.00     0.016 A 
ATOM     28  C   UNL A   1      35.889  29.547  28.898  1.00  0.00     0.010 A 
ATOM     29  C   UNL A   1      36.540  31.857  28.632  1.00  0.00     0.010 A 
ATOM     30  C   UNL A   1      36.823  30.569  29.120  1.00  0.00    -0.014 A 
BRANCH  30  31
ATOM     31  C   UNL A   1      38.117  30.303  29.815  1.00  0.00     0.031 A 
ATOM     32  C   UNL A   1      39.122  29.359  29.214  1.00  0.00     0.074 A 
ATOM     33  C   UNL A   1      38.353  30.860  31.021  1.00  0.00     0.049 A 
ATOM     34  N   UNL A   1      40.183  28.818  29.758  1.00  0.00    -0.248 NA
ATOM     35  C   UNL A   1      38.890  28.954  27.820  1.00  0.00     0.031 C 
ATOM     36  C   UNL A   1      37.472  31.817  31.696  1.00  0.00     0.029 A 
ATOM     37  N   UNL A   1      39.389  30.689  31.907  1.00  0.00    -0.354 N 
ATOM     38  C   UNL A   1      40.722  27.977  28.788  1.00  0.00     0.074 A 
ATOM     39  C   UNL A   1      39.856  28.066  27.630  1.00  0.00     0.031 C 
ATOM     40  C   UNL A   1      38.009  32.157  32.876  1.00  0.00     0.029 A 
ATOM     41  C   UNL A   1      39.213  31.367  33.093  1.00  0.00     0.049 A 
ATOM     42  H   UNL A   1      40.181  30.136  31.713  1.00  0.00     0.167 HD
ATOM     43  C   UNL A   1      41.835  27.202  28.866  1.00  0.00     0.034 A 
ATOM     44  C   UNL A   1      39.898  31.311  34.253  1.00  0.00     0.034 A 
ATOM     45  C   UNL A   1      42.684  27.141  30.033  1.00  0.00     0.049 A 
ATOM     46  C   UNL A   1      41.079  30.380  34.347  1.00  0.00     0.074 A 
ATOM     47  C   UNL A   1      43.850  26.417  30.216  1.00  0.00     0.029 A 
ATOM     48  N   UNL A   1      42.453  27.821  31.224  1.00  0.00    -0.354 N 
ATOM     49  N   UNL A   1      41.571  29.580  33.430  1.00  0.00    -0.248 NA
ATOM     50  C   UNL A   1      41.789  30.338  35.630  1.00  0.00     0.031 C 
ATOM     51  C   UNL A   1      44.273  26.592  31.537  1.00  0.00     0.029 A 
ATOM     52  C   UNL A   1      43.427  27.498  32.157  1.00  0.00     0.049 A 
ATOM     53  H   UNL A   1      41.705  28.442  31.382  1.00  0.00     0.167 HD
ATOM     54  C   UNL A   1      42.665  28.955  34.021  1.00  0.00     0.074 A 
ATOM     55  C   UNL A   1      42.769  29.487  35.365  1.00  0.00     0.031 C 
ATOM     56  C   UNL A   1      43.507  28.028  33.499  1.00  0.00     0.034 A 
BRANCH  43  57
ATOM     57  C   UNL A   1      42.155  26.311  27.685  1.00  0.00     0.023 A 
ATOM     58  C   UNL A   1      41.629  25.014  27.563  1.00  0.00     0.031 A 
ATOM     59  C   UNL A   1      43.027  26.762  26.675  1.00  0.00     0.131 A 
ATOM     60  C   UNL A   1      42.042  24.186  26.506  1.00  0.00     0.055 A 
ATOM     61  C   UNL A   1      43.364  25.965  25.579  1.00  0.00     0.041 A 
ATOM     62  F   UNL A   1      43.581  27.983  26.744  1.00  0.00    -0.206 F 
ATOM     63  C   UNL A   1      42.884  24.661  25.498  1.00  0.00     0.022 A 
BRANCH  60  64
ATOM     64  S   UNL A   1      41.590  22.430  26.555  1.00  0.00     0.124 S 
ATOM     65  O   UNL A   1      42.094  22.032  27.868  1.00  0.00    -0.237 OA
ATOM     66  O   UNL A   1      40.140  22.472  26.414  1.00  0.00    -0.237 OA
ATOM     67  O   UNL A   1      42.312  21.858  25.420  1.00  0.00    -0.744 OA
ENDBRANCH  60  64
ENDBRANCH  43  57
BRANCH  44  68
ATOM     68  C   UNL A   1      39.440  32.097  35.436  1.00  0.00     0.023 A 
ATOM     69  C   UNL A   1      38.719  31.491  36.477  1.00  0.00     0.031 A 
ATOM     70  C   UNL A   1      39.694  33.478  35.532  1.00  0.00     0.131 A 
ATOM     71  C   UNL A   1      38.249  32.269  37.547  1.00  0.00     0.055 A 
ATOM     72  C   UNL A   1      39.281  34.234  36.630  1.00  0.00     0.041 A 
ATOM     73  F   UNL A   1      40.374  34.113  34.562  1.00  0.00    -0.206 F 
ATOM     74  C   UNL A   1      38.542  33.631  37.641  1.00  0.00     0.022 A 
BRANCH  71  75
ATOM     75  S   UNL A   1      37.163  31.489  38.773  1.00  0.00     0.124 S 
ATOM     76  O   UNL A   1      36.996  30.152  38.213  1.00  0.00    -0.237 OA
ATOM     77  O   UNL A   1      37.963  31.580  39.989  1.00  0.00    -0.237 OA
ATOM     78  O   UNL A   1      35.966  32.329  38.751  1.00  0.00    -0.744 OA
ENDBRANCH  71  75
ENDBRANCH  44  68
BRANCH  56  79
ATOM     79  C   UNL A   1      44.643  27.563  34.377  1.00  0.00     0.023 A 
ATOM     80  C   UNL A   1      44.537  26.414  35.180  1.00  0.00     0.031 A 
ATOM     81  C   UNL A   1      45.850  28.284  34.408  1.00  0.00     0.131 A 
ATOM     82  C   UNL A   1      45.602  26.047  36.016  1.00  0.00     0.055 A 
ATOM     83  C   UNL A   1      46.931  27.875  35.190  1.00  0.00     0.041 A 
ATOM     84  F   UNL A   1      46.003  29.393  33.668  1.00  0.00    -0.206 F 
ATOM     85  C   UNL A   1      46.806  26.757  36.010  1.00  0.00     0.022 A 
BRANCH  82  86
ATOM     86  S   UNL A   1      45.363  24.678  37.181  1.00  0.00     0.124 S 
ATOM     87  O   UNL A   1      46.692  24.546  37.769  1.00  0.00    -0.237 OA
ATOM     88  O   UNL A   1      44.323  25.195  38.064  1.00  0.00    -0.237 OA
ATOM     89  O   UNL A   1      44.952  23.568  36.324  1.00  0.00    -0.744 OA
ENDBRANCH  82  86
ENDBRANCH  56  79
ENDBRANCH  30  31
ENDBRANCH  23  25
ENDBRANCH  22  23
ENDBRANCH  21  22
ENDBRANCH  20  21
ENDBRANCH  19  20
ENDBRANCH   1  19
TORSDOF 22
ENDMDL
MODEL 2
REMARK VINA RESULT:      -9.8      5.131     10.125
REMARK SMILES CC(=O)Oc1ccccc1SCCCCCC(=O)OCCOC(=O)c1ccc(-c2c3nc(c(-c4cc(S(=O)(=O)[O-])ccc4F)c4ccc([nH]4)c(-c4cc(S(=O)(=O)[O-])ccc4F)c4nc(c(-c5cc(S(=O)(=O)[O-])ccc5F)c5ccc2[nH]5)C=C4)C=C3)cc1
REMARK SMILES IDX 17 1 18 2 16 3 15 4 14 5 13 6 12 7 11 8 10 9 5 10 6 11 7 12
REMARK SMILES IDX 9 13 8 14 4 15 2 16 1 17 3 18 19 19 20 20 21 21 22 22 23 23
REMARK SMILES IDX 24 24 25 25 26 26 87 27 27 28 86 29 28 30 29 31 30 32 80 33
REMARK SMILES IDX 31 34 85 35 79 36 81 37 32 38 84 39 78 40 77 41 33 43 65 44
REMARK SMILES IDX 45 45 64 46 46 47 49 48 63 49 82 50 47 51 48 52 62 54 83 55
REMARK SMILES IDX 50 56 34 57 35 58 43 59 36 60 42 61 44 62 41 63 37 64 38 65
REMARK SMILES IDX 39 66 40 67 66 68 67 69 75 70 68 71 74 72 76 73 73 74 69 75
REMARK SMILES IDX 70 76 71 77 72 78 51 79 52 80 60 81 53 82 59 83 61 84 58 85
REMARK SMILES IDX 54 86 55 87 56 88 57 89
REMARK H PARENT 81 42 49 53
REMARK Flexibility Score: inf
ROOT
ATOM      1  C   UNL A   1      33.129  19.227  24.829  1.00  0.00     0.305 C 
ATOM      2  O   UNL A   1      32.436  18.262  25.121  1.00  0.00    -0.252 OA
ENDROOT
BRANCH   1   3
ATOM      3  C   UNL A   1      32.574  20.585  24.524  1.00  0.00     0.123 C 
BRANCH   3   4
ATOM      4  C   UNL A   1      32.236  20.846  23.043  1.00  0.00     0.012 C 
BRANCH   4   5
ATOM      5  C   UNL A   1      32.630  22.207  22.426  1.00  0.00     0.001 C 
BRANCH   5   6
ATOM      6  C   UNL A   1      33.668  23.136  23.076  1.00  0.00     0.011 C 
BRANCH   6   7
ATOM      7  C   UNL A   1      33.575  24.676  23.205  1.00  0.00     0.075 C 
BRANCH   7   8
ATOM      8  S   UNL A   1      33.084  25.933  21.954  1.00  0.00    -0.122 SA
BRANCH   8   9
ATOM      9  C   UNL A   1      32.214  27.229  22.804  1.00  0.00     0.050 A 
ATOM     10  C   UNL A   1      32.679  28.073  23.824  1.00  0.00     0.144 A 
ATOM     11  C   UNL A   1      31.862  29.101  24.325  1.00  0.00     0.048 A 
ATOM     12  C   UNL A   1      30.540  29.228  23.887  1.00  0.00     0.004 A 
ATOM     13  C   UNL A   1      30.849  27.312  22.465  1.00  0.00     0.019 A 
ATOM     14  C   UNL A   1      30.016  28.294  23.002  1.00  0.00     0.001 A 
BRANCH  10  15
ATOM     15  O   UNL A   1      33.861  27.822  24.567  1.00  0.00    -0.426 OA
BRANCH  15  16
ATOM     16  C   UNL A   1      33.681  27.391  25.853  1.00  0.00     0.308 C 
ATOM     17  C   UNL A   1      33.773  28.453  26.883  1.00  0.00     0.139 C 
ATOM     18  O   UNL A   1      33.441  26.240  26.189  1.00  0.00    -0.252 OA
ENDBRANCH  15  16
ENDBRANCH  10  15
ENDBRANCH   8   9
ENDBRANCH   7   8
ENDBRANCH   6   7
ENDBRANCH   5   6
ENDBRANCH   4   5
ENDBRANCH   3   4
ENDBRANCH   1   3
BRANCH   1  19
ATOM     19  O   UNL A   1      34.483  19.228  24.762  1.00  0.00    -0.462 OA
BRANCH  19  20
ATOM     20  C   UNL A   1      35.083  20.479  25.120  1.00  0.00     0.274 C 
BRANCH  20  21
ATOM     21  C   UNL A   1      36.574  20.417  24.776  1.00  0.00     0.275 C 
BRANCH  21  22
ATOM     22  O   UNL A   1      37.312  21.306  25.640  1.00  0.00    -0.458 OA
BRANCH  22  23
ATOM     23  C   UNL A   1      38.601  20.973  25.880  1.00  0.00     0.338 C 
ATOM     24  O   UNL A   1      39.106  19.869  25.762  1.00  0.00    -0.246 OA
BRANCH  23  25
ATOM     25  C   UNL A   1      39.337  22.144  26.390  1.00  0.00     0.060 A 
ATOM     26  C   UNL A   1      40.401  22.000  27.283  1.00  0.00     0.016 A 
ATOM     27  C   UNL A   1      38.905  23.418  26.016  1.00  0.00     0.016 A 
ATOM     28  C   UNL A   1      41.011  23.132  27.829  1.00  0.00     0.010 A 
ATOM     29  C   UNL A   1      39.579  24.545  26.493  1.00  0.00     0.010 A 
ATOM     30  C   UNL A   1      40.638  24.417  27.409  1.00  0.00    -0.014 A 
BRANCH  30  31
ATOM     31  C   UNL A   1      41.372  25.630  27.875  1.00  0.00     0.031 A 
ATOM     32  C   UNL A   1      40.652  26.708  28.640  1.00  0.00     0.074 A 
ATOM     33  C   UNL A   1      42.672  25.790  27.549  1.00  0.00     0.049 A 
ATOM     34  N   UNL A   1      41.040  27.925  28.926  1.00  0.00    -0.248 NA
ATOM     35  C   UNL A   1      39.306  26.376  29.130  1.00  0.00     0.031 C 
ATOM     36  C   UNL A   1      43.491  24.804  26.839  1.00  0.00     0.029 A 
ATOM     37  N   UNL A   1      43.529  26.845  27.747  1.00  0.00    -0.354 N 
ATOM     38  C   UNL A   1      39.971  28.519  29.592  1.00  0.00     0.074 A 
ATOM     39  C   UNL A   1      38.913  27.531  29.647  1.00  0.00     0.031 C 
ATOM     40  C   UNL A   1      44.728  25.293  26.675  1.00  0.00     0.029 A 
ATOM     41  C   UNL A   1      44.765  26.662  27.169  1.00  0.00     0.049 A 
ATOM     42  H   UNL A   1      43.283  27.653  28.254  1.00  0.00     0.167 HD
ATOM     43  C   UNL A   1      39.888  29.775  30.103  1.00  0.00     0.034 A 
ATOM     44  C   UNL A   1      45.792  27.517  26.988  1.00  0.00     0.034 A 
ATOM     45  C   UNL A   1      40.965  30.735  30.039  1.00  0.00     0.049 A 
ATOM     46  C   UNL A   1      45.646  28.931  27.487  1.00  0.00     0.074 A 
ATOM     47  C   UNL A   1      41.006  32.022  30.547  1.00  0.00     0.029 A 
ATOM     48  N   UNL A   1      42.190  30.518  29.418  1.00  0.00    -0.354 N 
ATOM     49  N   UNL A   1      44.628  29.486  28.103  1.00  0.00    -0.248 NA
ATOM     50  C   UNL A   1      46.781  29.834  27.260  1.00  0.00     0.031 C 
ATOM     51  C   UNL A   1      42.214  32.609  30.160  1.00  0.00     0.029 A 
ATOM     52  C   UNL A   1      42.972  31.662  29.490  1.00  0.00     0.049 A 
ATOM     53  H   UNL A   1      42.463  29.676  28.987  1.00  0.00     0.167 HD
ATOM     54  C   UNL A   1      45.010  30.800  28.356  1.00  0.00     0.074 A 
ATOM     55  C   UNL A   1      46.357  30.946  27.844  1.00  0.00     0.031 C 
ATOM     56  C   UNL A   1      44.310  31.794  28.960  1.00  0.00     0.034 A 
BRANCH  43  57
ATOM     57  C   UNL A   1      38.569  30.199  30.712  1.00  0.00     0.023 A 
ATOM     58  C   UNL A   1      37.575  30.852  29.963  1.00  0.00     0.031 A 
ATOM     59  C   UNL A   1      38.314  29.970  32.077  1.00  0.00     0.131 A 
ATOM     60  C   UNL A   1      36.414  31.323  30.598  1.00  0.00     0.055 A 
ATOM     61  C   UNL A   1      37.119  30.363  32.683  1.00  0.00     0.041 A 
ATOM     62  F   UNL A   1      39.232  29.371  32.854  1.00  0.00    -0.206 F 
ATOM     63  C   UNL A   1      36.167  31.060  31.946  1.00  0.00     0.022 A 
BRANCH  60  64
ATOM     64  S   UNL A   1      35.309  32.426  29.672  1.00  0.00     0.124 S 
ATOM     65  O   UNL A   1      34.307  32.756  30.683  1.00  0.00    -0.237 OA
ATOM     66  O   UNL A   1      36.201  33.510  29.279  1.00  0.00    -0.237 OA
ATOM     67  O   UNL A   1      34.825  31.587  28.578  1.00  0.00    -0.744 OA
ENDBRANCH  60  64
ENDBRANCH  43  57
BRANCH  44  68
ATOM     68  C   UNL A   1      47.008  27.085  26.240  1.00  0.00     0.023 A 
ATOM     69  C   UNL A   1      48.050  26.396  26.881  1.00  0.00     0.031 A 
ATOM     70  C   UNL A   1      47.161  27.378  24.871  1.00  0.00     0.131 A 
ATOM     71  C   UNL A   1      49.209  26.057  26.164  1.00  0.00     0.055 A 
ATOM     72  C   UNL A   1      48.286  26.981  24.148  1.00  0.00     0.041 A 
ATOM     73  F   UNL A   1      46.199  28.041  24.207  1.00  0.00    -0.206 F 
ATOM     74  C   UNL A   1      49.326  26.327  24.799  1.00  0.00     0.022 A 
BRANCH  71  75
ATOM     75  S   UNL A   1      50.608  25.339  27.069  1.00  0.00     0.124 S 
ATOM     76  O   UNL A   1      51.489  24.935  25.979  1.00  0.00    -0.237 OA
ATOM     77  O   UNL A   1      51.059  26.468  27.875  1.00  0.00    -0.237 OA
ATOM     78  O   UNL A   1      49.999  24.241  27.820  1.00  0.00    -0.744 OA
ENDBRANCH  71  75
ENDBRANCH  44  68
BRANCH  56  79
ATOM     79  C   UNL A   1      45.014  33.117  29.136  1.00  0.00     0.023 A 
ATOM     80  C   UNL A   1      44.984  34.110  28.140  1.00  0.00     0.031 A 
ATOM     81  C   UNL A   1      45.724  33.387  30.319  1.00  0.00     0.131 A 
ATOM     82  C   UNL A   1      45.693  35.307  28.328  1.00  0.00     0.055 A 
ATOM     83  C   UNL A   1      46.370  34.606  30.527  1.00  0.00     0.041 A 
ATOM     84  F   UNL A   1      45.793  32.472  31.298  1.00  0.00    -0.206 F 
ATOM     85  C   UNL A   1      46.366  35.570  29.523  1.00  0.00     0.022 A 
BRANCH  82  86
ATOM     86  S   UNL A   1      45.796  36.482  26.950  1.00  0.00     0.124 S 
ATOM     87  O   UNL A   1      46.039  35.596  25.815  1.00  0.00    -0.237 OA
ATOM     88  O   UNL A   1      44.488  37.126  26.987  1.00  0.00    -0.237 OA
ATOM     89  O   UNL A   1      46.920  37.341  27.317  1.00  0.00    -0.744 OA
ENDBRANCH  82  86
ENDBRANCH  56  79
ENDBRANCH  30  31
ENDBRANCH  23  25
ENDBRANCH  22  23
ENDBRANCH  21  22
ENDBRANCH  20  21
ENDBRANCH  19  20
ENDBRANCH   1  19
TORSDOF 22
ENDMDL
MODEL 3
REMARK VINA RESULT:      -9.8      1.743      2.268
REMARK SMILES CC(=O)Oc1ccccc1SCCCCCC(=O)OCCOC(=O)c1ccc(-c2c3nc(c(-c4cc(S(=O)(=O)[O-])ccc4F)c4ccc([nH]4)c(-c4cc(S(=O)(=O)[O-])ccc4F)c4nc(c(-c5cc(S(=O)(=O)[O-])ccc5F)c5ccc2[nH]5)C=C4)C=C3)cc1
REMARK SMILES IDX 17 1 18 2 16 3 15 4 14 5 13 6 12 7 11 8 10 9 5 10 6 11 7 12
REMARK SMILES IDX 9 13 8 14 4 15 2 16 1 17 3 18 19 19 20 20 21 21 22 22 23 23
REMARK SMILES IDX 24 24 25 25 26 26 87 27 27 28 86 29 28 30 29 31 30 32 80 33
REMARK SMILES IDX 31 34 85 35 79 36 81 37 32 38 84 39 78 40 77 41 33 43 65 44
REMARK SMILES IDX 45 45 64 46 46 47 49 48 63 49 82 50 47 51 48 52 62 54 83 55
REMARK SMILES IDX 50 56 34 57 35 58 43 59 36 60 42 61 44 62 41 63 37 64 38 65
REMARK SMILES IDX 39 66 40 67 66 68 67 69 75 70 68 71 74 72 76 73 73 74 69 75
REMARK SMILES IDX 70 76 71 77 72 78 51 79 52 80 60 81 53 82 59 83 61 84 58 85
REMARK SMILES IDX 54 86 55 87 56 88 57 89
REMARK H PARENT 81 42 49 53
REMARK Flexibility Score: inf
ROOT
ATOM      1  C   UNL A   1      30.753  26.635  25.432  1.00  0.00     0.305 C 
ATOM      2  O   UNL A   1      30.503  26.022  26.462  1.00  0.00    -0.252 OA
ENDROOT
BRANCH   1   3
ATOM      3  C   UNL A   1      30.092  26.353  24.117  1.00  0.00     0.123 C 
BRANCH   3   4
ATOM      4  C   UNL A   1      30.813  26.918  22.877  1.00  0.00     0.012 C 
BRANCH   4   5
ATOM      5  C   UNL A   1      31.664  25.957  22.019  1.00  0.00     0.001 C 
BRANCH   5   6
ATOM      6  C   UNL A   1      32.768  25.073  22.622  1.00  0.00     0.011 C 
BRANCH   6   7
ATOM      7  C   UNL A   1      33.070  23.598  22.258  1.00  0.00     0.075 C 
BRANCH   7   8
ATOM      8  S   UNL A   1      32.359  22.048  22.946  1.00  0.00    -0.122 SA
BRANCH   8   9
ATOM      9  C   UNL A   1      32.806  21.964  24.665  1.00  0.00     0.050 A 
ATOM     10  C   UNL A   1      33.592  21.003  25.318  1.00  0.00     0.144 A 
ATOM     11  C   UNL A   1      33.904  21.147  26.681  1.00  0.00     0.048 A 
ATOM     12  C   UNL A   1      33.348  22.191  27.426  1.00  0.00     0.004 A 
ATOM     13  C   UNL A   1      32.174  22.938  25.463  1.00  0.00     0.019 A 
ATOM     14  C   UNL A   1      32.434  23.051  26.829  1.00  0.00     0.001 A 
BRANCH  10  15
ATOM     15  O   UNL A   1      33.922  19.745  24.751  1.00  0.00    -0.426 OA
BRANCH  15  16
ATOM     16  C   UNL A   1      32.905  18.833  24.683  1.00  0.00     0.308 C 
ATOM     17  C   UNL A   1      32.655  18.284  23.328  1.00  0.00     0.139 C 
ATOM     18  O   UNL A   1      32.234  18.445  25.628  1.00  0.00    -0.252 OA
ENDBRANCH  15  16
ENDBRANCH  10  15
ENDBRANCH   8   9
ENDBRANCH   7   8
ENDBRANCH   6   7
ENDBRANCH   5   6
ENDBRANCH   4   5
ENDBRANCH   3   4
ENDBRANCH   1   3
BRANCH   1  19
ATOM     19  O   UNL A   1      31.630  27.663  25.326  1.00  0.00    -0.462 OA
BRANCH  19  20
ATOM     20  C   UNL A   1      31.689  28.501  26.487  1.00  0.00     0.274 C 
BRANCH  20  21
ATOM     21  C   UNL A   1      31.693  29.963  26.032  1.00  0.00     0.275 C 
BRANCH  21  22
ATOM     22  O   UNL A   1      33.028  30.500  26.125  1.00  0.00    -0.458 OA
BRANCH  22  23
ATOM     23  C   UNL A   1      33.220  31.467  27.053  1.00  0.00     0.338 C 
ATOM     24  O   UNL A   1      32.495  32.422  27.275  1.00  0.00    -0.246 OA
BRANCH  23  25
ATOM     25  C   UNL A   1      34.503  31.250  27.746  1.00  0.00     0.060 A 
ATOM     26  C   UNL A   1      35.405  32.297  27.945  1.00  0.00     0.016 A 
ATOM     27  C   UNL A   1      34.835  29.954  28.145  1.00  0.00     0.016 A 
ATOM     28  C   UNL A   1      36.656  32.041  28.512  1.00  0.00     0.010 A 
ATOM     29  C   UNL A   1      36.049  29.721  28.796  1.00  0.00     0.010 A 
ATOM     30  C   UNL A   1      36.978  30.760  28.984  1.00  0.00    -0.014 A 
BRANCH  30  31
ATOM     31  C   UNL A   1      38.251  30.499  29.717  1.00  0.00     0.031 A 
ATOM     32  C   UNL A   1      39.276  29.554  29.149  1.00  0.00     0.074 A 
ATOM     33  C   UNL A   1      38.451  31.061  30.927  1.00  0.00     0.049 A 
ATOM     34  N   UNL A   1      40.322  29.019  29.726  1.00  0.00    -0.248 NA
ATOM     35  C   UNL A   1      39.085  29.143  27.751  1.00  0.00     0.031 C 
ATOM     36  C   UNL A   1      37.549  32.019  31.573  1.00  0.00     0.029 A 
ATOM     37  N   UNL A   1      39.461  30.896  31.844  1.00  0.00    -0.354 N 
ATOM     38  C   UNL A   1      40.891  28.175  28.775  1.00  0.00     0.074 A 
ATOM     39  C   UNL A   1      40.058  28.257  27.593  1.00  0.00     0.031 C 
ATOM     40  C   UNL A   1      38.051  32.365  32.766  1.00  0.00     0.029 A 
ATOM     41  C   UNL A   1      39.249  31.578  33.021  1.00  0.00     0.049 A 
ATOM     42  H   UNL A   1      40.260  30.344  31.675  1.00  0.00     0.167 HD
ATOM     43  C   UNL A   1      42.002  27.402  28.889  1.00  0.00     0.034 A 
ATOM     44  C   UNL A   1      39.900  31.528  34.201  1.00  0.00     0.034 A 
ATOM     45  C   UNL A   1      42.817  27.348  30.081  1.00  0.00     0.049 A 
ATOM     46  C   UNL A   1      41.079  30.601  34.333  1.00  0.00     0.074 A 
ATOM     47  C   UNL A   1      43.979  26.628  30.300  1.00  0.00     0.029 A 
ATOM     48  N   UNL A   1      42.549  28.032  31.261  1.00  0.00    -0.354 N 
ATOM     49  N   UNL A   1      41.600  29.798  33.434  1.00  0.00    -0.248 NA
ATOM     50  C   UNL A   1      41.752  30.565  35.637  1.00  0.00     0.031 C 
ATOM     51  C   UNL A   1      44.362  26.808  31.633  1.00  0.00     0.029 A 
ATOM     52  C   UNL A   1      43.497  27.715  32.224  1.00  0.00     0.049 A 
ATOM     53  H   UNL A   1      41.796  28.652  31.396  1.00  0.00     0.167 HD
ATOM     54  C   UNL A   1      42.677  29.177  34.059  1.00  0.00     0.074 A 
ATOM     55  C   UNL A   1      42.741  29.715  35.403  1.00  0.00     0.031 C 
ATOM     56  C   UNL A   1      43.536  28.250  33.565  1.00  0.00     0.034 A 
BRANCH  43  57
ATOM     57  C   UNL A   1      42.358  26.508  27.722  1.00  0.00     0.023 A 
ATOM     58  C   UNL A   1      41.985  25.154  27.676  1.00  0.00     0.031 A 
ATOM     59  C   UNL A   1      43.111  27.016  26.646  1.00  0.00     0.131 A 
ATOM     60  C   UNL A   1      42.433  24.338  26.624  1.00  0.00     0.055 A 
ATOM     61  C   UNL A   1      43.478  26.220  25.559  1.00  0.00     0.041 A 
ATOM     62  F   UNL A   1      43.518  28.295  26.639  1.00  0.00    -0.206 F 
ATOM     63  C   UNL A   1      43.153  24.867  25.552  1.00  0.00     0.022 A 
BRANCH  60  64
ATOM     64  S   UNL A   1      42.198  22.544  26.760  1.00  0.00     0.124 S 
ATOM     65  O   UNL A   1      41.871  22.183  25.382  1.00  0.00    -0.237 OA
ATOM     66  O   UNL A   1      43.495  22.091  27.248  1.00  0.00    -0.237 OA
ATOM     67  O   UNL A   1      41.093  22.414  27.709  1.00  0.00    -0.744 OA
ENDBRANCH  60  64
ENDBRANCH  43  57
BRANCH  44  68
ATOM     68  C   UNL A   1      39.406  32.318  35.367  1.00  0.00     0.023 A 
ATOM     69  C   UNL A   1      39.795  33.652  35.559  1.00  0.00     0.031 A 
ATOM     70  C   UNL A   1      38.552  31.739  36.326  1.00  0.00     0.131 A 
ATOM     71  C   UNL A   1      39.363  34.350  36.698  1.00  0.00     0.055 A 
ATOM     72  C   UNL A   1      38.073  32.458  37.422  1.00  0.00     0.041 A 
ATOM     73  F   UNL A   1      38.152  30.463  36.198  1.00  0.00    -0.206 F 
ATOM     74  C   UNL A   1      38.489  33.769  37.620  1.00  0.00     0.022 A 
BRANCH  71  75
ATOM     75  S   UNL A   1      40.038  36.005  37.008  1.00  0.00     0.124 S 
ATOM     76  O   UNL A   1      39.130  36.507  38.034  1.00  0.00    -0.237 OA
ATOM     77  O   UNL A   1      41.396  35.702  37.445  1.00  0.00    -0.237 OA
ATOM     78  O   UNL A   1      39.934  36.664  35.706  1.00  0.00    -0.744 OA
ENDBRANCH  71  75
ENDBRANCH  44  68
BRANCH  56  79
ATOM     79  C   UNL A   1      44.647  27.792  34.478  1.00  0.00     0.023 A 
ATOM     80  C   UNL A   1      44.478  26.718  35.371  1.00  0.00     0.031 A 
ATOM     81  C   UNL A   1      45.895  28.441  34.452  1.00  0.00     0.131 A 
ATOM     82  C   UNL A   1      45.524  26.358  36.234  1.00  0.00     0.055 A 
ATOM     83  C   UNL A   1      46.953  28.033  35.265  1.00  0.00     0.041 A 
ATOM     84  F   UNL A   1      46.109  29.477  33.626  1.00  0.00    -0.206 F 
ATOM     85  C   UNL A   1      46.767  26.993  36.171  1.00  0.00     0.022 A 
BRANCH  82  86
ATOM     86  S   UNL A   1      45.210  25.102  37.504  1.00  0.00     0.124 S 
ATOM     87  O   UNL A   1      44.257  25.785  38.375  1.00  0.00    -0.237 OA
ATOM     88  O   UNL A   1      44.677  23.991  36.723  1.00  0.00    -0.237 OA
ATOM     89  O   UNL A   1      46.529  24.871  38.090  1.00  0.00    -0.744 OA
ENDBRANCH  82  86
ENDBRANCH  56  79
ENDBRANCH  30  31
ENDBRANCH  23  25
ENDBRANCH  22  23
ENDBRANCH  21  22
ENDBRANCH  20  21
ENDBRANCH  19  20
ENDBRANCH   1  19
TORSDOF 22
ENDMDL
