MODEL 1
REMARK VINA RESULT:     -11.2      0.000      0.000
REMARK SMILES O=C(CCc1nc2ccccc2[nH]1)NCCC(=O)OCCOC(=O)c1ccc(-c2c3nc(c(-c4cc(S(=O)(=O)[O-])ccc4F)c4ccc([nH]4)c(-c4cc(S(=O)(=O)[O-])ccc4F)c4nc(c(-c5cc(S(=O)(=O)[O-])ccc5F)c5ccc2[nH]5)C=C4)C=C3)cc1
REMARK SMILES IDX 20 1 19 2 17 3 18 4 16 5 15 6 14 7 1 8 2 9 3 11 4 12 5 13
REMARK SMILES IDX 6 14 13 15 7 16 12 17 8 19 11 20 9 21 10 22 21 23 22 24
REMARK SMILES IDX 23 25 24 26 25 27 26 28 87 29 27 30 86 31 28 32 29 33 30 34
REMARK SMILES IDX 80 35 31 36 85 37 79 38 81 39 32 40 84 41 78 42 77 43 33 45
REMARK SMILES IDX 65 46 45 47 64 48 46 49 49 50 63 51 82 52 47 53 48 54 62 56
REMARK SMILES IDX 83 57 50 58 34 59 35 60 43 61 36 62 42 63 44 64 41 65 37 66
REMARK SMILES IDX 38 67 39 68 40 69 66 70 67 71 75 72 68 73 74 74 76 75 73 76
REMARK SMILES IDX 69 77 70 78 71 79 72 80 51 81 52 82 60 83 53 84 59 85 61 86
REMARK SMILES IDX 58 87 54 88 55 89 56 90 57 91
REMARK H PARENT 14 10 13 18 81 44 49 55
REMARK Flexibility Score: inf
ROOT
ATOM      1  C   UNL A   1      32.021  29.719  25.115  1.00  0.00     0.274 C 
ENDROOT
BRANCH   1   2
ATOM      2  O   UNL A   1      30.936  28.788  24.948  1.00  0.00    -0.462 OA
BRANCH   2   3
ATOM      3  C   UNL A   1      30.607  28.499  23.659  1.00  0.00     0.307 C 
ATOM      4  O   UNL A   1      30.837  29.229  22.703  1.00  0.00    -0.252 OA
BRANCH   3   5
ATOM      5  C   UNL A   1      29.857  27.199  23.509  1.00  0.00     0.144 C 
BRANCH   5   6
ATOM      6  C   UNL A   1      30.177  26.160  24.573  1.00  0.00     0.127 C 
BRANCH   6   7
ATOM      7  N   UNL A   1      31.601  26.060  24.813  1.00  0.00    -0.356 N 
ATOM      8  O   UNL A   1      31.464  25.038  26.863  1.00  0.00    -0.275 OA
ATOM      9  C   UNL A   1      32.137  25.515  25.952  1.00  0.00     0.220 C 
ATOM     10  H   UNL A   1      32.217  26.400  24.124  1.00  0.00     0.163 HD
BRANCH   9  11
ATOM     11  C   UNL A   1      33.648  25.568  26.029  1.00  0.00     0.108 C 
BRANCH  11  12
ATOM     12  C   UNL A   1      34.320  25.044  24.764  1.00  0.00     0.085 C 
BRANCH  12  13
ATOM     13  C   UNL A   1      34.084  23.586  24.535  1.00  0.00     0.107 A 
ATOM     14  N   UNL A   1      33.014  23.036  23.994  1.00  0.00    -0.233 NA
ATOM     15  N   UNL A   1      34.982  22.625  24.931  1.00  0.00    -0.342 N 
ATOM     16  C   UNL A   1      33.199  21.680  24.115  1.00  0.00     0.089 A 
ATOM     17  C   UNL A   1      34.427  21.394  24.695  1.00  0.00     0.065 A 
ATOM     18  H   UNL A   1      35.873  22.792  25.318  1.00  0.00     0.168 HD
ATOM     19  C   UNL A   1      32.345  20.630  23.763  1.00  0.00     0.030 A 
ATOM     20  C   UNL A   1      34.866  20.094  24.951  1.00  0.00     0.028 A 
ATOM     21  C   UNL A   1      32.740  19.318  24.043  1.00  0.00     0.002 A 
ATOM     22  C   UNL A   1      33.983  19.057  24.623  1.00  0.00     0.002 A 
ENDBRANCH  12  13
ENDBRANCH  11  12
ENDBRANCH   9  11
ENDBRANCH   6   7
ENDBRANCH   5   6
ENDBRANCH   3   5
ENDBRANCH   2   3
ENDBRANCH   1   2
BRANCH   1  23
ATOM     23  C   UNL A   1      31.669  30.835  26.096  1.00  0.00     0.275 C 
BRANCH  23  24
ATOM     24  O   UNL A   1      32.533  30.811  27.237  1.00  0.00    -0.458 OA
BRANCH  24  25
ATOM     25  C   UNL A   1      33.188  31.964  27.509  1.00  0.00     0.338 C 
ATOM     26  O   UNL A   1      32.770  33.104  27.455  1.00  0.00    -0.246 OA
BRANCH  25  27
ATOM     27  C   UNL A   1      34.568  31.592  27.825  1.00  0.00     0.060 A 
ATOM     28  C   UNL A   1      35.535  32.586  28.000  1.00  0.00     0.016 A 
ATOM     29  C   UNL A   1      34.856  30.247  28.061  1.00  0.00     0.016 A 
ATOM     30  C   UNL A   1      36.793  32.238  28.479  1.00  0.00     0.010 A 
ATOM     31  C   UNL A   1      36.101  29.907  28.579  1.00  0.00     0.010 A 
ATOM     32  C   UNL A   1      37.060  30.905  28.825  1.00  0.00    -0.014 A 
BRANCH  32  33
ATOM     33  C   UNL A   1      38.290  30.556  29.569  1.00  0.00     0.031 A 
ATOM     34  C   UNL A   1      39.243  29.546  29.013  1.00  0.00     0.074 A 
ATOM     35  C   UNL A   1      38.469  31.092  30.793  1.00  0.00     0.049 A 
ATOM     36  N   UNL A   1      40.284  28.998  29.580  1.00  0.00    -0.248 NA
ATOM     37  C   UNL A   1      38.982  29.079  27.642  1.00  0.00     0.031 C 
ATOM     38  C   UNL A   1      37.577  32.074  31.420  1.00  0.00     0.029 A 
ATOM     39  N   UNL A   1      39.432  30.869  31.743  1.00  0.00    -0.354 N 
ATOM     40  C   UNL A   1      40.792  28.100  28.648  1.00  0.00     0.074 A 
ATOM     41  C   UNL A   1      39.934  28.169  27.484  1.00  0.00     0.031 C 
ATOM     42  C   UNL A   1      38.028  32.356  32.651  1.00  0.00     0.029 A 
ATOM     43  C   UNL A   1      39.203  31.538  32.924  1.00  0.00     0.049 A 
ATOM     44  H   UNL A   1      40.212  30.287  31.594  1.00  0.00     0.167 HD
ATOM     45  C   UNL A   1      41.875  27.295  28.768  1.00  0.00     0.034 A 
ATOM     46  C   UNL A   1      39.842  31.463  34.107  1.00  0.00     0.034 A 
ATOM     47  C   UNL A   1      42.711  27.257  29.943  1.00  0.00     0.049 A 
ATOM     48  C   UNL A   1      41.018  30.528  34.222  1.00  0.00     0.074 A 
ATOM     49  C   UNL A   1      43.879  26.545  30.148  1.00  0.00     0.029 A 
ATOM     50  N   UNL A   1      42.453  27.947  31.122  1.00  0.00    -0.354 N 
ATOM     51  N   UNL A   1      41.528  29.732  33.309  1.00  0.00    -0.248 NA
ATOM     52  C   UNL A   1      41.701  30.475  35.520  1.00  0.00     0.031 C 
ATOM     53  C   UNL A   1      44.290  26.752  31.469  1.00  0.00     0.029 A 
ATOM     54  C   UNL A   1      43.413  27.641  32.072  1.00  0.00     0.049 A 
ATOM     55  H   UNL A   1      41.698  28.563  31.261  1.00  0.00     0.167 HD
ATOM     56  C   UNL A   1      42.601  29.094  33.921  1.00  0.00     0.074 A 
ATOM     57  C   UNL A   1      42.677  29.615  35.272  1.00  0.00     0.031 C 
ATOM     58  C   UNL A   1      43.449  28.162  33.418  1.00  0.00     0.034 A 
BRANCH  45  59
ATOM     59  C   UNL A   1      42.180  26.359  27.627  1.00  0.00     0.023 A 
ATOM     60  C   UNL A   1      41.717  25.034  27.608  1.00  0.00     0.031 A 
ATOM     61  C   UNL A   1      42.959  26.803  26.544  1.00  0.00     0.131 A 
ATOM     62  C   UNL A   1      42.079  24.183  26.552  1.00  0.00     0.055 A 
ATOM     63  C   UNL A   1      43.263  25.971  25.467  1.00  0.00     0.041 A 
ATOM     64  F   UNL A   1      43.447  28.054  26.522  1.00  0.00    -0.206 F 
ATOM     65  C   UNL A   1      42.830  24.648  25.471  1.00  0.00     0.022 A 
BRANCH  62  66
ATOM     66  S   UNL A   1      41.636  22.427  26.658  1.00  0.00     0.124 S 
ATOM     67  O   UNL A   1      42.131  21.920  25.380  1.00  0.00    -0.237 OA
ATOM     68  O   UNL A   1      42.361  21.987  27.844  1.00  0.00    -0.237 OA
ATOM     69  O   UNL A   1      40.180  22.447  26.790  1.00  0.00    -0.744 OA
ENDBRANCH  62  66
ENDBRANCH  45  59
BRANCH  46  70
ATOM     70  C   UNL A   1      39.355  32.234  35.288  1.00  0.00     0.023 A 
ATOM     71  C   UNL A   1      39.747  33.564  35.499  1.00  0.00     0.031 A 
ATOM     72  C   UNL A   1      38.523  31.632  36.250  1.00  0.00     0.131 A 
ATOM     73  C   UNL A   1      39.348  34.235  36.667  1.00  0.00     0.055 A 
ATOM     74  C   UNL A   1      38.084  32.320  37.382  1.00  0.00     0.041 A 
ATOM     75  F   UNL A   1      38.116  30.362  36.098  1.00  0.00    -0.206 F 
ATOM     76  C   UNL A   1      38.510  33.625  37.604  1.00  0.00     0.022 A 
BRANCH  73  77
ATOM     77  S   UNL A   1      40.027  35.885  36.996  1.00  0.00     0.124 S 
ATOM     78  O   UNL A   1      41.449  35.597  37.155  1.00  0.00    -0.237 OA
ATOM     79  O   UNL A   1      39.651  36.611  35.789  1.00  0.00    -0.237 OA
ATOM     80  O   UNL A   1      39.335  36.300  38.214  1.00  0.00    -0.744 OA
ENDBRANCH  73  77
ENDBRANCH  46  70
BRANCH  58  81
ATOM     81  C   UNL A   1      44.534  27.672  34.339  1.00  0.00     0.023 A 
ATOM     82  C   UNL A   1      44.388  26.479  35.067  1.00  0.00     0.031 A 
ATOM     83  C   UNL A   1      45.719  28.410  34.494  1.00  0.00     0.131 A 
ATOM     84  C   UNL A   1      45.397  26.080  35.954  1.00  0.00     0.055 A 
ATOM     85  C   UNL A   1      46.742  27.981  35.339  1.00  0.00     0.041 A 
ATOM     86  F   UNL A   1      45.903  29.557  33.820  1.00  0.00    -0.206 F 
ATOM     87  C   UNL A   1      46.580  26.814  36.082  1.00  0.00     0.022 A 
BRANCH  84  88
ATOM     88  S   UNL A   1      45.120  24.614  36.984  1.00  0.00     0.124 S 
ATOM     89  O   UNL A   1      43.751  24.821  37.445  1.00  0.00    -0.237 OA
ATOM     90  O   UNL A   1      45.316  23.521  36.038  1.00  0.00    -0.237 OA
ATOM     91  O   UNL A   1      46.147  24.724  38.020  1.00  0.00    -0.744 OA
ENDBRANCH  84  88
ENDBRANCH  58  81
ENDBRANCH  32  33
ENDBRANCH  25  27
ENDBRANCH  24  25
ENDBRANCH  23  24
ENDBRANCH   1  23
TORSDOF 19
ENDMDL
MODEL 2
REMARK VINA RESULT:     -11.1      4.596     10.540
REMARK SMILES O=C(CCc1nc2ccccc2[nH]1)NCCC(=O)OCCOC(=O)c1ccc(-c2c3nc(c(-c4cc(S(=O)(=O)[O-])ccc4F)c4ccc([nH]4)c(-c4cc(S(=O)(=O)[O-])ccc4F)c4nc(c(-c5cc(S(=O)(=O)[O-])ccc5F)c5ccc2[nH]5)C=C4)C=C3)cc1
REMARK SMILES IDX 20 1 19 2 17 3 18 4 16 5 15 6 14 7 1 8 2 9 3 11 4 12 5 13
REMARK SMILES IDX 6 14 13 15 7 16 12 17 8 19 11 20 9 21 10 22 21 23 22 24
REMARK SMILES IDX 23 25 24 26 25 27 26 28 87 29 27 30 86 31 28 32 29 33 30 34
REMARK SMILES IDX 80 35 31 36 85 37 79 38 81 39 32 40 84 41 78 42 77 43 33 45
REMARK SMILES IDX 65 46 45 47 64 48 46 49 49 50 63 51 82 52 47 53 48 54 62 56
REMARK SMILES IDX 83 57 50 58 34 59 35 60 43 61 36 62 42 63 44 64 41 65 37 66
REMARK SMILES IDX 38 67 39 68 40 69 66 70 67 71 75 72 68 73 74 74 76 75 73 76
REMARK SMILES IDX 69 77 70 78 71 79 72 80 51 81 52 82 60 83 53 84 59 85 61 86
REMARK SMILES IDX 58 87 54 88 55 89 56 90 57 91
REMARK H PARENT 14 10 13 18 81 44 49 55
REMARK Flexibility Score: inf
ROOT
ATOM      1  C   UNL A   1      33.519  34.188  28.505  1.00  0.00     0.274 C 
ENDROOT
BRANCH   1   2
ATOM      2  O   UNL A   1      32.834  34.682  29.670  1.00  0.00    -0.462 OA
BRANCH   2   3
ATOM      3  C   UNL A   1      32.863  36.032  29.838  1.00  0.00     0.307 C 
ATOM      4  O   UNL A   1      32.761  36.848  28.930  1.00  0.00    -0.252 OA
BRANCH   3   5
ATOM      5  C   UNL A   1      33.104  36.453  31.266  1.00  0.00     0.144 C 
BRANCH   5   6
ATOM      6  C   UNL A   1      32.664  35.435  32.307  1.00  0.00     0.127 C 
BRANCH   6   7
ATOM      7  N   UNL A   1      33.781  34.949  33.087  1.00  0.00    -0.356 N 
ATOM      8  O   UNL A   1      33.776  32.804  32.271  1.00  0.00    -0.275 OA
ATOM      9  C   UNL A   1      34.245  33.659  33.018  1.00  0.00     0.220 C 
ATOM     10  H   UNL A   1      34.233  35.575  33.699  1.00  0.00     0.163 HD
BRANCH   9  11
ATOM     11  C   UNL A   1      35.382  33.344  33.967  1.00  0.00     0.108 C 
BRANCH  11  12
ATOM     12  C   UNL A   1      36.313  34.533  34.185  1.00  0.00     0.085 C 
BRANCH  12  13
ATOM     13  C   UNL A   1      37.462  34.562  33.232  1.00  0.00     0.107 A 
ATOM     14  N   UNL A   1      37.408  34.388  31.926  1.00  0.00    -0.233 NA
ATOM     15  N   UNL A   1      38.760  34.730  33.650  1.00  0.00    -0.342 N 
ATOM     16  C   UNL A   1      38.715  34.370  31.504  1.00  0.00     0.089 A 
ATOM     17  C   UNL A   1      39.585  34.587  32.564  1.00  0.00     0.065 A 
ATOM     18  H   UNL A   1      39.049  34.921  34.572  1.00  0.00     0.168 HD
ATOM     19  C   UNL A   1      39.235  34.155  30.223  1.00  0.00     0.030 A 
ATOM     20  C   UNL A   1      40.973  34.604  32.422  1.00  0.00     0.028 A 
ATOM     21  C   UNL A   1      40.624  34.127  30.055  1.00  0.00     0.002 A 
ATOM     22  C   UNL A   1      41.476  34.353  31.138  1.00  0.00     0.002 A 
ENDBRANCH  12  13
ENDBRANCH  11  12
ENDBRANCH   9  11
ENDBRANCH   6   7
ENDBRANCH   5   6
ENDBRANCH   3   5
ENDBRANCH   2   3
ENDBRANCH   1   2
BRANCH   1  23
ATOM     23  C   UNL A   1      34.385  32.972  28.823  1.00  0.00     0.275 C 
BRANCH  23  24
ATOM     24  O   UNL A   1      34.814  32.316  27.626  1.00  0.00    -0.458 OA
BRANCH  24  25
ATOM     25  C   UNL A   1      34.888  30.965  27.684  1.00  0.00     0.338 C 
ATOM     26  O   UNL A   1      34.120  30.143  27.223  1.00  0.00    -0.246 OA
BRANCH  25  27
ATOM     27  C   UNL A   1      36.065  30.649  28.494  1.00  0.00     0.060 A 
ATOM     28  C   UNL A   1      35.963  29.732  29.544  1.00  0.00     0.016 A 
ATOM     29  C   UNL A   1      37.296  31.189  28.117  1.00  0.00     0.016 A 
ATOM     30  C   UNL A   1      37.117  29.299  30.188  1.00  0.00     0.010 A 
ATOM     31  C   UNL A   1      38.451  30.723  28.734  1.00  0.00     0.010 A 
ATOM     32  C   UNL A   1      38.369  29.749  29.746  1.00  0.00    -0.014 A 
BRANCH  32  33
ATOM     33  C   UNL A   1      39.611  29.115  30.238  1.00  0.00     0.031 A 
ATOM     34  C   UNL A   1      40.389  29.748  31.349  1.00  0.00     0.074 A 
ATOM     35  C   UNL A   1      40.066  28.021  29.596  1.00  0.00     0.049 A 
ATOM     36  N   UNL A   1      41.569  29.432  31.810  1.00  0.00    -0.248 NA
ATOM     37  C   UNL A   1      39.763  30.899  32.017  1.00  0.00     0.031 C 
ATOM     38  C   UNL A   1      39.377  27.346  28.491  1.00  0.00     0.029 A 
ATOM     39  N   UNL A   1      41.222  27.300  29.751  1.00  0.00    -0.354 N 
ATOM     40  C   UNL A   1      41.844  30.359  32.808  1.00  0.00     0.074 A 
ATOM     41  C   UNL A   1      40.711  31.258  32.873  1.00  0.00     0.031 C 
ATOM     42  C   UNL A   1      40.129  26.323  28.060  1.00  0.00     0.029 A 
ATOM     43  C   UNL A   1      41.375  26.301  28.816  1.00  0.00     0.049 A 
ATOM     44  H   UNL A   1      41.879  27.481  30.461  1.00  0.00     0.167 HD
ATOM     45  C   UNL A   1      42.948  30.443  33.589  1.00  0.00     0.034 A 
ATOM     46  C   UNL A   1      42.422  25.491  28.568  1.00  0.00     0.034 A 
ATOM     47  C   UNL A   1      44.057  29.525  33.498  1.00  0.00     0.049 A 
ATOM     48  C   UNL A   1      43.652  25.636  29.427  1.00  0.00     0.074 A 
ATOM     49  C   UNL A   1      45.190  29.460  34.290  1.00  0.00     0.029 A 
ATOM     50  N   UNL A   1      44.182  28.524  32.543  1.00  0.00    -0.354 N 
ATOM     51  N   UNL A   1      43.872  26.475  30.413  1.00  0.00    -0.248 NA
ATOM     52  C   UNL A   1      44.772  24.732  29.140  1.00  0.00     0.031 C 
ATOM     53  C   UNL A   1      46.027  28.466  33.773  1.00  0.00     0.029 A 
ATOM     54  C   UNL A   1      45.392  27.868  32.696  1.00  0.00     0.049 A 
ATOM     55  H   UNL A   1      43.508  28.312  31.857  1.00  0.00     0.167 HD
ATOM     56  C   UNL A   1      45.153  26.191  30.873  1.00  0.00     0.074 A 
ATOM     57  C   UNL A   1      45.645  25.089  30.071  1.00  0.00     0.031 C 
ATOM     58  C   UNL A   1      45.862  26.784  31.866  1.00  0.00     0.034 A 
BRANCH  45  59
ATOM     59  C   UNL A   1      43.031  31.590  34.562  1.00  0.00     0.023 A 
ATOM     60  C   UNL A   1      42.486  31.510  35.854  1.00  0.00     0.031 A 
ATOM     61  C   UNL A   1      43.660  32.789  34.183  1.00  0.00     0.131 A 
ATOM     62  C   UNL A   1      42.534  32.628  36.703  1.00  0.00     0.055 A 
ATOM     63  C   UNL A   1      43.761  33.874  35.053  1.00  0.00     0.041 A 
ATOM     64  F   UNL A   1      44.178  32.928  32.952  1.00  0.00    -0.206 F 
ATOM     65  C   UNL A   1      43.187  33.801  36.319  1.00  0.00     0.022 A 
BRANCH  62  66
ATOM     66  S   UNL A   1      41.646  32.561  38.283  1.00  0.00     0.124 S 
ATOM     67  O   UNL A   1      42.397  31.536  39.002  1.00  0.00    -0.237 OA
ATOM     68  O   UNL A   1      41.785  33.924  38.783  1.00  0.00    -0.237 OA
ATOM     69  O   UNL A   1      40.289  32.175  37.897  1.00  0.00    -0.744 OA
ENDBRANCH  62  66
ENDBRANCH  45  59
BRANCH  46  70
ATOM     70  C   UNL A   1      42.387  24.526  27.432  1.00  0.00     0.023 A 
ATOM     71  C   UNL A   1      41.659  23.330  27.516  1.00  0.00     0.031 A 
ATOM     72  C   UNL A   1      43.125  24.765  26.257  1.00  0.00     0.131 A 
ATOM     73  C   UNL A   1      41.719  22.397  26.468  1.00  0.00     0.055 A 
ATOM     74  C   UNL A   1      43.139  23.860  25.195  1.00  0.00     0.041 A 
ATOM     75  F   UNL A   1      43.840  25.893  26.122  1.00  0.00    -0.206 F 
ATOM     76  C   UNL A   1      42.445  22.660  25.304  1.00  0.00     0.022 A 
BRANCH  73  77
ATOM     77  S   UNL A   1      40.917  20.785  26.692  1.00  0.00     0.124 S 
ATOM     78  O   UNL A   1      41.877  19.883  26.064  1.00  0.00    -0.237 OA
ATOM     79  O   UNL A   1      40.812  20.700  28.144  1.00  0.00    -0.237 OA
ATOM     80  O   UNL A   1      39.649  20.936  25.983  1.00  0.00    -0.744 OA
ENDBRANCH  73  77
ENDBRANCH  46  70
BRANCH  58  81
ATOM     81  C   UNL A   1      47.234  26.228  32.137  1.00  0.00     0.023 A 
ATOM     82  C   UNL A   1      48.346  26.626  31.375  1.00  0.00     0.031 A 
ATOM     83  C   UNL A   1      47.428  25.286  33.161  1.00  0.00     0.131 A 
ATOM     84  C   UNL A   1      49.599  26.049  31.623  1.00  0.00     0.055 A 
ATOM     85  C   UNL A   1      48.687  24.755  33.437  1.00  0.00     0.041 A 
ATOM     86  F   UNL A   1      46.395  24.874  33.915  1.00  0.00    -0.206 F 
ATOM     87  C   UNL A   1      49.780  25.128  32.659  1.00  0.00     0.022 A 
BRANCH  84  88
ATOM     88  S   UNL A   1      50.984  26.476  30.533  1.00  0.00     0.124 S 
ATOM     89  O   UNL A   1      52.136  26.183  31.378  1.00  0.00    -0.237 OA
ATOM     90  O   UNL A   1      50.781  25.580  29.399  1.00  0.00    -0.237 OA
ATOM     91  O   UNL A   1      50.769  27.893  30.245  1.00  0.00    -0.744 OA
ENDBRANCH  84  88
ENDBRANCH  58  81
ENDBRANCH  32  33
ENDBRANCH  25  27
ENDBRANCH  24  25
ENDBRANCH  23  24
ENDBRANCH   1  23
TORSDOF 19
ENDMDL
MODEL 3
REMARK VINA RESULT:     -10.9      4.931     10.318
REMARK SMILES O=C(CCc1nc2ccccc2[nH]1)NCCC(=O)OCCOC(=O)c1ccc(-c2c3nc(c(-c4cc(S(=O)(=O)[O-])ccc4F)c4ccc([nH]4)c(-c4cc(S(=O)(=O)[O-])ccc4F)c4nc(c(-c5cc(S(=O)(=O)[O-])ccc5F)c5ccc2[nH]5)C=C4)C=C3)cc1
REMARK SMILES IDX 20 1 19 2 17 3 18 4 16 5 15 6 14 7 1 8 2 9 3 11 4 12 5 13
REMARK SMILES IDX 6 14 13 15 7 16 12 17 8 19 11 20 9 21 10 22 21 23 22 24
REMARK SMILES IDX 23 25 24 26 25 27 26 28 87 29 27 30 86 31 28 32 29 33 30 34
REMARK SMILES IDX 80 35 31 36 85 37 79 38 81 39 32 40 84 41 78 42 77 43 33 45
REMARK SMILES IDX 65 46 45 47 64 48 46 49 49 50 63 51 82 52 47 53 48 54 62 56
REMARK SMILES IDX 83 57 50 58 34 59 35 60 43 61 36 62 42 63 44 64 41 65 37 66
REMARK SMILES IDX 38 67 39 68 40 69 66 70 67 71 75 72 68 73 74 74 76 75 73 76
REMARK SMILES IDX 69 77 70 78 71 79 72 80 51 81 52 82 60 83 53 84 59 85 61 86
REMARK SMILES IDX 58 87 54 88 55 89 56 90 57 91
REMARK H PARENT 14 10 13 18 81 44 49 55
REMARK Flexibility Score: inf
ROOT
ATOM      1  C   UNL A   1      36.045  21.276  24.505  1.00  0.00     0.274 C 
ENDROOT
BRANCH   1   2
ATOM      2  O   UNL A   1      34.916  21.545  25.356  1.00  0.00    -0.462 OA
BRANCH   2   3
ATOM      3  C   UNL A   1      33.998  22.415  24.853  1.00  0.00     0.307 C 
ATOM      4  O   UNL A   1      32.897  22.627  25.347  1.00  0.00    -0.252 OA
BRANCH   3   5
ATOM      5  C   UNL A   1      34.433  23.066  23.564  1.00  0.00     0.144 C 
BRANCH   5   6
ATOM      6  C   UNL A   1      33.437  22.932  22.422  1.00  0.00     0.127 C 
BRANCH   6   7
ATOM      7  N   UNL A   1      32.389  23.927  22.506  1.00  0.00    -0.356 N 
ATOM      8  O   UNL A   1      33.598  25.676  21.644  1.00  0.00    -0.275 OA
ATOM      9  C   UNL A   1      32.556  25.233  22.120  1.00  0.00     0.220 C 
ATOM     10  H   UNL A   1      31.511  23.653  22.857  1.00  0.00     0.163 HD
BRANCH   9  11
ATOM     11  C   UNL A   1      31.351  26.121  22.352  1.00  0.00     0.108 C 
BRANCH  11  12
ATOM     12  C   UNL A   1      31.691  27.605  22.268  1.00  0.00     0.085 C 
BRANCH  12  13
ATOM     13  C   UNL A   1      32.073  28.197  23.585  1.00  0.00     0.107 A 
ATOM     14  N   UNL A   1      31.461  29.182  24.214  1.00  0.00    -0.233 NA
ATOM     15  N   UNL A   1      33.184  27.787  24.281  1.00  0.00    -0.342 N 
ATOM     16  C   UNL A   1      32.245  29.460  25.307  1.00  0.00     0.089 A 
ATOM     17  C   UNL A   1      33.330  28.598  25.377  1.00  0.00     0.065 A 
ATOM     18  H   UNL A   1      33.775  27.037  24.035  1.00  0.00     0.168 HD
ATOM     19  C   UNL A   1      32.096  30.455  26.279  1.00  0.00     0.030 A 
ATOM     20  C   UNL A   1      34.298  28.667  26.380  1.00  0.00     0.028 A 
ATOM     21  C   UNL A   1      33.071  30.576  27.275  1.00  0.00     0.002 A 
ATOM     22  C   UNL A   1      34.151  29.691  27.324  1.00  0.00     0.002 A 
ENDBRANCH  12  13
ENDBRANCH  11  12
ENDBRANCH   9  11
ENDBRANCH   6   7
ENDBRANCH   5   6
ENDBRANCH   3   5
ENDBRANCH   2   3
ENDBRANCH   1   2
BRANCH   1  23
ATOM     23  C   UNL A   1      37.247  20.764  25.296  1.00  0.00     0.275 C 
BRANCH  23  24
ATOM     24  O   UNL A   1      38.302  21.730  25.315  1.00  0.00    -0.458 OA
BRANCH  24  25
ATOM     25  C   UNL A   1      39.412  21.381  26.007  1.00  0.00     0.338 C 
ATOM     26  O   UNL A   1      39.953  20.294  26.074  1.00  0.00    -0.246 OA
BRANCH  25  27
ATOM     27  C   UNL A   1      39.830  22.571  26.750  1.00  0.00     0.060 A 
ATOM     28  C   UNL A   1      40.854  22.478  27.696  1.00  0.00     0.016 A 
ATOM     29  C   UNL A   1      39.268  23.801  26.404  1.00  0.00     0.016 A 
ATOM     30  C   UNL A   1      41.369  23.640  28.262  1.00  0.00     0.010 A 
ATOM     31  C   UNL A   1      39.813  24.963  26.939  1.00  0.00     0.010 A 
ATOM     32  C   UNL A   1      40.889  24.888  27.841  1.00  0.00    -0.014 A 
BRANCH  32  33
ATOM     33  C   UNL A   1      41.589  26.131  28.232  1.00  0.00     0.031 A 
ATOM     34  C   UNL A   1      40.840  27.233  28.912  1.00  0.00     0.074 A 
ATOM     35  C   UNL A   1      42.879  26.278  27.869  1.00  0.00     0.049 A 
ATOM     36  N   UNL A   1      41.236  28.446  29.191  1.00  0.00    -0.248 NA
ATOM     37  C   UNL A   1      39.458  26.936  29.319  1.00  0.00     0.031 C 
ATOM     38  C   UNL A   1      43.683  25.257  27.187  1.00  0.00     0.029 A 
ATOM     39  N   UNL A   1      43.734  27.343  27.989  1.00  0.00    -0.354 N 
ATOM     40  C   UNL A   1      40.145  29.071  29.784  1.00  0.00     0.074 A 
ATOM     41  C   UNL A   1      39.067  28.104  29.810  1.00  0.00     0.031 C 
ATOM     42  C   UNL A   1      44.904  25.752  26.937  1.00  0.00     0.029 A 
ATOM     43  C   UNL A   1      44.955  27.136  27.389  1.00  0.00     0.049 A 
ATOM     44  H   UNL A   1      43.497  28.174  28.459  1.00  0.00     0.167 HD
ATOM     45  C   UNL A   1      40.063  30.338  30.256  1.00  0.00     0.034 A 
ATOM     46  C   UNL A   1      45.982  27.984  27.184  1.00  0.00     0.034 A 
ATOM     47  C   UNL A   1      41.161  31.273  30.217  1.00  0.00     0.049 A 
ATOM     48  C   UNL A   1      45.844  29.400  27.684  1.00  0.00     0.074 A 
ATOM     49  C   UNL A   1      41.223  32.553  30.738  1.00  0.00     0.029 A 
ATOM     50  N   UNL A   1      42.385  31.034  29.604  1.00  0.00    -0.354 N 
ATOM     51  N   UNL A   1      44.830  29.959  28.302  1.00  0.00    -0.248 NA
ATOM     52  C   UNL A   1      46.983  30.298  27.456  1.00  0.00     0.031 C 
ATOM     53  C   UNL A   1      42.456  33.110  30.382  1.00  0.00     0.029 A 
ATOM     54  C   UNL A   1      43.189  32.158  29.692  1.00  0.00     0.049 A 
ATOM     55  H   UNL A   1      42.642  30.189  29.169  1.00  0.00     0.167 HD
ATOM     56  C   UNL A   1      45.214  31.271  28.550  1.00  0.00     0.074 A 
ATOM     57  C   UNL A   1      46.561  31.413  28.033  1.00  0.00     0.031 C 
ATOM     58  C   UNL A   1      44.521  32.273  29.148  1.00  0.00     0.034 A 
BRANCH  45  59
ATOM     59  C   UNL A   1      38.735  30.798  30.799  1.00  0.00     0.023 A 
ATOM     60  C   UNL A   1      37.796  31.468  29.999  1.00  0.00     0.031 A 
ATOM     61  C   UNL A   1      38.410  30.566  32.147  1.00  0.00     0.131 A 
ATOM     62  C   UNL A   1      36.598  31.930  30.567  1.00  0.00     0.055 A 
ATOM     63  C   UNL A   1      37.191  30.972  32.690  1.00  0.00     0.041 A 
ATOM     64  F   UNL A   1      39.280  29.950  32.963  1.00  0.00    -0.206 F 
ATOM     65  C   UNL A   1      36.279  31.668  31.901  1.00  0.00     0.022 A 
BRANCH  62  66
ATOM     66  S   UNL A   1      35.500  32.968  29.561  1.00  0.00     0.124 S 
ATOM     67  O   UNL A   1      35.915  34.310  29.960  1.00  0.00    -0.237 OA
ATOM     68  O   UNL A   1      35.845  32.570  28.202  1.00  0.00    -0.237 OA
ATOM     69  O   UNL A   1      34.161  32.579  30.003  1.00  0.00    -0.744 OA
ENDBRANCH  62  66
ENDBRANCH  45  59
BRANCH  46  70
ATOM     70  C   UNL A   1      47.190  27.551  26.424  1.00  0.00     0.023 A 
ATOM     71  C   UNL A   1      47.319  27.818  25.052  1.00  0.00     0.031 A 
ATOM     72  C   UNL A   1      48.214  26.819  27.052  1.00  0.00     0.131 A 
ATOM     73  C   UNL A   1      48.423  27.317  24.343  1.00  0.00     0.055 A 
ATOM     74  C   UNL A   1      49.337  26.369  26.353  1.00  0.00     0.041 A 
ATOM     75  F   UNL A   1      48.142  26.535  28.362  1.00  0.00    -0.206 F 
ATOM     76  C   UNL A   1      49.438  26.605  24.987  1.00  0.00     0.022 A 
BRANCH  73  77
ATOM     77  S   UNL A   1      48.462  27.521  22.540  1.00  0.00     0.124 S 
ATOM     78  O   UNL A   1      48.462  26.136  22.082  1.00  0.00    -0.237 OA
ATOM     79  O   UNL A   1      47.240  28.278  22.297  1.00  0.00    -0.237 OA
ATOM     80  O   UNL A   1      49.705  28.254  22.309  1.00  0.00    -0.744 OA
ENDBRANCH  73  77
ENDBRANCH  46  70
BRANCH  58  81
ATOM     81  C   UNL A   1      45.230  33.594  29.282  1.00  0.00     0.023 A 
ATOM     82  C   UNL A   1      45.146  34.572  28.277  1.00  0.00     0.031 A 
ATOM     83  C   UNL A   1      46.002  33.872  30.423  1.00  0.00     0.131 A 
ATOM     84  C   UNL A   1      45.860  35.771  28.413  1.00  0.00     0.055 A 
ATOM     85  C   UNL A   1      46.668  35.087  30.576  1.00  0.00     0.041 A 
ATOM     86  F   UNL A   1      46.114  32.967  31.409  1.00  0.00    -0.206 F 
ATOM     87  C   UNL A   1      46.607  36.041  29.564  1.00  0.00     0.022 A 
BRANCH  84  88
ATOM     88  S   UNL A   1      45.846  36.953  27.039  1.00  0.00     0.124 S 
ATOM     89  O   UNL A   1      46.365  36.146  25.940  1.00  0.00    -0.237 OA
ATOM     90  O   UNL A   1      44.436  37.318  26.950  1.00  0.00    -0.237 OA
ATOM     91  O   UNL A   1      46.732  38.022  27.497  1.00  0.00    -0.744 OA
ENDBRANCH  84  88
ENDBRANCH  58  81
ENDBRANCH  32  33
ENDBRANCH  25  27
ENDBRANCH  24  25
ENDBRANCH  23  24
ENDBRANCH   1  23
TORSDOF 19
ENDMDL
