MODEL 1
REMARK VINA RESULT:     -12.3      0.000      0.000
REMARK SMILES CC[C@@H](NC(=O)N1CCO[C@H](CC(=O)OCCOC(=O)c2ccc(-c3c4nc(c(-c5cc(S(=O)(=O)[O-])ccc5F)c5ccc([nH]5)c(-c5cc(S(=O)(=O)[O-])ccc5F)c5nc(c(-c6cc(S(=O)(=O)[O-])ccc6F)c6ccc3[nH]6)C=C5)C=C4)cc2)C1)c1cccs1
REMARK SMILES IDX 16 1 15 2 13 3 14 4 12 5 11 6 7 7 8 8 84 9 9 10 10 11 5 12
REMARK SMILES IDX 4 13 6 15 3 16 2 17 1 18 85 19 86 20 89 21 87 22 88 23 17 24
REMARK SMILES IDX 18 25 19 26 20 27 21 28 22 29 83 30 23 31 82 32 24 33 25 34
REMARK SMILES IDX 26 35 76 36 27 37 81 38 75 39 77 40 28 41 80 42 74 43 73 44
REMARK SMILES IDX 29 46 61 47 41 48 60 49 42 50 45 51 59 52 78 53 43 54 44 55
REMARK SMILES IDX 58 57 79 58 46 59 30 60 31 61 39 62 32 63 38 64 40 65 37 66
REMARK SMILES IDX 33 67 34 68 35 69 36 70 62 71 63 72 71 73 64 74 70 75 72 76
REMARK SMILES IDX 69 77 65 78 66 79 67 80 68 81 47 82 48 83 56 84 49 85 55 86
REMARK SMILES IDX 57 87 54 88 50 89 51 90 52 91 53 92
REMARK H PARENT 4 14 77 45 45 56
REMARK Flexibility Score: inf
ROOT
ATOM      1  C   UNL A   1      31.117  29.683  24.759  1.00  0.00     0.274 C 
ENDROOT
BRANCH   1   2
ATOM      2  O   UNL A   1      30.311  29.459  23.567  1.00  0.00    -0.462 OA
BRANCH   2   3
ATOM      3  C   UNL A   1      30.363  28.192  23.053  1.00  0.00     0.308 C 
ATOM      4  O   UNL A   1      30.288  27.944  21.852  1.00  0.00    -0.252 OA
BRANCH   3   5
ATOM      5  C   UNL A   1      30.671  27.110  24.082  1.00  0.00     0.156 C 
BRANCH   5   6
ATOM      6  C   UNL A   1      31.760  26.079  23.764  1.00  0.00     0.149 C 
ATOM      7  N   UNL A   1      31.780  24.703  25.863  1.00  0.00    -0.320 N 
ATOM      8  C   UNL A   1      33.065  25.301  26.226  1.00  0.00     0.150 C 
ATOM      9  C   UNL A   1      31.626  24.684  24.404  1.00  0.00     0.154 C 
ATOM     10  C   UNL A   1      33.303  26.653  25.529  1.00  0.00     0.182 C 
ATOM     11  O   UNL A   1      33.074  26.607  24.104  1.00  0.00    -0.374 OA
BRANCH   7  12
ATOM     12  C   UNL A   1      31.430  23.555  26.512  1.00  0.00     0.318 C 
ATOM     13  N   UNL A   1      32.133  22.412  26.404  1.00  0.00    -0.330 N 
ATOM     14  H   UNL A   1      31.525  21.664  26.608  1.00  0.00     0.166 HD
ATOM     15  O   UNL A   1      30.435  23.517  27.244  1.00  0.00    -0.249 OA
BRANCH  13  16
ATOM     16  C   UNL A   1      33.632  21.770  26.059  1.00  0.00     0.124 C 
BRANCH  16  17
ATOM     17  C   UNL A   1      35.613  22.745  26.087  1.00  0.00     0.027 C 
ATOM     18  C   UNL A   1      37.124  22.516  25.287  1.00  0.00     0.006 C 
ENDBRANCH  16  17
BRANCH  16  19
ATOM     19  C   UNL A   1      33.053  20.313  25.190  1.00  0.00     0.027 A 
ATOM     20  C   UNL A   1      32.924  19.052  25.778  1.00  0.00     0.017 A 
ATOM     21  S   UNL A   1      32.524  20.210  23.540  1.00  0.00    -0.147 S 
ATOM     22  C   UNL A   1      32.520  18.030  24.872  1.00  0.00     0.012 A 
ATOM     23  C   UNL A   1      32.302  18.524  23.610  1.00  0.00     0.065 A 
ENDBRANCH  16  19
ENDBRANCH  13  16
ENDBRANCH   7  12
ENDBRANCH   5   6
ENDBRANCH   3   5
ENDBRANCH   2   3
ENDBRANCH   1   2
BRANCH   1  24
ATOM     24  C   UNL A   1      30.981  31.151  25.254  1.00  0.00     0.275 C 
BRANCH  24  25
ATOM     25  O   UNL A   1      31.108  31.428  26.679  1.00  0.00    -0.458 OA
BRANCH  25  26
ATOM     26  C   UNL A   1      32.074  32.287  27.020  1.00  0.00     0.338 C 
ATOM     27  O   UNL A   1      32.063  33.493  26.893  1.00  0.00    -0.246 OA
BRANCH  26  28
ATOM     28  C   UNL A   1      33.238  31.815  27.707  1.00  0.00     0.060 A 
ATOM     29  C   UNL A   1      34.209  33.132  28.448  1.00  0.00     0.016 A 
ATOM     30  C   UNL A   1      33.833  30.126  27.767  1.00  0.00     0.016 A 
ATOM     31  C   UNL A   1      35.829  32.787  29.182  1.00  0.00     0.010 A 
ATOM     32  C   UNL A   1      35.458  29.778  28.463  1.00  0.00     0.010 A 
ATOM     33  C   UNL A   1      36.451  31.104  29.216  1.00  0.00    -0.014 A 
BRANCH  33  34
ATOM     34  C   UNL A   1      37.723  30.779  29.920  1.00  0.00     0.031 A 
ATOM     35  C   UNL A   1      38.718  29.833  29.297  1.00  0.00     0.074 A 
ATOM     36  C   UNL A   1      37.916  31.254  31.169  1.00  0.00     0.049 A 
ATOM     37  N   UNL A   1      39.762  29.254  29.832  1.00  0.00    -0.248 NA
ATOM     38  C   UNL A   1      38.504  29.466  27.891  1.00  0.00     0.031 C 
ATOM     39  C   UNL A   1      37.020  32.156  31.900  1.00  0.00     0.029 A 
ATOM     40  N   UNL A   1      38.912  30.998  32.082  1.00  0.00    -0.354 N 
ATOM     41  C   UNL A   1      40.309  28.449  28.834  1.00  0.00     0.074 A 
ATOM     42  C   UNL A   1      39.462  28.582  27.675  1.00  0.00     0.031 C 
ATOM     43  C   UNL A   1      37.491  32.370  33.133  1.00  0.00     0.029 A 
ATOM     44  C   UNL A   1      38.675  31.555  33.321  1.00  0.00     0.049 A 
ATOM     45  H   UNL A   1      39.715  30.470  31.871  1.00  0.00     0.167 HD
ATOM     46  C   UNL A   1      41.418  27.670  28.875  1.00  0.00     0.034 A 
ATOM     47  C   UNL A   1      39.295  31.390  34.504  1.00  0.00     0.034 A 
ATOM     48  C   UNL A   1      42.236  27.533  30.053  1.00  0.00     0.049 A 
ATOM     49  C   UNL A   1      40.494  30.496  34.548  1.00  0.00     0.074 A 
ATOM     50  C   UNL A   1      43.380  26.779  30.232  1.00  0.00     0.029 A 
ATOM     51  N   UNL A   1      41.981  28.168  31.262  1.00  0.00    -0.354 N 
ATOM     52  N   UNL A   1      40.995  29.752  33.589  1.00  0.00    -0.248 NA
ATOM     53  C   UNL A   1      41.225  30.435  35.815  1.00  0.00     0.031 C 
ATOM     54  C   UNL A   1      43.790  26.920  31.563  1.00  0.00     0.029 A 
ATOM     55  C   UNL A   1      42.939  27.813  32.195  1.00  0.00     0.049 A 
ATOM     56  H   UNL A   1      41.228  28.780  31.431  1.00  0.00     0.167 HD
ATOM     57  C   UNL A   1      42.129  29.161  34.128  1.00  0.00     0.074 A 
ATOM     58  C   UNL A   1      42.232  29.636  35.496  1.00  0.00     0.031 C 
ATOM     59  C   UNL A   1      43.012  28.311  33.546  1.00  0.00     0.034 A 
BRANCH  46  60
ATOM     60  C   UNL A   1      41.758  26.879  27.631  1.00  0.00     0.023 A 
ATOM     61  C   UNL A   1      41.482  25.502  27.531  1.00  0.00     0.031 A 
ATOM     62  C   UNL A   1      42.426  27.490  26.556  1.00  0.00     0.131 A 
ATOM     63  C   UNL A   1      41.947  24.770  26.427  1.00  0.00     0.055 A 
ATOM     64  C   UNL A   1      42.812  26.771  25.420  1.00  0.00     0.041 A 
ATOM     65  F   UNL A   1      42.743  28.793  26.600  1.00  0.00    -0.206 F 
ATOM     66  C   UNL A   1      42.589  25.399  25.359  1.00  0.00     0.022 A 
BRANCH  63  67
ATOM     67  S   UNL A   1      41.844  22.958  26.484  1.00  0.00     0.124 S 
ATOM     68  O   UNL A   1      40.425  22.757  26.768  1.00  0.00    -0.237 OA
ATOM     69  O   UNL A   1      42.286  22.575  25.148  1.00  0.00    -0.237 OA
ATOM     70  O   UNL A   1      42.751  22.596  27.571  1.00  0.00    -0.744 OA
ENDBRANCH  63  67
ENDBRANCH  46  60
BRANCH  47  71
ATOM     71  C   UNL A   1      38.761  32.066  35.721  1.00  0.00     0.023 A 
ATOM     72  C   UNL A   1      38.115  31.340  36.730  1.00  0.00     0.031 A 
ATOM     73  C   UNL A   1      38.941  33.450  35.915  1.00  0.00     0.131 A 
ATOM     74  C   UNL A   1      37.658  31.999  37.883  1.00  0.00     0.055 A 
ATOM     75  C   UNL A   1      38.524  34.093  37.082  1.00  0.00     0.041 A 
ATOM     76  F   UNL A   1      39.574  34.189  34.989  1.00  0.00    -0.206 F 
ATOM     77  C   UNL A   1      37.870  33.367  38.072  1.00  0.00     0.022 A 
BRANCH  74  78
ATOM     78  S   UNL A   1      36.739  31.046  39.122  1.00  0.00     0.124 S 
ATOM     79  O   UNL A   1      35.484  31.786  39.200  1.00  0.00    -0.237 OA
ATOM     80  O   UNL A   1      36.670  29.729  38.498  1.00  0.00    -0.237 OA
ATOM     81  O   UNL A   1      37.585  31.128  40.311  1.00  0.00    -0.744 OA
ENDBRANCH  74  78
ENDBRANCH  47  71
BRANCH  59  82
ATOM     82  C   UNL A   1      44.195  27.911  34.378  1.00  0.00     0.023 A 
ATOM     83  C   UNL A   1      44.111  26.877  35.322  1.00  0.00     0.031 A 
ATOM     84  C   UNL A   1      45.414  28.593  34.231  1.00  0.00     0.131 A 
ATOM     85  C   UNL A   1      45.217  26.592  36.132  1.00  0.00     0.055 A 
ATOM     86  C   UNL A   1      46.529  28.268  35.001  1.00  0.00     0.041 A 
ATOM     87  F   UNL A   1      45.536  29.590  33.339  1.00  0.00    -0.206 F 
ATOM     88  C   UNL A   1      46.430  27.271  35.967  1.00  0.00     0.022 A 
BRANCH  85  89
ATOM     89  S   UNL A   1      45.025  25.375  37.459  1.00  0.00     0.124 S 
ATOM     90  O   UNL A   1      46.303  25.486  38.157  1.00  0.00    -0.237 OA
ATOM     91  O   UNL A   1      43.860  25.878  38.180  1.00  0.00    -0.237 OA
ATOM     92  O   UNL A   1      44.816  24.118  36.744  1.00  0.00    -0.744 OA
ENDBRANCH  85  89
ENDBRANCH  59  82
ENDBRANCH  33  34
ENDBRANCH  26  28
ENDBRANCH  25  26
ENDBRANCH  24  25
ENDBRANCH   1  24
TORSDOF 19
ENDMDL
MODEL 2
REMARK VINA RESULT:     -11.9      5.452     10.067
REMARK SMILES CC[C@@H](NC(=O)N1CCO[C@H](CC(=O)OCCOC(=O)c2ccc(-c3c4nc(c(-c5cc(S(=O)(=O)[O-])ccc5F)c5ccc([nH]5)c(-c5cc(S(=O)(=O)[O-])ccc5F)c5nc(c(-c6cc(S(=O)(=O)[O-])ccc6F)c6ccc3[nH]6)C=C5)C=C4)cc2)C1)c1cccs1
REMARK SMILES IDX 16 1 15 2 13 3 14 4 12 5 11 6 7 7 8 8 84 9 9 10 10 11 5 12
REMARK SMILES IDX 4 13 6 15 3 16 2 17 1 18 85 19 86 20 89 21 87 22 88 23 17 24
REMARK SMILES IDX 18 25 19 26 20 27 21 28 22 29 83 30 23 31 82 32 24 33 25 34
REMARK SMILES IDX 26 35 76 36 27 37 81 38 75 39 77 40 28 41 80 42 74 43 73 44
REMARK SMILES IDX 29 46 61 47 41 48 60 49 42 50 45 51 59 52 78 53 43 54 44 55
REMARK SMILES IDX 58 57 79 58 46 59 30 60 31 61 39 62 32 63 38 64 40 65 37 66
REMARK SMILES IDX 33 67 34 68 35 69 36 70 62 71 63 72 71 73 64 74 70 75 72 76
REMARK SMILES IDX 69 77 65 78 66 79 67 80 68 81 47 82 48 83 56 84 49 85 55 86
REMARK SMILES IDX 57 87 54 88 50 89 51 90 52 91 53 92
REMARK H PARENT 4 14 77 45 45 56
REMARK Flexibility Score: inf
ROOT
ATOM      1  C   UNL A   1      37.665  21.071  24.981  1.00  0.00     0.274 C 
ENDROOT
BRANCH   1   2
ATOM      2  O   UNL A   1      37.553  22.516  24.832  1.00  0.00    -0.462 OA
BRANCH   2   3
ATOM      3  C   UNL A   1      36.586  22.942  23.963  1.00  0.00     0.308 C 
ATOM      4  O   UNL A   1      36.663  22.805  22.744  1.00  0.00    -0.252 OA
BRANCH   3   5
ATOM      5  C   UNL A   1      35.327  23.476  24.636  1.00  0.00     0.156 C 
BRANCH   5   6
ATOM      6  C   UNL A   1      34.067  22.602  24.642  1.00  0.00     0.149 C 
ATOM      7  N   UNL A   1      32.686  23.721  26.413  1.00  0.00    -0.320 N 
ATOM      8  C   UNL A   1      32.943  22.591  27.308  1.00  0.00     0.150 C 
ATOM      9  C   UNL A   1      32.735  23.280  25.015  1.00  0.00     0.154 C 
ATOM     10  C   UNL A   1      34.208  21.808  26.916  1.00  0.00     0.182 C 
ATOM     11  O   UNL A   1      34.250  21.453  25.517  1.00  0.00    -0.374 OA
BRANCH   7  12
ATOM     12  C   UNL A   1      31.646  24.540  26.741  1.00  0.00     0.318 C 
ATOM     13  N   UNL A   1      31.759  25.881  26.794  1.00  0.00    -0.330 N 
ATOM     14  H   UNL A   1      31.061  26.219  27.399  1.00  0.00     0.166 HD
ATOM     15  O   UNL A   1      30.530  24.077  27.005  1.00  0.00    -0.249 OA
BRANCH  13  16
ATOM     16  C   UNL A   1      32.625  27.190  26.231  1.00  0.00     0.124 C 
BRANCH  16  17
ATOM     17  C   UNL A   1      33.677  28.765  27.365  1.00  0.00     0.027 C 
ATOM     18  C   UNL A   1      35.276  29.411  27.407  1.00  0.00     0.006 C 
ENDBRANCH  16  17
BRANCH  16  19
ATOM     19  C   UNL A   1      31.976  27.180  24.560  1.00  0.00     0.027 A 
ATOM     20  C   UNL A   1      32.645  26.626  23.465  1.00  0.00     0.017 A 
ATOM     21  S   UNL A   1      30.443  27.789  24.021  1.00  0.00    -0.147 S 
ATOM     22  C   UNL A   1      31.970  26.806  22.224  1.00  0.00     0.012 A 
ATOM     23  C   UNL A   1      30.772  27.456  22.384  1.00  0.00     0.065 A 
ENDBRANCH  16  19
ENDBRANCH  13  16
ENDBRANCH   7  12
ENDBRANCH   5   6
ENDBRANCH   3   5
ENDBRANCH   2   3
ENDBRANCH   1   2
BRANCH   1  24
ATOM     24  C   UNL A   1      39.066  20.676  25.530  1.00  0.00     0.275 C 
BRANCH  24  25
ATOM     25  O   UNL A   1      39.660  21.483  26.589  1.00  0.00    -0.458 OA
BRANCH  25  26
ATOM     26  C   UNL A   1      40.844  22.035  26.304  1.00  0.00     0.338 C 
ATOM     27  O   UNL A   1      41.742  21.550  25.650  1.00  0.00    -0.246 OA
BRANCH  26  28
ATOM     28  C   UNL A   1      41.114  23.384  26.698  1.00  0.00     0.060 A 
ATOM     29  C   UNL A   1      41.933  23.509  28.292  1.00  0.00     0.016 A 
ATOM     30  C   UNL A   1      40.610  24.872  25.836  1.00  0.00     0.016 A 
ATOM     31  C   UNL A   1      42.180  25.121  29.082  1.00  0.00     0.010 A 
ATOM     32  C   UNL A   1      40.819  26.476  26.629  1.00  0.00     0.010 A 
ATOM     33  C   UNL A   1      41.646  26.615  28.244  1.00  0.00    -0.014 A 
BRANCH  33  34
ATOM     34  C   UNL A   1      41.947  27.955  28.818  1.00  0.00     0.031 A 
ATOM     35  C   UNL A   1      40.827  28.876  29.230  1.00  0.00     0.074 A 
ATOM     36  C   UNL A   1      43.230  28.376  28.857  1.00  0.00     0.049 A 
ATOM     37  N   UNL A   1      40.866  30.147  29.537  1.00  0.00    -0.248 NA
ATOM     38  C   UNL A   1      39.475  28.303  29.285  1.00  0.00     0.031 C 
ATOM     39  C   UNL A   1      44.408  27.596  28.462  1.00  0.00     0.029 A 
ATOM     40  N   UNL A   1      43.765  29.596  29.196  1.00  0.00    -0.354 N 
ATOM     41  C   UNL A   1      39.548  30.520  29.801  1.00  0.00     0.074 A 
ATOM     42  C   UNL A   1      38.729  29.354  29.581  1.00  0.00     0.031 C 
ATOM     43  C   UNL A   1      45.510  28.345  28.571  1.00  0.00     0.029 A 
ATOM     44  C   UNL A   1      45.119  29.686  28.956  1.00  0.00     0.049 A 
ATOM     45  H   UNL A   1      43.232  30.332  29.574  1.00  0.00     0.167 HD
ATOM     46  C   UNL A   1      39.061  31.723  30.194  1.00  0.00     0.034 A 
ATOM     47  C   UNL A   1      45.959  30.737  28.977  1.00  0.00     0.034 A 
ATOM     48  C   UNL A   1      39.895  32.881  30.385  1.00  0.00     0.049 A 
ATOM     49  C   UNL A   1      45.404  32.070  29.373  1.00  0.00     0.074 A 
ATOM     50  C   UNL A   1      39.534  34.156  30.777  1.00  0.00     0.029 A 
ATOM     51  N   UNL A   1      41.270  32.898  30.184  1.00  0.00    -0.354 N 
ATOM     52  N   UNL A   1      44.156  32.393  29.624  1.00  0.00    -0.248 NA
ATOM     53  C   UNL A   1      46.362  33.168  29.513  1.00  0.00     0.031 C 
ATOM     54  C   UNL A   1      40.683  34.956  30.767  1.00  0.00     0.029 A 
ATOM     55  C   UNL A   1      41.770  34.164  30.432  1.00  0.00     0.049 A 
ATOM     56  H   UNL A   1      41.810  32.123  29.905  1.00  0.00     0.167 HD
ATOM     57  C   UNL A   1      44.184  33.731  29.992  1.00  0.00     0.074 A 
ATOM     58  C   UNL A   1      45.573  34.149  29.926  1.00  0.00     0.031 C 
ATOM     59  C   UNL A   1      43.160  34.541  30.360  1.00  0.00     0.034 A 
BRANCH  46  60
ATOM     60  C   UNL A   1      37.564  31.838  30.381  1.00  0.00     0.023 A 
ATOM     61  C   UNL A   1      36.721  32.285  29.346  1.00  0.00     0.031 A 
ATOM     62  C   UNL A   1      36.976  31.564  31.628  1.00  0.00     0.131 A 
ATOM     63  C   UNL A   1      35.362  32.526  29.601  1.00  0.00     0.055 A 
ATOM     64  C   UNL A   1      35.606  31.724  31.851  1.00  0.00     0.041 A 
ATOM     65  F   UNL A   1      37.729  31.161  32.664  1.00  0.00    -0.206 F 
ATOM     66  C   UNL A   1      34.792  32.225  30.839  1.00  0.00     0.022 A 
BRANCH  63  67
ATOM     67  S   UNL A   1      34.384  33.389  28.338  1.00  0.00     0.124 S 
ATOM     68  O   UNL A   1      33.541  32.307  27.834  1.00  0.00    -0.237 OA
ATOM     69  O   UNL A   1      33.702  34.417  29.115  1.00  0.00    -0.237 OA
ATOM     70  O   UNL A   1      35.390  33.878  27.400  1.00  0.00    -0.744 OA
ENDBRANCH  63  67
ENDBRANCH  46  60
BRANCH  47  71
ATOM     71  C   UNL A   1      47.385  30.555  28.584  1.00  0.00     0.023 A 
ATOM     72  C   UNL A   1      48.351  30.157  29.519  1.00  0.00     0.031 A 
ATOM     73  C   UNL A   1      47.793  30.725  27.246  1.00  0.00     0.131 A 
ATOM     74  C   UNL A   1      49.679  29.955  29.110  1.00  0.00     0.055 A 
ATOM     75  C   UNL A   1      49.105  30.481  26.836  1.00  0.00     0.041 A 
ATOM     76  F   UNL A   1      46.903  31.083  26.307  1.00  0.00    -0.206 F 
ATOM     77  C   UNL A   1      50.059  30.101  27.773  1.00  0.00     0.022 A 
BRANCH  74  78
ATOM     78  S   UNL A   1      50.920  29.538  30.364  1.00  0.00     0.124 S 
ATOM     79  O   UNL A   1      50.085  29.134  31.490  1.00  0.00    -0.237 OA
ATOM     80  O   UNL A   1      51.668  28.473  29.705  1.00  0.00    -0.237 OA
ATOM     81  O   UNL A   1      51.652  30.790  30.549  1.00  0.00    -0.744 OA
ENDBRANCH  74  78
ENDBRANCH  47  71
BRANCH  59  82
ATOM     82  C   UNL A   1      43.532  35.931  30.786  1.00  0.00     0.023 A 
ATOM     83  C   UNL A   1      43.579  36.991  29.868  1.00  0.00     0.031 A 
ATOM     84  C   UNL A   1      43.862  36.185  32.128  1.00  0.00     0.131 A 
ATOM     85  C   UNL A   1      44.009  38.253  30.294  1.00  0.00     0.055 A 
ATOM     86  C   UNL A   1      44.237  37.457  32.557  1.00  0.00     0.041 A 
ATOM     87  F   UNL A   1      43.831  35.198  33.037  1.00  0.00    -0.206 F 
ATOM     88  C   UNL A   1      44.324  38.496  31.635  1.00  0.00     0.022 A 
BRANCH  85  89
ATOM     89  S   UNL A   1      44.229  39.554  29.054  1.00  0.00     0.124 S 
ATOM     90  O   UNL A   1      44.710  38.796  27.903  1.00  0.00    -0.237 OA
ATOM     91  O   UNL A   1      42.883  40.105  28.936  1.00  0.00    -0.237 OA
ATOM     92  O   UNL A   1      45.212  40.447  29.664  1.00  0.00    -0.744 OA
ENDBRANCH  85  89
ENDBRANCH  59  82
ENDBRANCH  33  34
ENDBRANCH  26  28
ENDBRANCH  25  26
ENDBRANCH  24  25
ENDBRANCH   1  24
TORSDOF 19
ENDMDL
MODEL 3
REMARK VINA RESULT:     -11.8      2.945      9.148
REMARK SMILES CC[C@@H](NC(=O)N1CCO[C@H](CC(=O)OCCOC(=O)c2ccc(-c3c4nc(c(-c5cc(S(=O)(=O)[O-])ccc5F)c5ccc([nH]5)c(-c5cc(S(=O)(=O)[O-])ccc5F)c5nc(c(-c6cc(S(=O)(=O)[O-])ccc6F)c6ccc3[nH]6)C=C5)C=C4)cc2)C1)c1cccs1
REMARK SMILES IDX 16 1 15 2 13 3 14 4 12 5 11 6 7 7 8 8 84 9 9 10 10 11 5 12
REMARK SMILES IDX 4 13 6 15 3 16 2 17 1 18 85 19 86 20 89 21 87 22 88 23 17 24
REMARK SMILES IDX 18 25 19 26 20 27 21 28 22 29 83 30 23 31 82 32 24 33 25 34
REMARK SMILES IDX 26 35 76 36 27 37 81 38 75 39 77 40 28 41 80 42 74 43 73 44
REMARK SMILES IDX 29 46 61 47 41 48 60 49 42 50 45 51 59 52 78 53 43 54 44 55
REMARK SMILES IDX 58 57 79 58 46 59 30 60 31 61 39 62 32 63 38 64 40 65 37 66
REMARK SMILES IDX 33 67 34 68 35 69 36 70 62 71 63 72 71 73 64 74 70 75 72 76
REMARK SMILES IDX 69 77 65 78 66 79 67 80 68 81 47 82 48 83 56 84 49 85 55 86
REMARK SMILES IDX 57 87 54 88 50 89 51 90 52 91 53 92
REMARK H PARENT 4 14 77 45 45 56
REMARK Flexibility Score: inf
ROOT
ATOM      1  C   UNL A   1      42.173  20.158  26.211  1.00  0.00     0.274 C 
ENDROOT
BRANCH   1   2
ATOM      2  O   UNL A   1      41.079  20.992  25.732  1.00  0.00    -0.462 OA
BRANCH   2   3
ATOM      3  C   UNL A   1      39.837  20.422  25.797  1.00  0.00     0.308 C 
ATOM      4  O   UNL A   1      39.638  19.215  25.683  1.00  0.00    -0.252 OA
BRANCH   3   5
ATOM      5  C   UNL A   1      38.720  21.391  26.169  1.00  0.00     0.156 C 
BRANCH   5   6
ATOM      6  C   UNL A   1      37.806  21.925  25.059  1.00  0.00     0.149 C 
ATOM      7  N   UNL A   1      35.593  22.035  26.237  1.00  0.00    -0.320 N 
ATOM      8  C   UNL A   1      35.136  20.884  25.458  1.00  0.00     0.150 C 
ATOM      9  C   UNL A   1      36.603  22.787  25.484  1.00  0.00     0.154 C 
ATOM     10  C   UNL A   1      36.304  20.042  24.914  1.00  0.00     0.182 C 
ATOM     11  O   UNL A   1      37.309  20.829  24.240  1.00  0.00    -0.374 OA
BRANCH   7  12
ATOM     12  C   UNL A   1      34.631  22.783  26.851  1.00  0.00     0.318 C 
ATOM     13  N   UNL A   1      33.819  23.622  26.181  1.00  0.00    -0.330 N 
ATOM     14  H   UNL A   1      33.506  24.308  26.814  1.00  0.00     0.166 HD
ATOM     15  O   UNL A   1      34.459  22.717  28.074  1.00  0.00    -0.249 OA
BRANCH  13  16
ATOM     16  C   UNL A   1      33.137  23.949  24.695  1.00  0.00     0.124 C 
BRANCH  16  17
ATOM     17  C   UNL A   1      33.134  22.727  22.856  1.00  0.00     0.027 C 
ATOM     18  C   UNL A   1      32.154  21.468  22.201  1.00  0.00     0.006 C 
ENDBRANCH  16  17
BRANCH  16  19
ATOM     19  C   UNL A   1      32.929  25.714  24.934  1.00  0.00     0.027 A 
ATOM     20  C   UNL A   1      33.731  26.684  24.326  1.00  0.00     0.017 A 
ATOM     21  S   UNL A   1      31.719  26.514  25.886  1.00  0.00    -0.147 S 
ATOM     22  C   UNL A   1      33.429  28.017  24.727  1.00  0.00     0.012 A 
ATOM     23  C   UNL A   1      32.372  28.060  25.602  1.00  0.00     0.065 A 
ENDBRANCH  16  19
ENDBRANCH  13  16
ENDBRANCH   7  12
ENDBRANCH   5   6
ENDBRANCH   3   5
ENDBRANCH   2   3
ENDBRANCH   1   2
BRANCH   1  24
ATOM     24  C   UNL A   1      43.465  20.408  25.382  1.00  0.00     0.275 C 
BRANCH  24  25
ATOM     25  O   UNL A   1      44.262  21.596  25.661  1.00  0.00    -0.458 OA
BRANCH  25  26
ATOM     26  C   UNL A   1      43.740  22.755  25.248  1.00  0.00     0.338 C 
ATOM     27  O   UNL A   1      43.310  23.017  24.145  1.00  0.00    -0.246 OA
BRANCH  26  28
ATOM     28  C   UNL A   1      43.545  23.822  26.184  1.00  0.00     0.060 A 
ATOM     29  C   UNL A   1      42.276  23.470  27.406  1.00  0.00     0.016 A 
ATOM     30  C   UNL A   1      44.328  25.432  26.151  1.00  0.00     0.016 A 
ATOM     31  C   UNL A   1      41.715  24.756  28.554  1.00  0.00     0.010 A 
ATOM     32  C   UNL A   1      43.753  26.727  27.263  1.00  0.00     0.010 A 
ATOM     33  C   UNL A   1      42.468  26.383  28.504  1.00  0.00    -0.014 A 
BRANCH  33  34
ATOM     34  C   UNL A   1      42.109  27.416  29.515  1.00  0.00     0.031 A 
ATOM     35  C   UNL A   1      42.848  27.488  30.827  1.00  0.00     0.074 A 
ATOM     36  C   UNL A   1      41.040  28.210  29.285  1.00  0.00     0.049 A 
ATOM     37  N   UNL A   1      42.551  28.154  31.913  1.00  0.00    -0.248 NA
ATOM     38  C   UNL A   1      44.074  26.689  30.949  1.00  0.00     0.031 C 
ATOM     39  C   UNL A   1      40.219  28.225  28.070  1.00  0.00     0.029 A 
ATOM     40  N   UNL A   1      40.416  29.131  30.093  1.00  0.00    -0.354 N 
ATOM     41  C   UNL A   1      43.542  27.837  32.842  1.00  0.00     0.074 A 
ATOM     42  C   UNL A   1      44.425  26.891  32.207  1.00  0.00     0.031 C 
ATOM     43  C   UNL A   1      39.209  29.089  28.210  1.00  0.00     0.029 A 
ATOM     44  C   UNL A   1      39.249  29.629  29.554  1.00  0.00     0.049 A 
ATOM     45  H   UNL A   1      40.768  29.406  30.970  1.00  0.00     0.167 HD
ATOM     46  C   UNL A   1      43.705  28.293  34.108  1.00  0.00     0.034 A 
ATOM     47  C   UNL A   1      38.275  30.388  30.090  1.00  0.00     0.034 A 
ATOM     48  C   UNL A   1      42.796  29.220  34.730  1.00  0.00     0.049 A 
ATOM     49  C   UNL A   1      38.444  30.853  31.502  1.00  0.00     0.074 A 
ATOM     50  C   UNL A   1      42.841  29.760  36.002  1.00  0.00     0.029 A 
ATOM     51  N   UNL A   1      41.663  29.738  34.115  1.00  0.00    -0.354 N 
ATOM     52  N   UNL A   1      39.394  30.545  32.355  1.00  0.00    -0.248 NA
ATOM     53  C   UNL A   1      37.435  31.781  32.016  1.00  0.00     0.031 C 
ATOM     54  C   UNL A   1      41.709  30.566  36.173  1.00  0.00     0.029 A 
ATOM     55  C   UNL A   1      40.994  30.581  34.986  1.00  0.00     0.049 A 
ATOM     56  H   UNL A   1      41.376  29.535  33.195  1.00  0.00     0.167 HD
ATOM     57  C   UNL A   1      39.116  31.276  33.502  1.00  0.00     0.074 A 
ATOM     58  C   UNL A   1      37.910  32.035  33.227  1.00  0.00     0.031 C 
ATOM     59  C   UNL A   1      39.799  31.324  34.674  1.00  0.00     0.034 A 
BRANCH  46  60
ATOM     60  C   UNL A   1      44.874  27.745  34.898  1.00  0.00     0.023 A 
ATOM     61  C   UNL A   1      44.726  26.659  35.781  1.00  0.00     0.031 A 
ATOM     62  C   UNL A   1      46.138  28.356  34.821  1.00  0.00     0.131 A 
ATOM     63  C   UNL A   1      45.793  26.276  36.610  1.00  0.00     0.055 A 
ATOM     64  C   UNL A   1      47.220  27.915  35.587  1.00  0.00     0.041 A 
ATOM     65  F   UNL A   1      46.338  29.414  34.019  1.00  0.00    -0.206 F 
ATOM     66  C   UNL A   1      47.047  26.880  36.502  1.00  0.00     0.022 A 
BRANCH  63  67
ATOM     67  S   UNL A   1      45.471  25.086  37.942  1.00  0.00     0.124 S 
ATOM     68  O   UNL A   1      45.021  23.919  37.187  1.00  0.00    -0.237 OA
ATOM     69  O   UNL A   1      46.776  24.966  38.581  1.00  0.00    -0.237 OA
ATOM     70  O   UNL A   1      44.440  25.740  38.744  1.00  0.00    -0.744 OA
ENDBRANCH  63  67
ENDBRANCH  46  60
BRANCH  47  71
ATOM     71  C   UNL A   1      37.062  30.713  29.285  1.00  0.00     0.023 A 
ATOM     72  C   UNL A   1      36.560  32.020  29.224  1.00  0.00     0.031 A 
ATOM     73  C   UNL A   1      36.417  29.722  28.519  1.00  0.00     0.131 A 
ATOM     74  C   UNL A   1      35.440  32.302  28.426  1.00  0.00     0.055 A 
ATOM     75  C   UNL A   1      35.330  30.016  27.694  1.00  0.00     0.041 A 
ATOM     76  F   UNL A   1      36.871  28.458  28.525  1.00  0.00    -0.206 F 
ATOM     77  C   UNL A   1      34.830  31.313  27.651  1.00  0.00     0.022 A 
BRANCH  74  78
ATOM     78  S   UNL A   1      34.759  33.983  28.448  1.00  0.00     0.124 S 
ATOM     79  O   UNL A   1      35.190  34.499  27.154  1.00  0.00    -0.237 OA
ATOM     80  O   UNL A   1      33.330  33.726  28.594  1.00  0.00    -0.237 OA
ATOM     81  O   UNL A   1      35.402  34.595  29.609  1.00  0.00    -0.744 OA
ENDBRANCH  74  78
ENDBRANCH  47  71
BRANCH  59  82
ATOM     82  C   UNL A   1      39.284  32.287  35.703  1.00  0.00     0.023 A 
ATOM     83  C   UNL A   1      39.753  33.608  35.769  1.00  0.00     0.031 A 
ATOM     84  C   UNL A   1      38.326  31.864  36.639  1.00  0.00     0.131 A 
ATOM     85  C   UNL A   1      39.305  34.448  36.796  1.00  0.00     0.055 A 
ATOM     86  C   UNL A   1      37.842  32.721  37.625  1.00  0.00     0.041 A 
ATOM     87  F   UNL A   1      37.852  30.608  36.610  1.00  0.00    -0.206 F 
ATOM     88  C   UNL A   1      38.341  34.017  37.715  1.00  0.00     0.022 A 
BRANCH  85  89
ATOM     89  S   UNL A   1      40.058  36.086  36.963  1.00  0.00     0.124 S 
ATOM     90  O   UNL A   1      41.460  35.751  37.190  1.00  0.00    -0.237 OA
ATOM     91  O   UNL A   1      39.750  36.705  35.678  1.00  0.00    -0.237 OA
ATOM     92  O   UNL A   1      39.365  36.666  38.111  1.00  0.00    -0.744 OA
ENDBRANCH  85  89
ENDBRANCH  59  82
ENDBRANCH  33  34
ENDBRANCH  26  28
ENDBRANCH  25  26
ENDBRANCH  24  25
ENDBRANCH   1  24
TORSDOF 19
ENDMDL
