MODEL 1
REMARK VINA RESULT:     -11.4      0.000      0.000
REMARK SMILES CC[C@H](C)[C@@H](Nc1ncnc2ccccc12)C(=O)OCCOC(=O)c1ccc(-c2c3nc(c(-c4cc(S(=O)(=O)[O-])ccc4F)c4ccc([nH]4)c(-c4cc(S(=O)(=O)[O-])ccc4F)c4nc(c(-c5cc(S(=O)(=O)[O-])ccc5F)c5ccc2[nH]5)C=C4)C=C3)cc1
REMARK SMILES IDX 21 1 20 2 19 3 17 4 18 5 5 6 3 7 4 8 2 9 1 10 6 11 7 13 8 14
REMARK SMILES IDX 16 15 9 16 11 17 15 18 10 19 12 20 14 21 13 22 22 23 23 24
REMARK SMILES IDX 24 25 25 26 26 27 87 28 27 29 86 30 28 31 29 32 30 33 80 34
REMARK SMILES IDX 31 35 85 36 79 37 81 38 32 39 84 40 78 41 77 42 33 44 65 45
REMARK SMILES IDX 45 46 64 47 46 48 49 49 63 50 82 51 47 52 48 53 62 55 83 56
REMARK SMILES IDX 50 57 34 58 35 59 43 60 36 61 42 62 44 63 41 64 37 65 38 66
REMARK SMILES IDX 39 67 40 68 66 69 67 70 75 71 68 72 74 73 76 74 73 75 69 76
REMARK SMILES IDX 70 77 71 78 72 79 51 80 52 81 60 82 53 83 59 84 61 85 58 86
REMARK SMILES IDX 54 87 55 88 56 89 57 90
REMARK H PARENT 6 12 81 43 49 54
REMARK Flexibility Score: inf
ROOT
ATOM      1  C   UNL A   1      37.372  21.095  24.630  1.00  0.00     0.275 C 
ENDROOT
BRANCH   1   2
ATOM      2  C   UNL A   1      36.160  21.996  24.342  1.00  0.00     0.274 C 
BRANCH   2   3
ATOM      3  O   UNL A   1      35.390  22.340  25.515  1.00  0.00    -0.461 OA
BRANCH   3   4
ATOM      4  C   UNL A   1      34.373  21.477  25.775  1.00  0.00     0.328 C 
ATOM      5  O   UNL A   1      34.096  21.087  26.904  1.00  0.00    -0.250 OA
BRANCH   4   6
ATOM      6  C   UNL A   1      33.624  20.959  24.532  1.00  0.00     0.194 C 
BRANCH   6   7
ATOM      7  C   UNL A   1      33.298  19.427  24.579  1.00  0.00     0.019 C 
ATOM      8  C   UNL A   1      32.287  19.066  23.477  1.00  0.00     0.010 C 
BRANCH   7   9
ATOM      9  C   UNL A   1      34.575  18.559  24.455  1.00  0.00     0.002 C 
ATOM     10  C   UNL A   1      34.365  17.051  24.467  1.00  0.00     0.004 C 
ENDBRANCH   7   9
ENDBRANCH   6   7
BRANCH   6  11
ATOM     11  N   UNL A   1      32.400  21.733  24.215  1.00  0.00    -0.356 N 
ATOM     12  H   UNL A   1      31.941  21.526  23.369  1.00  0.00     0.163 HD
BRANCH  11  13
ATOM     13  C   UNL A   1      31.853  22.720  25.007  1.00  0.00     0.137 A 
ATOM     14  N   UNL A   1      30.879  22.232  25.791  1.00  0.00    -0.219 NA
ATOM     15  C   UNL A   1      32.267  24.063  25.079  1.00  0.00     0.043 A 
ATOM     16  C   UNL A   1      30.400  23.050  26.730  1.00  0.00     0.224 A 
ATOM     17  C   UNL A   1      31.755  24.782  26.169  1.00  0.00     0.076 A 
ATOM     18  C   UNL A   1      33.141  24.726  24.179  1.00  0.00     0.014 A 
ATOM     19  N   UNL A   1      30.827  24.287  26.994  1.00  0.00    -0.236 NA
ATOM     20  C   UNL A   1      32.244  26.059  26.420  1.00  0.00     0.029 A 
ATOM     21  C   UNL A   1      33.618  26.009  24.449  1.00  0.00     0.001 A 
ATOM     22  C   UNL A   1      33.190  26.666  25.592  1.00  0.00     0.002 A 
ENDBRANCH  11  13
ENDBRANCH   6  11
ENDBRANCH   4   6
ENDBRANCH   3   4
ENDBRANCH   2   3
ENDBRANCH   1   2
BRANCH   1  23
ATOM     23  O   UNL A   1      37.857  21.243  25.981  1.00  0.00    -0.458 OA
BRANCH  23  24
ATOM     24  C   UNL A   1      39.200  21.194  26.139  1.00  0.00     0.338 C 
ATOM     25  O   UNL A   1      39.950  20.317  25.749  1.00  0.00    -0.246 OA
BRANCH  24  26
ATOM     26  C   UNL A   1      39.696  22.422  26.791  1.00  0.00     0.060 A 
ATOM     27  C   UNL A   1      39.192  23.658  26.375  1.00  0.00     0.016 A 
ATOM     28  C   UNL A   1      40.768  22.373  27.682  1.00  0.00     0.016 A 
ATOM     29  C   UNL A   1      39.764  24.848  26.813  1.00  0.00     0.010 A 
ATOM     30  C   UNL A   1      41.335  23.571  28.138  1.00  0.00     0.010 A 
ATOM     31  C   UNL A   1      40.852  24.813  27.686  1.00  0.00    -0.014 A 
BRANCH  31  32
ATOM     32  C   UNL A   1      41.546  26.077  28.033  1.00  0.00     0.031 A 
ATOM     33  C   UNL A   1      40.803  27.133  28.798  1.00  0.00     0.074 A 
ATOM     34  C   UNL A   1      42.841  26.254  27.712  1.00  0.00     0.049 A 
ATOM     35  N   UNL A   1      41.160  28.359  29.081  1.00  0.00    -0.248 NA
ATOM     36  C   UNL A   1      39.479  26.754  29.314  1.00  0.00     0.031 C 
ATOM     37  C   UNL A   1      43.693  25.259  27.060  1.00  0.00     0.029 A 
ATOM     38  N   UNL A   1      43.662  27.339  27.884  1.00  0.00    -0.354 N 
ATOM     39  C   UNL A   1      40.093  28.911  29.782  1.00  0.00     0.074 A 
ATOM     40  C   UNL A   1      39.075  27.884  29.875  1.00  0.00     0.031 C 
ATOM     41  C   UNL A   1      44.916  25.785  26.878  1.00  0.00     0.029 A 
ATOM     42  C   UNL A   1      44.913  27.172  27.339  1.00  0.00     0.049 A 
ATOM     43  H   UNL A   1      43.383  28.158  28.354  1.00  0.00     0.167 HD
ATOM     44  C   UNL A   1      39.976  30.161  30.294  1.00  0.00     0.034 A 
ATOM     45  C   UNL A   1      45.921  28.052  27.184  1.00  0.00     0.034 A 
ATOM     46  C   UNL A   1      41.004  31.167  30.192  1.00  0.00     0.049 A 
ATOM     47  C   UNL A   1      45.732  29.467  27.668  1.00  0.00     0.074 A 
ATOM     48  C   UNL A   1      40.988  32.471  30.657  1.00  0.00     0.029 A 
ATOM     49  N   UNL A   1      42.236  30.981  29.579  1.00  0.00    -0.354 N 
ATOM     50  N   UNL A   1      44.694  30.002  28.268  1.00  0.00    -0.248 NA
ATOM     51  C   UNL A   1      46.845  30.398  27.444  1.00  0.00     0.031 C 
ATOM     52  C   UNL A   1      42.186  33.088  30.275  1.00  0.00     0.029 A 
ATOM     53  C   UNL A   1      42.977  32.152  29.628  1.00  0.00     0.049 A 
ATOM     54  H   UNL A   1      42.540  30.140  29.168  1.00  0.00     0.167 HD
ATOM     55  C   UNL A   1      45.037  31.330  28.509  1.00  0.00     0.074 A 
ATOM     56  C   UNL A   1      46.383  31.508  28.000  1.00  0.00     0.031 C 
ATOM     57  C   UNL A   1      44.311  32.313  29.099  1.00  0.00     0.034 A 
BRANCH  44  58
ATOM     58  C   UNL A   1      38.656  30.521  30.931  1.00  0.00     0.023 A 
ATOM     59  C   UNL A   1      37.619  31.129  30.204  1.00  0.00     0.031 A 
ATOM     60  C   UNL A   1      38.455  30.292  32.303  1.00  0.00     0.131 A 
ATOM     61  C   UNL A   1      36.456  31.550  30.867  1.00  0.00     0.055 A 
ATOM     62  C   UNL A   1      37.268  30.650  32.943  1.00  0.00     0.041 A 
ATOM     63  F   UNL A   1      39.421  29.736  33.051  1.00  0.00    -0.206 F 
ATOM     64  C   UNL A   1      36.265  31.296  32.227  1.00  0.00     0.022 A 
BRANCH  61  65
ATOM     65  S   UNL A   1      35.252  32.558  29.958  1.00  0.00     0.124 S 
ATOM     66  O   UNL A   1      34.816  31.631  28.916  1.00  0.00    -0.237 OA
ATOM     67  O   UNL A   1      34.266  32.875  30.985  1.00  0.00    -0.237 OA
ATOM     68  O   UNL A   1      36.042  33.691  29.480  1.00  0.00    -0.744 OA
ENDBRANCH  61  65
ENDBRANCH  44  58
BRANCH  45  69
ATOM     69  C   UNL A   1      47.167  27.654  26.468  1.00  0.00     0.023 A 
ATOM     70  C   UNL A   1      47.311  27.861  25.088  1.00  0.00     0.031 A 
ATOM     71  C   UNL A   1      48.215  27.014  27.155  1.00  0.00     0.131 A 
ATOM     72  C   UNL A   1      48.463  27.401  24.431  1.00  0.00     0.055 A 
ATOM     73  C   UNL A   1      49.378  26.601  26.506  1.00  0.00     0.041 A 
ATOM     74  F   UNL A   1      48.124  26.791  28.476  1.00  0.00    -0.206 F 
ATOM     75  C   UNL A   1      49.503  26.784  25.133  1.00  0.00     0.022 A 
BRANCH  72  76
ATOM     76  S   UNL A   1      48.557  27.557  22.627  1.00  0.00     0.124 S 
ATOM     77  O   UNL A   1      48.647  26.162  22.212  1.00  0.00    -0.237 OA
ATOM     78  O   UNL A   1      47.305  28.239  22.317  1.00  0.00    -0.237 OA
ATOM     79  O   UNL A   1      49.766  28.350  22.416  1.00  0.00    -0.744 OA
ENDBRANCH  72  76
ENDBRANCH  45  69
BRANCH  57  80
ATOM     80  C   UNL A   1      44.984  33.651  29.256  1.00  0.00     0.023 A 
ATOM     81  C   UNL A   1      45.016  34.588  28.209  1.00  0.00     0.031 A 
ATOM     82  C   UNL A   1      45.619  33.984  30.465  1.00  0.00     0.131 A 
ATOM     83  C   UNL A   1      45.713  35.795  28.373  1.00  0.00     0.055 A 
ATOM     84  C   UNL A   1      46.269  35.206  30.640  1.00  0.00     0.041 A 
ATOM     85  F   UNL A   1      45.618  33.122  31.495  1.00  0.00    -0.206 F 
ATOM     86  C   UNL A   1      46.328  36.115  29.587  1.00  0.00     0.022 A 
BRANCH  83  87
ATOM     87  S   UNL A   1      45.871  36.912  26.954  1.00  0.00     0.124 S 
ATOM     88  O   UNL A   1      46.083  35.978  25.853  1.00  0.00    -0.237 OA
ATOM     89  O   UNL A   1      44.590  37.609  26.959  1.00  0.00    -0.237 OA
ATOM     90  O   UNL A   1      47.027  37.740  27.295  1.00  0.00    -0.744 OA
ENDBRANCH  83  87
ENDBRANCH  57  80
ENDBRANCH  31  32
ENDBRANCH  24  26
ENDBRANCH  23  24
ENDBRANCH   1  23
TORSDOF 18
ENDMDL
MODEL 2
REMARK VINA RESULT:     -11.3      1.451      2.297
REMARK SMILES CC[C@H](C)[C@@H](Nc1ncnc2ccccc12)C(=O)OCCOC(=O)c1ccc(-c2c3nc(c(-c4cc(S(=O)(=O)[O-])ccc4F)c4ccc([nH]4)c(-c4cc(S(=O)(=O)[O-])ccc4F)c4nc(c(-c5cc(S(=O)(=O)[O-])ccc5F)c5ccc2[nH]5)C=C4)C=C3)cc1
REMARK SMILES IDX 21 1 20 2 19 3 17 4 18 5 5 6 3 7 4 8 2 9 1 10 6 11 7 13 8 14
REMARK SMILES IDX 16 15 9 16 11 17 15 18 10 19 12 20 14 21 13 22 22 23 23 24
REMARK SMILES IDX 24 25 25 26 26 27 87 28 27 29 86 30 28 31 29 32 30 33 80 34
REMARK SMILES IDX 31 35 85 36 79 37 81 38 32 39 84 40 78 41 77 42 33 44 65 45
REMARK SMILES IDX 45 46 64 47 46 48 49 49 63 50 82 51 47 52 48 53 62 55 83 56
REMARK SMILES IDX 50 57 34 58 35 59 43 60 36 61 42 62 44 63 41 64 37 65 38 66
REMARK SMILES IDX 39 67 40 68 66 69 67 70 75 71 68 72 74 73 76 74 73 75 69 76
REMARK SMILES IDX 70 77 71 78 72 79 51 80 52 81 60 82 53 83 59 84 61 85 58 86
REMARK SMILES IDX 54 87 55 88 56 89 57 90
REMARK H PARENT 6 12 81 43 49 54
REMARK Flexibility Score: inf
ROOT
ATOM      1  C   UNL A   1      37.229  21.490  24.377  1.00  0.00     0.275 C 
ENDROOT
BRANCH   1   2
ATOM      2  C   UNL A   1      36.606  22.740  23.733  1.00  0.00     0.274 C 
BRANCH   2   3
ATOM      3  O   UNL A   1      35.193  22.895  23.994  1.00  0.00    -0.461 OA
BRANCH   3   4
ATOM      4  C   UNL A   1      34.884  24.029  24.675  1.00  0.00     0.328 C 
ATOM      5  O   UNL A   1      35.475  24.385  25.689  1.00  0.00    -0.250 OA
BRANCH   4   6
ATOM      6  C   UNL A   1      33.679  24.814  24.122  1.00  0.00     0.194 C 
BRANCH   6   7
ATOM      7  C   UNL A   1      32.923  24.083  22.961  1.00  0.00     0.019 C 
ATOM      8  C   UNL A   1      31.675  23.367  23.506  1.00  0.00     0.010 C 
BRANCH   7   9
ATOM      9  C   UNL A   1      32.538  25.056  21.818  1.00  0.00     0.002 C 
ATOM     10  C   UNL A   1      33.372  26.324  21.706  1.00  0.00     0.004 C 
ENDBRANCH   7   9
ENDBRANCH   6   7
BRANCH   6  11
ATOM     11  N   UNL A   1      32.719  25.238  25.170  1.00  0.00    -0.356 N 
ATOM     12  H   UNL A   1      32.270  24.530  25.685  1.00  0.00     0.163 HD
BRANCH  11  13
ATOM     13  C   UNL A   1      32.405  26.543  25.482  1.00  0.00     0.137 A 
ATOM     14  N   UNL A   1      33.162  27.000  26.493  1.00  0.00    -0.219 NA
ATOM     15  C   UNL A   1      31.473  27.363  24.819  1.00  0.00     0.043 A 
ATOM     16  C   UNL A   1      33.078  28.304  26.762  1.00  0.00     0.224 A 
ATOM     17  C   UNL A   1      31.557  28.727  25.132  1.00  0.00     0.076 A 
ATOM     18  C   UNL A   1      30.497  26.942  23.879  1.00  0.00     0.014 A 
ATOM     19  N   UNL A   1      32.350  29.204  26.097  1.00  0.00    -0.236 NA
ATOM     20  C   UNL A   1      30.798  29.633  24.399  1.00  0.00     0.029 A 
ATOM     21  C   UNL A   1      29.745  27.866  23.155  1.00  0.00     0.001 A 
ATOM     22  C   UNL A   1      29.919  29.221  23.396  1.00  0.00     0.002 A 
ENDBRANCH  11  13
ENDBRANCH   6  11
ENDBRANCH   4   6
ENDBRANCH   3   4
ENDBRANCH   2   3
ENDBRANCH   1   2
BRANCH   1  23
ATOM     23  O   UNL A   1      37.561  21.697  25.766  1.00  0.00    -0.458 OA
BRANCH  23  24
ATOM     24  C   UNL A   1      38.863  21.530  26.096  1.00  0.00     0.338 C 
ATOM     25  O   UNL A   1      39.567  20.572  25.833  1.00  0.00    -0.246 OA
BRANCH  24  26
ATOM     26  C   UNL A   1      39.390  22.735  26.768  1.00  0.00     0.060 A 
ATOM     27  C   UNL A   1      38.913  23.989  26.378  1.00  0.00     0.016 A 
ATOM     28  C   UNL A   1      40.466  22.644  27.651  1.00  0.00     0.016 A 
ATOM     29  C   UNL A   1      39.515  25.157  26.835  1.00  0.00     0.010 A 
ATOM     30  C   UNL A   1      41.064  23.820  28.126  1.00  0.00     0.010 A 
ATOM     31  C   UNL A   1      40.607  25.082  27.700  1.00  0.00    -0.014 A 
BRANCH  31  32
ATOM     32  C   UNL A   1      41.332  26.322  28.067  1.00  0.00     0.031 A 
ATOM     33  C   UNL A   1      40.609  27.392  28.831  1.00  0.00     0.074 A 
ATOM     34  C   UNL A   1      42.635  26.466  27.762  1.00  0.00     0.049 A 
ATOM     35  N   UNL A   1      40.997  28.605  29.130  1.00  0.00    -0.248 NA
ATOM     36  C   UNL A   1      39.270  27.046  29.329  1.00  0.00     0.031 C 
ATOM     37  C   UNL A   1      43.467  25.453  27.111  1.00  0.00     0.029 A 
ATOM     38  N   UNL A   1      43.484  27.525  27.953  1.00  0.00    -0.354 N 
ATOM     39  C   UNL A   1      39.938  29.180  29.823  1.00  0.00     0.074 A 
ATOM     40  C   UNL A   1      38.891  28.182  29.895  1.00  0.00     0.031 C 
ATOM     41  C   UNL A   1      44.706  25.946  26.948  1.00  0.00     0.029 A 
ATOM     42  C   UNL A   1      44.736  27.328  27.421  1.00  0.00     0.049 A 
ATOM     43  H   UNL A   1      43.223  28.348  28.427  1.00  0.00     0.167 HD
ATOM     44  C   UNL A   1      39.850  30.429  30.345  1.00  0.00     0.034 A 
ATOM     45  C   UNL A   1      45.770  28.181  27.286  1.00  0.00     0.034 A 
ATOM     46  C   UNL A   1      40.906  31.407  30.264  1.00  0.00     0.049 A 
ATOM     47  C   UNL A   1      45.615  29.596  27.780  1.00  0.00     0.074 A 
ATOM     48  C   UNL A   1      40.922  32.707  30.740  1.00  0.00     0.029 A 
ATOM     49  N   UNL A   1      42.141  31.191  29.664  1.00  0.00    -0.354 N 
ATOM     50  N   UNL A   1      44.585  30.155  28.373  1.00  0.00    -0.248 NA
ATOM     51  C   UNL A   1      46.756  30.497  27.578  1.00  0.00     0.031 C 
ATOM     52  C   UNL A   1      42.141  33.293  30.377  1.00  0.00     0.029 A 
ATOM     53  C   UNL A   1      42.913  32.341  29.732  1.00  0.00     0.049 A 
ATOM     54  H   UNL A   1      42.426  30.346  29.249  1.00  0.00     0.167 HD
ATOM     55  C   UNL A   1      44.963  31.470  28.629  1.00  0.00     0.074 A 
ATOM     56  C   UNL A   1      46.319  31.615  28.138  1.00  0.00     0.031 C 
ATOM     57  C   UNL A   1      44.257  32.469  29.220  1.00  0.00     0.034 A 
BRANCH  44  58
ATOM     58  C   UNL A   1      38.533  30.820  30.969  1.00  0.00     0.023 A 
ATOM     59  C   UNL A   1      37.496  31.401  30.220  1.00  0.00     0.031 A 
ATOM     60  C   UNL A   1      38.336  30.652  32.351  1.00  0.00     0.131 A 
ATOM     61  C   UNL A   1      36.336  31.854  30.867  1.00  0.00     0.055 A 
ATOM     62  C   UNL A   1      37.152  31.041  32.978  1.00  0.00     0.041 A 
ATOM     63  F   UNL A   1      39.302  30.126  33.119  1.00  0.00    -0.206 F 
ATOM     64  C   UNL A   1      36.148  31.659  32.238  1.00  0.00     0.022 A 
BRANCH  61  65
ATOM     65  S   UNL A   1      35.133  32.825  29.919  1.00  0.00     0.124 S 
ATOM     66  O   UNL A   1      34.682  31.852  28.927  1.00  0.00    -0.237 OA
ATOM     67  O   UNL A   1      34.157  33.200  30.937  1.00  0.00    -0.237 OA
ATOM     68  O   UNL A   1      35.927  33.928  29.382  1.00  0.00    -0.744 OA
ENDBRANCH  61  65
ENDBRANCH  44  58
BRANCH  45  69
ATOM     69  C   UNL A   1      47.012  27.754  26.581  1.00  0.00     0.023 A 
ATOM     70  C   UNL A   1      47.155  27.916  25.195  1.00  0.00     0.031 A 
ATOM     71  C   UNL A   1      48.058  27.131  27.287  1.00  0.00     0.131 A 
ATOM     72  C   UNL A   1      48.304  27.430  24.551  1.00  0.00     0.055 A 
ATOM     73  C   UNL A   1      49.219  26.691  26.649  1.00  0.00     0.041 A 
ATOM     74  F   UNL A   1      47.969  26.950  28.614  1.00  0.00    -0.206 F 
ATOM     75  C   UNL A   1      49.342  26.830  25.271  1.00  0.00     0.022 A 
BRANCH  72  76
ATOM     76  S   UNL A   1      48.396  27.528  22.743  1.00  0.00     0.124 S 
ATOM     77  O   UNL A   1      48.414  26.118  22.369  1.00  0.00    -0.237 OA
ATOM     78  O   UNL A   1      47.178  28.263  22.418  1.00  0.00    -0.237 OA
ATOM     79  O   UNL A   1      49.642  28.253  22.503  1.00  0.00    -0.744 OA
ENDBRANCH  72  76
ENDBRANCH  45  69
BRANCH  57  80
ATOM     80  C   UNL A   1      44.966  33.786  29.396  1.00  0.00     0.023 A 
ATOM     81  C   UNL A   1      44.985  34.755  28.379  1.00  0.00     0.031 A 
ATOM     82  C   UNL A   1      45.648  34.065  30.592  1.00  0.00     0.131 A 
ATOM     83  C   UNL A   1      45.714  35.941  28.558  1.00  0.00     0.055 A 
ATOM     84  C   UNL A   1      46.331  35.266  30.785  1.00  0.00     0.041 A 
ATOM     85  F   UNL A   1      45.661  33.171  31.595  1.00  0.00    -0.206 F 
ATOM     86  C   UNL A   1      46.376  36.207  29.759  1.00  0.00     0.022 A 
BRANCH  83  87
ATOM     87  S   UNL A   1      45.851  37.100  27.170  1.00  0.00     0.124 S 
ATOM     88  O   UNL A   1      46.289  36.227  26.086  1.00  0.00    -0.237 OA
ATOM     89  O   UNL A   1      44.492  37.618  27.060  1.00  0.00    -0.237 OA
ATOM     90  O   UNL A   1      46.847  38.068  27.628  1.00  0.00    -0.744 OA
ENDBRANCH  83  87
ENDBRANCH  57  80
ENDBRANCH  31  32
ENDBRANCH  24  26
ENDBRANCH  23  24
ENDBRANCH   1  23
TORSDOF 18
ENDMDL
MODEL 3
REMARK VINA RESULT:     -11.2      5.087     10.057
REMARK SMILES CC[C@H](C)[C@@H](Nc1ncnc2ccccc12)C(=O)OCCOC(=O)c1ccc(-c2c3nc(c(-c4cc(S(=O)(=O)[O-])ccc4F)c4ccc([nH]4)c(-c4cc(S(=O)(=O)[O-])ccc4F)c4nc(c(-c5cc(S(=O)(=O)[O-])ccc5F)c5ccc2[nH]5)C=C4)C=C3)cc1
REMARK SMILES IDX 21 1 20 2 19 3 17 4 18 5 5 6 3 7 4 8 2 9 1 10 6 11 7 13 8 14
REMARK SMILES IDX 16 15 9 16 11 17 15 18 10 19 12 20 14 21 13 22 22 23 23 24
REMARK SMILES IDX 24 25 25 26 26 27 87 28 27 29 86 30 28 31 29 32 30 33 80 34
REMARK SMILES IDX 31 35 85 36 79 37 81 38 32 39 84 40 78 41 77 42 33 44 65 45
REMARK SMILES IDX 45 46 64 47 46 48 49 49 63 50 82 51 47 52 48 53 62 55 83 56
REMARK SMILES IDX 50 57 34 58 35 59 43 60 36 61 42 62 44 63 41 64 37 65 38 66
REMARK SMILES IDX 39 67 40 68 66 69 67 70 75 71 68 72 74 73 76 74 73 75 69 76
REMARK SMILES IDX 70 77 71 78 72 79 51 80 52 81 60 82 53 83 59 84 61 85 58 86
REMARK SMILES IDX 54 87 55 88 56 89 57 90
REMARK H PARENT 6 12 81 43 49 54
REMARK Flexibility Score: inf
ROOT
ATOM      1  C   UNL A   1      31.807  29.958  25.484  1.00  0.00     0.275 C 
ENDROOT
BRANCH   1   2
ATOM      2  C   UNL A   1      32.763  29.239  24.518  1.00  0.00     0.274 C 
BRANCH   2   3
ATOM      3  O   UNL A   1      32.096  28.470  23.492  1.00  0.00    -0.461 OA
BRANCH   3   4
ATOM      4  C   UNL A   1      32.777  27.358  23.113  1.00  0.00     0.328 C 
ATOM      5  O   UNL A   1      33.655  27.368  22.256  1.00  0.00    -0.250 OA
BRANCH   4   6
ATOM      6  C   UNL A   1      32.320  26.051  23.789  1.00  0.00     0.194 C 
BRANCH   6   7
ATOM      7  C   UNL A   1      30.769  25.941  23.976  1.00  0.00     0.019 C 
ATOM      8  C   UNL A   1      30.277  24.552  23.534  1.00  0.00     0.010 C 
BRANCH   7   9
ATOM      9  C   UNL A   1      30.339  26.232  25.436  1.00  0.00     0.002 C 
ATOM     10  C   UNL A   1      31.459  26.298  26.465  1.00  0.00     0.004 C 
ENDBRANCH   7   9
ENDBRANCH   6   7
BRANCH   6  11
ATOM     11  N   UNL A   1      32.844  24.830  23.129  1.00  0.00    -0.356 N 
ATOM     12  H   UNL A   1      32.550  24.654  22.206  1.00  0.00     0.163 HD
BRANCH  11  13
ATOM     13  C   UNL A   1      33.708  23.923  23.702  1.00  0.00     0.137 A 
ATOM     14  N   UNL A   1      34.778  24.536  24.234  1.00  0.00    -0.219 NA
ATOM     15  C   UNL A   1      33.515  22.533  23.809  1.00  0.00     0.043 A 
ATOM     16  C   UNL A   1      35.593  23.783  24.975  1.00  0.00     0.224 A 
ATOM     17  C   UNL A   1      34.387  21.881  24.693  1.00  0.00     0.076 A 
ATOM     18  C   UNL A   1      32.535  21.762  23.132  1.00  0.00     0.014 A 
ATOM     19  N   UNL A   1      35.423  22.494  25.276  1.00  0.00    -0.236 NA
ATOM     20  C   UNL A   1      34.160  20.543  24.996  1.00  0.00     0.029 A 
ATOM     21  C   UNL A   1      32.325  20.421  23.450  1.00  0.00     0.001 A 
ATOM     22  C   UNL A   1      33.123  19.817  24.409  1.00  0.00     0.002 A 
ENDBRANCH  11  13
ENDBRANCH   6  11
ENDBRANCH   4   6
ENDBRANCH   3   4
ENDBRANCH   2   3
ENDBRANCH   1   2
BRANCH   1  23
ATOM     23  O   UNL A   1      32.329  30.019  26.828  1.00  0.00    -0.458 OA
BRANCH  23  24
ATOM     24  C   UNL A   1      32.946  31.173  27.173  1.00  0.00     0.338 C 
ATOM     25  O   UNL A   1      32.454  32.287  27.195  1.00  0.00    -0.246 OA
BRANCH  24  26
ATOM     26  C   UNL A   1      34.326  30.912  27.629  1.00  0.00     0.060 A 
ATOM     27  C   UNL A   1      34.692  29.604  27.960  1.00  0.00     0.016 A 
ATOM     28  C   UNL A   1      35.200  31.966  27.894  1.00  0.00     0.016 A 
ATOM     29  C   UNL A   1      35.909  29.336  28.578  1.00  0.00     0.010 A 
ATOM     30  C   UNL A   1      36.434  31.697  28.502  1.00  0.00     0.010 A 
ATOM     31  C   UNL A   1      36.783  30.384  28.870  1.00  0.00    -0.014 A 
BRANCH  31  32
ATOM     32  C   UNL A   1      38.009  30.110  29.657  1.00  0.00     0.031 A 
ATOM     33  C   UNL A   1      39.050  29.188  29.092  1.00  0.00     0.074 A 
ATOM     34  C   UNL A   1      38.210  30.719  30.840  1.00  0.00     0.049 A 
ATOM     35  N   UNL A   1      40.121  28.697  29.660  1.00  0.00    -0.248 NA
ATOM     36  C   UNL A   1      38.858  28.765  27.697  1.00  0.00     0.031 C 
ATOM     37  C   UNL A   1      37.318  31.711  31.442  1.00  0.00     0.029 A 
ATOM     38  N   UNL A   1      39.227  30.586  31.750  1.00  0.00    -0.354 N 
ATOM     39  C   UNL A   1      40.716  27.882  28.704  1.00  0.00     0.074 A 
ATOM     40  C   UNL A   1      39.881  27.942  27.522  1.00  0.00     0.031 C 
ATOM     41  C   UNL A   1      37.823  32.088  32.629  1.00  0.00     0.029 A 
ATOM     42  C   UNL A   1      39.035  31.319  32.898  1.00  0.00     0.049 A 
ATOM     43  H   UNL A   1      40.019  30.021  31.597  1.00  0.00     0.167 HD
ATOM     44  C   UNL A   1      41.851  27.147  28.809  1.00  0.00     0.034 A 
ATOM     45  C   UNL A   1      39.730  31.328  34.053  1.00  0.00     0.034 A 
ATOM     46  C   UNL A   1      42.669  27.104  29.996  1.00  0.00     0.049 A 
ATOM     47  C   UNL A   1      40.931  30.427  34.186  1.00  0.00     0.074 A 
ATOM     48  C   UNL A   1      43.830  26.383  30.222  1.00  0.00     0.029 A 
ATOM     49  N   UNL A   1      42.411  27.814  31.162  1.00  0.00    -0.354 N 
ATOM     50  N   UNL A   1      41.448  29.604  33.302  1.00  0.00    -0.248 NA
ATOM     51  C   UNL A   1      41.633  30.446  35.475  1.00  0.00     0.031 C 
ATOM     52  C   UNL A   1      44.239  26.612  31.542  1.00  0.00     0.029 A 
ATOM     53  C   UNL A   1      43.372  27.526  32.119  1.00  0.00     0.049 A 
ATOM     54  H   UNL A   1      41.655  28.430  31.291  1.00  0.00     0.167 HD
ATOM     55  C   UNL A   1      42.549  29.021  33.925  1.00  0.00     0.074 A 
ATOM     56  C   UNL A   1      42.626  29.597  35.254  1.00  0.00     0.031 C 
ATOM     57  C   UNL A   1      43.420  28.098  33.445  1.00  0.00     0.034 A 
BRANCH  44  58
ATOM     58  C   UNL A   1      42.214  26.273  27.634  1.00  0.00     0.023 A 
ATOM     59  C   UNL A   1      41.790  24.937  27.541  1.00  0.00     0.031 A 
ATOM     60  C   UNL A   1      43.041  26.777  26.615  1.00  0.00     0.131 A 
ATOM     61  C   UNL A   1      42.250  24.131  26.487  1.00  0.00     0.055 A 
ATOM     62  C   UNL A   1      43.439  25.991  25.534  1.00  0.00     0.041 A 
ATOM     63  F   UNL A   1      43.495  28.039  26.666  1.00  0.00    -0.206 F 
ATOM     64  C   UNL A   1      43.055  24.654  25.472  1.00  0.00     0.022 A 
BRANCH  61  65
ATOM     65  S   UNL A   1      41.897  22.352  26.534  1.00  0.00     0.124 S 
ATOM     66  O   UNL A   1      42.634  21.873  25.367  1.00  0.00    -0.237 OA
ATOM     67  O   UNL A   1      42.428  21.958  27.833  1.00  0.00    -0.237 OA
ATOM     68  O   UNL A   1      40.442  22.287  26.410  1.00  0.00    -0.744 OA
ENDBRANCH  61  65
ENDBRANCH  44  58
BRANCH  45  69
ATOM     69  C   UNL A   1      39.266  32.152  35.205  1.00  0.00     0.023 A 
ATOM     70  C   UNL A   1      39.718  33.467  35.387  1.00  0.00     0.031 A 
ATOM     71  C   UNL A   1      38.397  31.610  36.169  1.00  0.00     0.131 A 
ATOM     72  C   UNL A   1      39.324  34.187  36.526  1.00  0.00     0.055 A 
ATOM     73  C   UNL A   1      37.972  32.346  37.275  1.00  0.00     0.041 A 
ATOM     74  F   UNL A   1      37.939  30.354  36.042  1.00  0.00    -0.206 F 
ATOM     75  C   UNL A   1      38.445  33.640  37.465  1.00  0.00     0.022 A 
BRANCH  72  76
ATOM     76  S   UNL A   1      40.036  35.832  36.805  1.00  0.00     0.124 S 
ATOM     77  O   UNL A   1      41.453  35.522  36.958  1.00  0.00    -0.237 OA
ATOM     78  O   UNL A   1      39.661  36.534  35.583  1.00  0.00    -0.237 OA
ATOM     79  O   UNL A   1      39.364  36.293  38.018  1.00  0.00    -0.744 OA
ENDBRANCH  72  76
ENDBRANCH  45  69
BRANCH  57  80
ATOM     80  C   UNL A   1      44.548  27.693  34.356  1.00  0.00     0.023 A 
ATOM     81  C   UNL A   1      44.429  26.607  35.240  1.00  0.00     0.031 A 
ATOM     82  C   UNL A   1      45.752  28.417  34.353  1.00  0.00     0.131 A 
ATOM     83  C   UNL A   1      45.478  26.305  36.121  1.00  0.00     0.055 A 
ATOM     84  C   UNL A   1      46.812  28.083  35.196  1.00  0.00     0.041 A 
ATOM     85  F   UNL A   1      45.916  29.465  33.528  1.00  0.00    -0.206 F 
ATOM     86  C   UNL A   1      46.674  27.029  36.096  1.00  0.00     0.022 A 
BRANCH  83  87
ATOM     87  S   UNL A   1      45.233  25.001  37.357  1.00  0.00     0.124 S 
ATOM     88  O   UNL A   1      43.783  24.836  37.343  1.00  0.00    -0.237 OA
ATOM     89  O   UNL A   1      46.006  23.895  36.802  1.00  0.00    -0.237 OA
ATOM     90  O   UNL A   1      45.779  25.582  38.583  1.00  0.00    -0.744 OA
ENDBRANCH  83  87
ENDBRANCH  57  80
ENDBRANCH  31  32
ENDBRANCH  24  26
ENDBRANCH  23  24
ENDBRANCH   1  23
TORSDOF 18
ENDMDL
