MODEL 1
REMARK VINA RESULT:     -12.2      0.000      0.000
REMARK SMILES CCC(CC)(NC(=O)Nc1cc(Cl)cc(Cl)c1)C(=O)OCCOC(=O)c1ccc(-c2c3nc(c(-c4cc(S(=O)(=O)[O-])ccc4F)c4ccc([nH]4)c(-c4cc(S(=O)(=O)[O-])ccc4F)c4nc(c(-c5cc(S(=O)(=O)[O-])ccc5F)c5ccc2[nH]5)C=C4)C=C3)cc1
REMARK SMILES IDX 22 1 21 2 20 3 18 4 19 5 3 6 2 7 1 8 4 9 5 10 6 11 7 12 8 14
REMARK SMILES IDX 9 15 10 17 11 18 17 19 12 20 15 21 13 22 14 23 16 24 23 25
REMARK SMILES IDX 24 26 25 27 26 28 27 29 88 30 28 31 87 32 29 33 30 34 31 35
REMARK SMILES IDX 81 36 32 37 86 38 80 39 82 40 33 41 85 42 79 43 78 44 34 46
REMARK SMILES IDX 66 47 46 48 65 49 47 50 50 51 64 52 83 53 48 54 49 55 63 57
REMARK SMILES IDX 84 58 51 59 35 60 36 61 44 62 37 63 43 64 45 65 42 66 38 67
REMARK SMILES IDX 39 68 40 69 41 70 67 71 68 72 76 73 69 74 75 75 77 76 74 77
REMARK SMILES IDX 70 78 71 79 72 80 73 81 52 82 53 83 61 84 54 85 60 86 62 87
REMARK SMILES IDX 59 88 55 89 56 90 57 91 58 92
REMARK H PARENT 6 13 9 16 82 45 50 56
REMARK Flexibility Score: inf
ROOT
ATOM      1  C   UNL A   1      35.558  21.388  24.522  1.00  0.00     0.275 C 
ENDROOT
BRANCH   1   2
ATOM      2  C   UNL A   1      34.189  20.434  24.540  1.00  0.00     0.274 C 
BRANCH   2   3
ATOM      3  O   UNL A   1      33.250  20.573  25.700  1.00  0.00    -0.460 OA
BRANCH   3   4
ATOM      4  C   UNL A   1      33.132  21.700  26.551  1.00  0.00     0.332 C 
ATOM      5  O   UNL A   1      33.640  21.708  27.670  1.00  0.00    -0.249 OA
BRANCH   4   6
ATOM      6  C   UNL A   1      32.127  22.975  25.953  1.00  0.00     0.139 C 
BRANCH   6   7
ATOM      7  C   UNL A   1      31.278  23.293  24.630  1.00  0.00     0.037 C 
ATOM      8  C   UNL A   1      31.546  22.775  23.246  1.00  0.00     0.007 C 
ENDBRANCH   6   7
BRANCH   6   9
ATOM      9  C   UNL A   1      32.858  24.276  26.381  1.00  0.00     0.037 C 
ATOM     10  C   UNL A   1      33.986  24.830  25.507  1.00  0.00     0.007 C 
ENDBRANCH   6   9
BRANCH   6  11
ATOM     11  N   UNL A   1      31.032  22.556  26.743  1.00  0.00    -0.322 N 
ATOM     12  C   UNL A   1      30.084  23.472  27.019  1.00  0.00     0.320 C 
ATOM     13  H   UNL A   1      30.965  21.633  27.078  1.00  0.00     0.166 HD
ATOM     14  O   UNL A   1      29.116  23.043  27.653  1.00  0.00    -0.248 OA
ATOM     15  N   UNL A   1      30.130  24.807  26.608  1.00  0.00    -0.308 N 
ATOM     16  H   UNL A   1      29.435  25.215  27.174  1.00  0.00     0.171 HD
BRANCH  15  17
ATOM     17  C   UNL A   1      30.596  25.949  25.841  1.00  0.00     0.045 A 
ATOM     18  C   UNL A   1      30.424  26.304  24.503  1.00  0.00     0.046 A 
ATOM     19  C   UNL A   1      31.220  26.956  26.619  1.00  0.00     0.046 A 
ATOM     20  C   UNL A   1      30.813  27.565  23.993  1.00  0.00     0.044 A 
ATOM     21  C   UNL A   1      31.642  28.193  26.112  1.00  0.00     0.044 A 
ATOM     22  Cl  UNL A   1      30.463  27.967  22.350  1.00  0.00    -0.084 Cl
ATOM     23  C   UNL A   1      31.442  28.508  24.786  1.00  0.00     0.041 A 
ATOM     24  Cl  UNL A   1      32.370  29.342  27.166  1.00  0.00    -0.084 Cl
ENDBRANCH  15  17
ENDBRANCH   6  11
ENDBRANCH   4   6
ENDBRANCH   3   4
ENDBRANCH   2   3
ENDBRANCH   1   2
BRANCH   1  25
ATOM     25  O   UNL A   1      36.524  21.310  25.692  1.00  0.00    -0.458 OA
BRANCH  25  26
ATOM     26  C   UNL A   1      37.893  21.047  25.592  1.00  0.00     0.338 C 
ATOM     27  O   UNL A   1      38.350  20.019  25.138  1.00  0.00    -0.246 OA
BRANCH  26  28
ATOM     28  C   UNL A   1      38.780  22.216  26.168  1.00  0.00     0.060 A 
ATOM     29  C   UNL A   1      38.504  23.578  25.930  1.00  0.00     0.016 A 
ATOM     30  C   UNL A   1      39.933  21.998  26.923  1.00  0.00     0.016 A 
ATOM     31  C   UNL A   1      39.159  24.663  26.545  1.00  0.00     0.010 A 
ATOM     32  C   UNL A   1      40.688  23.099  27.463  1.00  0.00     0.010 A 
ATOM     33  C   UNL A   1      40.294  24.449  27.307  1.00  0.00    -0.014 A 
BRANCH  33  34
ATOM     34  C   UNL A   1      41.162  25.641  27.632  1.00  0.00     0.031 A 
ATOM     35  C   UNL A   1      40.573  26.719  28.515  1.00  0.00     0.074 A 
ATOM     36  C   UNL A   1      42.480  25.738  27.333  1.00  0.00     0.049 A 
ATOM     37  N   UNL A   1      41.038  27.904  28.824  1.00  0.00    -0.248 NA
ATOM     38  C   UNL A   1      39.287  26.396  29.149  1.00  0.00     0.031 C 
ATOM     39  C   UNL A   1      43.286  24.712  26.672  1.00  0.00     0.029 A 
ATOM     40  N   UNL A   1      43.383  26.762  27.557  1.00  0.00    -0.354 N 
ATOM     41  C   UNL A   1      40.078  28.487  29.648  1.00  0.00     0.074 A 
ATOM     42  C   UNL A   1      39.009  27.520  29.790  1.00  0.00     0.031 C 
ATOM     43  C   UNL A   1      44.546  25.169  26.520  1.00  0.00     0.029 A 
ATOM     44  C   UNL A   1      44.634  26.546  27.011  1.00  0.00     0.049 A 
ATOM     45  H   UNL A   1      43.155  27.576  28.063  1.00  0.00     0.167 HD
ATOM     46  C   UNL A   1      40.077  29.713  30.229  1.00  0.00     0.034 A 
ATOM     47  C   UNL A   1      45.704  27.367  26.871  1.00  0.00     0.034 A 
ATOM     48  C   UNL A   1      41.150  30.670  30.115  1.00  0.00     0.049 A 
ATOM     49  C   UNL A   1      45.623  28.795  27.387  1.00  0.00     0.074 A 
ATOM     50  C   UNL A   1      41.215  31.955  30.629  1.00  0.00     0.029 A 
ATOM     51  N   UNL A   1      42.349  30.450  29.453  1.00  0.00    -0.354 N 
ATOM     52  N   UNL A   1      44.658  29.381  28.059  1.00  0.00    -0.248 NA
ATOM     53  C   UNL A   1      46.773  29.674  27.116  1.00  0.00     0.031 C 
ATOM     54  C   UNL A   1      42.419  32.537  30.215  1.00  0.00     0.029 A 
ATOM     55  C   UNL A   1      43.145  31.585  29.520  1.00  0.00     0.049 A 
ATOM     56  H   UNL A   1      42.600  29.612  29.002  1.00  0.00     0.167 HD
ATOM     57  C   UNL A   1      45.104  30.679  28.315  1.00  0.00     0.074 A 
ATOM     58  C   UNL A   1      46.430  30.784  27.750  1.00  0.00     0.031 C 
ATOM     59  C   UNL A   1      44.470  31.695  28.958  1.00  0.00     0.034 A 
BRANCH  46  60
ATOM     60  C   UNL A   1      38.827  30.127  30.968  1.00  0.00     0.023 A 
ATOM     61  C   UNL A   1      37.804  30.872  30.359  1.00  0.00     0.031 A 
ATOM     62  C   UNL A   1      38.673  29.779  32.323  1.00  0.00     0.131 A 
ATOM     63  C   UNL A   1      36.704  31.296  31.120  1.00  0.00     0.055 A 
ATOM     64  C   UNL A   1      37.539  30.135  33.052  1.00  0.00     0.041 A 
ATOM     65  F   UNL A   1      39.630  29.089  32.965  1.00  0.00    -0.206 F 
ATOM     66  C   UNL A   1      36.550  30.910  32.454  1.00  0.00     0.022 A 
BRANCH  63  67
ATOM     67  S   UNL A   1      35.539  32.474  30.381  1.00  0.00     0.124 S 
ATOM     68  O   UNL A   1      34.416  32.401  31.313  1.00  0.00    -0.237 OA
ATOM     69  O   UNL A   1      36.299  33.719  30.393  1.00  0.00    -0.237 OA
ATOM     70  O   UNL A   1      35.279  31.914  29.056  1.00  0.00    -0.744 OA
ENDBRANCH  63  67
ENDBRANCH  46  60
BRANCH  47  71
ATOM     71  C   UNL A   1      46.928  26.940  26.108  1.00  0.00     0.023 A 
ATOM     72  C   UNL A   1      48.006  26.288  26.735  1.00  0.00     0.031 A 
ATOM     73  C   UNL A   1      47.094  27.314  24.760  1.00  0.00     0.131 A 
ATOM     74  C   UNL A   1      49.213  26.088  26.038  1.00  0.00     0.055 A 
ATOM     75  C   UNL A   1      48.270  27.050  24.052  1.00  0.00     0.041 A 
ATOM     76  F   UNL A   1      46.119  27.968  24.110  1.00  0.00    -0.206 F 
ATOM     77  C   UNL A   1      49.345  26.449  24.697  1.00  0.00     0.022 A 
BRANCH  74  78
ATOM     78  S   UNL A   1      50.662  25.470  26.946  1.00  0.00     0.124 S 
ATOM     79  O   UNL A   1      50.100  24.328  27.658  1.00  0.00    -0.237 OA
ATOM     80  O   UNL A   1      51.588  25.160  25.863  1.00  0.00    -0.237 OA
ATOM     81  O   UNL A   1      51.046  26.603  27.787  1.00  0.00    -0.744 OA
ENDBRANCH  74  78
ENDBRANCH  47  71
BRANCH  59  82
ATOM     82  C   UNL A   1      45.229  32.992  29.139  1.00  0.00     0.023 A 
ATOM     83  C   UNL A   1      45.059  34.084  28.269  1.00  0.00     0.031 A 
ATOM     84  C   UNL A   1      46.153  33.132  30.192  1.00  0.00     0.131 A 
ATOM     85  C   UNL A   1      45.848  35.236  28.425  1.00  0.00     0.055 A 
ATOM     86  C   UNL A   1      46.884  34.306  30.384  1.00  0.00     0.041 A 
ATOM     87  F   UNL A   1      46.363  32.124  31.056  1.00  0.00    -0.206 F 
ATOM     88  C   UNL A   1      46.746  35.360  29.488  1.00  0.00     0.022 A 
BRANCH  85  89
ATOM     89  S   UNL A   1      45.769  36.527  27.152  1.00  0.00     0.124 S 
ATOM     90  O   UNL A   1      44.426  36.341  26.614  1.00  0.00    -0.237 OA
ATOM     91  O   UNL A   1      45.983  37.744  27.928  1.00  0.00    -0.237 OA
ATOM     92  O   UNL A   1      46.856  36.176  26.239  1.00  0.00    -0.744 OA
ENDBRANCH  85  89
ENDBRANCH  59  82
ENDBRANCH  33  34
ENDBRANCH  26  28
ENDBRANCH  25  26
ENDBRANCH   1  25
TORSDOF 18
ENDMDL
MODEL 2
REMARK VINA RESULT:     -12.0      4.921      9.941
REMARK SMILES CCC(CC)(NC(=O)Nc1cc(Cl)cc(Cl)c1)C(=O)OCCOC(=O)c1ccc(-c2c3nc(c(-c4cc(S(=O)(=O)[O-])ccc4F)c4ccc([nH]4)c(-c4cc(S(=O)(=O)[O-])ccc4F)c4nc(c(-c5cc(S(=O)(=O)[O-])ccc5F)c5ccc2[nH]5)C=C4)C=C3)cc1
REMARK SMILES IDX 22 1 21 2 20 3 18 4 19 5 3 6 2 7 1 8 4 9 5 10 6 11 7 12 8 14
REMARK SMILES IDX 9 15 10 17 11 18 17 19 12 20 15 21 13 22 14 23 16 24 23 25
REMARK SMILES IDX 24 26 25 27 26 28 27 29 88 30 28 31 87 32 29 33 30 34 31 35
REMARK SMILES IDX 81 36 32 37 86 38 80 39 82 40 33 41 85 42 79 43 78 44 34 46
REMARK SMILES IDX 66 47 46 48 65 49 47 50 50 51 64 52 83 53 48 54 49 55 63 57
REMARK SMILES IDX 84 58 51 59 35 60 36 61 44 62 37 63 43 64 45 65 42 66 38 67
REMARK SMILES IDX 39 68 40 69 41 70 67 71 68 72 76 73 69 74 75 75 77 76 74 77
REMARK SMILES IDX 70 78 71 79 72 80 73 81 52 82 53 83 61 84 54 85 60 86 62 87
REMARK SMILES IDX 59 88 55 89 56 90 57 91 58 92
REMARK H PARENT 6 13 9 16 82 45 50 56
REMARK Flexibility Score: inf
ROOT
ATOM      1  C   UNL A   1      31.480  29.419  24.792  1.00  0.00     0.275 C 
ENDROOT
BRANCH   1   2
ATOM      2  C   UNL A   1      31.213  27.802  25.110  1.00  0.00     0.274 C 
BRANCH   2   3
ATOM      3  O   UNL A   1      31.302  26.835  23.968  1.00  0.00    -0.460 OA
BRANCH   3   4
ATOM      4  C   UNL A   1      30.791  25.513  23.949  1.00  0.00     0.332 C 
ATOM      5  O   UNL A   1      29.684  25.267  23.477  1.00  0.00    -0.249 OA
BRANCH   4   6
ATOM      6  C   UNL A   1      31.771  24.332  24.746  1.00  0.00     0.139 C 
BRANCH   6   7
ATOM      7  C   UNL A   1      33.118  24.302  25.617  1.00  0.00     0.037 C 
ATOM      8  C   UNL A   1      34.276  25.253  25.511  1.00  0.00     0.007 C 
ENDBRANCH   6   7
BRANCH   6   9
ATOM      9  C   UNL A   1      31.806  23.132  23.762  1.00  0.00     0.037 C 
ATOM     10  C   UNL A   1      32.812  23.131  22.608  1.00  0.00     0.007 C 
ENDBRANCH   6   9
BRANCH   6  11
ATOM     11  N   UNL A   1      30.879  24.249  25.839  1.00  0.00    -0.322 N 
ATOM     12  C   UNL A   1      30.890  23.111  26.560  1.00  0.00     0.320 C 
ATOM     13  H   UNL A   1      30.273  24.992  26.064  1.00  0.00     0.166 HD
ATOM     14  O   UNL A   1      30.143  23.112  27.543  1.00  0.00    -0.248 OA
ATOM     15  N   UNL A   1      31.694  22.004  26.279  1.00  0.00    -0.308 N 
ATOM     16  H   UNL A   1      31.276  21.306  26.833  1.00  0.00     0.171 HD
BRANCH  15  17
ATOM     17  C   UNL A   1      32.783  21.273  25.653  1.00  0.00     0.045 A 
ATOM     18  C   UNL A   1      34.164  21.472  25.664  1.00  0.00     0.046 A 
ATOM     19  C   UNL A   1      32.388  20.060  25.036  1.00  0.00     0.046 A 
ATOM     20  C   UNL A   1      35.072  20.527  25.131  1.00  0.00     0.044 A 
ATOM     21  C   UNL A   1      33.281  19.137  24.473  1.00  0.00     0.044 A 
ATOM     22  Cl  UNL A   1      36.771  20.797  25.284  1.00  0.00    -0.084 Cl
ATOM     23  C   UNL A   1      34.638  19.367  24.515  1.00  0.00     0.041 A 
ATOM     24  Cl  UNL A   1      32.678  17.688  23.769  1.00  0.00    -0.084 Cl
ENDBRANCH  15  17
ENDBRANCH   6  11
ENDBRANCH   4   6
ENDBRANCH   3   4
ENDBRANCH   2   3
ENDBRANCH   1   2
BRANCH   1  25
ATOM     25  O   UNL A   1      32.713  30.088  25.375  1.00  0.00    -0.458 OA
BRANCH  25  26
ATOM     26  C   UNL A   1      32.732  30.882  26.526  1.00  0.00     0.338 C 
ATOM     27  O   UNL A   1      31.809  31.589  26.871  1.00  0.00    -0.246 OA
BRANCH  26  28
ATOM     28  C   UNL A   1      34.097  30.787  27.307  1.00  0.00     0.060 A 
ATOM     29  C   UNL A   1      34.664  29.563  27.719  1.00  0.00     0.016 A 
ATOM     30  C   UNL A   1      34.836  31.907  27.692  1.00  0.00     0.016 A 
ATOM     31  C   UNL A   1      35.948  29.403  28.273  1.00  0.00     0.010 A 
ATOM     32  C   UNL A   1      36.100  31.769  28.368  1.00  0.00     0.010 A 
ATOM     33  C   UNL A   1      36.689  30.512  28.642  1.00  0.00    -0.014 A 
BRANCH  33  34
ATOM     34  C   UNL A   1      37.874  30.299  29.554  1.00  0.00     0.031 A 
ATOM     35  C   UNL A   1      39.007  29.435  29.043  1.00  0.00     0.074 A 
ATOM     36  C   UNL A   1      38.075  30.956  30.721  1.00  0.00     0.049 A 
ATOM     37  N   UNL A   1      40.061  28.971  29.668  1.00  0.00    -0.248 NA
ATOM     38  C   UNL A   1      38.940  29.064  27.622  1.00  0.00     0.031 C 
ATOM     39  C   UNL A   1      37.204  31.987  31.285  1.00  0.00     0.029 A 
ATOM     40  N   UNL A   1      39.096  30.854  31.651  1.00  0.00    -0.354 N 
ATOM     41  C   UNL A   1      40.756  28.213  28.728  1.00  0.00     0.074 A 
ATOM     42  C   UNL A   1      40.002  28.285  27.494  1.00  0.00     0.031 C 
ATOM     43  C   UNL A   1      37.709  32.396  32.466  1.00  0.00     0.029 A 
ATOM     44  C   UNL A   1      38.907  31.617  32.787  1.00  0.00     0.049 A 
ATOM     45  H   UNL A   1      39.889  30.286  31.514  1.00  0.00     0.167 HD
ATOM     46  C   UNL A   1      41.910  27.514  28.874  1.00  0.00     0.034 A 
ATOM     47  C   UNL A   1      39.579  31.649  33.965  1.00  0.00     0.034 A 
ATOM     48  C   UNL A   1      42.681  27.460  30.092  1.00  0.00     0.049 A 
ATOM     49  C   UNL A   1      40.777  30.736  34.167  1.00  0.00     0.074 A 
ATOM     50  C   UNL A   1      43.837  26.740  30.348  1.00  0.00     0.029 A 
ATOM     51  N   UNL A   1      42.388  28.157  31.255  1.00  0.00    -0.354 N 
ATOM     52  N   UNL A   1      41.357  29.925  33.312  1.00  0.00    -0.248 NA
ATOM     53  C   UNL A   1      41.405  30.736  35.500  1.00  0.00     0.031 C 
ATOM     54  C   UNL A   1      44.199  26.942  31.685  1.00  0.00     0.029 A 
ATOM     55  C   UNL A   1      43.322  27.859  32.238  1.00  0.00     0.049 A 
ATOM     56  H   UNL A   1      41.629  28.774  31.368  1.00  0.00     0.167 HD
ATOM     57  C   UNL A   1      42.431  29.351  33.996  1.00  0.00     0.074 A 
ATOM     58  C   UNL A   1      42.435  29.924  35.322  1.00  0.00     0.031 C 
ATOM     59  C   UNL A   1      43.331  28.430  33.564  1.00  0.00     0.034 A 
BRANCH  46  60
ATOM     60  C   UNL A   1      42.361  26.671  27.707  1.00  0.00     0.023 A 
ATOM     61  C   UNL A   1      41.936  25.345  27.527  1.00  0.00     0.031 A 
ATOM     62  C   UNL A   1      43.256  27.211  26.763  1.00  0.00     0.131 A 
ATOM     63  C   UNL A   1      42.453  24.585  26.466  1.00  0.00     0.055 A 
ATOM     64  C   UNL A   1      43.703  26.475  25.665  1.00  0.00     0.041 A 
ATOM     65  F   UNL A   1      43.717  28.465  26.897  1.00  0.00    -0.206 F 
ATOM     66  C   UNL A   1      43.311  25.149  25.519  1.00  0.00     0.022 A 
BRANCH  63  67
ATOM     67  S   UNL A   1      42.093  22.808  26.414  1.00  0.00     0.124 S 
ATOM     68  O   UNL A   1      40.641  22.796  26.575  1.00  0.00    -0.237 OA
ATOM     69  O   UNL A   1      42.593  22.423  25.099  1.00  0.00    -0.237 OA
ATOM     70  O   UNL A   1      42.844  22.273  27.548  1.00  0.00    -0.744 OA
ENDBRANCH  63  67
ENDBRANCH  46  60
BRANCH  47  71
ATOM     71  C   UNL A   1      39.095  32.478  35.123  1.00  0.00     0.023 A 
ATOM     72  C   UNL A   1      39.559  33.788  35.345  1.00  0.00     0.031 A 
ATOM     73  C   UNL A   1      38.265  31.910  36.110  1.00  0.00     0.131 A 
ATOM     74  C   UNL A   1      39.243  34.456  36.545  1.00  0.00     0.055 A 
ATOM     75  C   UNL A   1      37.898  32.604  37.265  1.00  0.00     0.041 A 
ATOM     76  F   UNL A   1      37.813  30.654  35.977  1.00  0.00    -0.206 F 
ATOM     77  C   UNL A   1      38.402  33.879  37.496  1.00  0.00     0.022 A 
BRANCH  74  78
ATOM     78  S   UNL A   1      40.057  36.041  36.910  1.00  0.00     0.124 S 
ATOM     79  O   UNL A   1      39.846  36.774  35.667  1.00  0.00    -0.237 OA
ATOM     80  O   UNL A   1      39.302  36.507  38.067  1.00  0.00    -0.237 OA
ATOM     81  O   UNL A   1      41.441  35.659  37.184  1.00  0.00    -0.744 OA
ENDBRANCH  74  78
ENDBRANCH  47  71
BRANCH  59  82
ATOM     82  C   UNL A   1      44.436  28.028  34.518  1.00  0.00     0.023 A 
ATOM     83  C   UNL A   1      44.238  27.071  35.529  1.00  0.00     0.031 A 
ATOM     84  C   UNL A   1      45.706  28.627  34.424  1.00  0.00     0.131 A 
ATOM     85  C   UNL A   1      45.265  26.793  36.445  1.00  0.00     0.055 A 
ATOM     86  C   UNL A   1      46.747  28.296  35.294  1.00  0.00     0.041 A 
ATOM     87  F   UNL A   1      45.958  29.551  33.481  1.00  0.00    -0.206 F 
ATOM     88  C   UNL A   1      46.525  27.386  36.322  1.00  0.00     0.022 A 
BRANCH  85  89
ATOM     89  S   UNL A   1      44.901  25.731  37.871  1.00  0.00     0.124 S 
ATOM     90  O   UNL A   1      44.055  24.703  37.275  1.00  0.00    -0.237 OA
ATOM     91  O   UNL A   1      46.232  25.300  38.286  1.00  0.00    -0.237 OA
ATOM     92  O   UNL A   1      44.222  26.628  38.804  1.00  0.00    -0.744 OA
ENDBRANCH  85  89
ENDBRANCH  59  82
ENDBRANCH  33  34
ENDBRANCH  26  28
ENDBRANCH  25  26
ENDBRANCH   1  25
TORSDOF 18
ENDMDL
MODEL 3
REMARK VINA RESULT:     -11.9      5.245      9.970
REMARK SMILES CCC(CC)(NC(=O)Nc1cc(Cl)cc(Cl)c1)C(=O)OCCOC(=O)c1ccc(-c2c3nc(c(-c4cc(S(=O)(=O)[O-])ccc4F)c4ccc([nH]4)c(-c4cc(S(=O)(=O)[O-])ccc4F)c4nc(c(-c5cc(S(=O)(=O)[O-])ccc5F)c5ccc2[nH]5)C=C4)C=C3)cc1
REMARK SMILES IDX 22 1 21 2 20 3 18 4 19 5 3 6 2 7 1 8 4 9 5 10 6 11 7 12 8 14
REMARK SMILES IDX 9 15 10 17 11 18 17 19 12 20 15 21 13 22 14 23 16 24 23 25
REMARK SMILES IDX 24 26 25 27 26 28 27 29 88 30 28 31 87 32 29 33 30 34 31 35
REMARK SMILES IDX 81 36 32 37 86 38 80 39 82 40 33 41 85 42 79 43 78 44 34 46
REMARK SMILES IDX 66 47 46 48 65 49 47 50 50 51 64 52 83 53 48 54 49 55 63 57
REMARK SMILES IDX 84 58 51 59 35 60 36 61 44 62 37 63 43 64 45 65 42 66 38 67
REMARK SMILES IDX 39 68 40 69 41 70 67 71 68 72 76 73 69 74 75 75 77 76 74 77
REMARK SMILES IDX 70 78 71 79 72 80 73 81 52 82 53 83 61 84 54 85 60 86 62 87
REMARK SMILES IDX 59 88 55 89 56 90 57 91 58 92
REMARK H PARENT 6 13 9 16 82 45 50 56
REMARK Flexibility Score: inf
ROOT
ATOM      1  C   UNL A   1      31.588  29.643  24.836  1.00  0.00     0.275 C 
ENDROOT
BRANCH   1   2
ATOM      2  C   UNL A   1      30.995  28.113  25.146  1.00  0.00     0.274 C 
BRANCH   2   3
ATOM      3  O   UNL A   1      31.057  27.098  24.045  1.00  0.00    -0.460 OA
BRANCH   3   4
ATOM      4  C   UNL A   1      30.490  25.798  24.073  1.00  0.00     0.332 C 
ATOM      5  O   UNL A   1      29.361  25.589  23.637  1.00  0.00    -0.249 OA
BRANCH   4   6
ATOM      6  C   UNL A   1      31.442  24.595  24.871  1.00  0.00     0.139 C 
BRANCH   6   7
ATOM      7  C   UNL A   1      32.739  24.542  25.812  1.00  0.00     0.037 C 
ATOM      8  C   UNL A   1      33.946  25.433  25.728  1.00  0.00     0.007 C 
ENDBRANCH   6   7
BRANCH   6   9
ATOM      9  C   UNL A   1      31.547  23.439  23.839  1.00  0.00     0.037 C 
ATOM     10  C   UNL A   1      32.637  23.484  22.766  1.00  0.00     0.007 C 
ENDBRANCH   6   9
BRANCH   6  11
ATOM     11  N   UNL A   1      30.492  24.454  25.908  1.00  0.00    -0.322 N 
ATOM     12  C   UNL A   1      30.495  23.295  26.594  1.00  0.00     0.320 C 
ATOM     13  H   UNL A   1      29.854  25.173  26.121  1.00  0.00     0.166 HD
ATOM     14  O   UNL A   1      29.695  23.244  27.533  1.00  0.00    -0.248 OA
ATOM     15  N   UNL A   1      31.345  22.219  26.326  1.00  0.00    -0.308 N 
ATOM     16  H   UNL A   1      30.915  21.493  26.834  1.00  0.00     0.171 HD
BRANCH  15  17
ATOM     17  C   UNL A   1      32.487  21.537  25.742  1.00  0.00     0.045 A 
ATOM     18  C   UNL A   1      33.860  21.734  25.884  1.00  0.00     0.046 A 
ATOM     19  C   UNL A   1      32.154  20.374  25.004  1.00  0.00     0.046 A 
ATOM     20  C   UNL A   1      34.817  20.832  25.360  1.00  0.00     0.044 A 
ATOM     21  C   UNL A   1      33.097  19.496  24.452  1.00  0.00     0.044 A 
ATOM     22  Cl  UNL A   1      36.495  21.091  25.676  1.00  0.00    -0.084 Cl
ATOM     23  C   UNL A   1      34.444  19.722  24.625  1.00  0.00     0.041 A 
ATOM     24  Cl  UNL A   1      32.564  18.103  23.593  1.00  0.00    -0.084 Cl
ENDBRANCH  15  17
ENDBRANCH   6  11
ENDBRANCH   4   6
ENDBRANCH   3   4
ENDBRANCH   2   3
ENDBRANCH   1   2
BRANCH   1  25
ATOM     25  O   UNL A   1      32.872  30.085  25.517  1.00  0.00    -0.458 OA
BRANCH  25  26
ATOM     26  C   UNL A   1      32.945  30.901  26.650  1.00  0.00     0.338 C 
ATOM     27  O   UNL A   1      32.061  31.656  26.993  1.00  0.00    -0.246 OA
BRANCH  26  28
ATOM     28  C   UNL A   1      34.317  30.760  27.412  1.00  0.00     0.060 A 
ATOM     29  C   UNL A   1      34.908  29.515  27.708  1.00  0.00     0.016 A 
ATOM     30  C   UNL A   1      35.038  31.854  27.894  1.00  0.00     0.016 A 
ATOM     31  C   UNL A   1      36.199  29.329  28.238  1.00  0.00     0.010 A 
ATOM     32  C   UNL A   1      36.308  31.678  28.548  1.00  0.00     0.010 A 
ATOM     33  C   UNL A   1      36.922  30.412  28.703  1.00  0.00    -0.014 A 
BRANCH  33  34
ATOM     34  C   UNL A   1      38.116  30.139  29.586  1.00  0.00     0.031 A 
ATOM     35  C   UNL A   1      39.202  29.237  29.040  1.00  0.00     0.074 A 
ATOM     36  C   UNL A   1      38.370  30.771  30.757  1.00  0.00     0.049 A 
ATOM     37  N   UNL A   1      40.250  28.722  29.635  1.00  0.00    -0.248 NA
ATOM     38  C   UNL A   1      39.090  28.889  27.616  1.00  0.00     0.031 C 
ATOM     39  C   UNL A   1      37.554  31.829  31.354  1.00  0.00     0.029 A 
ATOM     40  N   UNL A   1      39.405  30.615  31.662  1.00  0.00    -0.354 N 
ATOM     41  C   UNL A   1      40.893  27.950  28.670  1.00  0.00     0.074 A 
ATOM     42  C   UNL A   1      40.116  28.070  27.454  1.00  0.00     0.031 C 
ATOM     43  C   UNL A   1      38.100  32.201  32.528  1.00  0.00     0.029 A 
ATOM     44  C   UNL A   1      39.272  31.369  32.813  1.00  0.00     0.049 A 
ATOM     45  H   UNL A   1      40.171  30.017  31.501  1.00  0.00     0.167 HD
ATOM     46  C   UNL A   1      42.020  27.203  28.782  1.00  0.00     0.034 A 
ATOM     47  C   UNL A   1      39.970  31.358  33.976  1.00  0.00     0.034 A 
ATOM     48  C   UNL A   1      42.815  27.101  29.982  1.00  0.00     0.049 A 
ATOM     49  C   UNL A   1      41.134  30.395  34.140  1.00  0.00     0.074 A 
ATOM     50  C   UNL A   1      43.945  26.331  30.202  1.00  0.00     0.029 A 
ATOM     51  N   UNL A   1      42.575  27.793  31.160  1.00  0.00    -0.354 N 
ATOM     52  N   UNL A   1      41.662  29.573  33.261  1.00  0.00    -0.248 NA
ATOM     53  C   UNL A   1      41.789  30.351  35.458  1.00  0.00     0.031 C 
ATOM     54  C   UNL A   1      44.344  26.500  31.533  1.00  0.00     0.029 A 
ATOM     55  C   UNL A   1      43.517  27.444  32.118  1.00  0.00     0.049 A 
ATOM     56  H   UNL A   1      41.844  28.438  31.297  1.00  0.00     0.167 HD
ATOM     57  C   UNL A   1      42.725  28.947  33.914  1.00  0.00     0.074 A 
ATOM     58  C   UNL A   1      42.782  29.501  35.247  1.00  0.00     0.031 C 
ATOM     59  C   UNL A   1      43.578  27.996  33.450  1.00  0.00     0.034 A 
BRANCH  46  60
ATOM     60  C   UNL A   1      42.411  26.359  27.594  1.00  0.00     0.023 A 
ATOM     61  C   UNL A   1      41.957  25.040  27.425  1.00  0.00     0.031 A 
ATOM     62  C   UNL A   1      43.278  26.888  26.619  1.00  0.00     0.131 A 
ATOM     63  C   UNL A   1      42.419  24.277  26.342  1.00  0.00     0.055 A 
ATOM     64  C   UNL A   1      43.669  26.151  25.501  1.00  0.00     0.041 A 
ATOM     65  F   UNL A   1      43.764  28.134  26.740  1.00  0.00    -0.206 F 
ATOM     66  C   UNL A   1      43.249  24.831  25.364  1.00  0.00     0.022 A 
BRANCH  63  67
ATOM     67  S   UNL A   1      42.029  22.507  26.296  1.00  0.00     0.124 S 
ATOM     68  O   UNL A   1      40.568  22.527  26.301  1.00  0.00    -0.237 OA
ATOM     69  O   UNL A   1      42.657  22.077  25.052  1.00  0.00    -0.237 OA
ATOM     70  O   UNL A   1      42.642  21.988  27.517  1.00  0.00    -0.744 OA
ENDBRANCH  63  67
ENDBRANCH  46  60
BRANCH  47  71
ATOM     71  C   UNL A   1      39.545  32.190  35.154  1.00  0.00     0.023 A 
ATOM     72  C   UNL A   1      38.874  31.630  36.258  1.00  0.00     0.031 A 
ATOM     73  C   UNL A   1      39.677  33.592  35.123  1.00  0.00     0.131 A 
ATOM     74  C   UNL A   1      38.313  32.465  37.243  1.00  0.00     0.055 A 
ATOM     75  C   UNL A   1      39.180  34.412  36.140  1.00  0.00     0.041 A 
ATOM     76  F   UNL A   1      40.278  34.195  34.085  1.00  0.00    -0.206 F 
ATOM     77  C   UNL A   1      38.477  33.850  37.200  1.00  0.00     0.022 A 
BRANCH  74  78
ATOM     78  S   UNL A   1      37.245  31.729  38.518  1.00  0.00     0.124 S 
ATOM     79  O   UNL A   1      36.093  32.623  38.490  1.00  0.00    -0.237 OA
ATOM     80  O   UNL A   1      37.029  30.386  37.992  1.00  0.00    -0.237 OA
ATOM     81  O   UNL A   1      38.062  31.798  39.728  1.00  0.00    -0.744 OA
ENDBRANCH  74  78
ENDBRANCH  47  71
BRANCH  59  82
ATOM     82  C   UNL A   1      44.685  27.536  34.374  1.00  0.00     0.023 A 
ATOM     83  C   UNL A   1      44.541  26.419  35.216  1.00  0.00     0.031 A 
ATOM     84  C   UNL A   1      45.903  28.241  34.426  1.00  0.00     0.131 A 
ATOM     85  C   UNL A   1      45.562  26.082  36.118  1.00  0.00     0.055 A 
ATOM     86  C   UNL A   1      46.943  27.859  35.276  1.00  0.00     0.041 A 
ATOM     87  F   UNL A   1      46.103  29.318  33.649  1.00  0.00    -0.206 F 
ATOM     88  C   UNL A   1      46.770  26.784  36.141  1.00  0.00     0.022 A 
BRANCH  85  89
ATOM     89  S   UNL A   1      45.249  24.783  37.347  1.00  0.00     0.124 S 
ATOM     90  O   UNL A   1      44.172  25.367  38.138  1.00  0.00    -0.237 OA
ATOM     91  O   UNL A   1      44.881  23.645  36.510  1.00  0.00    -0.237 OA
ATOM     92  O   UNL A   1      46.528  24.651  38.043  1.00  0.00    -0.744 OA
ENDBRANCH  85  89
ENDBRANCH  59  82
ENDBRANCH  33  34
ENDBRANCH  26  28
ENDBRANCH  25  26
ENDBRANCH   1  25
TORSDOF 18
ENDMDL
