MODEL 1
REMARK VINA RESULT:     -10.3      0.000      0.000
REMARK SMILES O=C(OCCOC(=O)c1cc(SCCn2cccn2)cs1)c1ccc(-c2c3nc(c(-c4cc(S(=O)(=O)[O-])ccc4F)c4ccc([nH]4)c(-c4cc(S(=O)(=O)[O-])ccc4F)c4nc(c(-c5cc(S(=O)(=O)[O-])ccc5F)c5ccc2[nH]5)C=C4)C=C3)cc1
REMARK SMILES IDX 5 1 4 2 3 3 2 4 1 5 22 6 23 7 84 8 24 9 83 10 25 11 26 12
REMARK SMILES IDX 27 13 77 14 28 15 82 16 76 17 78 18 29 19 81 20 75 21 74 22
REMARK SMILES IDX 30 24 62 25 42 26 61 27 43 28 46 29 60 30 79 31 44 32 45 33
REMARK SMILES IDX 59 35 80 36 47 37 31 38 32 39 40 40 33 41 39 42 41 43 38 44
REMARK SMILES IDX 34 45 35 46 36 47 37 48 63 49 64 50 72 51 65 52 71 53 73 54
REMARK SMILES IDX 70 55 66 56 67 57 68 58 69 59 48 60 49 61 57 62 50 63 56 64
REMARK SMILES IDX 58 65 55 66 51 67 52 68 53 69 54 70 6 71 7 72 8 73 9 74
REMARK SMILES IDX 10 75 21 76 11 77 20 78 12 79 13 80 14 81 15 82 16 83 19 84
REMARK SMILES IDX 17 85 18 86
REMARK H PARENT 78 23 46 34
REMARK Flexibility Score: inf
ROOT
ATOM      1  C   UNL A   1      33.550  35.136  29.103  1.00  0.00     0.275 C 
ENDROOT
BRANCH   1   2
ATOM      2  C   UNL A   1      33.644  33.972  28.119  1.00  0.00     0.275 C 
BRANCH   2   3
ATOM      3  O   UNL A   1      34.877  33.226  28.108  1.00  0.00    -0.458 OA
BRANCH   3   4
ATOM      4  C   UNL A   1      34.805  31.896  27.871  1.00  0.00     0.338 C 
ATOM      5  O   UNL A   1      33.837  31.329  27.393  1.00  0.00    -0.246 OA
BRANCH   4   6
ATOM      6  C   UNL A   1      36.074  31.226  28.236  1.00  0.00     0.060 A 
ATOM      7  C   UNL A   1      37.165  31.946  28.744  1.00  0.00     0.016 A 
ATOM      8  C   UNL A   1      36.143  29.834  28.113  1.00  0.00     0.016 A 
ATOM      9  C   UNL A   1      38.328  31.279  29.098  1.00  0.00     0.010 A 
ATOM     10  C   UNL A   1      37.307  29.166  28.469  1.00  0.00     0.010 A 
ATOM     11  C   UNL A   1      38.403  29.893  28.942  1.00  0.00    -0.014 A 
BRANCH  11  12
ATOM     12  C   UNL A   1      39.654  29.234  29.297  1.00  0.00     0.031 A 
ATOM     13  C   UNL A   1      39.985  29.131  30.744  1.00  0.00     0.074 A 
ATOM     14  C   UNL A   1      40.431  28.633  28.377  1.00  0.00     0.049 A 
ATOM     15  N   UNL A   1      41.004  29.625  31.367  1.00  0.00    -0.248 NA
ATOM     16  C   UNL A   1      39.038  28.430  31.621  1.00  0.00     0.031 C 
ATOM     17  C   UNL A   1      40.118  28.385  26.969  1.00  0.00     0.029 A 
ATOM     18  N   UNL A   1      41.630  28.008  28.549  1.00  0.00    -0.354 N 
ATOM     19  C   UNL A   1      40.939  29.150  32.677  1.00  0.00     0.074 A 
ATOM     20  C   UNL A   1      39.645  28.528  32.805  1.00  0.00     0.031 C 
ATOM     21  C   UNL A   1      40.988  27.475  26.478  1.00  0.00     0.029 A 
ATOM     22  C   UNL A   1      41.990  27.185  27.491  1.00  0.00     0.049 A 
ATOM     23  H   UNL A   1      42.190  28.131  29.350  1.00  0.00     0.167 HD
ATOM     24  C   UNL A   1      42.026  29.157  33.502  1.00  0.00     0.034 A 
ATOM     25  C   UNL A   1      42.994  26.273  27.471  1.00  0.00     0.034 A 
ATOM     26  C   UNL A   1      43.056  30.039  33.005  1.00  0.00     0.049 A 
ATOM     27  C   UNL A   1      43.975  26.665  28.511  1.00  0.00     0.074 A 
ATOM     28  C   UNL A   1      43.119  31.388  32.710  1.00  0.00     0.029 A 
ATOM     29  N   UNL A   1      44.170  29.485  32.419  1.00  0.00    -0.354 N 
ATOM     30  N   UNL A   1      44.689  27.757  28.451  1.00  0.00    -0.248 NA
ATOM     31  C   UNL A   1      43.853  26.084  29.840  1.00  0.00     0.031 C 
ATOM     32  C   UNL A   1      43.945  31.468  31.550  1.00  0.00     0.029 A 
ATOM     33  C   UNL A   1      44.380  30.175  31.250  1.00  0.00     0.049 A 
ATOM     34  H   UNL A   1      44.713  28.742  32.768  1.00  0.00     0.167 HD
ATOM     35  C   UNL A   1      44.734  28.230  29.751  1.00  0.00     0.074 A 
ATOM     36  C   UNL A   1      44.303  27.104  30.577  1.00  0.00     0.031 C 
ATOM     37  C   UNL A   1      44.843  29.566  30.020  1.00  0.00     0.034 A 
BRANCH  24  38
ATOM     38  C   UNL A   1      42.317  28.155  34.601  1.00  0.00     0.023 A 
ATOM     39  C   UNL A   1      43.030  26.989  34.249  1.00  0.00     0.031 A 
ATOM     40  C   UNL A   1      41.697  28.132  35.868  1.00  0.00     0.131 A 
ATOM     41  C   UNL A   1      43.011  25.848  35.070  1.00  0.00     0.055 A 
ATOM     42  C   UNL A   1      41.746  27.021  36.717  1.00  0.00     0.041 A 
ATOM     43  F   UNL A   1      40.932  29.136  36.314  1.00  0.00    -0.206 F 
ATOM     44  C   UNL A   1      42.375  25.857  36.306  1.00  0.00     0.022 A 
BRANCH  41  45
ATOM     45  S   UNL A   1      43.660  24.293  34.400  1.00  0.00     0.124 S 
ATOM     46  O   UNL A   1      42.509  23.408  34.541  1.00  0.00    -0.237 OA
ATOM     47  O   UNL A   1      44.017  24.676  33.038  1.00  0.00    -0.237 OA
ATOM     48  O   UNL A   1      44.789  23.991  35.276  1.00  0.00    -0.744 OA
ENDBRANCH  41  45
ENDBRANCH  24  38
BRANCH  25  49
ATOM     49  C   UNL A   1      42.959  24.944  26.809  1.00  0.00     0.023 A 
ATOM     50  C   UNL A   1      43.985  24.488  25.958  1.00  0.00     0.031 A 
ATOM     51  C   UNL A   1      41.981  23.996  27.190  1.00  0.00     0.131 A 
ATOM     52  C   UNL A   1      43.994  23.146  25.515  1.00  0.00     0.055 A 
ATOM     53  C   UNL A   1      41.986  22.676  26.740  1.00  0.00     0.041 A 
ATOM     54  F   UNL A   1      41.028  24.299  28.085  1.00  0.00    -0.206 F 
ATOM     55  C   UNL A   1      43.000  22.242  25.902  1.00  0.00     0.022 A 
BRANCH  52  56
ATOM     56  S   UNL A   1      45.373  22.523  24.503  1.00  0.00     0.124 S 
ATOM     57  O   UNL A   1      45.873  23.742  23.878  1.00  0.00    -0.237 OA
ATOM     58  O   UNL A   1      46.237  21.901  25.499  1.00  0.00    -0.237 OA
ATOM     59  O   UNL A   1      44.725  21.584  23.586  1.00  0.00    -0.744 OA
ENDBRANCH  52  56
ENDBRANCH  25  49
BRANCH  37  60
ATOM     60  C   UNL A   1      45.217  30.509  28.897  1.00  0.00     0.023 A 
ATOM     61  C   UNL A   1      46.542  30.869  28.566  1.00  0.00     0.031 A 
ATOM     62  C   UNL A   1      44.189  30.937  28.037  1.00  0.00     0.131 A 
ATOM     63  C   UNL A   1      46.795  31.642  27.416  1.00  0.00     0.055 A 
ATOM     64  C   UNL A   1      44.446  31.686  26.889  1.00  0.00     0.041 A 
ATOM     65  F   UNL A   1      42.913  30.596  28.278  1.00  0.00    -0.206 F 
ATOM     66  C   UNL A   1      45.751  32.045  26.577  1.00  0.00     0.022 A 
BRANCH  63  67
ATOM     67  S   UNL A   1      48.494  32.138  26.990  1.00  0.00     0.124 S 
ATOM     68  O   UNL A   1      49.125  30.889  26.580  1.00  0.00    -0.237 OA
ATOM     69  O   UNL A   1      48.280  33.125  25.935  1.00  0.00    -0.237 OA
ATOM     70  O   UNL A   1      49.009  32.697  28.243  1.00  0.00    -0.744 OA
ENDBRANCH  63  67
ENDBRANCH  37  60
ENDBRANCH  11  12
ENDBRANCH   4   6
ENDBRANCH   3   4
ENDBRANCH   2   3
ENDBRANCH   1   2
BRANCH   1  71
ATOM     71  O   UNL A   1      33.091  34.649  30.373  1.00  0.00    -0.458 OA
BRANCH  71  72
ATOM     72  C   UNL A   1      33.637  35.273  31.458  1.00  0.00     0.348 C 
ATOM     73  O   UNL A   1      33.622  36.483  31.644  1.00  0.00    -0.245 OA
BRANCH  72  74
ATOM     74  C   UNL A   1      34.410  34.323  32.222  1.00  0.00     0.113 A 
ATOM     75  C   UNL A   1      35.005  34.549  33.446  1.00  0.00     0.042 A 
ATOM     76  S   UNL A   1      34.684  32.732  31.679  1.00  0.00    -0.136 S 
ATOM     77  C   UNL A   1      35.875  33.490  33.823  1.00  0.00     0.019 A 
ATOM     78  C   UNL A   1      35.739  32.404  32.987  1.00  0.00     0.080 A 
BRANCH  77  79
ATOM     79  S   UNL A   1      36.984  33.501  35.184  1.00  0.00    -0.123 SA
BRANCH  79  80
ATOM     80  C   UNL A   1      37.842  31.897  35.106  1.00  0.00     0.098 C 
BRANCH  80  81
ATOM     81  C   UNL A   1      39.346  31.933  34.827  1.00  0.00     0.155 C 
BRANCH  81  82
ATOM     82  N   UNL A   1      39.736  32.764  33.708  1.00  0.00    -0.272 N 
ATOM     83  C   UNL A   1      40.451  33.930  33.755  1.00  0.00     0.108 A 
ATOM     84  N   UNL A   1      39.426  32.387  32.458  1.00  0.00    -0.182 NA
ATOM     85  C   UNL A   1      40.542  34.368  32.454  1.00  0.00     0.042 A 
ATOM     86  C   UNL A   1      39.886  33.381  31.696  1.00  0.00     0.135 A 
ENDBRANCH  81  82
ENDBRANCH  80  81
ENDBRANCH  79  80
ENDBRANCH  77  79
ENDBRANCH  72  74
ENDBRANCH  71  72
ENDBRANCH   1  71
TORSDOF 18
ENDMDL
MODEL 2
REMARK VINA RESULT:      -9.6      3.962      6.151
REMARK SMILES O=C(OCCOC(=O)c1cc(SCCn2cccn2)cs1)c1ccc(-c2c3nc(c(-c4cc(S(=O)(=O)[O-])ccc4F)c4ccc([nH]4)c(-c4cc(S(=O)(=O)[O-])ccc4F)c4nc(c(-c5cc(S(=O)(=O)[O-])ccc5F)c5ccc2[nH]5)C=C4)C=C3)cc1
REMARK SMILES IDX 5 1 4 2 3 3 2 4 1 5 22 6 23 7 84 8 24 9 83 10 25 11 26 12
REMARK SMILES IDX 27 13 77 14 28 15 82 16 76 17 78 18 29 19 81 20 75 21 74 22
REMARK SMILES IDX 30 24 62 25 42 26 61 27 43 28 46 29 60 30 79 31 44 32 45 33
REMARK SMILES IDX 59 35 80 36 47 37 31 38 32 39 40 40 33 41 39 42 41 43 38 44
REMARK SMILES IDX 34 45 35 46 36 47 37 48 63 49 64 50 72 51 65 52 71 53 73 54
REMARK SMILES IDX 70 55 66 56 67 57 68 58 69 59 48 60 49 61 57 62 50 63 56 64
REMARK SMILES IDX 58 65 55 66 51 67 52 68 53 69 54 70 6 71 7 72 8 73 9 74
REMARK SMILES IDX 10 75 21 76 11 77 20 78 12 79 13 80 14 81 15 82 16 83 19 84
REMARK SMILES IDX 17 85 18 86
REMARK H PARENT 78 23 46 34
REMARK Flexibility Score: inf
ROOT
ATOM      1  C   UNL A   1      32.549  30.356  27.308  1.00  0.00     0.275 C 
ENDROOT
BRANCH   1   2
ATOM      2  C   UNL A   1      33.455  31.580  27.429  1.00  0.00     0.275 C 
BRANCH   2   3
ATOM      3  O   UNL A   1      34.562  31.483  28.347  1.00  0.00    -0.458 OA
BRANCH   3   4
ATOM      4  C   UNL A   1      35.708  32.122  28.019  1.00  0.00     0.338 C 
ATOM      5  O   UNL A   1      35.763  33.227  27.504  1.00  0.00    -0.246 OA
BRANCH   4   6
ATOM      6  C   UNL A   1      36.890  31.315  28.401  1.00  0.00     0.060 A 
ATOM      7  C   UNL A   1      37.969  31.877  29.096  1.00  0.00     0.016 A 
ATOM      8  C   UNL A   1      36.880  29.949  28.096  1.00  0.00     0.016 A 
ATOM      9  C   UNL A   1      39.047  31.083  29.457  1.00  0.00     0.010 A 
ATOM     10  C   UNL A   1      37.959  29.153  28.459  1.00  0.00     0.010 A 
ATOM     11  C   UNL A   1      39.048  29.727  29.121  1.00  0.00    -0.014 A 
BRANCH  11  12
ATOM     12  C   UNL A   1      40.213  28.934  29.493  1.00  0.00     0.031 A 
ATOM     13  C   UNL A   1      40.506  28.788  30.944  1.00  0.00     0.074 A 
ATOM     14  C   UNL A   1      40.936  28.256  28.582  1.00  0.00     0.049 A 
ATOM     15  N   UNL A   1      41.562  29.165  31.588  1.00  0.00    -0.248 NA
ATOM     16  C   UNL A   1      39.474  28.190  31.801  1.00  0.00     0.031 C 
ATOM     17  C   UNL A   1      40.622  28.051  27.167  1.00  0.00     0.029 A 
ATOM     18  N   UNL A   1      42.057  27.504  28.768  1.00  0.00    -0.354 N 
ATOM     19  C   UNL A   1      41.423  28.693  32.893  1.00  0.00     0.074 A 
ATOM     20  C   UNL A   1      40.068  28.215  32.995  1.00  0.00     0.031 C 
ATOM     21  C   UNL A   1      41.396  27.054  26.684  1.00  0.00     0.029 A 
ATOM     22  C   UNL A   1      42.343  26.651  27.712  1.00  0.00     0.049 A 
ATOM     23  H   UNL A   1      42.613  27.560  29.580  1.00  0.00     0.167 HD
ATOM     24  C   UNL A   1      42.491  28.577  33.735  1.00  0.00     0.034 A 
ATOM     25  C   UNL A   1      43.242  25.635  27.702  1.00  0.00     0.034 A 
ATOM     26  C   UNL A   1      43.619  29.345  33.262  1.00  0.00     0.049 A 
ATOM     27  C   UNL A   1      44.242  25.913  28.761  1.00  0.00     0.074 A 
ATOM     28  C   UNL A   1      43.834  30.680  32.977  1.00  0.00     0.029 A 
ATOM     29  N   UNL A   1      44.676  28.676  32.691  1.00  0.00    -0.354 N 
ATOM     30  N   UNL A   1      45.071  26.921  28.719  1.00  0.00    -0.248 NA
ATOM     31  C   UNL A   1      44.034  25.343  30.083  1.00  0.00     0.031 C 
ATOM     32  C   UNL A   1      44.683  30.675  31.832  1.00  0.00     0.029 A 
ATOM     33  C   UNL A   1      44.979  29.344  31.530  1.00  0.00     0.049 A 
ATOM     34  H   UNL A   1      45.128  27.876  33.044  1.00  0.00     0.167 HD
ATOM     35  C   UNL A   1      45.145  27.380  30.024  1.00  0.00     0.074 A 
ATOM     36  C   UNL A   1      44.580  26.304  30.835  1.00  0.00     0.031 C 
ATOM     37  C   UNL A   1      45.394  28.695  30.303  1.00  0.00     0.034 A 
BRANCH  24  38
ATOM     38  C   UNL A   1      42.652  27.545  34.832  1.00  0.00     0.023 A 
ATOM     39  C   UNL A   1      43.380  26.375  34.526  1.00  0.00     0.031 A 
ATOM     40  C   UNL A   1      41.903  27.501  36.028  1.00  0.00     0.131 A 
ATOM     41  C   UNL A   1      43.261  25.215  35.311  1.00  0.00     0.055 A 
ATOM     42  C   UNL A   1      41.848  26.368  36.848  1.00  0.00     0.041 A 
ATOM     43  F   UNL A   1      41.111  28.507  36.419  1.00  0.00    -0.206 F 
ATOM     44  C   UNL A   1      42.500  25.205  36.474  1.00  0.00     0.022 A 
BRANCH  41  45
ATOM     45  S   UNL A   1      43.953  23.666  34.670  1.00  0.00     0.124 S 
ATOM     46  O   UNL A   1      42.755  22.980  34.199  1.00  0.00    -0.237 OA
ATOM     47  O   UNL A   1      44.868  24.147  33.640  1.00  0.00    -0.237 OA
ATOM     48  O   UNL A   1      44.592  23.071  35.842  1.00  0.00    -0.744 OA
ENDBRANCH  41  45
ENDBRANCH  24  38
BRANCH  25  49
ATOM     49  C   UNL A   1      43.074  24.321  27.030  1.00  0.00     0.023 A 
ATOM     50  C   UNL A   1      43.986  23.830  26.077  1.00  0.00     0.031 A 
ATOM     51  C   UNL A   1      42.090  23.417  27.494  1.00  0.00     0.131 A 
ATOM     52  C   UNL A   1      43.883  22.496  25.619  1.00  0.00     0.055 A 
ATOM     53  C   UNL A   1      41.983  22.107  27.029  1.00  0.00     0.041 A 
ATOM     54  F   UNL A   1      41.246  23.753  28.482  1.00  0.00    -0.206 F 
ATOM     55  C   UNL A   1      42.886  21.637  26.091  1.00  0.00     0.022 A 
BRANCH  52  56
ATOM     56  S   UNL A   1      45.122  21.823  24.468  1.00  0.00     0.124 S 
ATOM     57  O   UNL A   1      45.259  22.901  23.495  1.00  0.00    -0.237 OA
ATOM     58  O   UNL A   1      46.266  21.586  25.341  1.00  0.00    -0.237 OA
ATOM     59  O   UNL A   1      44.486  20.608  23.955  1.00  0.00    -0.744 OA
ENDBRANCH  52  56
ENDBRANCH  25  49
BRANCH  37  60
ATOM     60  C   UNL A   1      45.888  29.597  29.193  1.00  0.00     0.023 A 
ATOM     61  C   UNL A   1      45.067  30.477  28.455  1.00  0.00     0.031 A 
ATOM     62  C   UNL A   1      47.278  29.668  28.983  1.00  0.00     0.131 A 
ATOM     63  C   UNL A   1      45.644  31.376  27.538  1.00  0.00     0.055 A 
ATOM     64  C   UNL A   1      47.847  30.573  28.088  1.00  0.00     0.041 A 
ATOM     65  F   UNL A   1      48.114  28.882  29.680  1.00  0.00    -0.206 F 
ATOM     66  C   UNL A   1      47.031  31.428  27.358  1.00  0.00     0.022 A 
BRANCH  63  67
ATOM     67  S   UNL A   1      44.598  32.499  26.558  1.00  0.00     0.124 S 
ATOM     68  O   UNL A   1      43.966  33.345  27.564  1.00  0.00    -0.237 OA
ATOM     69  O   UNL A   1      45.569  33.155  25.686  1.00  0.00    -0.237 OA
ATOM     70  O   UNL A   1      43.682  31.590  25.865  1.00  0.00    -0.744 OA
ENDBRANCH  63  67
ENDBRANCH  37  60
ENDBRANCH  11  12
ENDBRANCH   4   6
ENDBRANCH   3   4
ENDBRANCH   2   3
ENDBRANCH   1   2
BRANCH   1  71
ATOM     71  O   UNL A   1      32.827  29.678  26.074  1.00  0.00    -0.458 OA
BRANCH  71  72
ATOM     72  C   UNL A   1      31.762  29.572  25.225  1.00  0.00     0.348 C 
ATOM     73  O   UNL A   1      30.973  30.476  24.984  1.00  0.00    -0.245 OA
BRANCH  72  74
ATOM     74  C   UNL A   1      31.591  28.192  24.839  1.00  0.00     0.113 A 
ATOM     75  C   UNL A   1      31.227  27.150  25.668  1.00  0.00     0.042 A 
ATOM     76  S   UNL A   1      31.820  27.663  23.236  1.00  0.00    -0.136 S 
ATOM     77  C   UNL A   1      31.365  25.886  25.032  1.00  0.00     0.019 A 
ATOM     78  C   UNL A   1      31.609  26.024  23.684  1.00  0.00     0.080 A 
BRANCH  77  79
ATOM     79  S   UNL A   1      31.226  24.319  25.812  1.00  0.00    -0.123 SA
BRANCH  79  80
ATOM     80  C   UNL A   1      32.831  23.507  25.526  1.00  0.00     0.098 C 
BRANCH  80  81
ATOM     81  C   UNL A   1      33.016  22.114  26.130  1.00  0.00     0.155 C 
BRANCH  81  82
ATOM     82  N   UNL A   1      32.812  21.019  25.206  1.00  0.00    -0.272 N 
ATOM     83  C   UNL A   1      32.999  19.686  25.450  1.00  0.00     0.108 A 
ATOM     84  N   UNL A   1      32.356  21.268  23.969  1.00  0.00    -0.182 NA
ATOM     85  C   UNL A   1      32.714  19.042  24.268  1.00  0.00     0.042 A 
ATOM     86  C   UNL A   1      32.328  20.068  23.385  1.00  0.00     0.135 A 
ENDBRANCH  81  82
ENDBRANCH  80  81
ENDBRANCH  79  80
ENDBRANCH  77  79
ENDBRANCH  72  74
ENDBRANCH  71  72
ENDBRANCH   1  71
TORSDOF 18
ENDMDL
MODEL 3
REMARK VINA RESULT:      -9.6      2.608      7.589
REMARK SMILES O=C(OCCOC(=O)c1cc(SCCn2cccn2)cs1)c1ccc(-c2c3nc(c(-c4cc(S(=O)(=O)[O-])ccc4F)c4ccc([nH]4)c(-c4cc(S(=O)(=O)[O-])ccc4F)c4nc(c(-c5cc(S(=O)(=O)[O-])ccc5F)c5ccc2[nH]5)C=C4)C=C3)cc1
REMARK SMILES IDX 5 1 4 2 3 3 2 4 1 5 22 6 23 7 84 8 24 9 83 10 25 11 26 12
REMARK SMILES IDX 27 13 77 14 28 15 82 16 76 17 78 18 29 19 81 20 75 21 74 22
REMARK SMILES IDX 30 24 62 25 42 26 61 27 43 28 46 29 60 30 79 31 44 32 45 33
REMARK SMILES IDX 59 35 80 36 47 37 31 38 32 39 40 40 33 41 39 42 41 43 38 44
REMARK SMILES IDX 34 45 35 46 36 47 37 48 63 49 64 50 72 51 65 52 71 53 73 54
REMARK SMILES IDX 70 55 66 56 67 57 68 58 69 59 48 60 49 61 57 62 50 63 56 64
REMARK SMILES IDX 58 65 55 66 51 67 52 68 53 69 54 70 6 71 7 72 8 73 9 74
REMARK SMILES IDX 10 75 21 76 11 77 20 78 12 79 13 80 14 81 15 82 16 83 19 84
REMARK SMILES IDX 17 85 18 86
REMARK H PARENT 78 23 46 34
REMARK Flexibility Score: inf
ROOT
ATOM      1  C   UNL A   1      34.379  32.822  28.048  1.00  0.00     0.275 C 
ENDROOT
BRANCH   1   2
ATOM      2  C   UNL A   1      35.076  31.744  28.876  1.00  0.00     0.275 C 
BRANCH   2   3
ATOM      3  O   UNL A   1      36.272  31.166  28.318  1.00  0.00    -0.458 OA
BRANCH   3   4
ATOM      4  C   UNL A   1      36.284  29.830  28.104  1.00  0.00     0.338 C 
ATOM      5  O   UNL A   1      35.295  29.159  27.858  1.00  0.00    -0.246 OA
BRANCH   4   6
ATOM      6  C   UNL A   1      37.663  29.297  28.173  1.00  0.00     0.060 A 
ATOM      7  C   UNL A   1      38.079  28.469  29.226  1.00  0.00     0.016 A 
ATOM      8  C   UNL A   1      38.539  29.597  27.123  1.00  0.00     0.016 A 
ATOM      9  C   UNL A   1      39.372  27.969  29.244  1.00  0.00     0.010 A 
ATOM     10  C   UNL A   1      39.834  29.095  27.140  1.00  0.00     0.010 A 
ATOM     11  C   UNL A   1      40.252  28.299  28.210  1.00  0.00    -0.014 A 
BRANCH  11  12
ATOM     12  C   UNL A   1      41.612  27.778  28.281  1.00  0.00     0.031 A 
ATOM     13  C   UNL A   1      41.905  26.528  27.528  1.00  0.00     0.074 A 
ATOM     14  C   UNL A   1      42.603  28.448  28.898  1.00  0.00     0.049 A 
ATOM     15  N   UNL A   1      42.305  25.391  27.994  1.00  0.00    -0.248 NA
ATOM     16  C   UNL A   1      41.678  26.527  26.077  1.00  0.00     0.031 C 
ATOM     17  C   UNL A   1      42.561  29.811  29.430  1.00  0.00     0.029 A 
ATOM     18  N   UNL A   1      43.903  28.081  29.072  1.00  0.00    -0.354 N 
ATOM     19  C   UNL A   1      42.564  24.577  26.890  1.00  0.00     0.074 A 
ATOM     20  C   UNL A   1      42.039  25.285  25.750  1.00  0.00     0.031 C 
ATOM     21  C   UNL A   1      43.824  30.233  29.657  1.00  0.00     0.029 A 
ATOM     22  C   UNL A   1      44.742  29.131  29.416  1.00  0.00     0.049 A 
ATOM     23  H   UNL A   1      44.219  27.153  28.964  1.00  0.00     0.167 HD
ATOM     24  C   UNL A   1      43.344  23.462  26.984  1.00  0.00     0.034 A 
ATOM     25  C   UNL A   1      46.098  29.123  29.431  1.00  0.00     0.034 A 
ATOM     26  C   UNL A   1      43.502  23.045  28.358  1.00  0.00     0.049 A 
ATOM     27  C   UNL A   1      46.535  27.712  29.565  1.00  0.00     0.074 A 
ATOM     28  C   UNL A   1      42.634  22.671  29.365  1.00  0.00     0.029 A 
ATOM     29  N   UNL A   1      44.703  23.288  28.984  1.00  0.00    -0.354 N 
ATOM     30  N   UNL A   1      46.314  26.990  30.630  1.00  0.00    -0.248 NA
ATOM     31  C   UNL A   1      46.823  26.953  28.357  1.00  0.00     0.031 C 
ATOM     32  C   UNL A   1      43.199  23.218  30.555  1.00  0.00     0.029 A 
ATOM     33  C   UNL A   1      44.402  23.836  30.206  1.00  0.00     0.049 A 
ATOM     34  H   UNL A   1      45.602  23.104  28.627  1.00  0.00     0.167 HD
ATOM     35  C   UNL A   1      46.007  25.727  30.151  1.00  0.00     0.074 A 
ATOM     36  C   UNL A   1      46.448  25.735  28.758  1.00  0.00     0.031 C 
ATOM     37  C   UNL A   1      45.172  24.889  30.837  1.00  0.00     0.034 A 
BRANCH  24  38
ATOM     38  C   UNL A   1      44.224  22.896  25.889  1.00  0.00     0.023 A 
ATOM     39  C   UNL A   1      43.978  21.569  25.473  1.00  0.00     0.031 A 
ATOM     40  C   UNL A   1      45.444  23.455  25.451  1.00  0.00     0.131 A 
ATOM     41  C   UNL A   1      44.948  20.833  24.772  1.00  0.00     0.055 A 
ATOM     42  C   UNL A   1      46.374  22.742  24.687  1.00  0.00     0.041 A 
ATOM     43  F   UNL A   1      45.848  24.677  25.817  1.00  0.00    -0.206 F 
ATOM     44  C   UNL A   1      46.147  21.413  24.373  1.00  0.00     0.022 A 
BRANCH  41  45
ATOM     45  S   UNL A   1      44.697  19.048  24.572  1.00  0.00     0.124 S 
ATOM     46  O   UNL A   1      45.629  18.508  25.555  1.00  0.00    -0.237 OA
ATOM     47  O   UNL A   1      43.278  18.905  24.881  1.00  0.00    -0.237 OA
ATOM     48  O   UNL A   1      45.057  18.809  23.176  1.00  0.00    -0.744 OA
ENDBRANCH  41  45
ENDBRANCH  24  38
BRANCH  25  49
ATOM     49  C   UNL A   1      46.987  30.242  29.026  1.00  0.00     0.023 A 
ATOM     50  C   UNL A   1      47.913  30.837  29.905  1.00  0.00     0.031 A 
ATOM     51  C   UNL A   1      47.081  30.604  27.662  1.00  0.00     0.131 A 
ATOM     52  C   UNL A   1      48.865  31.759  29.413  1.00  0.00     0.055 A 
ATOM     53  C   UNL A   1      48.013  31.525  27.184  1.00  0.00     0.041 A 
ATOM     54  F   UNL A   1      46.321  30.010  26.729  1.00  0.00    -0.206 F 
ATOM     55  C   UNL A   1      48.917  32.104  28.059  1.00  0.00     0.022 A 
BRANCH  52  56
ATOM     56  S   UNL A   1      50.131  32.450  30.523  1.00  0.00     0.124 S 
ATOM     57  O   UNL A   1      49.507  32.302  31.834  1.00  0.00    -0.237 OA
ATOM     58  O   UNL A   1      51.284  31.599  30.253  1.00  0.00    -0.237 OA
ATOM     59  O   UNL A   1      50.272  33.832  30.062  1.00  0.00    -0.744 OA
ENDBRANCH  52  56
ENDBRANCH  25  49
BRANCH  37  60
ATOM     60  C   UNL A   1      44.819  25.221  32.270  1.00  0.00     0.023 A 
ATOM     61  C   UNL A   1      43.921  26.241  32.655  1.00  0.00     0.031 A 
ATOM     62  C   UNL A   1      45.304  24.364  33.275  1.00  0.00     0.131 A 
ATOM     63  C   UNL A   1      43.551  26.380  34.006  1.00  0.00     0.055 A 
ATOM     64  C   UNL A   1      44.921  24.494  34.609  1.00  0.00     0.041 A 
ATOM     65  F   UNL A   1      46.133  23.354  32.967  1.00  0.00    -0.206 F 
ATOM     66  C   UNL A   1      44.045  25.507  34.980  1.00  0.00     0.022 A 
BRANCH  63  67
ATOM     67  S   UNL A   1      42.415  27.707  34.523  1.00  0.00     0.124 S 
ATOM     68  O   UNL A   1      42.657  28.766  33.550  1.00  0.00    -0.237 OA
ATOM     69  O   UNL A   1      41.111  27.053  34.450  1.00  0.00    -0.237 OA
ATOM     70  O   UNL A   1      42.858  28.020  35.884  1.00  0.00    -0.744 OA
ENDBRANCH  63  67
ENDBRANCH  37  60
ENDBRANCH  11  12
ENDBRANCH   4   6
ENDBRANCH   3   4
ENDBRANCH   2   3
ENDBRANCH   1   2
BRANCH   1  71
ATOM     71  O   UNL A   1      34.592  34.103  28.658  1.00  0.00    -0.458 OA
BRANCH  71  72
ATOM     72  C   UNL A   1      33.475  34.677  29.194  1.00  0.00     0.348 C 
ATOM     73  O   UNL A   1      32.463  34.950  28.561  1.00  0.00    -0.245 OA
BRANCH  72  74
ATOM     74  C   UNL A   1      33.752  35.103  30.544  1.00  0.00     0.113 A 
ATOM     75  C   UNL A   1      34.629  34.505  31.426  1.00  0.00     0.042 A 
ATOM     76  S   UNL A   1      33.001  36.464  31.240  1.00  0.00    -0.136 S 
ATOM     77  C   UNL A   1      34.507  35.028  32.742  1.00  0.00     0.019 A 
ATOM     78  C   UNL A   1      33.708  36.150  32.766  1.00  0.00     0.080 A 
BRANCH  77  79
ATOM     79  S   UNL A   1      35.272  34.381  34.184  1.00  0.00    -0.123 SA
BRANCH  79  80
ATOM     80  C   UNL A   1      35.986  32.789  33.665  1.00  0.00     0.098 C 
BRANCH  80  81
ATOM     81  C   UNL A   1      37.503  32.638  33.798  1.00  0.00     0.155 C 
BRANCH  81  82
ATOM     82  N   UNL A   1      38.183  32.239  32.584  1.00  0.00    -0.272 N 
ATOM     83  C   UNL A   1      37.950  32.701  31.317  1.00  0.00     0.108 A 
ATOM     84  N   UNL A   1      39.186  31.350  32.644  1.00  0.00    -0.182 NA
ATOM     85  C   UNL A   1      38.812  32.007  30.500  1.00  0.00     0.042 A 
ATOM     86  C   UNL A   1      39.547  31.182  31.371  1.00  0.00     0.135 A 
ENDBRANCH  81  82
ENDBRANCH  80  81
ENDBRANCH  79  80
ENDBRANCH  77  79
ENDBRANCH  72  74
ENDBRANCH  71  72
ENDBRANCH   1  71
TORSDOF 18
ENDMDL
