MODEL 1
REMARK VINA RESULT:     -12.0      0.000      0.000
REMARK SMILES CC(C)=CCc1cccc2c(C(=O)OCCOC(=O)c3ccc(-c4c5nc(c(-c6cc(S(=O)(=O)[O-])ccc6F)c6ccc([nH]6)c(-c6cc(S(=O)(=O)[O-])ccc6F)c6nc(c(-c7cc(S(=O)(=O)[O-])ccc7F)c7ccc4[nH]7)C=C6)C=C5)cc3)c[nH]c12
REMARK SMILES IDX 16 1 15 2 14 3 12 4 13 5 11 6 6 7 7 8 85 9 8 10 10 11 84 12
REMARK SMILES IDX 9 13 83 14 5 16 4 17 1 18 2 19 3 20 17 21 18 22 19 23 20 24
REMARK SMILES IDX 21 25 82 26 22 27 81 28 23 29 24 30 25 31 75 32 26 33 80 34
REMARK SMILES IDX 74 35 76 36 27 37 79 38 73 39 72 40 28 42 60 43 40 44 59 45
REMARK SMILES IDX 41 46 44 47 58 48 77 49 42 50 43 51 57 53 78 54 45 55 29 56
REMARK SMILES IDX 30 57 38 58 31 59 37 60 39 61 36 62 32 63 33 64 34 65 35 66
REMARK SMILES IDX 61 67 62 68 70 69 63 70 69 71 71 72 68 73 64 74 65 75 66 76
REMARK SMILES IDX 67 77 46 78 47 79 55 80 48 81 54 82 56 83 53 84 49 85 50 86
REMARK SMILES IDX 51 87 52 88
REMARK H PARENT 84 15 76 41 44 52
REMARK Flexibility Score: inf
ROOT
ATOM      1  C   UNL A   1      36.605  20.549  24.993  1.00  0.00     0.275 C 
ENDROOT
BRANCH   1   2
ATOM      2  C   UNL A   1      35.198  21.111  24.769  1.00  0.00     0.275 C 
BRANCH   2   3
ATOM      3  O   UNL A   1      35.191  22.551  24.748  1.00  0.00    -0.458 OA
BRANCH   3   4
ATOM      4  C   UNL A   1      35.108  23.129  23.512  1.00  0.00     0.340 C 
ATOM      5  O   UNL A   1      35.935  22.963  22.624  1.00  0.00    -0.246 OA
BRANCH   4   6
ATOM      6  C   UNL A   1      33.892  23.912  23.318  1.00  0.00     0.085 A 
ATOM      7  C   UNL A   1      31.487  26.606  23.804  1.00  0.00    -0.020 A 
ATOM      8  C   UNL A   1      32.116  27.440  24.751  1.00  0.00     0.006 A 
ATOM      9  C   UNL A   1      32.207  25.453  23.439  1.00  0.00     0.050 A 
ATOM     10  C   UNL A   1      33.333  27.104  25.340  1.00  0.00     0.001 A 
ATOM     11  C   UNL A   1      33.442  25.095  23.991  1.00  0.00     0.014 A 
ATOM     12  N   UNL A   1      31.893  24.490  22.509  1.00  0.00    -0.360 N 
ATOM     13  C   UNL A   1      33.996  25.929  24.983  1.00  0.00     0.011 A 
ATOM     14  C   UNL A   1      32.948  23.645  22.340  1.00  0.00     0.099 A 
ATOM     15  H   UNL A   1      31.033  24.421  22.035  1.00  0.00     0.166 HD
BRANCH   7  16
ATOM     16  C   UNL A   1      30.183  26.992  23.146  1.00  0.00     0.065 C 
BRANCH  16  17
ATOM     17  C   UNL A   1      30.171  28.392  22.597  1.00  0.00    -0.024 C 
ATOM     18  C   UNL A   1      27.728  28.794  22.968  1.00  0.00     0.039 C 
ATOM     19  C   UNL A   1      29.099  29.205  22.509  1.00  0.00    -0.080 C 
ATOM     20  C   UNL A   1      29.253  30.575  21.916  1.00  0.00     0.039 C 
ENDBRANCH  16  17
ENDBRANCH   7  16
ENDBRANCH   4   6
ENDBRANCH   3   4
ENDBRANCH   2   3
ENDBRANCH   1   2
BRANCH   1  21
ATOM     21  O   UNL A   1      37.570  21.600  25.174  1.00  0.00    -0.458 OA
BRANCH  21  22
ATOM     22  C   UNL A   1      38.711  21.228  25.800  1.00  0.00     0.338 C 
ATOM     23  O   UNL A   1      39.239  20.129  25.777  1.00  0.00    -0.246 OA
BRANCH  22  24
ATOM     24  C   UNL A   1      39.322  22.391  26.460  1.00  0.00     0.060 A 
ATOM     25  C   UNL A   1      38.852  23.652  26.112  1.00  0.00     0.016 A 
ATOM     26  C   UNL A   1      40.432  22.263  27.289  1.00  0.00     0.016 A 
ATOM     27  C   UNL A   1      39.523  24.801  26.515  1.00  0.00     0.010 A 
ATOM     28  C   UNL A   1      41.065  23.422  27.761  1.00  0.00     0.010 A 
ATOM     29  C   UNL A   1      40.638  24.702  27.352  1.00  0.00    -0.014 A 
BRANCH  29  30
ATOM     30  C   UNL A   1      41.393  25.924  27.744  1.00  0.00     0.031 A 
ATOM     31  C   UNL A   1      40.717  26.976  28.583  1.00  0.00     0.074 A 
ATOM     32  C   UNL A   1      42.677  26.091  27.370  1.00  0.00     0.049 A 
ATOM     33  N   UNL A   1      41.101  28.195  28.858  1.00  0.00    -0.248 NA
ATOM     34  C   UNL A   1      39.425  26.603  29.177  1.00  0.00     0.031 C 
ATOM     35  C   UNL A   1      43.480  25.114  26.631  1.00  0.00     0.029 A 
ATOM     36  N   UNL A   1      43.535  27.149  27.554  1.00  0.00    -0.354 N 
ATOM     37  C   UNL A   1      40.074  28.755  29.614  1.00  0.00     0.074 A 
ATOM     38  C   UNL A   1      39.045  27.743  29.732  1.00  0.00     0.031 C 
ATOM     39  C   UNL A   1      44.712  25.610  26.439  1.00  0.00     0.029 A 
ATOM     40  C   UNL A   1      44.759  26.975  26.950  1.00  0.00     0.049 A 
ATOM     41  H   UNL A   1      43.297  27.953  28.070  1.00  0.00     0.167 HD
ATOM     42  C   UNL A   1      40.002  29.998  30.151  1.00  0.00     0.034 A 
ATOM     43  C   UNL A   1      45.783  27.835  26.771  1.00  0.00     0.034 A 
ATOM     44  C   UNL A   1      41.056  30.980  30.038  1.00  0.00     0.049 A 
ATOM     45  C   UNL A   1      45.647  29.241  27.299  1.00  0.00     0.074 A 
ATOM     46  C   UNL A   1      41.094  32.268  30.542  1.00  0.00     0.029 A 
ATOM     47  N   UNL A   1      42.263  30.779  29.376  1.00  0.00    -0.354 N 
ATOM     48  N   UNL A   1      44.645  29.786  27.950  1.00  0.00    -0.248 NA
ATOM     49  C   UNL A   1      46.775  30.149  27.059  1.00  0.00     0.031 C 
ATOM     50  C   UNL A   1      42.287  32.868  30.124  1.00  0.00     0.029 A 
ATOM     51  C   UNL A   1      43.036  31.928  29.436  1.00  0.00     0.049 A 
ATOM     52  H   UNL A   1      42.529  29.943  28.931  1.00  0.00     0.167 HD
ATOM     53  C   UNL A   1      45.039  31.091  28.228  1.00  0.00     0.074 A 
ATOM     54  C   UNL A   1      46.372  31.248  27.680  1.00  0.00     0.031 C 
ATOM     55  C   UNL A   1      44.365  32.070  28.884  1.00  0.00     0.034 A 
BRANCH  42  56
ATOM     56  C   UNL A   1      38.715  30.385  30.844  1.00  0.00     0.023 A 
ATOM     57  C   UNL A   1      37.647  30.987  30.156  1.00  0.00     0.031 A 
ATOM     58  C   UNL A   1      38.572  30.185  32.229  1.00  0.00     0.131 A 
ATOM     59  C   UNL A   1      36.525  31.443  30.867  1.00  0.00     0.055 A 
ATOM     60  C   UNL A   1      37.416  30.561  32.916  1.00  0.00     0.041 A 
ATOM     61  F   UNL A   1      39.566  29.636  32.947  1.00  0.00    -0.206 F 
ATOM     62  C   UNL A   1      36.390  31.210  32.237  1.00  0.00     0.022 A 
BRANCH  59  63
ATOM     63  S   UNL A   1      35.320  32.490  30.004  1.00  0.00     0.124 S 
ATOM     64  O   UNL A   1      34.908  31.620  28.906  1.00  0.00    -0.237 OA
ATOM     65  O   UNL A   1      34.318  32.734  31.036  1.00  0.00    -0.237 OA
ATOM     66  O   UNL A   1      36.103  33.657  29.605  1.00  0.00    -0.744 OA
ENDBRANCH  59  63
ENDBRANCH  42  56
BRANCH  43  67
ATOM     67  C   UNL A   1      46.994  27.419  26.004  1.00  0.00     0.023 A 
ATOM     68  C   UNL A   1      47.163  27.783  24.660  1.00  0.00     0.031 A 
ATOM     69  C   UNL A   1      47.984  26.613  26.597  1.00  0.00     0.131 A 
ATOM     70  C   UNL A   1      48.273  27.312  23.942  1.00  0.00     0.055 A 
ATOM     71  C   UNL A   1      49.118  26.198  25.895  1.00  0.00     0.041 A 
ATOM     72  F   UNL A   1      47.872  26.229  27.878  1.00  0.00    -0.206 F 
ATOM     73  C   UNL A   1      49.261  26.538  24.555  1.00  0.00     0.022 A 
BRANCH  70  74
ATOM     74  S   UNL A   1      48.364  27.653  22.162  1.00  0.00     0.124 S 
ATOM     75  O   UNL A   1      47.068  28.274  21.914  1.00  0.00    -0.237 OA
ATOM     76  O   UNL A   1      49.524  28.533  22.081  1.00  0.00    -0.237 OA
ATOM     77  O   UNL A   1      48.546  26.329  21.571  1.00  0.00    -0.744 OA
ENDBRANCH  70  74
ENDBRANCH  43  67
BRANCH  55  78
ATOM     78  C   UNL A   1      45.090  33.375  29.107  1.00  0.00     0.023 A 
ATOM     79  C   UNL A   1      44.967  34.459  28.221  1.00  0.00     0.031 A 
ATOM     80  C   UNL A   1      45.919  33.530  30.233  1.00  0.00     0.131 A 
ATOM     81  C   UNL A   1      45.703  35.632  28.448  1.00  0.00     0.055 A 
ATOM     82  C   UNL A   1      46.600  34.722  30.486  1.00  0.00     0.041 A 
ATOM     83  F   UNL A   1      46.076  32.525  31.110  1.00  0.00    -0.206 F 
ATOM     84  C   UNL A   1      46.503  35.777  29.586  1.00  0.00     0.022 A 
BRANCH  81  85
ATOM     85  S   UNL A   1      45.672  36.940  27.191  1.00  0.00     0.124 S 
ATOM     86  O   UNL A   1      44.247  37.038  26.892  1.00  0.00    -0.237 OA
ATOM     87  O   UNL A   1      46.254  38.073  27.904  1.00  0.00    -0.237 OA
ATOM     88  O   UNL A   1      46.496  36.398  26.112  1.00  0.00    -0.744 OA
ENDBRANCH  81  85
ENDBRANCH  55  78
ENDBRANCH  29  30
ENDBRANCH  22  24
ENDBRANCH  21  22
ENDBRANCH   1  21
TORSDOF 16
ENDMDL
MODEL 2
REMARK VINA RESULT:     -12.0      5.083     10.131
REMARK SMILES CC(C)=CCc1cccc2c(C(=O)OCCOC(=O)c3ccc(-c4c5nc(c(-c6cc(S(=O)(=O)[O-])ccc6F)c6ccc([nH]6)c(-c6cc(S(=O)(=O)[O-])ccc6F)c6nc(c(-c7cc(S(=O)(=O)[O-])ccc7F)c7ccc4[nH]7)C=C6)C=C5)cc3)c[nH]c12
REMARK SMILES IDX 16 1 15 2 14 3 12 4 13 5 11 6 6 7 7 8 85 9 8 10 10 11 84 12
REMARK SMILES IDX 9 13 83 14 5 16 4 17 1 18 2 19 3 20 17 21 18 22 19 23 20 24
REMARK SMILES IDX 21 25 82 26 22 27 81 28 23 29 24 30 25 31 75 32 26 33 80 34
REMARK SMILES IDX 74 35 76 36 27 37 79 38 73 39 72 40 28 42 60 43 40 44 59 45
REMARK SMILES IDX 41 46 44 47 58 48 77 49 42 50 43 51 57 53 78 54 45 55 29 56
REMARK SMILES IDX 30 57 38 58 31 59 37 60 39 61 36 62 32 63 33 64 34 65 35 66
REMARK SMILES IDX 61 67 62 68 70 69 63 70 69 71 71 72 68 73 64 74 65 75 66 76
REMARK SMILES IDX 67 77 46 78 47 79 55 80 48 81 54 82 56 83 53 84 49 85 50 86
REMARK SMILES IDX 51 87 52 88
REMARK H PARENT 84 15 76 41 44 52
REMARK Flexibility Score: inf
ROOT
ATOM      1  C   UNL A   1      31.585  29.466  25.815  1.00  0.00     0.275 C 
ENDROOT
BRANCH   1   2
ATOM      2  C   UNL A   1      30.963  29.580  24.421  1.00  0.00     0.275 C 
BRANCH   2   3
ATOM      3  O   UNL A   1      31.820  29.031  23.402  1.00  0.00    -0.458 OA
BRANCH   3   4
ATOM      4  C   UNL A   1      31.287  28.013  22.661  1.00  0.00     0.340 C 
ATOM      5  O   UNL A   1      30.231  28.095  22.048  1.00  0.00    -0.246 OA
BRANCH   4   6
ATOM      6  C   UNL A   1      32.140  26.830  22.605  1.00  0.00     0.085 A 
ATOM      7  C   UNL A   1      34.507  24.306  23.747  1.00  0.00    -0.020 A 
ATOM      8  C   UNL A   1      34.743  24.662  25.090  1.00  0.00     0.006 A 
ATOM      9  C   UNL A   1      33.620  25.143  23.045  1.00  0.00     0.050 A 
ATOM     10  C   UNL A   1      34.194  25.809  25.660  1.00  0.00     0.001 A 
ATOM     11  C   UNL A   1      33.031  26.290  23.590  1.00  0.00     0.014 A 
ATOM     12  N   UNL A   1      33.149  25.027  21.758  1.00  0.00    -0.360 N 
ATOM     13  C   UNL A   1      33.353  26.639  24.917  1.00  0.00     0.011 A 
ATOM     14  C   UNL A   1      32.171  25.949  21.536  1.00  0.00     0.099 A 
ATOM     15  H   UNL A   1      33.470  24.374  21.095  1.00  0.00     0.166 HD
BRANCH   7  16
ATOM     16  C   UNL A   1      35.081  23.044  23.146  1.00  0.00     0.065 C 
BRANCH  16  17
ATOM     17  C   UNL A   1      36.371  22.602  23.780  1.00  0.00    -0.024 C 
ATOM     18  C   UNL A   1      35.406  20.632  24.984  1.00  0.00     0.039 C 
ATOM     19  C   UNL A   1      36.537  21.540  24.594  1.00  0.00    -0.080 C 
ATOM     20  C   UNL A   1      37.896  21.244  25.160  1.00  0.00     0.039 C 
ENDBRANCH  16  17
ENDBRANCH   7  16
ENDBRANCH   4   6
ENDBRANCH   3   4
ENDBRANCH   2   3
ENDBRANCH   1   2
BRANCH   1  21
ATOM     21  O   UNL A   1      32.914  30.015  25.847  1.00  0.00    -0.458 OA
BRANCH  21  22
ATOM     22  C   UNL A   1      33.131  30.935  26.815  1.00  0.00     0.338 C 
ATOM     23  O   UNL A   1      32.319  31.712  27.288  1.00  0.00    -0.246 OA
BRANCH  22  24
ATOM     24  C   UNL A   1      34.505  30.812  27.324  1.00  0.00     0.060 A 
ATOM     25  C   UNL A   1      35.005  29.531  27.531  1.00  0.00     0.016 A 
ATOM     26  C   UNL A   1      35.237  31.922  27.734  1.00  0.00     0.016 A 
ATOM     27  C   UNL A   1      36.197  29.332  28.216  1.00  0.00     0.010 A 
ATOM     28  C   UNL A   1      36.477  31.727  28.357  1.00  0.00     0.010 A 
ATOM     29  C   UNL A   1      36.955  30.430  28.635  1.00  0.00    -0.014 A 
BRANCH  29  30
ATOM     30  C   UNL A   1      38.206  30.224  29.417  1.00  0.00     0.031 A 
ATOM     31  C   UNL A   1      39.312  29.383  28.837  1.00  0.00     0.074 A 
ATOM     32  C   UNL A   1      38.363  30.794  30.628  1.00  0.00     0.049 A 
ATOM     33  N   UNL A   1      40.381  28.901  29.416  1.00  0.00    -0.248 NA
ATOM     34  C   UNL A   1      39.184  29.028  27.416  1.00  0.00     0.031 C 
ATOM     35  C   UNL A   1      37.410  31.701  31.270  1.00  0.00     0.029 A 
ATOM     36  N   UNL A   1      39.385  30.691  31.542  1.00  0.00    -0.354 N 
ATOM     37  C   UNL A   1      41.027  28.140  28.444  1.00  0.00     0.074 A 
ATOM     38  C   UNL A   1      40.214  28.213  27.248  1.00  0.00     0.031 C 
ATOM     39  C   UNL A   1      37.896  32.081  32.462  1.00  0.00     0.029 A 
ATOM     40  C   UNL A   1      39.144  31.369  32.715  1.00  0.00     0.049 A 
ATOM     41  H   UNL A   1      40.209  30.180  31.374  1.00  0.00     0.167 HD
ATOM     42  C   UNL A   1      42.187  27.445  28.549  1.00  0.00     0.034 A 
ATOM     43  C   UNL A   1      39.815  31.374  33.884  1.00  0.00     0.034 A 
ATOM     44  C   UNL A   1      42.992  27.410  29.749  1.00  0.00     0.049 A 
ATOM     45  C   UNL A   1      41.055  30.524  34.009  1.00  0.00     0.074 A 
ATOM     46  C   UNL A   1      44.184  26.743  29.970  1.00  0.00     0.029 A 
ATOM     47  N   UNL A   1      42.687  28.076  30.931  1.00  0.00    -0.354 N 
ATOM     48  N   UNL A   1      41.622  29.752  33.110  1.00  0.00    -0.248 NA
ATOM     49  C   UNL A   1      41.740  30.541  35.308  1.00  0.00     0.031 C 
ATOM     50  C   UNL A   1      44.560  26.944  31.302  1.00  0.00     0.029 A 
ATOM     51  C   UNL A   1      43.653  27.811  31.890  1.00  0.00     0.049 A 
ATOM     52  H   UNL A   1      41.901  28.651  31.067  1.00  0.00     0.167 HD
ATOM     53  C   UNL A   1      42.749  29.218  33.727  1.00  0.00     0.074 A 
ATOM     54  C   UNL A   1      42.786  29.763  35.070  1.00  0.00     0.031 C 
ATOM     55  C   UNL A   1      43.677  28.362  33.226  1.00  0.00     0.034 A 
BRANCH  42  56
ATOM     56  C   UNL A   1      42.611  26.613  27.360  1.00  0.00     0.023 A 
ATOM     57  C   UNL A   1      42.191  25.282  27.190  1.00  0.00     0.031 A 
ATOM     58  C   UNL A   1      43.489  27.150  26.401  1.00  0.00     0.131 A 
ATOM     59  C   UNL A   1      42.714  24.512  26.139  1.00  0.00     0.055 A 
ATOM     60  C   UNL A   1      43.935  26.406  25.307  1.00  0.00     0.041 A 
ATOM     61  F   UNL A   1      43.945  28.408  26.519  1.00  0.00    -0.206 F 
ATOM     62  C   UNL A   1      43.562  25.072  25.180  1.00  0.00     0.022 A 
BRANCH  59  63
ATOM     63  S   UNL A   1      42.401  22.725  26.135  1.00  0.00     0.124 S 
ATOM     64  O   UNL A   1      40.944  22.681  26.240  1.00  0.00    -0.237 OA
ATOM     65  O   UNL A   1      42.961  22.308  24.855  1.00  0.00    -0.237 OA
ATOM     66  O   UNL A   1      43.117  22.248  27.316  1.00  0.00    -0.744 OA
ENDBRANCH  59  63
ENDBRANCH  42  56
BRANCH  43  67
ATOM     67  C   UNL A   1      39.299  32.151  35.049  1.00  0.00     0.023 A 
ATOM     68  C   UNL A   1      39.728  33.464  35.293  1.00  0.00     0.031 A 
ATOM     69  C   UNL A   1      38.396  31.574  35.961  1.00  0.00     0.131 A 
ATOM     70  C   UNL A   1      39.285  34.143  36.440  1.00  0.00     0.055 A 
ATOM     71  C   UNL A   1      37.911  32.275  37.066  1.00  0.00     0.041 A 
ATOM     72  F   UNL A   1      37.956  30.318  35.781  1.00  0.00    -0.206 F 
ATOM     73  C   UNL A   1      38.366  33.564  37.317  1.00  0.00     0.022 A 
BRANCH  70  74
ATOM     74  S   UNL A   1      40.000  35.767  36.817  1.00  0.00     0.124 S 
ATOM     75  O   UNL A   1      39.626  36.536  35.636  1.00  0.00    -0.237 OA
ATOM     76  O   UNL A   1      39.316  36.119  38.056  1.00  0.00    -0.237 OA
ATOM     77  O   UNL A   1      41.428  35.486  36.954  1.00  0.00    -0.744 OA
ENDBRANCH  70  74
ENDBRANCH  43  67
BRANCH  55  78
ATOM     78  C   UNL A   1      44.847  28.019  34.114  1.00  0.00     0.023 A 
ATOM     79  C   UNL A   1      44.841  26.897  34.961  1.00  0.00     0.031 A 
ATOM     80  C   UNL A   1      45.992  28.837  34.107  1.00  0.00     0.131 A 
ATOM     81  C   UNL A   1      45.936  26.654  35.804  1.00  0.00     0.055 A 
ATOM     82  C   UNL A   1      47.104  28.554  34.903  1.00  0.00     0.041 A 
ATOM     83  F   UNL A   1      46.051  29.924  33.321  1.00  0.00    -0.206 F 
ATOM     84  C   UNL A   1      47.075  27.464  35.765  1.00  0.00     0.022 A 
BRANCH  81  85
ATOM     85  S   UNL A   1      45.821  25.311  37.019  1.00  0.00     0.124 S 
ATOM     86  O   UNL A   1      44.696  25.744  37.842  1.00  0.00    -0.237 OA
ATOM     87  O   UNL A   1      45.583  24.145  36.176  1.00  0.00    -0.237 OA
ATOM     88  O   UNL A   1      47.122  25.339  37.685  1.00  0.00    -0.744 OA
ENDBRANCH  81  85
ENDBRANCH  55  78
ENDBRANCH  29  30
ENDBRANCH  22  24
ENDBRANCH  21  22
ENDBRANCH   1  21
TORSDOF 16
ENDMDL
MODEL 3
REMARK VINA RESULT:     -12.0      1.216      1.680
REMARK SMILES CC(C)=CCc1cccc2c(C(=O)OCCOC(=O)c3ccc(-c4c5nc(c(-c6cc(S(=O)(=O)[O-])ccc6F)c6ccc([nH]6)c(-c6cc(S(=O)(=O)[O-])ccc6F)c6nc(c(-c7cc(S(=O)(=O)[O-])ccc7F)c7ccc4[nH]7)C=C6)C=C5)cc3)c[nH]c12
REMARK SMILES IDX 16 1 15 2 14 3 12 4 13 5 11 6 6 7 7 8 85 9 8 10 10 11 84 12
REMARK SMILES IDX 9 13 83 14 5 16 4 17 1 18 2 19 3 20 17 21 18 22 19 23 20 24
REMARK SMILES IDX 21 25 82 26 22 27 81 28 23 29 24 30 25 31 75 32 26 33 80 34
REMARK SMILES IDX 74 35 76 36 27 37 79 38 73 39 72 40 28 42 60 43 40 44 59 45
REMARK SMILES IDX 41 46 44 47 58 48 77 49 42 50 43 51 57 53 78 54 45 55 29 56
REMARK SMILES IDX 30 57 38 58 31 59 37 60 39 61 36 62 32 63 33 64 34 65 35 66
REMARK SMILES IDX 61 67 62 68 70 69 63 70 69 71 71 72 68 73 64 74 65 75 66 76
REMARK SMILES IDX 67 77 46 78 47 79 55 80 48 81 54 82 56 83 53 84 49 85 50 86
REMARK SMILES IDX 51 87 52 88
REMARK H PARENT 84 15 76 41 44 52
REMARK Flexibility Score: inf
ROOT
ATOM      1  C   UNL A   1      36.532  20.461  24.916  1.00  0.00     0.275 C 
ENDROOT
BRANCH   1   2
ATOM      2  C   UNL A   1      35.049  20.689  25.224  1.00  0.00     0.275 C 
BRANCH   2   3
ATOM      3  O   UNL A   1      34.204  19.754  24.526  1.00  0.00    -0.458 OA
BRANCH   3   4
ATOM      4  C   UNL A   1      32.862  19.890  24.742  1.00  0.00     0.340 C 
ATOM      5  O   UNL A   1      32.180  19.070  25.344  1.00  0.00    -0.246 OA
BRANCH   4   6
ATOM      6  C   UNL A   1      32.320  21.152  24.248  1.00  0.00     0.085 A 
ATOM      7  C   UNL A   1      30.872  24.493  24.373  1.00  0.00    -0.020 A 
ATOM      8  C   UNL A   1      30.810  24.773  25.754  1.00  0.00     0.006 A 
ATOM      9  C   UNL A   1      31.389  23.230  24.033  1.00  0.00     0.050 A 
ATOM     10  C   UNL A   1      31.166  23.831  26.716  1.00  0.00     0.001 A 
ATOM     11  C   UNL A   1      31.780  22.267  24.970  1.00  0.00     0.014 A 
ATOM     12  N   UNL A   1      31.629  22.694  22.789  1.00  0.00    -0.360 N 
ATOM     13  C   UNL A   1      31.634  22.571  26.339  1.00  0.00     0.011 A 
ATOM     14  C   UNL A   1      32.301  21.516  22.912  1.00  0.00     0.099 A 
ATOM     15  H   UNL A   1      31.355  23.102  21.936  1.00  0.00     0.166 HD
BRANCH   7  16
ATOM     16  C   UNL A   1      30.514  25.532  23.335  1.00  0.00     0.065 C 
BRANCH  16  17
ATOM     17  C   UNL A   1      31.685  26.349  22.864  1.00  0.00    -0.024 C 
ATOM     18  C   UNL A   1      31.060  28.432  24.104  1.00  0.00     0.039 C 
ATOM     19  C   UNL A   1      31.945  27.631  23.191  1.00  0.00    -0.080 C 
ATOM     20  C   UNL A   1      33.154  28.312  22.618  1.00  0.00     0.039 C 
ENDBRANCH  16  17
ENDBRANCH   7  16
ENDBRANCH   4   6
ENDBRANCH   3   4
ENDBRANCH   2   3
ENDBRANCH   1   2
BRANCH   1  21
ATOM     21  O   UNL A   1      37.338  21.569  25.352  1.00  0.00    -0.458 OA
BRANCH  21  22
ATOM     22  C   UNL A   1      38.579  21.242  25.780  1.00  0.00     0.338 C 
ATOM     23  O   UNL A   1      39.170  20.191  25.591  1.00  0.00    -0.246 OA
BRANCH  22  24
ATOM     24  C   UNL A   1      39.200  22.395  26.448  1.00  0.00     0.060 A 
ATOM     25  C   UNL A   1      38.738  23.662  26.110  1.00  0.00     0.016 A 
ATOM     26  C   UNL A   1      40.311  22.253  27.273  1.00  0.00     0.016 A 
ATOM     27  C   UNL A   1      39.417  24.803  26.520  1.00  0.00     0.010 A 
ATOM     28  C   UNL A   1      40.953  23.404  27.752  1.00  0.00     0.010 A 
ATOM     29  C   UNL A   1      40.534  24.690  27.353  1.00  0.00    -0.014 A 
BRANCH  29  30
ATOM     30  C   UNL A   1      41.298  25.904  27.752  1.00  0.00     0.031 A 
ATOM     31  C   UNL A   1      40.628  26.959  28.592  1.00  0.00     0.074 A 
ATOM     32  C   UNL A   1      42.586  26.060  27.384  1.00  0.00     0.049 A 
ATOM     33  N   UNL A   1      41.023  28.174  28.873  1.00  0.00    -0.248 NA
ATOM     34  C   UNL A   1      39.331  26.596  29.180  1.00  0.00     0.031 C 
ATOM     35  C   UNL A   1      43.383  25.078  26.646  1.00  0.00     0.029 A 
ATOM     36  N   UNL A   1      43.453  27.110  27.576  1.00  0.00    -0.354 N 
ATOM     37  C   UNL A   1      39.998  28.740  29.626  1.00  0.00     0.074 A 
ATOM     38  C   UNL A   1      38.959  27.738  29.738  1.00  0.00     0.031 C 
ATOM     39  C   UNL A   1      44.620  25.564  26.460  1.00  0.00     0.029 A 
ATOM     40  C   UNL A   1      44.677  26.927  26.976  1.00  0.00     0.049 A 
ATOM     41  H   UNL A   1      43.220  27.914  28.093  1.00  0.00     0.167 HD
ATOM     42  C   UNL A   1      39.935  29.982  30.168  1.00  0.00     0.034 A 
ATOM     43  C   UNL A   1      45.709  27.778  26.804  1.00  0.00     0.034 A 
ATOM     44  C   UNL A   1      40.998  30.955  30.062  1.00  0.00     0.049 A 
ATOM     45  C   UNL A   1      45.584  29.184  27.336  1.00  0.00     0.074 A 
ATOM     46  C   UNL A   1      41.046  32.241  30.570  1.00  0.00     0.029 A 
ATOM     47  N   UNL A   1      42.206  30.745  29.405  1.00  0.00    -0.354 N 
ATOM     48  N   UNL A   1      44.585  29.735  27.985  1.00  0.00    -0.248 NA
ATOM     49  C   UNL A   1      46.722  30.082  27.104  1.00  0.00     0.031 C 
ATOM     50  C   UNL A   1      42.245  32.832  30.159  1.00  0.00     0.029 A 
ATOM     51  C   UNL A   1      42.989  31.887  29.472  1.00  0.00     0.049 A 
ATOM     52  H   UNL A   1      42.466  29.908  28.957  1.00  0.00     0.167 HD
ATOM     53  C   UNL A   1      44.989  31.036  28.269  1.00  0.00     0.074 A 
ATOM     54  C   UNL A   1      46.326  31.183  27.727  1.00  0.00     0.031 C 
ATOM     55  C   UNL A   1      44.321  32.019  28.926  1.00  0.00     0.034 A 
BRANCH  42  56
ATOM     56  C   UNL A   1      38.648  30.378  30.857  1.00  0.00     0.023 A 
ATOM     57  C   UNL A   1      37.592  31.001  30.169  1.00  0.00     0.031 A 
ATOM     58  C   UNL A   1      38.495  30.167  32.238  1.00  0.00     0.131 A 
ATOM     59  C   UNL A   1      36.472  31.465  30.877  1.00  0.00     0.055 A 
ATOM     60  C   UNL A   1      37.339  30.550  32.922  1.00  0.00     0.041 A 
ATOM     61  F   UNL A   1      39.476  29.598  32.957  1.00  0.00    -0.206 F 
ATOM     62  C   UNL A   1      36.325  31.219  32.244  1.00  0.00     0.022 A 
BRANCH  59  63
ATOM     63  S   UNL A   1      35.286  32.536  30.018  1.00  0.00     0.124 S 
ATOM     64  O   UNL A   1      34.305  32.792  31.069  1.00  0.00    -0.237 OA
ATOM     65  O   UNL A   1      36.113  33.671  29.626  1.00  0.00    -0.237 OA
ATOM     66  O   UNL A   1      34.806  31.703  28.918  1.00  0.00    -0.744 OA
ENDBRANCH  59  63
ENDBRANCH  42  56
BRANCH  43  67
ATOM     67  C   UNL A   1      46.920  27.353  26.041  1.00  0.00     0.023 A 
ATOM     68  C   UNL A   1      47.101  27.727  24.701  1.00  0.00     0.031 A 
ATOM     69  C   UNL A   1      47.896  26.529  26.632  1.00  0.00     0.131 A 
ATOM     70  C   UNL A   1      48.210  27.249  23.985  1.00  0.00     0.055 A 
ATOM     71  C   UNL A   1      49.028  26.107  25.934  1.00  0.00     0.041 A 
ATOM     72  F   UNL A   1      47.771  26.135  27.909  1.00  0.00    -0.206 F 
ATOM     73  C   UNL A   1      49.184  26.457  24.597  1.00  0.00     0.022 A 
BRANCH  70  74
ATOM     74  S   UNL A   1      48.316  27.605  22.210  1.00  0.00     0.124 S 
ATOM     75  O   UNL A   1      47.034  28.252  21.961  1.00  0.00    -0.237 OA
ATOM     76  O   UNL A   1      49.493  28.464  22.142  1.00  0.00    -0.237 OA
ATOM     77  O   UNL A   1      48.477  26.283  21.606  1.00  0.00    -0.744 OA
ENDBRANCH  70  74
ENDBRANCH  43  67
BRANCH  55  78
ATOM     78  C   UNL A   1      45.057  33.316  29.156  1.00  0.00     0.023 A 
ATOM     79  C   UNL A   1      44.990  34.385  28.246  1.00  0.00     0.031 A 
ATOM     80  C   UNL A   1      45.840  33.480  30.313  1.00  0.00     0.131 A 
ATOM     81  C   UNL A   1      45.735  35.551  28.483  1.00  0.00     0.055 A 
ATOM     82  C   UNL A   1      46.529  34.665  30.574  1.00  0.00     0.041 A 
ATOM     83  F   UNL A   1      45.943  32.489  31.214  1.00  0.00    -0.206 F 
ATOM     84  C   UNL A   1      46.488  35.704  29.652  1.00  0.00     0.022 A 
BRANCH  81  85
ATOM     85  S   UNL A   1      45.779  36.835  27.203  1.00  0.00     0.124 S 
ATOM     86  O   UNL A   1      46.380  36.123  26.080  1.00  0.00    -0.237 OA
ATOM     87  O   UNL A   1      44.369  37.181  27.058  1.00  0.00    -0.237 OA
ATOM     88  O   UNL A   1      46.615  37.879  27.793  1.00  0.00    -0.744 OA
ENDBRANCH  81  85
ENDBRANCH  55  78
ENDBRANCH  29  30
ENDBRANCH  22  24
ENDBRANCH  21  22
ENDBRANCH   1  21
TORSDOF 16
ENDMDL
