MODEL 1
REMARK VINA RESULT:     -11.5      0.000      0.000
REMARK SMILES Cc1cccc(C)c1Nc1ccccc1CC(=O)OCCOC(=O)c1ccc(-c2c3nc(c(-c4cc(S(=O)(=O)[O-])ccc4F)c4ccc([nH]4)c(-c4cc(S(=O)(=O)[O-])ccc4F)c4nc(c(-c5cc(S(=O)(=O)[O-])ccc5F)c5ccc2[nH]5)C=C4)C=C3)cc1
REMARK SMILES IDX 20 1 19 2 17 3 18 4 16 5 15 6 10 7 11 8 12 9 14 10 13 11
REMARK SMILES IDX 9 12 8 14 1 15 2 16 3 17 4 18 6 19 5 20 7 21 21 22 22 23
REMARK SMILES IDX 23 24 24 25 25 26 26 27 87 28 27 29 86 30 28 31 29 32 30 33
REMARK SMILES IDX 80 34 31 35 85 36 79 37 81 38 32 39 84 40 78 41 77 42 33 44
REMARK SMILES IDX 65 45 45 46 64 47 46 48 49 49 63 50 82 51 47 52 48 53 62 55
REMARK SMILES IDX 83 56 50 57 34 58 35 59 43 60 36 61 42 62 44 63 41 64 37 65
REMARK SMILES IDX 38 66 39 67 40 68 66 69 67 70 75 71 68 72 74 73 76 74 73 75
REMARK SMILES IDX 69 76 70 77 71 78 72 79 51 80 52 81 60 82 53 83 59 84 61 85
REMARK SMILES IDX 58 86 54 87 55 88 56 89 57 90
REMARK H PARENT 9 13 81 43 49 54
REMARK Flexibility Score: inf
ROOT
ATOM      1  C   UNL A   1      35.828  21.684  24.372  1.00  0.00     0.274 C 
ENDROOT
BRANCH   1   2
ATOM      2  O   UNL A   1      36.157  23.007  23.913  1.00  0.00    -0.462 OA
BRANCH   2   3
ATOM      3  C   UNL A   1      35.103  23.863  23.828  1.00  0.00     0.310 C 
ATOM      4  O   UNL A   1      34.551  24.176  22.778  1.00  0.00    -0.252 OA
BRANCH   3   5
ATOM      5  C   UNL A   1      34.721  24.491  25.141  1.00  0.00     0.160 C 
BRANCH   5   6
ATOM      6  C   UNL A   1      33.286  24.388  25.620  1.00  0.00    -0.013 A 
ATOM      7  C   UNL A   1      32.383  25.461  25.451  1.00  0.00     0.042 A 
ATOM      8  C   UNL A   1      31.073  25.341  25.951  1.00  0.00     0.026 A 
ATOM      9  C   UNL A   1      30.630  24.157  26.538  1.00  0.00     0.002 A 
ATOM     10  C   UNL A   1      32.807  23.188  26.179  1.00  0.00     0.006 A 
ATOM     11  C   UNL A   1      31.492  23.072  26.630  1.00  0.00     0.000 A 
BRANCH   7  12
ATOM     12  N   UNL A   1      32.680  26.613  24.692  1.00  0.00    -0.355 N 
ATOM     13  H   UNL A   1      33.639  26.761  24.527  1.00  0.00     0.167 HD
BRANCH  12  14
ATOM     14  C   UNL A   1      31.826  27.589  24.128  1.00  0.00     0.044 A 
ATOM     15  C   UNL A   1      31.614  26.090  22.076  1.00  0.00     0.046 C 
ATOM     16  C   UNL A   1      31.279  27.342  22.843  1.00  0.00    -0.027 A 
ATOM     17  C   UNL A   1      30.339  28.230  22.297  1.00  0.00     0.005 A 
ATOM     18  C   UNL A   1      29.937  29.358  23.003  1.00  0.00     0.001 A 
ATOM     19  C   UNL A   1      31.443  28.764  24.820  1.00  0.00    -0.027 A 
ATOM     20  C   UNL A   1      30.484  29.622  24.253  1.00  0.00     0.005 A 
ATOM     21  C   UNL A   1      32.002  29.159  26.163  1.00  0.00     0.046 C 
ENDBRANCH  12  14
ENDBRANCH   7  12
ENDBRANCH   5   6
ENDBRANCH   3   5
ENDBRANCH   2   3
ENDBRANCH   1   2
BRANCH   1  22
ATOM     22  C   UNL A   1      37.086  20.914  24.767  1.00  0.00     0.275 C 
BRANCH  22  23
ATOM     23  O   UNL A   1      37.642  21.456  25.978  1.00  0.00    -0.458 OA
BRANCH  23  24
ATOM     24  C   UNL A   1      38.986  21.359  26.101  1.00  0.00     0.338 C 
ATOM     25  O   UNL A   1      39.682  20.394  25.839  1.00  0.00    -0.246 OA
BRANCH  24  26
ATOM     26  C   UNL A   1      39.530  22.616  26.643  1.00  0.00     0.060 A 
ATOM     27  C   UNL A   1      39.087  23.856  26.173  1.00  0.00     0.016 A 
ATOM     28  C   UNL A   1      40.578  22.544  27.559  1.00  0.00     0.016 A 
ATOM     29  C   UNL A   1      39.716  25.029  26.601  1.00  0.00     0.010 A 
ATOM     30  C   UNL A   1      41.171  23.719  28.024  1.00  0.00     0.010 A 
ATOM     31  C   UNL A   1      40.761  24.972  27.534  1.00  0.00    -0.014 A 
BRANCH  31  32
ATOM     32  C   UNL A   1      41.474  26.199  27.982  1.00  0.00     0.031 A 
ATOM     33  C   UNL A   1      40.723  27.257  28.746  1.00  0.00     0.074 A 
ATOM     34  C   UNL A   1      42.770  26.389  27.670  1.00  0.00     0.049 A 
ATOM     35  N   UNL A   1      41.076  28.484  29.033  1.00  0.00    -0.248 NA
ATOM     36  C   UNL A   1      39.392  26.881  29.243  1.00  0.00     0.031 C 
ATOM     37  C   UNL A   1      43.627  25.423  26.983  1.00  0.00     0.029 A 
ATOM     38  N   UNL A   1      43.588  27.473  27.876  1.00  0.00    -0.354 N 
ATOM     39  C   UNL A   1      39.999  29.038  29.719  1.00  0.00     0.074 A 
ATOM     40  C   UNL A   1      38.975  28.017  29.784  1.00  0.00     0.031 C 
ATOM     41  C   UNL A   1      44.849  25.956  26.823  1.00  0.00     0.029 A 
ATOM     42  C   UNL A   1      44.842  27.326  27.329  1.00  0.00     0.049 A 
ATOM     43  H   UNL A   1      43.306  28.277  28.368  1.00  0.00     0.167 HD
ATOM     44  C   UNL A   1      39.881  30.283  30.246  1.00  0.00     0.034 A 
ATOM     45  C   UNL A   1      45.854  28.208  27.206  1.00  0.00     0.034 A 
ATOM     46  C   UNL A   1      40.914  31.289  30.180  1.00  0.00     0.049 A 
ATOM     47  C   UNL A   1      45.668  29.613  27.721  1.00  0.00     0.074 A 
ATOM     48  C   UNL A   1      40.892  32.585  30.666  1.00  0.00     0.029 A 
ATOM     49  N   UNL A   1      42.159  31.110  29.590  1.00  0.00    -0.354 N 
ATOM     50  N   UNL A   1      44.624  30.145  28.314  1.00  0.00    -0.248 NA
ATOM     51  C   UNL A   1      46.794  30.539  27.542  1.00  0.00     0.031 C 
ATOM     52  C   UNL A   1      42.102  33.204  30.329  1.00  0.00     0.029 A 
ATOM     53  C   UNL A   1      42.905  32.274  29.687  1.00  0.00     0.049 A 
ATOM     54  H   UNL A   1      42.467  30.276  29.166  1.00  0.00     0.167 HD
ATOM     55  C   UNL A   1      44.981  31.459  28.601  1.00  0.00     0.074 A 
ATOM     56  C   UNL A   1      46.339  31.634  28.130  1.00  0.00     0.031 C 
ATOM     57  C   UNL A   1      44.256  32.435  29.205  1.00  0.00     0.034 A 
BRANCH  44  58
ATOM     58  C   UNL A   1      38.565  30.637  30.895  1.00  0.00     0.023 A 
ATOM     59  C   UNL A   1      37.533  31.270  30.181  1.00  0.00     0.031 A 
ATOM     60  C   UNL A   1      38.349  30.358  32.257  1.00  0.00     0.131 A 
ATOM     61  C   UNL A   1      36.358  31.658  30.844  1.00  0.00     0.055 A 
ATOM     62  C   UNL A   1      37.150  30.683  32.894  1.00  0.00     0.041 A 
ATOM     63  F   UNL A   1      39.307  29.774  32.995  1.00  0.00    -0.206 F 
ATOM     64  C   UNL A   1      36.150  31.348  32.190  1.00  0.00     0.022 A 
BRANCH  61  65
ATOM     65  S   UNL A   1      35.156  32.685  29.954  1.00  0.00     0.124 S 
ATOM     66  O   UNL A   1      36.003  33.767  29.458  1.00  0.00    -0.237 OA
ATOM     67  O   UNL A   1      34.638  31.765  28.948  1.00  0.00    -0.237 OA
ATOM     68  O   UNL A   1      34.204  33.076  30.993  1.00  0.00    -0.744 OA
ENDBRANCH  61  65
ENDBRANCH  44  58
BRANCH  45  69
ATOM     69  C   UNL A   1      47.116  27.822  26.513  1.00  0.00     0.023 A 
ATOM     70  C   UNL A   1      47.250  27.973  25.124  1.00  0.00     0.031 A 
ATOM     71  C   UNL A   1      48.182  27.236  27.219  1.00  0.00     0.131 A 
ATOM     72  C   UNL A   1      48.402  27.500  24.477  1.00  0.00     0.055 A 
ATOM     73  C   UNL A   1      49.349  26.819  26.579  1.00  0.00     0.041 A 
ATOM     74  F   UNL A   1      48.104  27.065  28.549  1.00  0.00    -0.206 F 
ATOM     75  C   UNL A   1      49.459  26.936  25.197  1.00  0.00     0.022 A 
BRANCH  72  76
ATOM     76  S   UNL A   1      48.460  27.544  22.665  1.00  0.00     0.124 S 
ATOM     77  O   UNL A   1      49.726  28.228  22.425  1.00  0.00    -0.237 OA
ATOM     78  O   UNL A   1      48.423  26.125  22.327  1.00  0.00    -0.237 OA
ATOM     79  O   UNL A   1      47.263  28.300  22.304  1.00  0.00    -0.744 OA
ENDBRANCH  72  76
ENDBRANCH  45  69
BRANCH  57  80
ATOM     80  C   UNL A   1      44.948  33.754  29.434  1.00  0.00     0.023 A 
ATOM     81  C   UNL A   1      44.882  34.798  28.494  1.00  0.00     0.031 A 
ATOM     82  C   UNL A   1      45.706  33.958  30.601  1.00  0.00     0.131 A 
ATOM     83  C   UNL A   1      45.609  35.978  28.711  1.00  0.00     0.055 A 
ATOM     84  C   UNL A   1      46.385  35.154  30.835  1.00  0.00     0.041 A 
ATOM     85  F   UNL A   1      45.803  32.993  31.530  1.00  0.00    -0.206 F 
ATOM     86  C   UNL A   1      46.350  36.168  29.882  1.00  0.00     0.022 A 
BRANCH  83  87
ATOM     87  S   UNL A   1      45.641  37.235  27.404  1.00  0.00     0.124 S 
ATOM     88  O   UNL A   1      44.222  37.401  27.105  1.00  0.00    -0.237 OA
ATOM     89  O   UNL A   1      46.289  38.362  28.068  1.00  0.00    -0.237 OA
ATOM     90  O   UNL A   1      46.430  36.608  26.344  1.00  0.00    -0.744 OA
ENDBRANCH  83  87
ENDBRANCH  57  80
ENDBRANCH  31  32
ENDBRANCH  24  26
ENDBRANCH  23  24
ENDBRANCH  22  23
ENDBRANCH   1  22
TORSDOF 17
ENDMDL
MODEL 2
REMARK VINA RESULT:     -11.5      5.038     10.122
REMARK SMILES Cc1cccc(C)c1Nc1ccccc1CC(=O)OCCOC(=O)c1ccc(-c2c3nc(c(-c4cc(S(=O)(=O)[O-])ccc4F)c4ccc([nH]4)c(-c4cc(S(=O)(=O)[O-])ccc4F)c4nc(c(-c5cc(S(=O)(=O)[O-])ccc5F)c5ccc2[nH]5)C=C4)C=C3)cc1
REMARK SMILES IDX 20 1 19 2 17 3 18 4 16 5 15 6 10 7 11 8 12 9 14 10 13 11
REMARK SMILES IDX 9 12 8 14 1 15 2 16 3 17 4 18 6 19 5 20 7 21 21 22 22 23
REMARK SMILES IDX 23 24 24 25 25 26 26 27 87 28 27 29 86 30 28 31 29 32 30 33
REMARK SMILES IDX 80 34 31 35 85 36 79 37 81 38 32 39 84 40 78 41 77 42 33 44
REMARK SMILES IDX 65 45 45 46 64 47 46 48 49 49 63 50 82 51 47 52 48 53 62 55
REMARK SMILES IDX 83 56 50 57 34 58 35 59 43 60 36 61 42 62 44 63 41 64 37 65
REMARK SMILES IDX 38 66 39 67 40 68 66 69 67 70 75 71 68 72 74 73 76 74 73 75
REMARK SMILES IDX 69 76 70 77 71 78 72 79 51 80 52 81 60 82 53 83 59 84 61 85
REMARK SMILES IDX 58 86 54 87 55 88 56 89 57 90
REMARK H PARENT 9 13 81 43 49 54
REMARK Flexibility Score: inf
ROOT
ATOM      1  C   UNL A   1      31.704  28.924  27.227  1.00  0.00     0.274 C 
ENDROOT
BRANCH   1   2
ATOM      2  O   UNL A   1      32.851  28.099  26.957  1.00  0.00    -0.462 OA
BRANCH   2   3
ATOM      3  C   UNL A   1      32.564  26.846  26.511  1.00  0.00     0.310 C 
ATOM      4  O   UNL A   1      31.516  26.252  26.748  1.00  0.00    -0.252 OA
BRANCH   3   5
ATOM      5  C   UNL A   1      33.697  26.188  25.771  1.00  0.00     0.160 C 
BRANCH   5   6
ATOM      6  C   UNL A   1      33.448  25.630  24.383  1.00  0.00    -0.013 A 
ATOM      7  C   UNL A   1      33.642  24.259  24.104  1.00  0.00     0.042 A 
ATOM      8  C   UNL A   1      33.445  23.792  22.791  1.00  0.00     0.026 A 
ATOM      9  C   UNL A   1      32.987  24.640  21.784  1.00  0.00     0.002 A 
ATOM     10  C   UNL A   1      32.949  26.461  23.362  1.00  0.00     0.006 A 
ATOM     11  C   UNL A   1      32.717  25.970  22.076  1.00  0.00     0.000 A 
BRANCH   7  12
ATOM     12  N   UNL A   1      33.905  23.295  25.099  1.00  0.00    -0.355 N 
ATOM     13  H   UNL A   1      33.345  23.371  25.905  1.00  0.00     0.167 HD
BRANCH  12  14
ATOM     14  C   UNL A   1      34.841  22.234  25.128  1.00  0.00     0.044 A 
ATOM     15  C   UNL A   1      32.899  20.629  24.732  1.00  0.00     0.046 C 
ATOM     16  C   UNL A   1      34.364  20.913  24.935  1.00  0.00    -0.027 A 
ATOM     17  C   UNL A   1      35.271  19.844  24.843  1.00  0.00     0.005 A 
ATOM     18  C   UNL A   1      36.639  20.067  24.943  1.00  0.00     0.001 A 
ATOM     19  C   UNL A   1      36.234  22.444  25.272  1.00  0.00    -0.027 A 
ATOM     20  C   UNL A   1      37.115  21.355  25.156  1.00  0.00     0.005 A 
ATOM     21  C   UNL A   1      36.849  23.794  25.540  1.00  0.00     0.046 C 
ENDBRANCH  12  14
ENDBRANCH   7  12
ENDBRANCH   5   6
ENDBRANCH   3   5
ENDBRANCH   2   3
ENDBRANCH   1   2
BRANCH   1  22
ATOM     22  C   UNL A   1      31.910  30.338  26.688  1.00  0.00     0.275 C 
BRANCH  22  23
ATOM     23  O   UNL A   1      33.315  30.623  26.560  1.00  0.00    -0.458 OA
BRANCH  23  24
ATOM     24  C   UNL A   1      33.805  31.551  27.414  1.00  0.00     0.338 C 
ATOM     25  O   UNL A   1      33.288  32.608  27.728  1.00  0.00    -0.246 OA
BRANCH  24  26
ATOM     26  C   UNL A   1      35.119  31.119  27.920  1.00  0.00     0.060 A 
ATOM     27  C   UNL A   1      35.334  29.803  28.340  1.00  0.00     0.016 A 
ATOM     28  C   UNL A   1      36.117  32.079  28.075  1.00  0.00     0.016 A 
ATOM     29  C   UNL A   1      36.544  29.453  28.947  1.00  0.00     0.010 A 
ATOM     30  C   UNL A   1      37.345  31.716  28.633  1.00  0.00     0.010 A 
ATOM     31  C   UNL A   1      37.563  30.405  29.095  1.00  0.00    -0.014 A 
BRANCH  31  32
ATOM     32  C   UNL A   1      38.848  30.073  29.767  1.00  0.00     0.031 A 
ATOM     33  C   UNL A   1      39.777  29.069  29.139  1.00  0.00     0.074 A 
ATOM     34  C   UNL A   1      39.163  30.629  30.952  1.00  0.00     0.049 A 
ATOM     35  N   UNL A   1      40.822  28.470  29.648  1.00  0.00    -0.248 NA
ATOM     36  C   UNL A   1      39.479  28.684  27.751  1.00  0.00     0.031 C 
ATOM     37  C   UNL A   1      38.379  31.653  31.643  1.00  0.00     0.029 A 
ATOM     38  N   UNL A   1      40.221  30.394  31.796  1.00  0.00    -0.354 N 
ATOM     39  C   UNL A   1      41.292  27.614  28.656  1.00  0.00     0.074 A 
ATOM     40  C   UNL A   1      40.401  27.760  27.523  1.00  0.00     0.031 C 
ATOM     41  C   UNL A   1      38.982  31.958  32.804  1.00  0.00     0.029 A 
ATOM     42  C   UNL A   1      40.152  31.100  32.974  1.00  0.00     0.049 A 
ATOM     43  H   UNL A   1      40.958  29.779  31.578  1.00  0.00     0.167 HD
ATOM     44  C   UNL A   1      42.367  26.787  28.689  1.00  0.00     0.034 A 
ATOM     45  C   UNL A   1      40.915  31.032  34.084  1.00  0.00     0.034 A 
ATOM     46  C   UNL A   1      43.250  26.657  29.824  1.00  0.00     0.049 A 
ATOM     47  C   UNL A   1      42.051  30.042  34.132  1.00  0.00     0.074 A 
ATOM     48  C   UNL A   1      44.358  25.839  29.969  1.00  0.00     0.029 A 
ATOM     49  N   UNL A   1      43.128  27.370  31.010  1.00  0.00    -0.354 N 
ATOM     50  N   UNL A   1      42.449  29.194  33.211  1.00  0.00    -0.248 NA
ATOM     51  C   UNL A   1      42.835  29.994  35.373  1.00  0.00     0.031 C 
ATOM     52  C   UNL A   1      44.874  26.020  31.258  1.00  0.00     0.029 A 
ATOM     53  C   UNL A   1      44.128  26.998  31.895  1.00  0.00     0.049 A 
ATOM     54  H   UNL A   1      42.432  28.041  31.195  1.00  0.00     0.167 HD
ATOM     55  C   UNL A   1      43.547  28.534  33.755  1.00  0.00     0.074 A 
ATOM     56  C   UNL A   1      43.756  29.090  35.075  1.00  0.00     0.031 C 
ATOM     57  C   UNL A   1      44.318  27.557  33.212  1.00  0.00     0.034 A 
BRANCH  44  58
ATOM     58  C   UNL A   1      42.611  25.921  27.477  1.00  0.00     0.023 A 
ATOM     59  C   UNL A   1      42.123  24.606  27.396  1.00  0.00     0.031 A 
ATOM     60  C   UNL A   1      43.366  26.412  26.397  1.00  0.00     0.131 A 
ATOM     61  C   UNL A   1      42.445  23.807  26.288  1.00  0.00     0.055 A 
ATOM     62  C   UNL A   1      43.624  25.636  25.265  1.00  0.00     0.041 A 
ATOM     63  F   UNL A   1      43.877  27.653  26.428  1.00  0.00    -0.206 F 
ATOM     64  C   UNL A   1      43.173  24.320  25.211  1.00  0.00     0.022 A 
BRANCH  61  65
ATOM     65  S   UNL A   1      42.006  22.047  26.327  1.00  0.00     0.124 S 
ATOM     66  O   UNL A   1      40.564  22.097  26.102  1.00  0.00    -0.237 OA
ATOM     67  O   UNL A   1      42.805  21.497  25.238  1.00  0.00    -0.237 OA
ATOM     68  O   UNL A   1      42.405  21.624  27.669  1.00  0.00    -0.744 OA
ENDBRANCH  61  65
ENDBRANCH  44  58
BRANCH  45  69
ATOM     69  C   UNL A   1      40.600  31.875  35.272  1.00  0.00     0.023 A 
ATOM     70  C   UNL A   1      39.543  31.541  36.133  1.00  0.00     0.031 A 
ATOM     71  C   UNL A   1      41.310  33.062  35.528  1.00  0.00     0.131 A 
ATOM     72  C   UNL A   1      39.195  32.407  37.181  1.00  0.00     0.055 A 
ATOM     73  C   UNL A   1      40.995  33.892  36.604  1.00  0.00     0.041 A 
ATOM     74  F   UNL A   1      42.327  33.431  34.732  1.00  0.00    -0.206 F 
ATOM     75  C   UNL A   1      39.921  33.574  37.430  1.00  0.00     0.022 A 
BRANCH  72  76
ATOM     76  S   UNL A   1      37.712  32.035  38.156  1.00  0.00     0.124 S 
ATOM     77  O   UNL A   1      38.217  32.145  39.520  1.00  0.00    -0.237 OA
ATOM     78  O   UNL A   1      36.795  33.086  37.726  1.00  0.00    -0.237 OA
ATOM     79  O   UNL A   1      37.352  30.685  37.730  1.00  0.00    -0.744 OA
ENDBRANCH  72  76
ENDBRANCH  45  69
BRANCH  57  80
ATOM     80  C   UNL A   1      45.488  27.079  34.033  1.00  0.00     0.023 A 
ATOM     81  C   UNL A   1      45.385  25.973  34.894  1.00  0.00     0.031 A 
ATOM     82  C   UNL A   1      46.717  27.760  33.970  1.00  0.00     0.131 A 
ATOM     83  C   UNL A   1      46.476  25.613  35.701  1.00  0.00     0.055 A 
ATOM     84  C   UNL A   1      47.814  27.365  34.737  1.00  0.00     0.041 A 
ATOM     85  F   UNL A   1      46.868  28.824  33.165  1.00  0.00    -0.206 F 
ATOM     86  C   UNL A   1      47.693  26.295  35.618  1.00  0.00     0.022 A 
BRANCH  83  87
ATOM     87  S   UNL A   1      46.258  24.290  36.923  1.00  0.00     0.124 S 
ATOM     88  O   UNL A   1      46.605  24.967  38.169  1.00  0.00    -0.237 OA
ATOM     89  O   UNL A   1      44.851  23.940  36.759  1.00  0.00    -0.237 OA
ATOM     90  O   UNL A   1      47.205  23.264  36.490  1.00  0.00    -0.744 OA
ENDBRANCH  83  87
ENDBRANCH  57  80
ENDBRANCH  31  32
ENDBRANCH  24  26
ENDBRANCH  23  24
ENDBRANCH  22  23
ENDBRANCH   1  22
TORSDOF 17
ENDMDL
MODEL 3
REMARK VINA RESULT:     -11.3      1.774      2.989
REMARK SMILES Cc1cccc(C)c1Nc1ccccc1CC(=O)OCCOC(=O)c1ccc(-c2c3nc(c(-c4cc(S(=O)(=O)[O-])ccc4F)c4ccc([nH]4)c(-c4cc(S(=O)(=O)[O-])ccc4F)c4nc(c(-c5cc(S(=O)(=O)[O-])ccc5F)c5ccc2[nH]5)C=C4)C=C3)cc1
REMARK SMILES IDX 20 1 19 2 17 3 18 4 16 5 15 6 10 7 11 8 12 9 14 10 13 11
REMARK SMILES IDX 9 12 8 14 1 15 2 16 3 17 4 18 6 19 5 20 7 21 21 22 22 23
REMARK SMILES IDX 23 24 24 25 25 26 26 27 87 28 27 29 86 30 28 31 29 32 30 33
REMARK SMILES IDX 80 34 31 35 85 36 79 37 81 38 32 39 84 40 78 41 77 42 33 44
REMARK SMILES IDX 65 45 45 46 64 47 46 48 49 49 63 50 82 51 47 52 48 53 62 55
REMARK SMILES IDX 83 56 50 57 34 58 35 59 43 60 36 61 42 62 44 63 41 64 37 65
REMARK SMILES IDX 38 66 39 67 40 68 66 69 67 70 75 71 68 72 74 73 76 74 73 75
REMARK SMILES IDX 69 76 70 77 71 78 72 79 51 80 52 81 60 82 53 83 59 84 61 85
REMARK SMILES IDX 58 86 54 87 55 88 56 89 57 90
REMARK H PARENT 9 13 81 43 49 54
REMARK Flexibility Score: inf
ROOT
ATOM      1  C   UNL A   1      35.626  22.271  24.109  1.00  0.00     0.274 C 
ENDROOT
BRANCH   1   2
ATOM      2  O   UNL A   1      35.563  23.301  23.106  1.00  0.00    -0.462 OA
BRANCH   2   3
ATOM      3  C   UNL A   1      34.748  24.347  23.410  1.00  0.00     0.310 C 
ATOM      4  O   UNL A   1      34.142  25.015  22.577  1.00  0.00    -0.252 OA
BRANCH   3   5
ATOM      5  C   UNL A   1      34.723  24.696  24.873  1.00  0.00     0.160 C 
BRANCH   5   6
ATOM      6  C   UNL A   1      33.653  25.638  25.390  1.00  0.00    -0.013 A 
ATOM      7  C   UNL A   1      32.520  25.147  26.076  1.00  0.00     0.042 A 
ATOM      8  C   UNL A   1      31.529  26.052  26.500  1.00  0.00     0.026 A 
ATOM      9  C   UNL A   1      31.682  27.426  26.323  1.00  0.00     0.002 A 
ATOM     10  C   UNL A   1      33.807  27.031  25.258  1.00  0.00     0.006 A 
ATOM     11  C   UNL A   1      32.834  27.916  25.722  1.00  0.00     0.000 A 
BRANCH   7  12
ATOM     12  N   UNL A   1      32.379  23.802  26.478  1.00  0.00    -0.355 N 
ATOM     13  H   UNL A   1      32.163  23.677  27.430  1.00  0.00     0.167 HD
BRANCH  12  14
ATOM     14  C   UNL A   1      32.497  22.603  25.736  1.00  0.00     0.044 A 
ATOM     15  C   UNL A   1      33.893  21.660  27.650  1.00  0.00     0.046 C 
ATOM     16  C   UNL A   1      33.229  21.530  26.305  1.00  0.00    -0.027 A 
ATOM     17  C   UNL A   1      33.273  20.287  25.655  1.00  0.00     0.005 A 
ATOM     18  C   UNL A   1      32.608  20.094  24.450  1.00  0.00     0.001 A 
ATOM     19  C   UNL A   1      31.858  22.409  24.487  1.00  0.00    -0.027 A 
ATOM     20  C   UNL A   1      31.907  21.146  23.872  1.00  0.00     0.005 A 
ATOM     21  C   UNL A   1      31.103  23.493  23.760  1.00  0.00     0.046 C 
ENDBRANCH  12  14
ENDBRANCH   7  12
ENDBRANCH   5   6
ENDBRANCH   3   5
ENDBRANCH   2   3
ENDBRANCH   1   2
BRANCH   1  22
ATOM     22  C   UNL A   1      37.044  21.717  24.233  1.00  0.00     0.275 C 
BRANCH  22  23
ATOM     23  O   UNL A   1      37.325  21.369  25.600  1.00  0.00    -0.458 OA
BRANCH  23  24
ATOM     24  C   UNL A   1      38.623  21.119  25.886  1.00  0.00     0.338 C 
ATOM     25  O   UNL A   1      39.221  20.067  25.740  1.00  0.00    -0.246 OA
BRANCH  24  26
ATOM     26  C   UNL A   1      39.252  22.326  26.451  1.00  0.00     0.060 A 
ATOM     27  C   UNL A   1      38.775  23.602  26.138  1.00  0.00     0.016 A 
ATOM     28  C   UNL A   1      40.404  22.174  27.221  1.00  0.00     0.016 A 
ATOM     29  C   UNL A   1      39.472  24.733  26.573  1.00  0.00     0.010 A 
ATOM     30  C   UNL A   1      41.070  23.305  27.697  1.00  0.00     0.010 A 
ATOM     31  C   UNL A   1      40.624  24.595  27.361  1.00  0.00    -0.014 A 
BRANCH  31  32
ATOM     32  C   UNL A   1      41.408  25.778  27.809  1.00  0.00     0.031 A 
ATOM     33  C   UNL A   1      40.730  26.860  28.605  1.00  0.00     0.074 A 
ATOM     34  C   UNL A   1      42.704  25.908  27.469  1.00  0.00     0.049 A 
ATOM     35  N   UNL A   1      41.150  28.063  28.902  1.00  0.00    -0.248 NA
ATOM     36  C   UNL A   1      39.392  26.543  29.128  1.00  0.00     0.031 C 
ATOM     37  C   UNL A   1      43.496  24.910  26.748  1.00  0.00     0.029 A 
ATOM     38  N   UNL A   1      43.581  26.946  27.671  1.00  0.00    -0.354 N 
ATOM     39  C   UNL A   1      40.118  28.660  29.621  1.00  0.00     0.074 A 
ATOM     40  C   UNL A   1      39.046  27.690  29.696  1.00  0.00     0.031 C 
ATOM     41  C   UNL A   1      44.739  25.384  26.567  1.00  0.00     0.029 A 
ATOM     42  C   UNL A   1      44.813  26.745  27.093  1.00  0.00     0.049 A 
ATOM     43  H   UNL A   1      43.350  27.755  28.181  1.00  0.00     0.167 HD
ATOM     44  C   UNL A   1      40.075  29.901  30.169  1.00  0.00     0.034 A 
ATOM     45  C   UNL A   1      45.865  27.577  26.958  1.00  0.00     0.034 A 
ATOM     46  C   UNL A   1      41.156  30.854  30.092  1.00  0.00     0.049 A 
ATOM     47  C   UNL A   1      45.761  28.981  27.498  1.00  0.00     0.074 A 
ATOM     48  C   UNL A   1      41.211  32.143  30.598  1.00  0.00     0.029 A 
ATOM     49  N   UNL A   1      42.377  30.622  29.471  1.00  0.00    -0.354 N 
ATOM     50  N   UNL A   1      44.759  29.556  28.123  1.00  0.00    -0.248 NA
ATOM     51  C   UNL A   1      46.929  29.852  27.305  1.00  0.00     0.031 C 
ATOM     52  C   UNL A   1      42.442  32.705  30.241  1.00  0.00     0.029 A 
ATOM     53  C   UNL A   1      43.182  31.746  29.567  1.00  0.00     0.049 A 
ATOM     54  H   UNL A   1      42.632  29.781  29.027  1.00  0.00     0.167 HD
ATOM     55  C   UNL A   1      45.189  30.845  28.421  1.00  0.00     0.074 A 
ATOM     56  C   UNL A   1      46.543  30.960  27.920  1.00  0.00     0.031 C 
ATOM     57  C   UNL A   1      44.528  31.847  29.055  1.00  0.00     0.034 A 
BRANCH  44  58
ATOM     58  C   UNL A   1      38.794  30.310  30.854  1.00  0.00     0.023 A 
ATOM     59  C   UNL A   1      37.748  30.937  30.155  1.00  0.00     0.031 A 
ATOM     60  C   UNL A   1      38.627  30.091  32.233  1.00  0.00     0.131 A 
ATOM     61  C   UNL A   1      36.609  31.378  30.847  1.00  0.00     0.055 A 
ATOM     62  C   UNL A   1      37.461  30.468  32.903  1.00  0.00     0.041 A 
ATOM     63  F   UNL A   1      39.601  29.516  32.957  1.00  0.00    -0.206 F 
ATOM     64  C   UNL A   1      36.448  31.127  32.212  1.00  0.00     0.022 A 
BRANCH  61  65
ATOM     65  S   UNL A   1      35.394  32.394  29.964  1.00  0.00     0.124 S 
ATOM     66  O   UNL A   1      36.192  33.565  29.608  1.00  0.00    -0.237 OA
ATOM     67  O   UNL A   1      35.000  31.528  28.859  1.00  0.00    -0.237 OA
ATOM     68  O   UNL A   1      34.358  32.638  30.966  1.00  0.00    -0.744 OA
ENDBRANCH  61  65
ENDBRANCH  44  58
BRANCH  45  69
ATOM     69  C   UNL A   1      47.090  27.139  26.230  1.00  0.00     0.023 A 
ATOM     70  C   UNL A   1      48.105  26.430  26.891  1.00  0.00     0.031 A 
ATOM     71  C   UNL A   1      47.293  27.479  24.881  1.00  0.00     0.131 A 
ATOM     72  C   UNL A   1      49.297  26.125  26.217  1.00  0.00     0.055 A 
ATOM     73  C   UNL A   1      48.457  27.124  24.198  1.00  0.00     0.041 A 
ATOM     74  F   UNL A   1      46.355  28.160  24.203  1.00  0.00    -0.206 F 
ATOM     75  C   UNL A   1      49.475  26.455  24.871  1.00  0.00     0.022 A 
BRANCH  72  76
ATOM     76  S   UNL A   1      50.656  25.373  27.154  1.00  0.00     0.124 S 
ATOM     77  O   UNL A   1      49.970  24.301  27.865  1.00  0.00    -0.237 OA
ATOM     78  O   UNL A   1      51.564  24.958  26.089  1.00  0.00    -0.237 OA
ATOM     79  O   UNL A   1      51.140  26.469  27.991  1.00  0.00    -0.744 OA
ENDBRANCH  72  76
ENDBRANCH  45  69
BRANCH  57  80
ATOM     80  C   UNL A   1      45.291  33.126  29.287  1.00  0.00     0.023 A 
ATOM     81  C   UNL A   1      45.267  34.181  28.357  1.00  0.00     0.031 A 
ATOM     82  C   UNL A   1      46.074  33.279  30.445  1.00  0.00     0.131 A 
ATOM     83  C   UNL A   1      46.057  35.320  28.575  1.00  0.00     0.055 A 
ATOM     84  C   UNL A   1      46.817  34.436  30.680  1.00  0.00     0.041 A 
ATOM     85  F   UNL A   1      46.132  32.302  31.364  1.00  0.00    -0.206 F 
ATOM     86  C   UNL A   1      46.822  35.460  29.737  1.00  0.00     0.022 A 
BRANCH  83  87
ATOM     87  S   UNL A   1      46.137  36.586  27.279  1.00  0.00     0.124 S 
ATOM     88  O   UNL A   1      47.147  37.499  27.806  1.00  0.00    -0.237 OA
ATOM     89  O   UNL A   1      46.529  35.811  26.106  1.00  0.00    -0.237 OA
ATOM     90  O   UNL A   1      44.777  37.123  27.238  1.00  0.00    -0.744 OA
ENDBRANCH  83  87
ENDBRANCH  57  80
ENDBRANCH  31  32
ENDBRANCH  24  26
ENDBRANCH  23  24
ENDBRANCH  22  23
ENDBRANCH   1  22
TORSDOF 17
ENDMDL
