MODEL 1
REMARK VINA RESULT:     -12.7      0.000      0.000
REMARK SMILES Cc1cc(C)c(S(=O)(=O)n2cc([C@@H](C)[C@@H]([NH3+])C(=O)OCCOC(=O)c3ccc(-c4c5nc(c(-c6cc(S(=O)(=O)[O-])ccc6F)c6ccc([nH]6)c(-c6cc(S(=O)(=O)[O-])ccc6F)c6nc(c(-c7cc(S(=O)(=O)[O-])ccc7F)c7ccc4[nH]7)C=C6)C=C5)cc3)c3ccccc32)c(C)c1
REMARK SMILES IDX 20 1 19 2 17 3 18 4 15 5 13 6 14 7 12 8 10 9 11 10 93 11
REMARK SMILES IDX 88 12 92 13 89 14 91 15 90 16 7 17 8 18 9 19 6 20 1 21 2 22
REMARK SMILES IDX 3 23 96 24 4 25 94 26 5 27 95 28 16 29 21 33 22 34 23 35
REMARK SMILES IDX 24 36 25 37 26 38 87 39 27 40 86 41 28 42 29 43 30 44 80 45
REMARK SMILES IDX 31 46 85 47 79 48 81 49 32 50 84 51 78 52 77 53 33 55 65 56
REMARK SMILES IDX 45 57 64 58 46 59 49 60 63 61 82 62 47 63 48 64 62 66 83 67
REMARK SMILES IDX 50 68 34 69 35 70 43 71 36 72 42 73 44 74 41 75 37 76 38 77
REMARK SMILES IDX 39 78 40 79 66 80 67 81 75 82 68 83 74 84 76 85 73 86 69 87
REMARK SMILES IDX 70 88 71 89 72 90 51 91 52 92 60 93 53 94 59 95 61 96 58 97
REMARK SMILES IDX 54 98 55 99 56 100 57 101
REMARK H PARENT 16 30 16 31 16 32 81 54 49 65
REMARK Flexibility Score: inf
ROOT
ATOM      1  C   UNL A   1      36.450  21.232  25.520  1.00  0.00     0.274 C 
ENDROOT
BRANCH   1   2
ATOM      2  O   UNL A   1      35.991  20.182  24.633  1.00  0.00    -0.458 OA
BRANCH   2   3
ATOM      3  C   UNL A   1      34.728  19.749  24.863  1.00  0.00     0.365 C 
ATOM      4  O   UNL A   1      34.400  18.568  24.755  1.00  0.00    -0.245 OA
BRANCH   3   5
ATOM      5  C   UNL A   1      33.692  20.840  25.211  1.00  0.00     0.299 C 
BRANCH   5   6
ATOM      6  C   UNL A   1      32.415  21.050  24.351  1.00  0.00     0.088 C 
ATOM      7  C   UNL A   1      32.392  20.580  22.898  1.00  0.00     0.020 C 
BRANCH   6   8
ATOM      8  C   UNL A   1      31.999  22.521  24.428  1.00  0.00    -0.012 A 
ATOM      9  N   UNL A   1      31.840  24.648  23.789  1.00  0.00    -0.241 N 
ATOM     10  C   UNL A   1      32.444  23.454  23.517  1.00  0.00     0.109 A 
ATOM     11  C   UNL A   1      30.894  24.516  24.776  1.00  0.00     0.064 A 
ATOM     12  C   UNL A   1      31.086  23.227  25.308  1.00  0.00     0.004 A 
ATOM     13  C   UNL A   1      29.956  25.422  25.307  1.00  0.00     0.028 A 
ATOM     14  C   UNL A   1      30.403  22.924  26.507  1.00  0.00     0.010 A 
ATOM     15  C   UNL A   1      29.255  25.057  26.457  1.00  0.00     0.002 A 
ATOM     16  C   UNL A   1      29.500  23.839  27.071  1.00  0.00     0.001 A 
BRANCH   9  17
ATOM     17  S   UNL A   1      32.415  26.092  23.137  1.00  0.00     0.268 S 
ATOM     18  O   UNL A   1      31.368  26.578  22.257  1.00  0.00    -0.201 OA
ATOM     19  O   UNL A   1      33.754  25.786  22.665  1.00  0.00    -0.201 OA
BRANCH  17  20
ATOM     20  C   UNL A   1      32.637  27.375  24.379  1.00  0.00     0.094 A 
ATOM     21  C   UNL A   1      33.902  30.348  27.264  1.00  0.00     0.044 C 
ATOM     22  C   UNL A   1      33.434  29.308  26.294  1.00  0.00    -0.051 A 
ATOM     23  C   UNL A   1      33.981  28.032  26.318  1.00  0.00     0.008 A 
ATOM     24  C   UNL A   1      32.448  29.593  25.355  1.00  0.00     0.008 A 
ATOM     25  C   UNL A   1      33.600  27.055  25.381  1.00  0.00    -0.030 A 
ATOM     26  C   UNL A   1      31.997  28.636  24.418  1.00  0.00    -0.030 A 
ATOM     27  C   UNL A   1      34.286  25.715  25.533  1.00  0.00     0.046 C 
ATOM     28  C   UNL A   1      30.872  29.130  23.559  1.00  0.00     0.046 C 
ENDBRANCH  17  20
ENDBRANCH   9  17
ENDBRANCH   6   8
ENDBRANCH   5   6
BRANCH   5  29
ATOM     29  N   UNL A   1      33.318  20.650  26.647  1.00  0.00    -0.345 N 
ATOM     30  H   UNL A   1      33.842  21.306  27.225  1.00  0.00     0.345 HD
ATOM     31  H   UNL A   1      33.537  19.694  26.932  1.00  0.00     0.345 HD
ATOM     32  H   UNL A   1      32.318  20.818  26.763  1.00  0.00     0.345 HD
ENDBRANCH   5  29
ENDBRANCH   3   5
ENDBRANCH   2   3
ENDBRANCH   1   2
BRANCH   1  33
ATOM     33  C   UNL A   1      37.934  21.539  25.290  1.00  0.00     0.275 C 
BRANCH  33  34
ATOM     34  O   UNL A   1      38.355  22.583  26.184  1.00  0.00    -0.458 OA
BRANCH  34  35
ATOM     35  C   UNL A   1      39.544  22.399  26.809  1.00  0.00     0.338 C 
ATOM     36  O   UNL A   1      40.173  21.358  26.897  1.00  0.00    -0.246 OA
BRANCH  35  37
ATOM     37  C   UNL A   1      40.121  23.750  26.977  1.00  0.00     0.060 A 
ATOM     38  C   UNL A   1      41.245  24.005  27.766  1.00  0.00     0.016 A 
ATOM     39  C   UNL A   1      39.298  24.793  26.578  1.00  0.00     0.016 A 
ATOM     40  C   UNL A   1      41.410  25.274  28.329  1.00  0.00     0.010 A 
ATOM     41  C   UNL A   1      39.441  26.028  27.183  1.00  0.00     0.010 A 
ATOM     42  C   UNL A   1      40.429  26.250  28.135  1.00  0.00    -0.014 A 
BRANCH  42  43
ATOM     43  C   UNL A   1      40.539  27.596  28.704  1.00  0.00     0.031 A 
ATOM     44  C   UNL A   1      41.711  28.311  28.147  1.00  0.00     0.074 A 
ATOM     45  C   UNL A   1      39.651  28.262  29.477  1.00  0.00     0.049 A 
ATOM     46  N   UNL A   1      42.888  28.358  28.673  1.00  0.00    -0.248 NA
ATOM     47  C   UNL A   1      41.654  28.793  26.758  1.00  0.00     0.031 C 
ATOM     48  C   UNL A   1      38.302  27.890  29.883  1.00  0.00     0.029 A 
ATOM     49  N   UNL A   1      39.782  29.502  30.037  1.00  0.00    -0.354 N 
ATOM     50  C   UNL A   1      43.657  29.085  27.775  1.00  0.00     0.074 A 
ATOM     51  C   UNL A   1      42.941  29.050  26.529  1.00  0.00     0.031 C 
ATOM     52  C   UNL A   1      37.656  28.962  30.410  1.00  0.00     0.029 A 
ATOM     53  C   UNL A   1      38.612  30.045  30.565  1.00  0.00     0.049 A 
ATOM     54  H   UNL A   1      40.642  29.979  30.064  1.00  0.00     0.167 HD
ATOM     55  C   UNL A   1      44.666  29.895  28.200  1.00  0.00     0.034 A 
ATOM     56  C   UNL A   1      38.450  31.280  31.119  1.00  0.00     0.034 A 
ATOM     57  C   UNL A   1      44.932  29.684  29.601  1.00  0.00     0.049 A 
ATOM     58  C   UNL A   1      39.793  31.787  31.483  1.00  0.00     0.074 A 
ATOM     59  C   UNL A   1      45.348  28.608  30.359  1.00  0.00     0.029 A 
ATOM     60  N   UNL A   1      44.357  30.572  30.480  1.00  0.00    -0.354 N 
ATOM     61  N   UNL A   1      40.517  31.293  32.446  1.00  0.00    -0.248 NA
ATOM     62  C   UNL A   1      40.516  32.535  30.469  1.00  0.00     0.031 C 
ATOM     63  C   UNL A   1      44.601  28.697  31.567  1.00  0.00     0.029 A 
ATOM     64  C   UNL A   1      43.832  29.862  31.529  1.00  0.00     0.049 A 
ATOM     65  H   UNL A   1      44.327  31.550  30.374  1.00  0.00     0.167 HD
ATOM     66  C   UNL A   1      41.794  31.243  31.914  1.00  0.00     0.074 A 
ATOM     67  C   UNL A   1      41.751  32.103  30.733  1.00  0.00     0.031 C 
ATOM     68  C   UNL A   1      42.678  30.281  32.304  1.00  0.00     0.034 A 
BRANCH  55  69
ATOM     69  C   UNL A   1      45.139  31.122  27.458  1.00  0.00     0.023 A 
ATOM     70  C   UNL A   1      44.377  32.299  27.328  1.00  0.00     0.031 A 
ATOM     71  C   UNL A   1      46.473  31.208  27.016  1.00  0.00     0.131 A 
ATOM     72  C   UNL A   1      44.906  33.467  26.768  1.00  0.00     0.055 A 
ATOM     73  C   UNL A   1      47.028  32.397  26.527  1.00  0.00     0.041 A 
ATOM     74  F   UNL A   1      47.297  30.151  27.094  1.00  0.00    -0.206 F 
ATOM     75  C   UNL A   1      46.242  33.536  26.398  1.00  0.00     0.022 A 
BRANCH  72  76
ATOM     76  S   UNL A   1      43.845  34.918  26.518  1.00  0.00     0.124 S 
ATOM     77  O   UNL A   1      42.984  34.869  27.694  1.00  0.00    -0.237 OA
ATOM     78  O   UNL A   1      44.826  35.999  26.494  1.00  0.00    -0.237 OA
ATOM     79  O   UNL A   1      43.191  34.652  25.238  1.00  0.00    -0.744 OA
ENDBRANCH  72  76
ENDBRANCH  55  69
BRANCH  56  80
ATOM     80  C   UNL A   1      37.332  32.239  30.920  1.00  0.00     0.023 A 
ATOM     81  C   UNL A   1      36.660  32.738  32.045  1.00  0.00     0.031 A 
ATOM     82  C   UNL A   1      36.678  32.360  29.675  1.00  0.00     0.131 A 
ATOM     83  C   UNL A   1      35.361  33.256  31.928  1.00  0.00     0.055 A 
ATOM     84  C   UNL A   1      35.393  32.907  29.555  1.00  0.00     0.041 A 
ATOM     85  F   UNL A   1      37.240  31.866  28.561  1.00  0.00    -0.206 F 
ATOM     86  C   UNL A   1      34.718  33.341  30.692  1.00  0.00     0.022 A 
BRANCH  83  87
ATOM     87  S   UNL A   1      34.434  33.711  33.420  1.00  0.00     0.124 S 
ATOM     88  O   UNL A   1      34.399  35.169  33.318  1.00  0.00    -0.237 OA
ATOM     89  O   UNL A   1      33.164  33.030  33.186  1.00  0.00    -0.237 OA
ATOM     90  O   UNL A   1      35.266  33.178  34.496  1.00  0.00    -0.744 OA
ENDBRANCH  83  87
ENDBRANCH  56  80
BRANCH  68  91
ATOM     91  C   UNL A   1      42.351  29.429  33.511  1.00  0.00     0.023 A 
ATOM     92  C   UNL A   1      43.057  29.725  34.689  1.00  0.00     0.031 A 
ATOM     93  C   UNL A   1      41.600  28.237  33.486  1.00  0.00     0.131 A 
ATOM     94  C   UNL A   1      43.068  28.823  35.757  1.00  0.00     0.055 A 
ATOM     95  C   UNL A   1      41.548  27.374  34.588  1.00  0.00     0.041 A 
ATOM     96  F   UNL A   1      40.970  27.826  32.379  1.00  0.00    -0.206 F 
ATOM     97  C   UNL A   1      42.304  27.654  35.723  1.00  0.00     0.022 A 
BRANCH  94  98
ATOM     98  S   UNL A   1      44.224  29.067  37.128  1.00  0.00     0.124 S 
ATOM     99  O   UNL A   1      44.109  27.807  37.857  1.00  0.00    -0.237 OA
ATOM    100  O   UNL A   1      45.492  29.276  36.432  1.00  0.00    -0.237 OA
ATOM    101  O   UNL A   1      43.704  30.240  37.825  1.00  0.00    -0.744 OA
ENDBRANCH  94  98
ENDBRANCH  68  91
ENDBRANCH  42  43
ENDBRANCH  35  37
ENDBRANCH  34  35
ENDBRANCH  33  34
ENDBRANCH   1  33
TORSDOF 19
ENDMDL
MODEL 2
REMARK VINA RESULT:     -12.3      3.148      9.056
REMARK SMILES Cc1cc(C)c(S(=O)(=O)n2cc([C@@H](C)[C@@H]([NH3+])C(=O)OCCOC(=O)c3ccc(-c4c5nc(c(-c6cc(S(=O)(=O)[O-])ccc6F)c6ccc([nH]6)c(-c6cc(S(=O)(=O)[O-])ccc6F)c6nc(c(-c7cc(S(=O)(=O)[O-])ccc7F)c7ccc4[nH]7)C=C6)C=C5)cc3)c3ccccc32)c(C)c1
REMARK SMILES IDX 20 1 19 2 17 3 18 4 15 5 13 6 14 7 12 8 10 9 11 10 93 11
REMARK SMILES IDX 88 12 92 13 89 14 91 15 90 16 7 17 8 18 9 19 6 20 1 21 2 22
REMARK SMILES IDX 3 23 96 24 4 25 94 26 5 27 95 28 16 29 21 33 22 34 23 35
REMARK SMILES IDX 24 36 25 37 26 38 87 39 27 40 86 41 28 42 29 43 30 44 80 45
REMARK SMILES IDX 31 46 85 47 79 48 81 49 32 50 84 51 78 52 77 53 33 55 65 56
REMARK SMILES IDX 45 57 64 58 46 59 49 60 63 61 82 62 47 63 48 64 62 66 83 67
REMARK SMILES IDX 50 68 34 69 35 70 43 71 36 72 42 73 44 74 41 75 37 76 38 77
REMARK SMILES IDX 39 78 40 79 66 80 67 81 75 82 68 83 74 84 76 85 73 86 69 87
REMARK SMILES IDX 70 88 71 89 72 90 51 91 52 92 60 93 53 94 59 95 61 96 58 97
REMARK SMILES IDX 54 98 55 99 56 100 57 101
REMARK H PARENT 16 30 16 31 16 32 81 54 49 65
REMARK Flexibility Score: inf
ROOT
ATOM      1  C   UNL A   1      33.287  29.283  26.263  1.00  0.00     0.274 C 
ENDROOT
BRANCH   1   2
ATOM      2  O   UNL A   1      33.222  29.332  24.817  1.00  0.00    -0.458 OA
BRANCH   2   3
ATOM      3  C   UNL A   1      31.970  29.353  24.300  1.00  0.00     0.365 C 
ATOM      4  O   UNL A   1      31.014  29.850  24.894  1.00  0.00    -0.245 OA
BRANCH   3   5
ATOM      5  C   UNL A   1      31.791  28.655  22.935  1.00  0.00     0.299 C 
BRANCH   5   6
ATOM      6  C   UNL A   1      30.874  27.410  22.774  1.00  0.00     0.088 C 
ATOM      7  C   UNL A   1      29.408  27.487  23.196  1.00  0.00     0.020 C 
BRANCH   6   8
ATOM      8  C   UNL A   1      31.545  26.208  23.443  1.00  0.00    -0.012 A 
ATOM      9  N   UNL A   1      33.116  24.675  23.819  1.00  0.00    -0.241 N 
ATOM     10  C   UNL A   1      32.723  25.672  22.972  1.00  0.00     0.109 A 
ATOM     11  C   UNL A   1      32.306  24.613  24.926  1.00  0.00     0.064 A 
ATOM     12  C   UNL A   1      31.215  25.455  24.640  1.00  0.00     0.004 A 
ATOM     13  C   UNL A   1      32.379  23.842  26.102  1.00  0.00     0.028 A 
ATOM     14  C   UNL A   1      30.108  25.383  25.515  1.00  0.00     0.010 A 
ATOM     15  C   UNL A   1      31.288  23.849  26.972  1.00  0.00     0.002 A 
ATOM     16  C   UNL A   1      30.151  24.582  26.666  1.00  0.00     0.001 A 
BRANCH   9  17
ATOM     17  S   UNL A   1      34.289  23.553  23.370  1.00  0.00     0.268 S 
ATOM     18  O   UNL A   1      35.502  23.943  24.064  1.00  0.00    -0.201 OA
ATOM     19  O   UNL A   1      34.206  23.479  21.921  1.00  0.00    -0.201 OA
BRANCH  17  20
ATOM     20  C   UNL A   1      33.916  21.889  23.946  1.00  0.00     0.094 A 
ATOM     21  C   UNL A   1      32.873  17.739  24.615  1.00  0.00     0.044 C 
ATOM     22  C   UNL A   1      33.212  19.183  24.420  1.00  0.00    -0.051 A 
ATOM     23  C   UNL A   1      32.383  20.001  23.662  1.00  0.00     0.008 A 
ATOM     24  C   UNL A   1      34.354  19.737  24.988  1.00  0.00     0.008 A 
ATOM     25  C   UNL A   1      32.709  21.346  23.415  1.00  0.00    -0.030 A 
ATOM     26  C   UNL A   1      34.707  21.094  24.809  1.00  0.00    -0.030 A 
ATOM     27  C   UNL A   1      31.710  22.106  22.570  1.00  0.00     0.046 C 
ATOM     28  C   UNL A   1      35.929  21.498  25.578  1.00  0.00     0.046 C 
ENDBRANCH  17  20
ENDBRANCH   9  17
ENDBRANCH   6   8
ENDBRANCH   5   6
BRANCH   5  29
ATOM     29  N   UNL A   1      31.399  29.710  21.948  1.00  0.00    -0.345 N 
ATOM     30  H   UNL A   1      31.002  30.508  22.443  1.00  0.00     0.345 HD
ATOM     31  H   UNL A   1      30.706  29.330  21.302  1.00  0.00     0.345 HD
ATOM     32  H   UNL A   1      32.223  30.010  21.426  1.00  0.00     0.345 HD
ENDBRANCH   5  29
ENDBRANCH   3   5
ENDBRANCH   2   3
ENDBRANCH   1   2
BRANCH   1  33
ATOM     33  C   UNL A   1      33.351  30.693  26.861  1.00  0.00     0.275 C 
BRANCH  33  34
ATOM     34  O   UNL A   1      34.275  30.709  27.962  1.00  0.00    -0.458 OA
BRANCH  34  35
ATOM     35  C   UNL A   1      35.270  31.629  27.901  1.00  0.00     0.338 C 
ATOM     36  O   UNL A   1      35.164  32.805  27.594  1.00  0.00    -0.246 OA
BRANCH  35  37
ATOM     37  C   UNL A   1      36.392  31.057  28.675  1.00  0.00     0.060 A 
ATOM     38  C   UNL A   1      37.561  31.767  28.960  1.00  0.00     0.016 A 
ATOM     39  C   UNL A   1      36.361  29.678  28.820  1.00  0.00     0.016 A 
ATOM     40  C   UNL A   1      38.750  31.065  29.176  1.00  0.00     0.010 A 
ATOM     41  C   UNL A   1      37.552  28.995  28.982  1.00  0.00     0.010 A 
ATOM     42  C   UNL A   1      38.763  29.673  29.059  1.00  0.00    -0.014 A 
BRANCH  42  43
ATOM     43  C   UNL A   1      39.977  28.880  29.266  1.00  0.00     0.031 A 
ATOM     44  C   UNL A   1      40.352  28.852  30.700  1.00  0.00     0.074 A 
ATOM     45  C   UNL A   1      40.629  28.086  28.387  1.00  0.00     0.049 A 
ATOM     46  N   UNL A   1      41.181  29.653  31.280  1.00  0.00    -0.248 NA
ATOM     47  C   UNL A   1      39.545  28.046  31.629  1.00  0.00     0.031 C 
ATOM     48  C   UNL A   1      40.269  27.705  27.026  1.00  0.00     0.029 A 
ATOM     49  N   UNL A   1      41.785  27.382  28.579  1.00  0.00    -0.354 N 
ATOM     50  C   UNL A   1      41.165  29.283  32.617  1.00  0.00     0.074 A 
ATOM     51  C   UNL A   1      39.954  28.528  32.801  1.00  0.00     0.031 C 
ATOM     52  C   UNL A   1      41.042  26.671  26.607  1.00  0.00     0.029 A 
ATOM     53  C   UNL A   1      42.087  26.446  27.591  1.00  0.00     0.049 A 
ATOM     54  H   UNL A   1      42.365  27.526  29.361  1.00  0.00     0.167 HD
ATOM     55  C   UNL A   1      42.281  29.376  33.392  1.00  0.00     0.034 A 
ATOM     56  C   UNL A   1      43.136  25.576  27.569  1.00  0.00     0.034 A 
ATOM     57  C   UNL A   1      43.319  30.101  32.703  1.00  0.00     0.049 A 
ATOM     58  C   UNL A   1      44.152  26.075  28.523  1.00  0.00     0.074 A 
ATOM     59  C   UNL A   1      43.441  31.383  32.205  1.00  0.00     0.029 A 
ATOM     60  N   UNL A   1      44.281  29.351  32.068  1.00  0.00    -0.354 N 
ATOM     61  N   UNL A   1      44.858  27.153  28.330  1.00  0.00    -0.248 NA
ATOM     62  C   UNL A   1      44.044  25.628  29.901  1.00  0.00     0.031 C 
ATOM     63  C   UNL A   1      44.152  31.236  30.980  1.00  0.00     0.029 A 
ATOM     64  C   UNL A   1      44.504  29.893  30.829  1.00  0.00     0.049 A 
ATOM     65  H   UNL A   1      44.731  28.559  32.439  1.00  0.00     0.167 HD
ATOM     66  C   UNL A   1      44.864  27.775  29.567  1.00  0.00     0.074 A 
ATOM     67  C   UNL A   1      44.429  26.750  30.514  1.00  0.00     0.031 C 
ATOM     68  C   UNL A   1      44.930  29.134  29.668  1.00  0.00     0.034 A 
BRANCH  55  69
ATOM     69  C   UNL A   1      42.560  28.499  34.589  1.00  0.00     0.023 A 
ATOM     70  C   UNL A   1      42.681  27.099  34.522  1.00  0.00     0.031 A 
ATOM     71  C   UNL A   1      42.904  29.082  35.825  1.00  0.00     0.131 A 
ATOM     72  C   UNL A   1      43.091  26.336  35.620  1.00  0.00     0.055 A 
ATOM     73  C   UNL A   1      43.388  28.329  36.901  1.00  0.00     0.041 A 
ATOM     74  F   UNL A   1      42.832  30.409  36.007  1.00  0.00    -0.206 F 
ATOM     75  C   UNL A   1      43.481  26.946  36.804  1.00  0.00     0.022 A 
BRANCH  72  76
ATOM     76  S   UNL A   1      43.118  24.524  35.511  1.00  0.00     0.124 S 
ATOM     77  O   UNL A   1      43.988  24.168  36.627  1.00  0.00    -0.237 OA
ATOM     78  O   UNL A   1      41.705  24.198  35.679  1.00  0.00    -0.237 OA
ATOM     79  O   UNL A   1      43.655  24.265  34.177  1.00  0.00    -0.744 OA
ENDBRANCH  72  76
ENDBRANCH  55  69
BRANCH  56  80
ATOM     80  C   UNL A   1      43.132  24.140  27.184  1.00  0.00     0.023 A 
ATOM     81  C   UNL A   1      44.154  23.661  26.351  1.00  0.00     0.031 A 
ATOM     82  C   UNL A   1      41.967  23.352  27.290  1.00  0.00     0.131 A 
ATOM     83  C   UNL A   1      43.971  22.489  25.601  1.00  0.00     0.055 A 
ATOM     84  C   UNL A   1      41.799  22.164  26.564  1.00  0.00     0.041 A 
ATOM     85  F   UNL A   1      40.930  23.767  28.033  1.00  0.00    -0.206 F 
ATOM     86  C   UNL A   1      42.799  21.736  25.697  1.00  0.00     0.022 A 
BRANCH  83  87
ATOM     87  S   UNL A   1      45.222  21.994  24.383  1.00  0.00     0.124 S 
ATOM     88  O   UNL A   1      44.492  21.009  23.586  1.00  0.00    -0.237 OA
ATOM     89  O   UNL A   1      45.494  23.267  23.721  1.00  0.00    -0.237 OA
ATOM     90  O   UNL A   1      46.293  21.456  25.216  1.00  0.00    -0.744 OA
ENDBRANCH  83  87
ENDBRANCH  56  80
BRANCH  68  91
ATOM     91  C   UNL A   1      45.262  29.946  28.434  1.00  0.00     0.023 A 
ATOM     92  C   UNL A   1      46.609  30.313  28.279  1.00  0.00     0.031 A 
ATOM     93  C   UNL A   1      44.319  30.556  27.584  1.00  0.00     0.131 A 
ATOM     94  C   UNL A   1      46.973  31.307  27.366  1.00  0.00     0.055 A 
ATOM     95  C   UNL A   1      44.699  31.493  26.615  1.00  0.00     0.041 A 
ATOM     96  F   UNL A   1      43.005  30.338  27.719  1.00  0.00    -0.206 F 
ATOM     97  C   UNL A   1      46.029  31.891  26.518  1.00  0.00     0.022 A 
BRANCH  94  98
ATOM     98  S   UNL A   1      48.650  31.989  27.399  1.00  0.00     0.124 S 
ATOM     99  O   UNL A   1      48.673  32.690  28.680  1.00  0.00    -0.237 OA
ATOM    100  O   UNL A   1      49.476  30.785  27.329  1.00  0.00    -0.237 OA
ATOM    101  O   UNL A   1      48.708  32.845  26.218  1.00  0.00    -0.744 OA
ENDBRANCH  94  98
ENDBRANCH  68  91
ENDBRANCH  42  43
ENDBRANCH  35  37
ENDBRANCH  34  35
ENDBRANCH  33  34
ENDBRANCH   1  33
TORSDOF 19
ENDMDL
MODEL 3
REMARK VINA RESULT:     -12.1      2.005      3.015
REMARK SMILES Cc1cc(C)c(S(=O)(=O)n2cc([C@@H](C)[C@@H]([NH3+])C(=O)OCCOC(=O)c3ccc(-c4c5nc(c(-c6cc(S(=O)(=O)[O-])ccc6F)c6ccc([nH]6)c(-c6cc(S(=O)(=O)[O-])ccc6F)c6nc(c(-c7cc(S(=O)(=O)[O-])ccc7F)c7ccc4[nH]7)C=C6)C=C5)cc3)c3ccccc32)c(C)c1
REMARK SMILES IDX 20 1 19 2 17 3 18 4 15 5 13 6 14 7 12 8 10 9 11 10 93 11
REMARK SMILES IDX 88 12 92 13 89 14 91 15 90 16 7 17 8 18 9 19 6 20 1 21 2 22
REMARK SMILES IDX 3 23 96 24 4 25 94 26 5 27 95 28 16 29 21 33 22 34 23 35
REMARK SMILES IDX 24 36 25 37 26 38 87 39 27 40 86 41 28 42 29 43 30 44 80 45
REMARK SMILES IDX 31 46 85 47 79 48 81 49 32 50 84 51 78 52 77 53 33 55 65 56
REMARK SMILES IDX 45 57 64 58 46 59 49 60 63 61 82 62 47 63 48 64 62 66 83 67
REMARK SMILES IDX 50 68 34 69 35 70 43 71 36 72 42 73 44 74 41 75 37 76 38 77
REMARK SMILES IDX 39 78 40 79 66 80 67 81 75 82 68 83 74 84 76 85 73 86 69 87
REMARK SMILES IDX 70 88 71 89 72 90 51 91 52 92 60 93 53 94 59 95 61 96 58 97
REMARK SMILES IDX 54 98 55 99 56 100 57 101
REMARK H PARENT 16 30 16 31 16 32 81 54 49 65
REMARK Flexibility Score: inf
ROOT
ATOM      1  C   UNL A   1      39.796  20.837  26.082  1.00  0.00     0.274 C 
ENDROOT
BRANCH   1   2
ATOM      2  O   UNL A   1      38.764  21.745  25.625  1.00  0.00    -0.458 OA
BRANCH   2   3
ATOM      3  C   UNL A   1      37.708  21.154  25.016  1.00  0.00     0.365 C 
ATOM      4  O   UNL A   1      37.646  19.941  24.822  1.00  0.00    -0.245 OA
BRANCH   3   5
ATOM      5  C   UNL A   1      36.600  22.104  24.512  1.00  0.00     0.299 C 
BRANCH   5   6
ATOM      6  C   UNL A   1      35.253  22.256  25.273  1.00  0.00     0.088 C 
ATOM      7  C   UNL A   1      34.275  21.084  25.325  1.00  0.00     0.020 C 
BRANCH   6   8
ATOM      8  C   UNL A   1      34.534  23.509  24.768  1.00  0.00    -0.012 A 
ATOM      9  N   UNL A   1      33.783  25.605  24.808  1.00  0.00    -0.241 N 
ATOM     10  C   UNL A   1      34.380  24.630  25.555  1.00  0.00     0.109 A 
ATOM     11  C   UNL A   1      33.652  25.220  23.496  1.00  0.00     0.064 A 
ATOM     12  C   UNL A   1      33.967  23.848  23.476  1.00  0.00     0.004 A 
ATOM     13  C   UNL A   1      33.210  25.914  22.353  1.00  0.00     0.028 A 
ATOM     14  C   UNL A   1      33.673  23.145  22.286  1.00  0.00     0.010 A 
ATOM     15  C   UNL A   1      32.993  25.191  21.180  1.00  0.00     0.002 A 
ATOM     16  C   UNL A   1      33.187  23.818  21.155  1.00  0.00     0.001 A 
BRANCH   9  17
ATOM     17  S   UNL A   1      33.097  26.966  25.528  1.00  0.00     0.268 S 
ATOM     18  O   UNL A   1      33.995  28.068  25.235  1.00  0.00    -0.201 OA
ATOM     19  O   UNL A   1      32.780  26.555  26.885  1.00  0.00    -0.201 OA
BRANCH  17  20
ATOM     20  C   UNL A   1      31.518  27.419  24.793  1.00  0.00     0.094 A 
ATOM     21  C   UNL A   1      28.127  28.947  22.574  1.00  0.00     0.044 C 
ATOM     22  C   UNL A   1      29.276  28.423  23.377  1.00  0.00    -0.051 A 
ATOM     23  C   UNL A   1      30.235  29.294  23.879  1.00  0.00     0.008 A 
ATOM     24  C   UNL A   1      29.410  27.063  23.637  1.00  0.00     0.008 A 
ATOM     25  C   UNL A   1      31.354  28.821  24.586  1.00  0.00    -0.030 A 
ATOM     26  C   UNL A   1      30.492  26.538  24.380  1.00  0.00    -0.030 A 
ATOM     27  C   UNL A   1      32.311  29.890  25.067  1.00  0.00     0.046 C 
ATOM     28  C   UNL A   1      30.392  25.060  24.612  1.00  0.00     0.046 C 
ENDBRANCH  17  20
ENDBRANCH   9  17
ENDBRANCH   6   8
ENDBRANCH   5   6
BRANCH   5  29
ATOM     29  N   UNL A   1      37.229  23.447  24.313  1.00  0.00    -0.345 N 
ATOM     30  H   UNL A   1      36.499  24.157  24.238  1.00  0.00     0.345 HD
ATOM     31  H   UNL A   1      37.784  23.438  23.457  1.00  0.00     0.345 HD
ATOM     32  H   UNL A   1      37.831  23.662  25.107  1.00  0.00     0.345 HD
ENDBRANCH   5  29
ENDBRANCH   3   5
ENDBRANCH   2   3
ENDBRANCH   1   2
BRANCH   1  33
ATOM     33  C   UNL A   1      40.535  21.407  27.297  1.00  0.00     0.275 C 
BRANCH  33  34
ATOM     34  O   UNL A   1      41.917  21.623  26.964  1.00  0.00    -0.458 OA
BRANCH  34  35
ATOM     35  C   UNL A   1      42.224  22.824  26.415  1.00  0.00     0.338 C 
ATOM     36  O   UNL A   1      42.656  23.029  25.293  1.00  0.00    -0.246 OA
BRANCH  35  37
ATOM     37  C   UNL A   1      41.544  23.833  27.255  1.00  0.00     0.060 A 
ATOM     38  C   UNL A   1      40.413  24.536  26.835  1.00  0.00     0.016 A 
ATOM     39  C   UNL A   1      42.277  24.279  28.345  1.00  0.00     0.016 A 
ATOM     40  C   UNL A   1      40.155  25.799  27.375  1.00  0.00     0.010 A 
ATOM     41  C   UNL A   1      42.044  25.551  28.834  1.00  0.00     0.010 A 
ATOM     42  C   UNL A   1      41.052  26.358  28.288  1.00  0.00    -0.014 A 
BRANCH  42  43
ATOM     43  C   UNL A   1      40.843  27.680  28.885  1.00  0.00     0.031 A 
ATOM     44  C   UNL A   1      41.766  28.678  28.297  1.00  0.00     0.074 A 
ATOM     45  C   UNL A   1      39.853  28.087  29.713  1.00  0.00     0.049 A 
ATOM     46  N   UNL A   1      42.917  29.017  28.773  1.00  0.00    -0.248 NA
ATOM     47  C   UNL A   1      41.523  29.148  26.925  1.00  0.00     0.031 C 
ATOM     48  C   UNL A   1      38.664  27.377  30.167  1.00  0.00     0.029 A 
ATOM     49  N   UNL A   1      39.691  29.311  30.298  1.00  0.00    -0.354 N 
ATOM     50  C   UNL A   1      43.431  29.927  27.862  1.00  0.00     0.074 A 
ATOM     51  C   UNL A   1      42.689  29.729  26.647  1.00  0.00     0.031 C 
ATOM     52  C   UNL A   1      37.793  28.242  30.749  1.00  0.00     0.029 A 
ATOM     53  C   UNL A   1      38.449  29.531  30.890  1.00  0.00     0.049 A 
ATOM     54  H   UNL A   1      40.402  29.992  30.300  1.00  0.00     0.167 HD
ATOM     55  C   UNL A   1      44.221  30.963  28.263  1.00  0.00     0.034 A 
ATOM     56  C   UNL A   1      38.005  30.677  31.481  1.00  0.00     0.034 A 
ATOM     57  C   UNL A   1      44.599  30.807  29.645  1.00  0.00     0.049 A 
ATOM     58  C   UNL A   1      39.191  31.504  31.800  1.00  0.00     0.074 A 
ATOM     59  C   UNL A   1      45.311  29.863  30.357  1.00  0.00     0.029 A 
ATOM     60  N   UNL A   1      43.860  31.506  30.571  1.00  0.00    -0.354 N 
ATOM     61  N   UNL A   1      40.062  31.198  32.718  1.00  0.00    -0.248 NA
ATOM     62  C   UNL A   1      39.651  32.426  30.775  1.00  0.00     0.031 C 
ATOM     63  C   UNL A   1      44.625  29.742  31.599  1.00  0.00     0.029 A 
ATOM     64  C   UNL A   1      43.584  30.672  31.623  1.00  0.00     0.049 A 
ATOM     65  H   UNL A   1      43.577  32.446  30.491  1.00  0.00     0.167 HD
ATOM     66  C   UNL A   1      41.283  31.482  32.131  1.00  0.00     0.074 A 
ATOM     67  C   UNL A   1      40.966  32.319  30.974  1.00  0.00     0.031 C 
ATOM     68  C   UNL A   1      42.400  30.772  32.458  1.00  0.00     0.034 A 
BRANCH  55  69
ATOM     69  C   UNL A   1      44.330  32.280  27.533  1.00  0.00     0.023 A 
ATOM     70  C   UNL A   1      43.655  33.450  27.927  1.00  0.00     0.031 A 
ATOM     71  C   UNL A   1      45.285  32.442  26.511  1.00  0.00     0.131 A 
ATOM     72  C   UNL A   1      43.898  34.687  27.321  1.00  0.00     0.055 A 
ATOM     73  C   UNL A   1      45.587  33.692  25.956  1.00  0.00     0.041 A 
ATOM     74  F   UNL A   1      45.995  31.398  26.056  1.00  0.00    -0.206 F 
ATOM     75  C   UNL A   1      44.889  34.824  26.359  1.00  0.00     0.022 A 
BRANCH  72  76
ATOM     76  S   UNL A   1      42.916  36.140  27.788  1.00  0.00     0.124 S 
ATOM     77  O   UNL A   1      41.783  35.530  28.476  1.00  0.00    -0.237 OA
ATOM     78  O   UNL A   1      43.855  36.870  28.635  1.00  0.00    -0.237 OA
ATOM     79  O   UNL A   1      42.615  36.780  26.509  1.00  0.00    -0.744 OA
ENDBRANCH  72  76
ENDBRANCH  55  69
BRANCH  56  80
ATOM     80  C   UNL A   1      36.671  31.321  31.355  1.00  0.00     0.023 A 
ATOM     81  C   UNL A   1      36.122  31.491  30.077  1.00  0.00     0.031 A 
ATOM     82  C   UNL A   1      36.129  32.101  32.397  1.00  0.00     0.131 A 
ATOM     83  C   UNL A   1      35.132  32.461  29.850  1.00  0.00     0.055 A 
ATOM     84  C   UNL A   1      35.118  33.047  32.175  1.00  0.00     0.041 A 
ATOM     85  F   UNL A   1      36.634  32.025  33.639  1.00  0.00    -0.206 F 
ATOM     86  C   UNL A   1      34.627  33.245  30.889  1.00  0.00     0.022 A 
BRANCH  83  87
ATOM     87  S   UNL A   1      34.576  32.803  28.157  1.00  0.00     0.124 S 
ATOM     88  O   UNL A   1      33.413  33.657  28.389  1.00  0.00    -0.237 OA
ATOM     89  O   UNL A   1      35.750  33.470  27.601  1.00  0.00    -0.237 OA
ATOM     90  O   UNL A   1      34.281  31.471  27.635  1.00  0.00    -0.744 OA
ENDBRANCH  83  87
ENDBRANCH  56  80
BRANCH  68  91
ATOM     91  C   UNL A   1      42.359  29.848  33.656  1.00  0.00     0.023 A 
ATOM     92  C   UNL A   1      42.819  30.385  34.869  1.00  0.00     0.031 A 
ATOM     93  C   UNL A   1      42.135  28.458  33.604  1.00  0.00     0.131 A 
ATOM     94  C   UNL A   1      43.117  29.549  35.949  1.00  0.00     0.055 A 
ATOM     95  C   UNL A   1      42.358  27.633  34.713  1.00  0.00     0.041 A 
ATOM     96  F   UNL A   1      41.784  27.844  32.466  1.00  0.00    -0.206 F 
ATOM     97  C   UNL A   1      42.874  28.175  35.887  1.00  0.00     0.022 A 
BRANCH  94  98
ATOM     98  S   UNL A   1      44.000  30.212  37.383  1.00  0.00     0.124 S 
ATOM     99  O   UNL A   1      44.983  31.094  36.761  1.00  0.00    -0.237 OA
ATOM    100  O   UNL A   1      42.933  30.883  38.122  1.00  0.00    -0.237 OA
ATOM    101  O   UNL A   1      44.551  29.028  38.038  1.00  0.00    -0.744 OA
ENDBRANCH  94  98
ENDBRANCH  68  91
ENDBRANCH  42  43
ENDBRANCH  35  37
ENDBRANCH  34  35
ENDBRANCH  33  34
ENDBRANCH   1  33
TORSDOF 19
ENDMDL
