MODEL 1
REMARK VINA RESULT:     -14.6      0.000      0.000
REMARK SMILES C[C@]12C(=O)N(c3ccc(C(=O)OCCOC(=O)c4ccc(-c5c6nc(c(-c7cc(S(=O)(=O)[O-])ccc7F)c7ccc([nH]7)c(-c7cc(S(=O)(=O)[O-])ccc7F)c7nc(c(-c8cc(S(=O)(=O)[O-])ccc8F)c8ccc5[nH]8)C=C7)C=C6)cc4)cc3)C(=O)[C@H]1[C@H]1c3ccccc3[C@@H]2c2ccccc21
REMARK SMILES IDX 14 1 13 2 12 3 10 4 11 5 9 6 6 7 7 8 82 9 8 10 81 11 5 12
REMARK SMILES IDX 1 13 2 14 3 15 85 16 93 17 4 18 83 19 86 20 92 21 94 22
REMARK SMILES IDX 84 23 87 24 99 25 91 26 95 27 88 28 98 29 90 30 96 31 89 32
REMARK SMILES IDX 97 33 15 34 16 35 17 36 18 37 19 38 80 39 20 40 79 41 21 42
REMARK SMILES IDX 22 43 23 44 73 45 24 46 78 47 72 48 74 49 25 50 77 51 71 52
REMARK SMILES IDX 70 53 26 55 58 56 38 57 57 58 39 59 42 60 56 61 75 62 40 63
REMARK SMILES IDX 41 64 55 66 76 67 43 68 27 69 28 70 36 71 29 72 35 73 37 74
REMARK SMILES IDX 34 75 30 76 31 77 32 78 33 79 59 80 60 81 68 82 61 83 67 84
REMARK SMILES IDX 69 85 66 86 62 87 63 88 64 89 65 90 44 91 45 92 53 93 46 94
REMARK SMILES IDX 52 95 54 96 51 97 47 98 48 99 49 100 50 101
REMARK H PARENT 74 54 42 65
REMARK Flexibility Score: inf
ROOT
ATOM      1  C   UNL A   1      31.048  32.036  26.360  1.00  0.00     0.275 C 
ENDROOT
BRANCH   1   2
ATOM      2  C   UNL A   1      30.634  31.080  25.237  1.00  0.00     0.275 C 
BRANCH   2   3
ATOM      3  O   UNL A   1      29.773  31.735  24.278  1.00  0.00    -0.458 OA
BRANCH   3   4
ATOM      4  C   UNL A   1      28.914  30.924  23.620  1.00  0.00     0.338 C 
ATOM      5  O   UNL A   1      27.755  31.177  23.327  1.00  0.00    -0.246 OA
BRANCH   4   6
ATOM      6  C   UNL A   1      29.603  29.710  23.132  1.00  0.00     0.060 A 
ATOM      7  C   UNL A   1      30.863  27.257  22.442  1.00  0.00     0.052 A 
ATOM      8  C   UNL A   1      29.677  27.302  23.194  1.00  0.00     0.028 A 
ATOM      9  C   UNL A   1      31.399  28.482  22.022  1.00  0.00     0.028 A 
ATOM     10  C   UNL A   1      29.092  28.500  23.568  1.00  0.00     0.018 A 
ATOM     11  C   UNL A   1      30.756  29.707  22.339  1.00  0.00     0.018 A 
BRANCH   7  12
ATOM     12  N   UNL A   1      31.549  25.998  22.352  1.00  0.00    -0.250 N 
ATOM     13  C   UNL A   1      32.376  22.867  22.938  1.00  0.00     0.024 C 
ATOM     14  C   UNL A   1      32.229  24.204  23.694  1.00  0.00     0.071 C 
ATOM     15  C   UNL A   1      31.068  24.906  23.056  1.00  0.00     0.241 C 
ATOM     16  C   UNL A   1      33.399  25.181  23.425  1.00  0.00     0.107 C 
ATOM     17  C   UNL A   1      32.063  24.061  25.245  1.00  0.00     0.066 C 
ATOM     18  O   UNL A   1      29.918  24.496  23.125  1.00  0.00    -0.273 OA
ATOM     19  C   UNL A   1      32.943  25.888  22.159  1.00  0.00     0.238 C 
ATOM     20  C   UNL A   1      34.406  25.173  24.636  1.00  0.00     0.063 C 
ATOM     21  C   UNL A   1      32.282  25.437  25.918  1.00  0.00    -0.036 A 
ATOM     22  C   UNL A   1      33.264  23.223  25.673  1.00  0.00    -0.036 A 
ATOM     23  O   UNL A   1      33.652  26.353  21.284  1.00  0.00    -0.274 OA
ATOM     24  C   UNL A   1      33.587  25.999  25.695  1.00  0.00    -0.036 A 
ATOM     25  C   UNL A   1      34.517  23.786  25.296  1.00  0.00    -0.036 A 
ATOM     26  C   UNL A   1      31.306  26.182  26.559  1.00  0.00     0.005 A 
ATOM     27  C   UNL A   1      33.178  22.068  26.440  1.00  0.00     0.005 A 
ATOM     28  C   UNL A   1      33.890  27.294  26.091  1.00  0.00     0.004 A 
ATOM     29  C   UNL A   1      35.690  23.175  25.723  1.00  0.00     0.004 A 
ATOM     30  C   UNL A   1      31.616  27.488  26.950  1.00  0.00     0.000 A 
ATOM     31  C   UNL A   1      34.359  21.462  26.854  1.00  0.00     0.000 A 
ATOM     32  C   UNL A   1      32.890  28.037  26.718  1.00  0.00     0.000 A 
ATOM     33  C   UNL A   1      35.602  22.010  26.499  1.00  0.00     0.000 A 
ENDBRANCH   7  12
ENDBRANCH   4   6
ENDBRANCH   3   4
ENDBRANCH   2   3
ENDBRANCH   1   2
BRANCH   1  34
ATOM     34  O   UNL A   1      32.358  31.709  26.860  1.00  0.00    -0.458 OA
BRANCH  34  35
ATOM     35  C   UNL A   1      33.005  32.717  27.487  1.00  0.00     0.338 C 
ATOM     36  O   UNL A   1      32.592  33.843  27.698  1.00  0.00    -0.246 OA
BRANCH  35  37
ATOM     37  C   UNL A   1      34.308  32.233  27.967  1.00  0.00     0.060 A 
ATOM     38  C   UNL A   1      35.380  33.098  28.159  1.00  0.00     0.016 A 
ATOM     39  C   UNL A   1      34.410  30.897  28.347  1.00  0.00     0.016 A 
ATOM     40  C   UNL A   1      36.560  32.604  28.734  1.00  0.00     0.010 A 
ATOM     41  C   UNL A   1      35.526  30.447  29.046  1.00  0.00     0.010 A 
ATOM     42  C   UNL A   1      36.637  31.281  29.216  1.00  0.00    -0.014 A 
BRANCH  42  43
ATOM     43  C   UNL A   1      37.867  30.761  29.883  1.00  0.00     0.031 A 
ATOM     44  C   UNL A   1      38.219  31.182  31.293  1.00  0.00     0.074 A 
ATOM     45  C   UNL A   1      38.698  29.939  29.209  1.00  0.00     0.049 A 
ATOM     46  N   UNL A   1      39.239  30.820  32.028  1.00  0.00    -0.248 NA
ATOM     47  C   UNL A   1      37.335  32.158  31.953  1.00  0.00     0.031 C 
ATOM     48  C   UNL A   1      38.529  29.537  27.812  1.00  0.00     0.029 A 
ATOM     49  N   UNL A   1      39.847  29.292  29.598  1.00  0.00    -0.354 N 
ATOM     50  C   UNL A   1      39.127  31.531  33.219  1.00  0.00     0.074 A 
ATOM     51  C   UNL A   1      37.982  32.400  33.084  1.00  0.00     0.031 C 
ATOM     52  C   UNL A   1      39.500  28.675  27.479  1.00  0.00     0.029 A 
ATOM     53  C   UNL A   1      40.393  28.491  28.620  1.00  0.00     0.049 A 
ATOM     54  H   UNL A   1      40.241  29.390  30.495  1.00  0.00     0.167 HD
ATOM     55  C   UNL A   1      39.879  31.437  34.340  1.00  0.00     0.034 A 
ATOM     56  C   UNL A   1      41.483  27.694  28.634  1.00  0.00     0.034 A 
ATOM     57  C   UNL A   1      40.983  30.523  34.487  1.00  0.00     0.049 A 
ATOM     58  C   UNL A   1      42.270  27.560  29.915  1.00  0.00     0.074 A 
ATOM     59  C   UNL A   1      41.750  30.291  35.614  1.00  0.00     0.029 A 
ATOM     60  N   UNL A   1      41.467  29.688  33.492  1.00  0.00    -0.354 N 
ATOM     61  N   UNL A   1      42.069  28.147  31.071  1.00  0.00    -0.248 NA
ATOM     62  C   UNL A   1      43.421  26.643  29.907  1.00  0.00     0.031 C 
ATOM     63  C   UNL A   1      42.736  29.363  35.285  1.00  0.00     0.029 A 
ATOM     64  C   UNL A   1      42.537  28.954  33.976  1.00  0.00     0.049 A 
ATOM     65  H   UNL A   1      41.105  29.626  32.579  1.00  0.00     0.167 HD
ATOM     66  C   UNL A   1      43.046  27.654  31.931  1.00  0.00     0.074 A 
ATOM     67  C   UNL A   1      43.820  26.695  31.173  1.00  0.00     0.031 C 
ATOM     68  C   UNL A   1      43.284  27.974  33.227  1.00  0.00     0.034 A 
BRANCH  55  69
ATOM     69  C   UNL A   1      39.524  32.282  35.540  1.00  0.00     0.023 A 
ATOM     70  C   UNL A   1      38.737  31.740  36.575  1.00  0.00     0.031 A 
ATOM     71  C   UNL A   1      39.808  33.660  35.572  1.00  0.00     0.131 A 
ATOM     72  C   UNL A   1      38.216  32.583  37.566  1.00  0.00     0.055 A 
ATOM     73  C   UNL A   1      39.328  34.485  36.589  1.00  0.00     0.041 A 
ATOM     74  F   UNL A   1      40.549  34.226  34.606  1.00  0.00    -0.206 F 
ATOM     75  C   UNL A   1      38.513  33.950  37.583  1.00  0.00     0.022 A 
BRANCH  72  76
ATOM     76  S   UNL A   1      37.066  31.957  38.821  1.00  0.00     0.124 S 
ATOM     77  O   UNL A   1      35.848  32.706  38.514  1.00  0.00    -0.237 OA
ATOM     78  O   UNL A   1      37.018  30.532  38.505  1.00  0.00    -0.237 OA
ATOM     79  O   UNL A   1      37.704  32.305  40.086  1.00  0.00    -0.744 OA
ENDBRANCH  72  76
ENDBRANCH  55  69
BRANCH  56  80
ATOM     80  C   UNL A   1      41.831  26.908  27.412  1.00  0.00     0.023 A 
ATOM     81  C   UNL A   1      41.601  25.521  27.350  1.00  0.00     0.031 A 
ATOM     82  C   UNL A   1      42.487  27.513  26.325  1.00  0.00     0.131 A 
ATOM     83  C   UNL A   1      42.077  24.781  26.258  1.00  0.00     0.055 A 
ATOM     84  C   UNL A   1      42.893  26.784  25.206  1.00  0.00     0.041 A 
ATOM     85  F   UNL A   1      42.747  28.830  26.341  1.00  0.00    -0.206 F 
ATOM     86  C   UNL A   1      42.705  25.407  25.177  1.00  0.00     0.022 A 
BRANCH  83  87
ATOM     87  S   UNL A   1      42.028  22.966  26.271  1.00  0.00     0.124 S 
ATOM     88  O   UNL A   1      40.595  22.702  26.348  1.00  0.00    -0.237 OA
ATOM     89  O   UNL A   1      42.663  22.640  24.997  1.00  0.00    -0.237 OA
ATOM     90  O   UNL A   1      42.801  22.611  27.457  1.00  0.00    -0.744 OA
ENDBRANCH  83  87
ENDBRANCH  56  80
BRANCH  68  91
ATOM     91  C   UNL A   1      44.417  27.289  33.955  1.00  0.00     0.023 A 
ATOM     92  C   UNL A   1      44.172  26.095  34.663  1.00  0.00     0.031 A 
ATOM     93  C   UNL A   1      45.670  27.905  34.102  1.00  0.00     0.131 A 
ATOM     94  C   UNL A   1      45.150  25.584  35.525  1.00  0.00     0.055 A 
ATOM     95  C   UNL A   1      46.662  27.362  34.921  1.00  0.00     0.041 A 
ATOM     96  F   UNL A   1      45.947  29.052  33.461  1.00  0.00    -0.206 F 
ATOM     97  C   UNL A   1      46.396  26.206  35.651  1.00  0.00     0.022 A 
BRANCH  94  98
ATOM     98  S   UNL A   1      44.804  24.159  36.593  1.00  0.00     0.124 S 
ATOM     99  O   UNL A   1      46.140  23.604  36.798  1.00  0.00    -0.237 OA
ATOM    100  O   UNL A   1      44.205  24.791  37.766  1.00  0.00    -0.237 OA
ATOM    101  O   UNL A   1      43.903  23.332  35.798  1.00  0.00    -0.744 OA
ENDBRANCH  94  98
ENDBRANCH  68  91
ENDBRANCH  42  43
ENDBRANCH  35  37
ENDBRANCH  34  35
ENDBRANCH   1  34
TORSDOF 15
ENDMDL
MODEL 2
REMARK VINA RESULT:     -14.4      4.758     10.317
REMARK SMILES C[C@]12C(=O)N(c3ccc(C(=O)OCCOC(=O)c4ccc(-c5c6nc(c(-c7cc(S(=O)(=O)[O-])ccc7F)c7ccc([nH]7)c(-c7cc(S(=O)(=O)[O-])ccc7F)c7nc(c(-c8cc(S(=O)(=O)[O-])ccc8F)c8ccc5[nH]8)C=C7)C=C6)cc4)cc3)C(=O)[C@H]1[C@H]1c3ccccc3[C@@H]2c2ccccc21
REMARK SMILES IDX 14 1 13 2 12 3 10 4 11 5 9 6 6 7 7 8 82 9 8 10 81 11 5 12
REMARK SMILES IDX 1 13 2 14 3 15 85 16 93 17 4 18 83 19 86 20 92 21 94 22
REMARK SMILES IDX 84 23 87 24 99 25 91 26 95 27 88 28 98 29 90 30 96 31 89 32
REMARK SMILES IDX 97 33 15 34 16 35 17 36 18 37 19 38 80 39 20 40 79 41 21 42
REMARK SMILES IDX 22 43 23 44 73 45 24 46 78 47 72 48 74 49 25 50 77 51 71 52
REMARK SMILES IDX 70 53 26 55 58 56 38 57 57 58 39 59 42 60 56 61 75 62 40 63
REMARK SMILES IDX 41 64 55 66 76 67 43 68 27 69 28 70 36 71 29 72 35 73 37 74
REMARK SMILES IDX 34 75 30 76 31 77 32 78 33 79 59 80 60 81 68 82 61 83 67 84
REMARK SMILES IDX 69 85 66 86 62 87 63 88 64 89 65 90 44 91 45 92 53 93 46 94
REMARK SMILES IDX 52 95 54 96 51 97 47 98 48 99 49 100 50 101
REMARK H PARENT 74 54 42 65
REMARK Flexibility Score: inf
ROOT
ATOM      1  C   UNL A   1      37.816  19.847  25.011  1.00  0.00     0.275 C 
ENDROOT
BRANCH   1   2
ATOM      2  C   UNL A   1      36.333  20.083  24.712  1.00  0.00     0.275 C 
BRANCH   2   3
ATOM      3  O   UNL A   1      35.888  21.359  25.222  1.00  0.00    -0.458 OA
BRANCH   3   4
ATOM      4  C   UNL A   1      35.788  22.350  24.307  1.00  0.00     0.338 C 
ATOM      5  O   UNL A   1      36.439  22.458  23.277  1.00  0.00    -0.246 OA
BRANCH   4   6
ATOM      6  C   UNL A   1      34.650  23.242  24.617  1.00  0.00     0.060 A 
ATOM      7  C   UNL A   1      32.298  24.773  25.069  1.00  0.00     0.052 A 
ATOM      8  C   UNL A   1      32.286  23.368  25.069  1.00  0.00     0.028 A 
ATOM      9  C   UNL A   1      33.534  25.400  24.855  1.00  0.00     0.028 A 
ATOM     10  C   UNL A   1      33.424  22.626  24.801  1.00  0.00     0.018 A 
ATOM     11  C   UNL A   1      34.714  24.638  24.658  1.00  0.00     0.018 A 
BRANCH   7  12
ATOM     12  N   UNL A   1      31.033  25.453  25.065  1.00  0.00    -0.250 N 
ATOM     13  C   UNL A   1      28.280  26.875  23.954  1.00  0.00     0.024 C 
ATOM     14  C   UNL A   1      29.810  26.997  23.798  1.00  0.00     0.071 C 
ATOM     15  C   UNL A   1      30.340  25.597  23.873  1.00  0.00     0.241 C 
ATOM     16  C   UNL A   1      30.488  27.676  25.013  1.00  0.00     0.107 C 
ATOM     17  C   UNL A   1      30.276  27.745  22.503  1.00  0.00     0.066 C 
ATOM     18  O   UNL A   1      30.108  24.748  23.024  1.00  0.00    -0.273 OA
ATOM     19  C   UNL A   1      30.714  26.502  25.952  1.00  0.00     0.238 C 
ATOM     20  C   UNL A   1      30.828  29.177  24.680  1.00  0.00     0.063 C 
ATOM     21  C   UNL A   1      31.772  28.116  22.629  1.00  0.00    -0.036 A 
ATOM     22  C   UNL A   1      29.538  29.079  22.556  1.00  0.00    -0.036 A 
ATOM     23  O   UNL A   1      30.742  26.534  27.170  1.00  0.00    -0.274 OA
ATOM     24  C   UNL A   1      32.071  28.987  23.734  1.00  0.00    -0.036 A 
ATOM     25  C   UNL A   1      29.785  29.821  23.748  1.00  0.00    -0.036 A 
ATOM     26  C   UNL A   1      32.800  27.574  21.876  1.00  0.00     0.005 A 
ATOM     27  C   UNL A   1      28.770  29.591  21.519  1.00  0.00     0.005 A 
ATOM     28  C   UNL A   1      33.381  29.283  24.084  1.00  0.00     0.004 A 
ATOM     29  C   UNL A   1      29.260  31.101  23.870  1.00  0.00     0.004 A 
ATOM     30  C   UNL A   1      34.118  27.872  22.236  1.00  0.00     0.000 A 
ATOM     31  C   UNL A   1      28.242  30.870  21.657  1.00  0.00     0.000 A 
ATOM     32  C   UNL A   1      34.405  28.714  23.326  1.00  0.00     0.000 A 
ATOM     33  C   UNL A   1      28.485  31.618  22.820  1.00  0.00     0.000 A 
ENDBRANCH   7  12
ENDBRANCH   4   6
ENDBRANCH   3   4
ENDBRANCH   2   3
ENDBRANCH   1   2
BRANCH   1  34
ATOM     34  O   UNL A   1      38.432  21.036  25.538  1.00  0.00    -0.458 OA
BRANCH  34  35
ATOM     35  C   UNL A   1      39.577  20.836  26.229  1.00  0.00     0.338 C 
ATOM     36  O   UNL A   1      40.198  19.795  26.346  1.00  0.00    -0.246 OA
BRANCH  35  37
ATOM     37  C   UNL A   1      40.036  22.117  26.788  1.00  0.00     0.060 A 
ATOM     38  C   UNL A   1      41.062  22.175  27.726  1.00  0.00     0.016 A 
ATOM     39  C   UNL A   1      39.503  23.290  26.261  1.00  0.00     0.016 A 
ATOM     40  C   UNL A   1      41.542  23.427  28.134  1.00  0.00     0.010 A 
ATOM     41  C   UNL A   1      40.078  24.521  26.560  1.00  0.00     0.010 A 
ATOM     42  C   UNL A   1      41.081  24.615  27.532  1.00  0.00    -0.014 A 
BRANCH  42  43
ATOM     43  C   UNL A   1      41.627  25.951  27.916  1.00  0.00     0.031 A 
ATOM     44  C   UNL A   1      43.028  26.357  27.516  1.00  0.00     0.074 A 
ATOM     45  C   UNL A   1      40.880  26.790  28.662  1.00  0.00     0.049 A 
ATOM     46  N   UNL A   1      43.657  27.479  27.753  1.00  0.00    -0.248 NA
ATOM     47  C   UNL A   1      43.842  25.369  26.787  1.00  0.00     0.031 C 
ATOM     48  C   UNL A   1      39.554  26.481  29.199  1.00  0.00     0.029 A 
ATOM     49  N   UNL A   1      41.119  28.071  29.101  1.00  0.00    -0.354 N 
ATOM     50  C   UNL A   1      44.933  27.325  27.220  1.00  0.00     0.074 A 
ATOM     51  C   UNL A   1      45.017  25.978  26.711  1.00  0.00     0.031 C 
ATOM     52  C   UNL A   1      39.077  27.555  29.846  1.00  0.00     0.029 A 
ATOM     53  C   UNL A   1      40.076  28.620  29.813  1.00  0.00     0.049 A 
ATOM     54  H   UNL A   1      41.960  28.552  28.922  1.00  0.00     0.167 HD
ATOM     55  C   UNL A   1      45.930  28.236  27.121  1.00  0.00     0.034 A 
ATOM     56  C   UNL A   1      39.930  29.841  30.372  1.00  0.00     0.034 A 
ATOM     57  C   UNL A   1      45.816  29.597  27.578  1.00  0.00     0.049 A 
ATOM     58  C   UNL A   1      41.031  30.858  30.197  1.00  0.00     0.074 A 
ATOM     59  C   UNL A   1      46.737  30.620  27.443  1.00  0.00     0.029 A 
ATOM     60  N   UNL A   1      44.721  30.129  28.241  1.00  0.00    -0.354 N 
ATOM     61  N   UNL A   1      42.180  30.729  29.576  1.00  0.00    -0.248 NA
ATOM     62  C   UNL A   1      40.815  32.193  30.775  1.00  0.00     0.031 C 
ATOM     63  C   UNL A   1      46.228  31.751  28.076  1.00  0.00     0.029 A 
ATOM     64  C   UNL A   1      44.954  31.461  28.538  1.00  0.00     0.049 A 
ATOM     65  H   UNL A   1      43.900  29.634  28.466  1.00  0.00     0.167 HD
ATOM     66  C   UNL A   1      42.809  31.968  29.667  1.00  0.00     0.074 A 
ATOM     67  C   UNL A   1      41.900  32.844  30.375  1.00  0.00     0.031 C 
ATOM     68  C   UNL A   1      44.032  32.340  29.213  1.00  0.00     0.034 A 
BRANCH  55  69
ATOM     69  C   UNL A   1      47.221  27.847  26.442  1.00  0.00     0.023 A 
ATOM     70  C   UNL A   1      47.363  28.011  25.051  1.00  0.00     0.031 A 
ATOM     71  C   UNL A   1      48.230  27.153  27.137  1.00  0.00     0.131 A 
ATOM     72  C   UNL A   1      48.460  27.439  24.392  1.00  0.00     0.055 A 
ATOM     73  C   UNL A   1      49.345  26.630  26.482  1.00  0.00     0.041 A 
ATOM     74  F   UNL A   1      48.139  26.965  28.463  1.00  0.00    -0.206 F 
ATOM     75  C   UNL A   1      49.455  26.757  25.100  1.00  0.00     0.022 A 
BRANCH  72  76
ATOM     76  S   UNL A   1      48.597  27.486  22.583  1.00  0.00     0.124 S 
ATOM     77  O   UNL A   1      47.373  28.193  22.208  1.00  0.00    -0.237 OA
ATOM     78  O   UNL A   1      49.834  28.236  22.392  1.00  0.00    -0.237 OA
ATOM     79  O   UNL A   1      48.640  26.079  22.199  1.00  0.00    -0.744 OA
ENDBRANCH  72  76
ENDBRANCH  55  69
BRANCH  56  80
ATOM     80  C   UNL A   1      38.655  30.175  31.077  1.00  0.00     0.023 A 
ATOM     81  C   UNL A   1      37.624  30.874  30.422  1.00  0.00     0.031 A 
ATOM     82  C   UNL A   1      38.488  29.887  32.443  1.00  0.00     0.131 A 
ATOM     83  C   UNL A   1      36.507  31.312  31.146  1.00  0.00     0.055 A 
ATOM     84  C   UNL A   1      37.339  30.260  33.143  1.00  0.00     0.041 A 
ATOM     85  F   UNL A   1      39.448  29.238  33.121  1.00  0.00    -0.206 F 
ATOM     86  C   UNL A   1      36.348  30.994  32.498  1.00  0.00     0.022 A 
BRANCH  83  87
ATOM     87  S   UNL A   1      35.293  32.434  30.395  1.00  0.00     0.124 S 
ATOM     88  O   UNL A   1      34.261  32.497  31.425  1.00  0.00    -0.237 OA
ATOM     89  O   UNL A   1      36.081  33.650  30.215  1.00  0.00    -0.237 OA
ATOM     90  O   UNL A   1      34.915  31.752  29.162  1.00  0.00    -0.744 OA
ENDBRANCH  83  87
ENDBRANCH  56  80
BRANCH  68  91
ATOM     91  C   UNL A   1      44.495  33.761  29.435  1.00  0.00     0.023 A 
ATOM     92  C   UNL A   1      44.115  34.770  28.527  1.00  0.00     0.031 A 
ATOM     93  C   UNL A   1      45.445  34.076  30.420  1.00  0.00     0.131 A 
ATOM     94  C   UNL A   1      44.723  36.030  28.591  1.00  0.00     0.055 A 
ATOM     95  C   UNL A   1      46.009  35.349  30.513  1.00  0.00     0.041 A 
ATOM     96  F   UNL A   1      45.852  33.145  31.298  1.00  0.00    -0.206 F 
ATOM     97  C   UNL A   1      45.661  36.327  29.585  1.00  0.00     0.022 A 
BRANCH  94  98
ATOM     98  S   UNL A   1      44.401  37.290  27.327  1.00  0.00     0.124 S 
ATOM     99  O   UNL A   1      44.091  38.463  28.142  1.00  0.00    -0.237 OA
ATOM    100  O   UNL A   1      45.675  37.346  26.615  1.00  0.00    -0.237 OA
ATOM    101  O   UNL A   1      43.280  36.749  26.566  1.00  0.00    -0.744 OA
ENDBRANCH  94  98
ENDBRANCH  68  91
ENDBRANCH  42  43
ENDBRANCH  35  37
ENDBRANCH  34  35
ENDBRANCH   1  34
TORSDOF 15
ENDMDL
MODEL 3
REMARK VINA RESULT:     -14.2      1.605      2.602
REMARK SMILES C[C@]12C(=O)N(c3ccc(C(=O)OCCOC(=O)c4ccc(-c5c6nc(c(-c7cc(S(=O)(=O)[O-])ccc7F)c7ccc([nH]7)c(-c7cc(S(=O)(=O)[O-])ccc7F)c7nc(c(-c8cc(S(=O)(=O)[O-])ccc8F)c8ccc5[nH]8)C=C7)C=C6)cc4)cc3)C(=O)[C@H]1[C@H]1c3ccccc3[C@@H]2c2ccccc21
REMARK SMILES IDX 14 1 13 2 12 3 10 4 11 5 9 6 6 7 7 8 82 9 8 10 81 11 5 12
REMARK SMILES IDX 1 13 2 14 3 15 85 16 93 17 4 18 83 19 86 20 92 21 94 22
REMARK SMILES IDX 84 23 87 24 99 25 91 26 95 27 88 28 98 29 90 30 96 31 89 32
REMARK SMILES IDX 97 33 15 34 16 35 17 36 18 37 19 38 80 39 20 40 79 41 21 42
REMARK SMILES IDX 22 43 23 44 73 45 24 46 78 47 72 48 74 49 25 50 77 51 71 52
REMARK SMILES IDX 70 53 26 55 58 56 38 57 57 58 39 59 42 60 56 61 75 62 40 63
REMARK SMILES IDX 41 64 55 66 76 67 43 68 27 69 28 70 36 71 29 72 35 73 37 74
REMARK SMILES IDX 34 75 30 76 31 77 32 78 33 79 59 80 60 81 68 82 61 83 67 84
REMARK SMILES IDX 69 85 66 86 62 87 63 88 64 89 65 90 44 91 45 92 53 93 46 94
REMARK SMILES IDX 52 95 54 96 51 97 47 98 48 99 49 100 50 101
REMARK H PARENT 74 54 42 65
REMARK Flexibility Score: inf
ROOT
ATOM      1  C   UNL A   1      31.777  31.753  26.691  1.00  0.00     0.275 C 
ENDROOT
BRANCH   1   2
ATOM      2  C   UNL A   1      31.409  30.577  25.782  1.00  0.00     0.275 C 
BRANCH   2   3
ATOM      3  O   UNL A   1      32.401  29.528  25.848  1.00  0.00    -0.458 OA
BRANCH   3   4
ATOM      4  C   UNL A   1      31.996  28.379  26.435  1.00  0.00     0.338 C 
ATOM      5  O   UNL A   1      31.271  28.278  27.414  1.00  0.00    -0.246 OA
BRANCH   4   6
ATOM      6  C   UNL A   1      32.411  27.205  25.638  1.00  0.00     0.060 A 
ATOM      7  C   UNL A   1      32.936  24.916  24.036  1.00  0.00     0.052 A 
ATOM      8  C   UNL A   1      31.967  25.869  23.681  1.00  0.00     0.028 A 
ATOM      9  C   UNL A   1      33.658  25.149  25.215  1.00  0.00     0.028 A 
ATOM     10  C   UNL A   1      31.681  26.958  24.488  1.00  0.00     0.018 A 
ATOM     11  C   UNL A   1      33.419  26.306  26.000  1.00  0.00     0.018 A 
BRANCH   7  12
ATOM     12  N   UNL A   1      32.961  23.682  23.301  1.00  0.00    -0.250 N 
ATOM     13  C   UNL A   1      32.153  20.653  22.297  1.00  0.00     0.024 C 
ATOM     14  C   UNL A   1      32.558  21.393  23.588  1.00  0.00     0.071 C 
ATOM     15  C   UNL A   1      31.945  22.757  23.486  1.00  0.00     0.241 C 
ATOM     16  C   UNL A   1      34.072  21.712  23.651  1.00  0.00     0.107 C 
ATOM     17  C   UNL A   1      32.161  20.657  24.913  1.00  0.00     0.066 C 
ATOM     18  O   UNL A   1      30.737  22.950  23.501  1.00  0.00    -0.273 OA
ATOM     19  C   UNL A   1      34.153  23.036  22.911  1.00  0.00     0.238 C 
ATOM     20  C   UNL A   1      34.806  20.685  24.594  1.00  0.00     0.063 C 
ATOM     21  C   UNL A   1      32.916  21.292  26.104  1.00  0.00    -0.036 A 
ATOM     22  C   UNL A   1      32.771  19.266  24.764  1.00  0.00    -0.036 A 
ATOM     23  O   UNL A   1      35.095  23.456  22.263  1.00  0.00    -0.274 OA
ATOM     24  C   UNL A   1      34.349  21.212  26.004  1.00  0.00    -0.036 A 
ATOM     25  C   UNL A   1      34.178  19.281  24.534  1.00  0.00    -0.036 A 
ATOM     26  C   UNL A   1      32.333  22.022  27.127  1.00  0.00     0.005 A 
ATOM     27  C   UNL A   1      32.066  18.081  24.928  1.00  0.00     0.005 A 
ATOM     28  C   UNL A   1      35.172  21.874  26.904  1.00  0.00     0.004 A 
ATOM     29  C   UNL A   1      34.869  18.076  24.490  1.00  0.00     0.004 A 
ATOM     30  C   UNL A   1      33.168  22.691  28.028  1.00  0.00     0.000 A 
ATOM     31  C   UNL A   1      32.769  16.882  24.873  1.00  0.00     0.000 A 
ATOM     32  C   UNL A   1      34.568  22.619  27.917  1.00  0.00     0.000 A 
ATOM     33  C   UNL A   1      34.156  16.880  24.658  1.00  0.00     0.000 A 
ENDBRANCH   7  12
ENDBRANCH   4   6
ENDBRANCH   3   4
ENDBRANCH   2   3
ENDBRANCH   1   2
BRANCH   1  34
ATOM     34  O   UNL A   1      32.931  31.444  27.494  1.00  0.00    -0.458 OA
BRANCH  34  35
ATOM     35  C   UNL A   1      33.790  32.469  27.689  1.00  0.00     0.338 C 
ATOM     36  O   UNL A   1      33.556  33.660  27.586  1.00  0.00    -0.246 OA
BRANCH  35  37
ATOM     37  C   UNL A   1      35.087  31.937  28.135  1.00  0.00     0.060 A 
ATOM     38  C   UNL A   1      36.212  32.749  28.232  1.00  0.00     0.016 A 
ATOM     39  C   UNL A   1      35.135  30.619  28.580  1.00  0.00     0.016 A 
ATOM     40  C   UNL A   1      37.390  32.220  28.777  1.00  0.00     0.010 A 
ATOM     41  C   UNL A   1      36.258  30.143  29.250  1.00  0.00     0.010 A 
ATOM     42  C   UNL A   1      37.419  30.921  29.324  1.00  0.00    -0.014 A 
BRANCH  42  43
ATOM     43  C   UNL A   1      38.651  30.367  29.961  1.00  0.00     0.031 A 
ATOM     44  C   UNL A   1      39.050  30.780  31.360  1.00  0.00     0.074 A 
ATOM     45  C   UNL A   1      39.440  29.521  29.268  1.00  0.00     0.049 A 
ATOM     46  N   UNL A   1      40.078  30.390  32.070  1.00  0.00    -0.248 NA
ATOM     47  C   UNL A   1      38.212  31.782  32.041  1.00  0.00     0.031 C 
ATOM     48  C   UNL A   1      39.224  29.121  27.876  1.00  0.00     0.029 A 
ATOM     49  N   UNL A   1      40.580  28.841  29.629  1.00  0.00    -0.354 N 
ATOM     50  C   UNL A   1      40.017  31.106  33.262  1.00  0.00     0.074 A 
ATOM     51  C   UNL A   1      38.895  32.007  33.154  1.00  0.00     0.031 C 
ATOM     52  C   UNL A   1      40.162  28.231  27.521  1.00  0.00     0.029 A 
ATOM     53  C   UNL A   1      41.078  28.024  28.639  1.00  0.00     0.049 A 
ATOM     54  H   UNL A   1      41.000  28.930  30.515  1.00  0.00     0.167 HD
ATOM     55  C   UNL A   1      40.795  30.993  34.364  1.00  0.00     0.034 A 
ATOM     56  C   UNL A   1      42.145  27.195  28.628  1.00  0.00     0.034 A 
ATOM     57  C   UNL A   1      41.875  30.048  34.484  1.00  0.00     0.049 A 
ATOM     58  C   UNL A   1      42.961  27.041  29.888  1.00  0.00     0.074 A 
ATOM     59  C   UNL A   1      42.664  29.796  35.592  1.00  0.00     0.029 A 
ATOM     60  N   UNL A   1      42.310  29.198  33.479  1.00  0.00    -0.354 N 
ATOM     61  N   UNL A   1      42.805  27.636  31.048  1.00  0.00    -0.248 NA
ATOM     62  C   UNL A   1      44.084  26.092  29.854  1.00  0.00     0.031 C 
ATOM     63  C   UNL A   1      43.615  28.839  35.241  1.00  0.00     0.029 A 
ATOM     64  C   UNL A   1      43.370  28.435  33.938  1.00  0.00     0.049 A 
ATOM     65  H   UNL A   1      41.923  29.145  32.576  1.00  0.00     0.167 HD
ATOM     66  C   UNL A   1      43.790  27.116  31.883  1.00  0.00     0.074 A 
ATOM     67  C   UNL A   1      44.516  26.134  31.108  1.00  0.00     0.031 C 
ATOM     68  C   UNL A   1      44.070  27.432  33.173  1.00  0.00     0.034 A 
BRANCH  55  69
ATOM     69  C   UNL A   1      40.495  31.849  35.570  1.00  0.00     0.023 A 
ATOM     70  C   UNL A   1      39.444  31.498  36.440  1.00  0.00     0.031 A 
ATOM     71  C   UNL A   1      41.123  33.095  35.755  1.00  0.00     0.131 A 
ATOM     72  C   UNL A   1      39.018  32.407  37.418  1.00  0.00     0.055 A 
ATOM     73  C   UNL A   1      40.727  33.975  36.763  1.00  0.00     0.041 A 
ATOM     74  F   UNL A   1      42.126  33.479  34.950  1.00  0.00    -0.206 F 
ATOM     75  C   UNL A   1      39.658  33.639  37.588  1.00  0.00     0.022 A 
BRANCH  72  76
ATOM     76  S   UNL A   1      37.565  32.063  38.449  1.00  0.00     0.124 S 
ATOM     77  O   UNL A   1      37.252  30.684  38.077  1.00  0.00    -0.237 OA
ATOM     78  O   UNL A   1      38.100  32.240  39.795  1.00  0.00    -0.237 OA
ATOM     79  O   UNL A   1      36.587  33.056  38.019  1.00  0.00    -0.744 OA
ENDBRANCH  72  76
ENDBRANCH  55  69
BRANCH  56  80
ATOM     80  C   UNL A   1      42.439  26.398  27.398  1.00  0.00     0.023 A 
ATOM     81  C   UNL A   1      42.028  25.056  27.287  1.00  0.00     0.031 A 
ATOM     82  C   UNL A   1      43.218  26.934  26.358  1.00  0.00     0.131 A 
ATOM     83  C   UNL A   1      42.449  24.284  26.195  1.00  0.00     0.055 A 
ATOM     84  C   UNL A   1      43.573  26.182  25.236  1.00  0.00     0.041 A 
ATOM     85  F   UNL A   1      43.651  28.203  26.422  1.00  0.00    -0.206 F 
ATOM     86  C   UNL A   1      43.203  24.844  25.160  1.00  0.00     0.022 A 
BRANCH  83  87
ATOM     87  S   UNL A   1      42.156  22.493  26.155  1.00  0.00     0.124 S 
ATOM     88  O   UNL A   1      42.781  22.055  27.399  1.00  0.00    -0.237 OA
ATOM     89  O   UNL A   1      40.697  22.429  26.123  1.00  0.00    -0.237 OA
ATOM     90  O   UNL A   1      42.821  22.065  24.928  1.00  0.00    -0.744 OA
ENDBRANCH  83  87
ENDBRANCH  56  80
BRANCH  68  91
ATOM     91  C   UNL A   1      45.201  26.716  33.873  1.00  0.00     0.023 A 
ATOM     92  C   UNL A   1      44.942  25.526  34.582  1.00  0.00     0.031 A 
ATOM     93  C   UNL A   1      46.472  27.300  33.995  1.00  0.00     0.131 A 
ATOM     94  C   UNL A   1      45.925  24.987  35.420  1.00  0.00     0.055 A 
ATOM     95  C   UNL A   1      47.468  26.729  34.789  1.00  0.00     0.041 A 
ATOM     96  F   UNL A   1      46.763  28.443  33.352  1.00  0.00    -0.206 F 
ATOM     97  C   UNL A   1      47.190  25.577  35.521  1.00  0.00     0.022 A 
BRANCH  94  98
ATOM     98  S   UNL A   1      45.568  23.566  36.490  1.00  0.00     0.124 S 
ATOM     99  O   UNL A   1      46.886  22.951  36.626  1.00  0.00    -0.237 OA
ATOM    100  O   UNL A   1      45.054  24.211  37.696  1.00  0.00    -0.237 OA
ATOM    101  O   UNL A   1      44.594  22.788  35.731  1.00  0.00    -0.744 OA
ENDBRANCH  94  98
ENDBRANCH  68  91
ENDBRANCH  42  43
ENDBRANCH  35  37
ENDBRANCH  34  35
ENDBRANCH   1  34
TORSDOF 15
ENDMDL
