MODEL 1
REMARK VINA RESULT:     -10.4      0.000      0.000
REMARK SMILES COC(=O)C1=C(C)N(c2ccc(Br)cc2)C(=O)/C1=C\c1ccc(C(=O)OCCOC(=O)c2ccc(-c3c4nc(c(-c5cc(S(=O)(=O)[O-])ccc5F)c5ccc([nH]5)c(-c5cc(S(=O)(=O)[O-])ccc5F)c5nc(c(-c6cc(S(=O)(=O)[O-])ccc6F)c6ccc3[nH]6)C=C5)C=C4)cc2)cc1
REMARK SMILES IDX 27 1 26 2 24 3 25 4 23 5 20 6 21 7 96 8 22 9 95 10 19 11
REMARK SMILES IDX 5 12 6 13 18 14 7 15 8 16 16 17 17 18 3 19 4 20 2 21 1 22
REMARK SMILES IDX 9 23 10 24 15 25 11 26 14 27 12 28 13 29 28 30 29 31 30 32
REMARK SMILES IDX 31 33 32 34 33 35 94 36 34 37 93 38 35 39 36 40 37 41 87 42
REMARK SMILES IDX 38 43 92 44 86 45 88 46 39 47 91 48 85 49 84 50 40 52 72 53
REMARK SMILES IDX 52 54 71 55 53 56 56 57 70 58 89 59 54 60 55 61 69 63 90 64
REMARK SMILES IDX 57 65 41 66 42 67 50 68 43 69 49 70 51 71 48 72 44 73 45 74
REMARK SMILES IDX 46 75 47 76 73 77 74 78 82 79 75 80 81 81 83 82 80 83 76 84
REMARK SMILES IDX 77 85 78 86 79 87 58 88 59 89 67 90 60 91 66 92 68 93 65 94
REMARK SMILES IDX 61 95 62 96 63 97 64 98
REMARK H PARENT 88 51 56 62
REMARK Flexibility Score: inf
ROOT
ATOM      1  C   UNL A   1      40.005  24.707  27.923  1.00  0.00     0.275 C 
ENDROOT
BRANCH   1   2
ATOM      2  O   UNL A   1      39.307  25.968  27.977  1.00  0.00    -0.458 OA
BRANCH   2   3
ATOM      3  C   UNL A   1      39.866  26.907  28.780  1.00  0.00     0.338 C 
ATOM      4  O   UNL A   1      40.894  26.777  29.426  1.00  0.00    -0.246 OA
BRANCH   3   5
ATOM      5  C   UNL A   1      39.100  28.176  28.744  1.00  0.00     0.060 A 
ATOM      6  C   UNL A   1      37.406  30.404  28.652  1.00  0.00    -0.025 A 
ATOM      7  C   UNL A   1      37.431  29.602  29.789  1.00  0.00     0.009 A 
ATOM      8  C   UNL A   1      38.265  30.120  27.580  1.00  0.00     0.009 A 
ATOM      9  C   UNL A   1      38.249  28.479  29.815  1.00  0.00     0.016 A 
ATOM     10  C   UNL A   1      39.122  29.015  27.628  1.00  0.00     0.016 A 
BRANCH   6  11
ATOM     11  C   UNL A   1      36.390  31.448  28.559  1.00  0.00     0.023 C 
ATOM     12  C   UNL A   1      34.095  32.215  27.898  1.00  0.00     0.092 C 
ATOM     13  C   UNL A   1      33.059  31.625  27.261  1.00  0.00     0.039 C 
ATOM     14  C   UNL A   1      35.182  31.258  28.001  1.00  0.00     0.057 C 
ATOM     15  C   UNL A   1      31.729  32.253  27.003  1.00  0.00     0.066 C 
ATOM     16  N   UNL A   1      33.370  30.297  26.957  1.00  0.00    -0.280 N 
ATOM     17  C   UNL A   1      34.680  29.981  27.384  1.00  0.00     0.263 C 
ATOM     18  O   UNL A   1      35.297  28.942  27.243  1.00  0.00    -0.268 OA
BRANCH  12  19
ATOM     19  C   UNL A   1      34.141  33.580  28.448  1.00  0.00     0.340 C 
ATOM     20  O   UNL A   1      34.421  34.570  27.788  1.00  0.00    -0.246 OA
BRANCH  19  21
ATOM     21  O   UNL A   1      33.882  33.561  29.778  1.00  0.00    -0.465 OA
ATOM     22  C   UNL A   1      33.768  34.856  30.371  1.00  0.00     0.282 C 
ENDBRANCH  19  21
ENDBRANCH  12  19
BRANCH  16  23
ATOM     23  C   UNL A   1      32.559  29.305  26.348  1.00  0.00     0.049 A 
ATOM     24  C   UNL A   1      31.997  28.288  27.137  1.00  0.00     0.028 A 
ATOM     25  C   UNL A   1      32.306  29.305  24.972  1.00  0.00     0.028 A 
ATOM     26  C   UNL A   1      31.155  27.327  26.575  1.00  0.00     0.018 A 
ATOM     27  C   UNL A   1      31.477  28.332  24.402  1.00  0.00     0.018 A 
ATOM     28  C   UNL A   1      30.894  27.357  25.208  1.00  0.00     0.018 A 
ATOM     29  Br  UNL A   1      29.747  26.065  24.442  1.00  0.00    -0.051 Br
ENDBRANCH  16  23
ENDBRANCH   6  11
ENDBRANCH   3   5
ENDBRANCH   2   3
ENDBRANCH   1   2
BRANCH   1  30
ATOM     30  C   UNL A   1      40.959  24.629  26.727  1.00  0.00     0.275 C 
BRANCH  30  31
ATOM     31  O   UNL A   1      42.241  25.209  27.032  1.00  0.00    -0.458 OA
BRANCH  31  32
ATOM     32  C   UNL A   1      42.847  25.804  25.979  1.00  0.00     0.338 C 
ATOM     33  O   UNL A   1      43.028  25.325  24.871  1.00  0.00    -0.246 OA
BRANCH  32  34
ATOM     34  C   UNL A   1      43.209  27.195  26.285  1.00  0.00     0.060 A 
ATOM     35  C   UNL A   1      44.205  27.397  27.229  1.00  0.00     0.016 A 
ATOM     36  C   UNL A   1      42.405  28.260  25.891  1.00  0.00     0.016 A 
ATOM     37  C   UNL A   1      44.268  28.592  27.934  1.00  0.00     0.010 A 
ATOM     38  C   UNL A   1      42.589  29.519  26.486  1.00  0.00     0.010 A 
ATOM     39  C   UNL A   1      43.473  29.687  27.570  1.00  0.00    -0.014 A 
BRANCH  39  40
ATOM     40  C   UNL A   1      43.545  30.963  28.354  1.00  0.00     0.031 A 
ATOM     41  C   UNL A   1      44.573  32.022  28.012  1.00  0.00     0.074 A 
ATOM     42  C   UNL A   1      42.668  31.201  29.354  1.00  0.00     0.049 A 
ATOM     43  N   UNL A   1      44.889  33.114  28.664  1.00  0.00    -0.248 NA
ATOM     44  C   UNL A   1      45.365  31.814  26.789  1.00  0.00     0.031 C 
ATOM     45  C   UNL A   1      41.596  30.295  29.777  1.00  0.00     0.029 A 
ATOM     46  N   UNL A   1      42.523  32.280  30.196  1.00  0.00    -0.354 N 
ATOM     47  C   UNL A   1      45.957  33.683  27.971  1.00  0.00     0.074 A 
ATOM     48  C   UNL A   1      46.242  32.806  26.857  1.00  0.00     0.031 C 
ATOM     49  C   UNL A   1      40.876  30.874  30.747  1.00  0.00     0.029 A 
ATOM     50  C   UNL A   1      41.505  32.136  31.112  1.00  0.00     0.049 A 
ATOM     51  H   UNL A   1      43.095  33.081  30.148  1.00  0.00     0.167 HD
ATOM     52  C   UNL A   1      46.633  34.829  28.241  1.00  0.00     0.034 A 
ATOM     53  C   UNL A   1      41.144  32.890  32.168  1.00  0.00     0.034 A 
ATOM     54  C   UNL A   1      46.297  35.724  29.326  1.00  0.00     0.049 A 
ATOM     55  C   UNL A   1      41.930  34.139  32.464  1.00  0.00     0.074 A 
ATOM     56  C   UNL A   1      46.893  36.929  29.662  1.00  0.00     0.029 A 
ATOM     57  N   UNL A   1      45.276  35.520  30.246  1.00  0.00    -0.354 N 
ATOM     58  N   UNL A   1      42.959  34.641  31.820  1.00  0.00    -0.248 NA
ATOM     59  C   UNL A   1      41.508  34.924  33.629  1.00  0.00     0.031 C 
ATOM     60  C   UNL A   1      46.290  37.409  30.829  1.00  0.00     0.029 A 
ATOM     61  C   UNL A   1      45.250  36.559  31.167  1.00  0.00     0.049 A 
ATOM     62  H   UNL A   1      44.662  34.752  30.245  1.00  0.00     0.167 HD
ATOM     63  C   UNL A   1      43.289  35.815  32.490  1.00  0.00     0.074 A 
ATOM     64  C   UNL A   1      42.328  35.960  33.566  1.00  0.00     0.031 C 
ATOM     65  C   UNL A   1      44.296  36.691  32.244  1.00  0.00     0.034 A 
BRANCH  52  66
ATOM     66  C   UNL A   1      47.844  35.155  27.394  1.00  0.00     0.023 A 
ATOM     67  C   UNL A   1      49.143  34.739  27.733  1.00  0.00     0.031 A 
ATOM     68  C   UNL A   1      47.686  35.906  26.212  1.00  0.00     0.131 A 
ATOM     69  C   UNL A   1      50.235  35.125  26.935  1.00  0.00     0.055 A 
ATOM     70  C   UNL A   1      48.764  36.216  25.380  1.00  0.00     0.041 A 
ATOM     71  F   UNL A   1      46.474  36.352  25.843  1.00  0.00    -0.206 F 
ATOM     72  C   UNL A   1      50.050  35.836  25.747  1.00  0.00     0.022 A 
BRANCH  69  73
ATOM     73  S   UNL A   1      51.914  34.798  27.539  1.00  0.00     0.124 S 
ATOM     74  O   UNL A   1      52.524  34.154  26.378  1.00  0.00    -0.237 OA
ATOM     75  O   UNL A   1      52.401  36.136  27.857  1.00  0.00    -0.237 OA
ATOM     76  O   UNL A   1      51.701  33.922  28.689  1.00  0.00    -0.744 OA
ENDBRANCH  69  73
ENDBRANCH  52  66
BRANCH  53  77
ATOM     77  C   UNL A   1      40.040  32.451  33.076  1.00  0.00     0.023 A 
ATOM     78  C   UNL A   1      38.708  32.828  32.842  1.00  0.00     0.031 A 
ATOM     79  C   UNL A   1      40.312  31.690  34.229  1.00  0.00     0.131 A 
ATOM     80  C   UNL A   1      37.712  32.494  33.773  1.00  0.00     0.055 A 
ATOM     81  C   UNL A   1      39.307  31.294  35.111  1.00  0.00     0.041 A 
ATOM     82  F   UNL A   1      41.568  31.306  34.509  1.00  0.00    -0.206 F 
ATOM     83  C   UNL A   1      37.998  31.712  34.895  1.00  0.00     0.022 A 
BRANCH  80  84
ATOM     84  S   UNL A   1      36.053  33.196  33.560  1.00  0.00     0.124 S 
ATOM     85  O   UNL A   1      35.405  32.180  32.739  1.00  0.00    -0.237 OA
ATOM     86  O   UNL A   1      35.588  33.298  34.940  1.00  0.00    -0.237 OA
ATOM     87  O   UNL A   1      36.307  34.471  32.893  1.00  0.00    -0.744 OA
ENDBRANCH  80  84
ENDBRANCH  53  77
BRANCH  65  88
ATOM     88  C   UNL A   1      44.363  37.916  33.127  1.00  0.00     0.023 A 
ATOM     89  C   UNL A   1      43.557  39.044  32.893  1.00  0.00     0.031 A 
ATOM     90  C   UNL A   1      45.291  37.977  34.182  1.00  0.00     0.131 A 
ATOM     91  C   UNL A   1      43.757  40.213  33.642  1.00  0.00     0.055 A 
ATOM     92  C   UNL A   1      45.425  39.115  34.979  1.00  0.00     0.041 A 
ATOM     93  F   UNL A   1      46.093  36.934  34.450  1.00  0.00    -0.206 F 
ATOM     94  C   UNL A   1      44.671  40.250  34.696  1.00  0.00     0.022 A 
BRANCH  91  95
ATOM     95  S   UNL A   1      42.915  41.733  33.119  1.00  0.00     0.124 S 
ATOM     96  O   UNL A   1      43.928  42.366  32.279  1.00  0.00    -0.237 OA
ATOM     97  O   UNL A   1      41.743  41.215  32.421  1.00  0.00    -0.237 OA
ATOM     98  O   UNL A   1      42.635  42.421  34.378  1.00  0.00    -0.744 OA
ENDBRANCH  91  95
ENDBRANCH  65  88
ENDBRANCH  39  40
ENDBRANCH  32  34
ENDBRANCH  31  32
ENDBRANCH  30  31
ENDBRANCH   1  30
TORSDOF 18
ENDMDL
MODEL 2
REMARK VINA RESULT:     -10.2      6.107     10.486
REMARK SMILES COC(=O)C1=C(C)N(c2ccc(Br)cc2)C(=O)/C1=C\c1ccc(C(=O)OCCOC(=O)c2ccc(-c3c4nc(c(-c5cc(S(=O)(=O)[O-])ccc5F)c5ccc([nH]5)c(-c5cc(S(=O)(=O)[O-])ccc5F)c5nc(c(-c6cc(S(=O)(=O)[O-])ccc6F)c6ccc3[nH]6)C=C5)C=C4)cc2)cc1
REMARK SMILES IDX 27 1 26 2 24 3 25 4 23 5 20 6 21 7 96 8 22 9 95 10 19 11
REMARK SMILES IDX 5 12 6 13 18 14 7 15 8 16 16 17 17 18 3 19 4 20 2 21 1 22
REMARK SMILES IDX 9 23 10 24 15 25 11 26 14 27 12 28 13 29 28 30 29 31 30 32
REMARK SMILES IDX 31 33 32 34 33 35 94 36 34 37 93 38 35 39 36 40 37 41 87 42
REMARK SMILES IDX 38 43 92 44 86 45 88 46 39 47 91 48 85 49 84 50 40 52 72 53
REMARK SMILES IDX 52 54 71 55 53 56 56 57 70 58 89 59 54 60 55 61 69 63 90 64
REMARK SMILES IDX 57 65 41 66 42 67 50 68 43 69 49 70 51 71 48 72 44 73 45 74
REMARK SMILES IDX 46 75 47 76 73 77 74 78 82 79 75 80 81 81 83 82 80 83 76 84
REMARK SMILES IDX 77 85 78 86 79 87 58 88 59 89 67 90 60 91 66 92 68 93 65 94
REMARK SMILES IDX 61 95 62 96 63 97 64 98
REMARK H PARENT 88 51 56 62
REMARK Flexibility Score: inf
ROOT
ATOM      1  C   UNL A   1      34.661  34.729  28.489  1.00  0.00     0.275 C 
ENDROOT
BRANCH   1   2
ATOM      2  O   UNL A   1      35.183  33.685  29.337  1.00  0.00    -0.458 OA
BRANCH   2   3
ATOM      3  C   UNL A   1      36.085  32.859  28.750  1.00  0.00     0.338 C 
ATOM      4  O   UNL A   1      37.297  33.004  28.753  1.00  0.00    -0.246 OA
BRANCH   3   5
ATOM      5  C   UNL A   1      35.423  31.687  28.130  1.00  0.00     0.060 A 
ATOM      6  C   UNL A   1      34.062  29.410  27.231  1.00  0.00    -0.025 A 
ATOM      7  C   UNL A   1      33.345  30.552  27.576  1.00  0.00     0.009 A 
ATOM      8  C   UNL A   1      35.463  29.424  27.287  1.00  0.00     0.009 A 
ATOM      9  C   UNL A   1      34.024  31.667  28.053  1.00  0.00     0.016 A 
ATOM     10  C   UNL A   1      36.147  30.564  27.725  1.00  0.00     0.016 A 
BRANCH   6  11
ATOM     11  C   UNL A   1      33.322  28.186  26.938  1.00  0.00     0.023 C 
ATOM     12  C   UNL A   1      31.563  26.950  25.646  1.00  0.00     0.092 C 
ATOM     13  C   UNL A   1      30.655  27.317  24.715  1.00  0.00     0.039 C 
ATOM     14  C   UNL A   1      32.328  28.121  26.036  1.00  0.00     0.057 C 
ATOM     15  C   UNL A   1      29.709  26.396  24.016  1.00  0.00     0.066 C 
ATOM     16  N   UNL A   1      30.786  28.676  24.420  1.00  0.00    -0.280 N 
ATOM     17  C   UNL A   1      31.809  29.260  25.202  1.00  0.00     0.263 C 
ATOM     18  O   UNL A   1      32.165  30.423  25.245  1.00  0.00    -0.268 OA
BRANCH  12  19
ATOM     19  C   UNL A   1      31.801  25.595  26.172  1.00  0.00     0.340 C 
ATOM     20  O   UNL A   1      31.111  25.070  27.034  1.00  0.00    -0.246 OA
BRANCH  19  21
ATOM     21  O   UNL A   1      32.907  25.056  25.604  1.00  0.00    -0.465 OA
ATOM     22  C   UNL A   1      32.678  23.811  24.941  1.00  0.00     0.282 C 
ENDBRANCH  19  21
ENDBRANCH  12  19
BRANCH  16  23
ATOM     23  C   UNL A   1      30.080  29.458  23.469  1.00  0.00     0.049 A 
ATOM     24  C   UNL A   1      28.997  30.247  23.886  1.00  0.00     0.028 A 
ATOM     25  C   UNL A   1      30.431  29.459  22.114  1.00  0.00     0.028 A 
ATOM     26  C   UNL A   1      28.316  31.065  22.982  1.00  0.00     0.018 A 
ATOM     27  C   UNL A   1      29.738  30.263  21.202  1.00  0.00     0.018 A 
ATOM     28  C   UNL A   1      28.693  31.073  21.643  1.00  0.00     0.018 A 
ATOM     29  Br  UNL A   1      27.782  32.184  20.416  1.00  0.00    -0.051 Br
ENDBRANCH  16  23
ENDBRANCH   6  11
ENDBRANCH   3   5
ENDBRANCH   2   3
ENDBRANCH   1   2
BRANCH   1  30
ATOM     30  C   UNL A   1      33.610  35.581  29.207  1.00  0.00     0.275 C 
BRANCH  30  31
ATOM     31  O   UNL A   1      32.991  34.860  30.290  1.00  0.00    -0.458 OA
BRANCH  31  32
ATOM     32  C   UNL A   1      32.995  35.519  31.470  1.00  0.00     0.338 C 
ATOM     33  O   UNL A   1      32.244  36.419  31.810  1.00  0.00    -0.246 OA
BRANCH  32  34
ATOM     34  C   UNL A   1      33.989  34.956  32.395  1.00  0.00     0.060 A 
ATOM     35  C   UNL A   1      35.248  35.538  32.401  1.00  0.00     0.016 A 
ATOM     36  C   UNL A   1      33.795  33.724  33.011  1.00  0.00     0.016 A 
ATOM     37  C   UNL A   1      36.353  34.810  32.828  1.00  0.00     0.010 A 
ATOM     38  C   UNL A   1      34.888  33.067  33.598  1.00  0.00     0.010 A 
ATOM     39  C   UNL A   1      36.198  33.565  33.451  1.00  0.00    -0.014 A 
BRANCH  39  40
ATOM     40  C   UNL A   1      37.404  32.789  33.890  1.00  0.00     0.031 A 
ATOM     41  C   UNL A   1      38.065  33.078  35.222  1.00  0.00     0.074 A 
ATOM     42  C   UNL A   1      37.895  31.794  33.117  1.00  0.00     0.049 A 
ATOM     43  N   UNL A   1      39.195  32.624  35.704  1.00  0.00    -0.248 NA
ATOM     44  C   UNL A   1      37.376  34.019  36.119  1.00  0.00     0.031 C 
ATOM     45  C   UNL A   1      37.344  31.371  31.826  1.00  0.00     0.029 A 
ATOM     46  N   UNL A   1      38.961  30.945  33.303  1.00  0.00    -0.354 N 
ATOM     47  C   UNL A   1      39.385  33.273  36.924  1.00  0.00     0.074 A 
ATOM     48  C   UNL A   1      38.259  34.164  37.098  1.00  0.00     0.031 C 
ATOM     49  C   UNL A   1      38.033  30.317  31.370  1.00  0.00     0.029 A 
ATOM     50  C   UNL A   1      39.155  30.064  32.263  1.00  0.00     0.049 A 
ATOM     51  H   UNL A   1      39.533  30.965  34.105  1.00  0.00     0.167 HD
ATOM     52  C   UNL A   1      40.404  33.137  37.811  1.00  0.00     0.034 A 
ATOM     53  C   UNL A   1      40.149  29.189  32.009  1.00  0.00     0.034 A 
ATOM     54  C   UNL A   1      41.492  32.200  37.648  1.00  0.00     0.049 A 
ATOM     55  C   UNL A   1      41.282  29.081  32.994  1.00  0.00     0.074 A 
ATOM     56  C   UNL A   1      42.552  31.956  38.506  1.00  0.00     0.029 A 
ATOM     57  N   UNL A   1      41.662  31.349  36.563  1.00  0.00    -0.354 N 
ATOM     58  N   UNL A   1      41.462  29.730  34.122  1.00  0.00    -0.248 NA
ATOM     59  C   UNL A   1      42.346  28.123  32.673  1.00  0.00     0.031 C 
ATOM     60  C   UNL A   1      43.403  31.024  37.904  1.00  0.00     0.029 A 
ATOM     61  C   UNL A   1      42.825  30.607  36.715  1.00  0.00     0.049 A 
ATOM     62  H   UNL A   1      41.047  31.284  35.798  1.00  0.00     0.167 HD
ATOM     63  C   UNL A   1      42.650  29.237  34.656  1.00  0.00     0.074 A 
ATOM     64  C   UNL A   1      43.120  28.216  33.741  1.00  0.00     0.031 C 
ATOM     65  C   UNL A   1      43.295  29.599  35.793  1.00  0.00     0.034 A 
BRANCH  52  66
ATOM     66  C   UNL A   1      40.430  34.063  39.008  1.00  0.00     0.023 A 
ATOM     67  C   UNL A   1      39.808  33.747  40.228  1.00  0.00     0.031 A 
ATOM     68  C   UNL A   1      41.102  35.299  38.919  1.00  0.00     0.131 A 
ATOM     69  C   UNL A   1      39.818  34.676  41.283  1.00  0.00     0.055 A 
ATOM     70  C   UNL A   1      41.178  36.181  39.997  1.00  0.00     0.041 A 
ATOM     71  F   UNL A   1      41.698  35.670  37.774  1.00  0.00    -0.206 F 
ATOM     72  C   UNL A   1      40.523  35.878  41.186  1.00  0.00     0.022 A 
BRANCH  69  73
ATOM     73  S   UNL A   1      38.788  34.350  42.740  1.00  0.00     0.124 S 
ATOM     74  O   UNL A   1      38.420  32.951  42.535  1.00  0.00    -0.237 OA
ATOM     75  O   UNL A   1      39.706  34.615  43.843  1.00  0.00    -0.237 OA
ATOM     76  O   UNL A   1      37.687  35.303  42.602  1.00  0.00    -0.744 OA
ENDBRANCH  69  73
ENDBRANCH  52  66
BRANCH  53  77
ATOM     77  C   UNL A   1      40.167  28.406  30.736  1.00  0.00     0.023 A 
ATOM     78  C   UNL A   1      41.027  28.746  29.680  1.00  0.00     0.031 A 
ATOM     79  C   UNL A   1      39.275  27.334  30.534  1.00  0.00     0.131 A 
ATOM     80  C   UNL A   1      40.941  28.062  28.457  1.00  0.00     0.055 A 
ATOM     81  C   UNL A   1      39.246  26.608  29.344  1.00  0.00     0.041 A 
ATOM     82  F   UNL A   1      38.423  26.967  31.505  1.00  0.00    -0.206 F 
ATOM     83  C   UNL A   1      40.070  26.982  28.289  1.00  0.00     0.022 A 
BRANCH  80  84
ATOM     84  S   UNL A   1      41.898  28.680  27.047  1.00  0.00     0.124 S 
ATOM     85  O   UNL A   1      42.712  27.518  26.710  1.00  0.00    -0.237 OA
ATOM     86  O   UNL A   1      40.848  29.025  26.095  1.00  0.00    -0.237 OA
ATOM     87  O   UNL A   1      42.631  29.815  27.604  1.00  0.00    -0.744 OA
ENDBRANCH  80  84
ENDBRANCH  53  77
BRANCH  65  88
ATOM     88  C   UNL A   1      44.552  28.833  36.135  1.00  0.00     0.023 A 
ATOM     89  C   UNL A   1      45.822  29.264  35.711  1.00  0.00     0.031 A 
ATOM     90  C   UNL A   1      44.472  27.623  36.847  1.00  0.00     0.131 A 
ATOM     91  C   UNL A   1      46.943  28.448  35.920  1.00  0.00     0.055 A 
ATOM     92  C   UNL A   1      45.605  26.857  37.127  1.00  0.00     0.041 A 
ATOM     93  F   UNL A   1      43.287  27.156  37.273  1.00  0.00    -0.206 F 
ATOM     94  C   UNL A   1      46.847  27.257  36.643  1.00  0.00     0.022 A 
BRANCH  91  95
ATOM     95  S   UNL A   1      48.502  28.888  35.102  1.00  0.00     0.124 S 
ATOM     96  O   UNL A   1      49.337  27.728  35.398  1.00  0.00    -0.237 OA
ATOM     97  O   UNL A   1      48.091  29.038  33.710  1.00  0.00    -0.237 OA
ATOM     98  O   UNL A   1      48.902  30.126  35.768  1.00  0.00    -0.744 OA
ENDBRANCH  91  95
ENDBRANCH  65  88
ENDBRANCH  39  40
ENDBRANCH  32  34
ENDBRANCH  31  32
ENDBRANCH  30  31
ENDBRANCH   1  30
TORSDOF 18
ENDMDL
MODEL 3
REMARK VINA RESULT:      -9.6      4.926     11.477
REMARK SMILES COC(=O)C1=C(C)N(c2ccc(Br)cc2)C(=O)/C1=C\c1ccc(C(=O)OCCOC(=O)c2ccc(-c3c4nc(c(-c5cc(S(=O)(=O)[O-])ccc5F)c5ccc([nH]5)c(-c5cc(S(=O)(=O)[O-])ccc5F)c5nc(c(-c6cc(S(=O)(=O)[O-])ccc6F)c6ccc3[nH]6)C=C5)C=C4)cc2)cc1
REMARK SMILES IDX 27 1 26 2 24 3 25 4 23 5 20 6 21 7 96 8 22 9 95 10 19 11
REMARK SMILES IDX 5 12 6 13 18 14 7 15 8 16 16 17 17 18 3 19 4 20 2 21 1 22
REMARK SMILES IDX 9 23 10 24 15 25 11 26 14 27 12 28 13 29 28 30 29 31 30 32
REMARK SMILES IDX 31 33 32 34 33 35 94 36 34 37 93 38 35 39 36 40 37 41 87 42
REMARK SMILES IDX 38 43 92 44 86 45 88 46 39 47 91 48 85 49 84 50 40 52 72 53
REMARK SMILES IDX 52 54 71 55 53 56 56 57 70 58 89 59 54 60 55 61 69 63 90 64
REMARK SMILES IDX 57 65 41 66 42 67 50 68 43 69 49 70 51 71 48 72 44 73 45 74
REMARK SMILES IDX 46 75 47 76 73 77 74 78 82 79 75 80 81 81 83 82 80 83 76 84
REMARK SMILES IDX 77 85 78 86 79 87 58 88 59 89 67 90 60 91 66 92 68 93 65 94
REMARK SMILES IDX 61 95 62 96 63 97 64 98
REMARK H PARENT 88 51 56 62
REMARK Flexibility Score: inf
ROOT
ATOM      1  C   UNL A   1      34.975  34.225  29.705  1.00  0.00     0.275 C 
ENDROOT
BRANCH   1   2
ATOM      2  O   UNL A   1      36.009  33.385  30.256  1.00  0.00    -0.458 OA
BRANCH   2   3
ATOM      3  C   UNL A   1      36.682  33.910  31.311  1.00  0.00     0.338 C 
ATOM      4  O   UNL A   1      36.211  34.156  32.411  1.00  0.00    -0.246 OA
BRANCH   3   5
ATOM      5  C   UNL A   1      38.117  34.107  30.994  1.00  0.00     0.060 A 
ATOM      6  C   UNL A   1      40.797  34.757  30.511  1.00  0.00    -0.025 A 
ATOM      7  C   UNL A   1      40.366  34.534  31.815  1.00  0.00     0.009 A 
ATOM      8  C   UNL A   1      39.900  34.606  29.444  1.00  0.00     0.009 A 
ATOM      9  C   UNL A   1      39.027  34.245  32.051  1.00  0.00     0.016 A 
ATOM     10  C   UNL A   1      38.562  34.270  29.681  1.00  0.00     0.016 A 
BRANCH   6  11
ATOM     11  C   UNL A   1      42.150  35.267  30.304  1.00  0.00     0.023 C 
ATOM     12  C   UNL A   1      44.538  34.916  29.623  1.00  0.00     0.092 C 
ATOM     13  C   UNL A   1      45.254  33.835  29.242  1.00  0.00     0.039 C 
ATOM     14  C   UNL A   1      43.175  34.500  29.896  1.00  0.00     0.057 C 
ATOM     15  C   UNL A   1      46.686  33.847  28.820  1.00  0.00     0.066 C 
ATOM     16  N   UNL A   1      44.436  32.703  29.204  1.00  0.00    -0.280 N 
ATOM     17  C   UNL A   1      43.118  33.025  29.599  1.00  0.00     0.263 C 
ATOM     18  O   UNL A   1      42.160  32.287  29.729  1.00  0.00    -0.268 OA
BRANCH  12  19
ATOM     19  C   UNL A   1      45.011  36.308  29.717  1.00  0.00     0.340 C 
ATOM     20  O   UNL A   1      44.908  37.123  28.812  1.00  0.00    -0.246 OA
BRANCH  19  21
ATOM     21  O   UNL A   1      45.611  36.522  30.914  1.00  0.00    -0.465 OA
ATOM     22  C   UNL A   1      46.845  37.238  30.830  1.00  0.00     0.282 C 
ENDBRANCH  19  21
ENDBRANCH  12  19
BRANCH  16  23
ATOM     23  C   UNL A   1      44.759  31.379  28.807  1.00  0.00     0.049 A 
ATOM     24  C   UNL A   1      44.596  30.999  27.466  1.00  0.00     0.028 A 
ATOM     25  C   UNL A   1      45.230  30.431  29.722  1.00  0.00     0.028 A 
ATOM     26  C   UNL A   1      44.952  29.719  27.035  1.00  0.00     0.018 A 
ATOM     27  C   UNL A   1      45.570  29.142  29.297  1.00  0.00     0.018 A 
ATOM     28  C   UNL A   1      45.442  28.796  27.953  1.00  0.00     0.018 A 
ATOM     29  Br  UNL A   1      45.935  27.066  27.376  1.00  0.00    -0.051 Br
ENDBRANCH  16  23
ENDBRANCH   6  11
ENDBRANCH   3   5
ENDBRANCH   2   3
ENDBRANCH   1   2
BRANCH   1  30
ATOM     30  C   UNL A   1      34.078  33.465  28.723  1.00  0.00     0.275 C 
BRANCH  30  31
ATOM     31  O   UNL A   1      34.096  32.047  28.976  1.00  0.00    -0.458 OA
BRANCH  31  32
ATOM     32  C   UNL A   1      34.278  31.287  27.873  1.00  0.00     0.338 C 
ATOM     33  O   UNL A   1      33.541  31.215  26.903  1.00  0.00    -0.246 OA
BRANCH  32  34
ATOM     34  C   UNL A   1      35.568  30.584  27.913  1.00  0.00     0.060 A 
ATOM     35  C   UNL A   1      35.573  29.303  28.444  1.00  0.00     0.016 A 
ATOM     36  C   UNL A   1      36.770  31.256  27.719  1.00  0.00     0.016 A 
ATOM     37  C   UNL A   1      36.741  28.771  28.978  1.00  0.00     0.010 A 
ATOM     38  C   UNL A   1      37.973  30.640  28.102  1.00  0.00     0.010 A 
ATOM     39  C   UNL A   1      37.972  29.419  28.805  1.00  0.00    -0.014 A 
BRANCH  39  40
ATOM     40  C   UNL A   1      39.218  28.837  29.402  1.00  0.00     0.031 A 
ATOM     41  C   UNL A   1      39.853  29.466  30.625  1.00  0.00     0.074 A 
ATOM     42  C   UNL A   1      39.771  27.721  28.877  1.00  0.00     0.049 A 
ATOM     43  N   UNL A   1      41.005  29.202  31.191  1.00  0.00    -0.248 NA
ATOM     44  C   UNL A   1      39.105  30.547  31.286  1.00  0.00     0.031 C 
ATOM     45  C   UNL A   1      39.254  26.979  27.724  1.00  0.00     0.029 A 
ATOM     46  N   UNL A   1      40.884  27.002  29.246  1.00  0.00    -0.354 N 
ATOM     47  C   UNL A   1      41.150  30.126  32.225  1.00  0.00     0.074 A 
ATOM     48  C   UNL A   1      39.972  30.966  32.197  1.00  0.00     0.031 C 
ATOM     49  C   UNL A   1      40.006  25.890  27.519  1.00  0.00     0.029 A 
ATOM     50  C   UNL A   1      41.136  25.917  28.437  1.00  0.00     0.049 A 
ATOM     51  H   UNL A   1      41.449  27.241  30.017  1.00  0.00     0.167 HD
ATOM     52  C   UNL A   1      42.169  30.259  33.112  1.00  0.00     0.034 A 
ATOM     53  C   UNL A   1      42.181  25.067  28.385  1.00  0.00     0.034 A 
ATOM     54  C   UNL A   1      43.312  29.376  33.162  1.00  0.00     0.049 A 
ATOM     55  C   UNL A   1      43.312  25.256  29.359  1.00  0.00     0.074 A 
ATOM     56  C   UNL A   1      44.379  29.400  34.045  1.00  0.00     0.029 A 
ATOM     57  N   UNL A   1      43.538  28.308  32.302  1.00  0.00    -0.354 N 
ATOM     58  N   UNL A   1      43.448  26.158  30.304  1.00  0.00    -0.248 NA
ATOM     59  C   UNL A   1      44.433  24.314  29.260  1.00  0.00     0.031 C 
ATOM     60  C   UNL A   1      45.287  28.405  33.668  1.00  0.00     0.029 A 
ATOM     61  C   UNL A   1      44.742  27.691  32.612  1.00  0.00     0.049 A 
ATOM     62  H   UNL A   1      42.932  28.031  31.577  1.00  0.00     0.167 HD
ATOM     63  C   UNL A   1      44.659  25.873  30.928  1.00  0.00     0.074 A 
ATOM     64  C   UNL A   1      45.194  24.697  30.271  1.00  0.00     0.031 C 
ATOM     65  C   UNL A   1      45.275  26.525  31.946  1.00  0.00     0.034 A 
BRANCH  52  66
ATOM     66  C   UNL A   1      42.134  31.438  34.062  1.00  0.00     0.023 A 
ATOM     67  C   UNL A   1      41.353  31.450  35.230  1.00  0.00     0.031 A 
ATOM     68  C   UNL A   1      42.910  32.581  33.783  1.00  0.00     0.131 A 
ATOM     69  C   UNL A   1      41.319  32.598  36.040  1.00  0.00     0.055 A 
ATOM     70  C   UNL A   1      42.935  33.686  34.635  1.00  0.00     0.041 A 
ATOM     71  F   UNL A   1      43.662  32.641  32.672  1.00  0.00    -0.206 F 
ATOM     72  C   UNL A   1      42.126  33.705  35.766  1.00  0.00     0.022 A 
BRANCH  69  73
ATOM     73  S   UNL A   1      40.106  32.679  37.386  1.00  0.00     0.124 S 
ATOM     74  O   UNL A   1      40.955  32.482  38.560  1.00  0.00    -0.237 OA
ATOM     75  O   UNL A   1      39.540  34.013  37.223  1.00  0.00    -0.237 OA
ATOM     76  O   UNL A   1      39.194  31.574  37.094  1.00  0.00    -0.744 OA
ENDBRANCH  69  73
ENDBRANCH  52  66
BRANCH  53  77
ATOM     77  C   UNL A   1      42.252  24.012  27.327  1.00  0.00     0.023 A 
ATOM     78  C   UNL A   1      41.701  22.736  27.530  1.00  0.00     0.031 A 
ATOM     79  C   UNL A   1      42.927  24.249  26.115  1.00  0.00     0.131 A 
ATOM     80  C   UNL A   1      41.883  21.734  26.563  1.00  0.00     0.055 A 
ATOM     81  C   UNL A   1      43.039  23.273  25.125  1.00  0.00     0.041 A 
ATOM     82  F   UNL A   1      43.482  25.447  25.868  1.00  0.00    -0.206 F 
ATOM     83  C   UNL A   1      42.531  21.999  25.354  1.00  0.00     0.022 A 
BRANCH  80  84
ATOM     84  S   UNL A   1      41.365  20.042  26.959  1.00  0.00     0.124 S 
ATOM     85  O   UNL A   1      40.817  20.206  28.300  1.00  0.00    -0.237 OA
ATOM     86  O   UNL A   1      40.400  19.765  25.900  1.00  0.00    -0.237 OA
ATOM     87  O   UNL A   1      42.610  19.278  26.882  1.00  0.00    -0.744 OA
ENDBRANCH  80  84
ENDBRANCH  53  77
BRANCH  65  88
ATOM     88  C   UNL A   1      46.574  25.935  32.445  1.00  0.00     0.023 A 
ATOM     89  C   UNL A   1      46.607  24.986  33.483  1.00  0.00     0.031 A 
ATOM     90  C   UNL A   1      47.800  26.372  31.914  1.00  0.00     0.131 A 
ATOM     91  C   UNL A   1      47.837  24.576  34.016  1.00  0.00     0.055 A 
ATOM     92  C   UNL A   1      49.021  25.896  32.393  1.00  0.00     0.041 A 
ATOM     93  F   UNL A   1      47.833  27.282  30.927  1.00  0.00    -0.206 F 
ATOM     94  C   UNL A   1      49.045  25.010  33.466  1.00  0.00     0.022 A 
BRANCH  91  95
ATOM     95  S   UNL A   1      47.838  23.591  35.540  1.00  0.00     0.124 S 
ATOM     96  O   UNL A   1      48.630  24.425  36.439  1.00  0.00    -0.237 OA
ATOM     97  O   UNL A   1      46.415  23.495  35.848  1.00  0.00    -0.237 OA
ATOM     98  O   UNL A   1      48.472  22.337  35.137  1.00  0.00    -0.744 OA
ENDBRANCH  91  95
ENDBRANCH  65  88
ENDBRANCH  39  40
ENDBRANCH  32  34
ENDBRANCH  31  32
ENDBRANCH  30  31
ENDBRANCH   1  30
TORSDOF 18
ENDMDL
