MODEL 1
REMARK VINA RESULT:     -11.8      0.000      0.000
REMARK SMILES CCn1nc(-c2cccnc2)c2cc(C(=O)OCCOC(=O)c3ccc(-c4c5nc(c(-c6cc(S(=O)(=O)[O-])ccc6F)c6ccc([nH]6)c(-c6cc(S(=O)(=O)[O-])ccc6F)c6nc(c(-c7cc(S(=O)(=O)[O-])ccc7F)c7ccc4[nH]7)C=C6)C=C5)cc3)sc21
REMARK SMILES IDX 19 1 18 2 17 3 15 4 16 5 14 6 3 7 4 8 87 9 5 10 12 11 86 12
REMARK SMILES IDX 13 13 2 14 1 15 6 16 7 17 11 18 8 19 10 20 9 21 20 22 21 23
REMARK SMILES IDX 22 24 23 25 24 26 85 27 25 28 84 29 26 30 27 31 28 32 78 33
REMARK SMILES IDX 29 34 83 35 77 36 79 37 30 38 82 39 76 40 75 41 31 43 63 44
REMARK SMILES IDX 43 45 62 46 44 47 47 48 61 49 80 50 45 51 46 52 60 54 81 55
REMARK SMILES IDX 48 56 32 57 33 58 41 59 34 60 40 61 42 62 39 63 35 64 36 65
REMARK SMILES IDX 37 66 38 67 64 68 65 69 73 70 66 71 72 72 74 73 71 74 67 75
REMARK SMILES IDX 68 76 69 77 70 78 49 79 50 80 58 81 51 82 57 83 59 84 56 85
REMARK SMILES IDX 52 86 53 87 54 88 55 89
REMARK H PARENT 79 42 47 53
REMARK Flexibility Score: inf
ROOT
ATOM      1  C   UNL A   1      33.707  31.001  27.627  1.00  0.00     0.275 C 
ENDROOT
BRANCH   1   2
ATOM      2  C   UNL A   1      33.259  29.957  26.619  1.00  0.00     0.275 C 
BRANCH   2   3
ATOM      3  O   UNL A   1      33.526  28.639  27.112  1.00  0.00    -0.458 OA
BRANCH   3   4
ATOM      4  C   UNL A   1      32.575  27.670  26.946  1.00  0.00     0.348 C 
ATOM      5  O   UNL A   1      31.479  27.673  27.502  1.00  0.00    -0.245 OA
BRANCH   4   6
ATOM      6  C   UNL A   1      33.040  26.663  26.006  1.00  0.00     0.115 A 
ATOM      7  N   UNL A   1      33.527  24.604  22.911  1.00  0.00    -0.254 N 
ATOM      8  N   UNL A   1      34.632  23.820  23.081  1.00  0.00    -0.171 NA
ATOM      9  C   UNL A   1      33.272  25.326  24.017  1.00  0.00     0.122 A 
ATOM     10  C   UNL A   1      35.033  24.050  24.360  1.00  0.00     0.103 A 
ATOM     11  C   UNL A   1      34.203  25.022  24.925  1.00  0.00     0.040 A 
ATOM     12  S   UNL A   1      32.177  26.458  24.506  1.00  0.00    -0.109 S 
ATOM     13  C   UNL A   1      34.109  25.758  26.113  1.00  0.00     0.040 A 
BRANCH   7  14
ATOM     14  C   UNL A   1      32.856  24.607  21.626  1.00  0.00     0.142 C 
ATOM     15  C   UNL A   1      32.715  25.958  20.936  1.00  0.00     0.029 C 
ENDBRANCH   7  14
BRANCH  10  16
ATOM     16  C   UNL A   1      36.184  23.342  24.887  1.00  0.00     0.021 A 
ATOM     17  C   UNL A   1      37.092  23.989  25.732  1.00  0.00     0.013 A 
ATOM     18  C   UNL A   1      36.487  22.046  24.490  1.00  0.00     0.121 A 
ATOM     19  C   UNL A   1      38.248  23.327  26.143  1.00  0.00     0.021 A 
ATOM     20  N   UNL A   1      37.603  21.377  24.881  1.00  0.00    -0.264 NA
ATOM     21  C   UNL A   1      38.459  22.036  25.690  1.00  0.00     0.111 A 
ENDBRANCH  10  16
ENDBRANCH   4   6
ENDBRANCH   3   4
ENDBRANCH   2   3
ENDBRANCH   1   2
BRANCH   1  22
ATOM     22  O   UNL A   1      35.083  31.312  27.433  1.00  0.00    -0.458 OA
BRANCH  22  23
ATOM     23  C   UNL A   1      35.784  31.595  28.555  1.00  0.00     0.338 C 
ATOM     24  O   UNL A   1      35.521  32.432  29.399  1.00  0.00    -0.246 OA
BRANCH  23  25
ATOM     25  C   UNL A   1      37.044  30.852  28.499  1.00  0.00     0.060 A 
ATOM     26  C   UNL A   1      37.026  29.539  28.024  1.00  0.00     0.016 A 
ATOM     27  C   UNL A   1      38.166  31.393  29.143  1.00  0.00     0.016 A 
ATOM     28  C   UNL A   1      38.098  28.721  28.325  1.00  0.00     0.010 A 
ATOM     29  C   UNL A   1      39.221  30.575  29.457  1.00  0.00     0.010 A 
ATOM     30  C   UNL A   1      39.146  29.233  29.105  1.00  0.00    -0.014 A 
BRANCH  30  31
ATOM     31  C   UNL A   1      40.285  28.391  29.404  1.00  0.00     0.031 A 
ATOM     32  C   UNL A   1      40.565  28.338  30.856  1.00  0.00     0.074 A 
ATOM     33  C   UNL A   1      40.905  27.623  28.486  1.00  0.00     0.049 A 
ATOM     34  N   UNL A   1      41.551  28.891  31.475  1.00  0.00    -0.248 NA
ATOM     35  C   UNL A   1      39.520  27.811  31.751  1.00  0.00     0.031 C 
ATOM     36  C   UNL A   1      40.544  27.400  27.084  1.00  0.00     0.029 A 
ATOM     37  N   UNL A   1      41.969  26.794  28.654  1.00  0.00    -0.354 N 
ATOM     38  C   UNL A   1      41.392  28.548  32.809  1.00  0.00     0.074 A 
ATOM     39  C   UNL A   1      40.032  28.105  32.947  1.00  0.00     0.031 C 
ATOM     40  C   UNL A   1      41.233  26.335  26.606  1.00  0.00     0.029 A 
ATOM     41  C   UNL A   1      42.178  25.886  27.618  1.00  0.00     0.049 A 
ATOM     42  H   UNL A   1      42.547  26.831  29.450  1.00  0.00     0.167 HD
ATOM     43  C   UNL A   1      42.476  28.391  33.614  1.00  0.00     0.034 A 
ATOM     44  C   UNL A   1      43.038  24.827  27.623  1.00  0.00     0.034 A 
ATOM     45  C   UNL A   1      43.646  29.013  33.029  1.00  0.00     0.049 A 
ATOM     46  C   UNL A   1      44.058  25.118  28.665  1.00  0.00     0.074 A 
ATOM     47  C   UNL A   1      43.947  30.298  32.618  1.00  0.00     0.029 A 
ATOM     48  N   UNL A   1      44.561  28.202  32.396  1.00  0.00    -0.354 N 
ATOM     49  N   UNL A   1      44.912  26.100  28.567  1.00  0.00    -0.248 NA
ATOM     50  C   UNL A   1      43.790  24.666  30.023  1.00  0.00     0.031 C 
ATOM     51  C   UNL A   1      44.664  30.135  31.396  1.00  0.00     0.029 A 
ATOM     52  C   UNL A   1      44.849  28.768  31.177  1.00  0.00     0.049 A 
ATOM     53  H   UNL A   1      44.942  27.366  32.753  1.00  0.00     0.167 HD
ATOM     54  C   UNL A   1      44.937  26.679  29.826  1.00  0.00     0.074 A 
ATOM     55  C   UNL A   1      44.294  25.700  30.705  1.00  0.00     0.031 C 
ATOM     56  C   UNL A   1      45.206  28.010  29.990  1.00  0.00     0.034 A 
BRANCH  43  57
ATOM     57  C   UNL A   1      42.573  27.355  34.710  1.00  0.00     0.023 A 
ATOM     58  C   UNL A   1      43.351  26.215  34.441  1.00  0.00     0.031 A 
ATOM     59  C   UNL A   1      41.738  27.275  35.849  1.00  0.00     0.131 A 
ATOM     60  C   UNL A   1      43.206  25.046  35.206  1.00  0.00     0.055 A 
ATOM     61  C   UNL A   1      41.650  26.134  36.650  1.00  0.00     0.041 A 
ATOM     62  F   UNL A   1      40.890  28.247  36.204  1.00  0.00    -0.206 F 
ATOM     63  C   UNL A   1      42.360  24.998  36.311  1.00  0.00     0.022 A 
BRANCH  60  64
ATOM     64  S   UNL A   1      44.006  23.535  34.619  1.00  0.00     0.124 S 
ATOM     65  O   UNL A   1      42.900  22.859  33.948  1.00  0.00    -0.237 OA
ATOM     66  O   UNL A   1      45.055  24.067  33.755  1.00  0.00    -0.237 OA
ATOM     67  O   UNL A   1      44.474  22.900  35.848  1.00  0.00    -0.744 OA
ENDBRANCH  60  64
ENDBRANCH  43  57
BRANCH  44  68
ATOM     68  C   UNL A   1      42.831  23.461  27.054  1.00  0.00     0.023 A 
ATOM     69  C   UNL A   1      43.775  22.822  26.211  1.00  0.00     0.031 A 
ATOM     70  C   UNL A   1      41.796  22.647  27.564  1.00  0.00     0.131 A 
ATOM     71  C   UNL A   1      43.660  21.438  25.925  1.00  0.00     0.055 A 
ATOM     72  C   UNL A   1      41.692  21.281  27.283  1.00  0.00     0.041 A 
ATOM     73  F   UNL A   1      40.895  23.132  28.433  1.00  0.00    -0.206 F 
ATOM     74  C   UNL A   1      42.631  20.667  26.471  1.00  0.00     0.022 A 
BRANCH  71  75
ATOM     75  S   UNL A   1      44.907  20.581  24.900  1.00  0.00     0.124 S 
ATOM     76  O   UNL A   1      46.158  20.986  25.530  1.00  0.00    -0.237 OA
ATOM     77  O   UNL A   1      44.529  19.181  25.046  1.00  0.00    -0.237 OA
ATOM     78  O   UNL A   1      44.688  21.134  23.562  1.00  0.00    -0.744 OA
ENDBRANCH  71  75
ENDBRANCH  44  68
BRANCH  56  79
ATOM     79  C   UNL A   1      45.742  28.790  28.802  1.00  0.00     0.023 A 
ATOM     80  C   UNL A   1      47.109  28.919  28.454  1.00  0.00     0.031 A 
ATOM     81  C   UNL A   1      44.796  29.344  27.921  1.00  0.00     0.131 A 
ATOM     82  C   UNL A   1      47.478  29.596  27.271  1.00  0.00     0.055 A 
ATOM     83  C   UNL A   1      45.162  29.990  26.742  1.00  0.00     0.041 A 
ATOM     84  F   UNL A   1      43.482  29.238  28.182  1.00  0.00    -0.206 F 
ATOM     85  C   UNL A   1      46.506  30.125  26.415  1.00  0.00     0.022 A 
BRANCH  82  86
ATOM     86  S   UNL A   1      49.232  29.835  26.832  1.00  0.00     0.124 S 
ATOM     87  O   UNL A   1      49.325  31.262  26.549  1.00  0.00    -0.237 OA
ATOM     88  O   UNL A   1      49.926  29.374  28.031  1.00  0.00    -0.237 OA
ATOM     89  O   UNL A   1      49.410  28.972  25.660  1.00  0.00    -0.744 OA
ENDBRANCH  82  86
ENDBRANCH  56  79
ENDBRANCH  30  31
ENDBRANCH  23  25
ENDBRANCH  22  23
ENDBRANCH   1  22
TORSDOF 16
ENDMDL
MODEL 2
REMARK VINA RESULT:     -11.8      4.133      9.704
REMARK SMILES CCn1nc(-c2cccnc2)c2cc(C(=O)OCCOC(=O)c3ccc(-c4c5nc(c(-c6cc(S(=O)(=O)[O-])ccc6F)c6ccc([nH]6)c(-c6cc(S(=O)(=O)[O-])ccc6F)c6nc(c(-c7cc(S(=O)(=O)[O-])ccc7F)c7ccc4[nH]7)C=C6)C=C5)cc3)sc21
REMARK SMILES IDX 19 1 18 2 17 3 15 4 16 5 14 6 3 7 4 8 87 9 5 10 12 11 86 12
REMARK SMILES IDX 13 13 2 14 1 15 6 16 7 17 11 18 8 19 10 20 9 21 20 22 21 23
REMARK SMILES IDX 22 24 23 25 24 26 85 27 25 28 84 29 26 30 27 31 28 32 78 33
REMARK SMILES IDX 29 34 83 35 77 36 79 37 30 38 82 39 76 40 75 41 31 43 63 44
REMARK SMILES IDX 43 45 62 46 44 47 47 48 61 49 80 50 45 51 46 52 60 54 81 55
REMARK SMILES IDX 48 56 32 57 33 58 41 59 34 60 40 61 42 62 39 63 35 64 36 65
REMARK SMILES IDX 37 66 38 67 64 68 65 69 73 70 66 71 72 72 74 73 71 74 67 75
REMARK SMILES IDX 68 76 69 77 70 78 49 79 50 80 58 81 51 82 57 83 59 84 56 85
REMARK SMILES IDX 52 86 53 87 54 88 55 89
REMARK H PARENT 79 42 47 53
REMARK Flexibility Score: inf
ROOT
ATOM      1  C   UNL A   1      40.460  21.342  26.420  1.00  0.00     0.275 C 
ENDROOT
BRANCH   1   2
ATOM      2  C   UNL A   1      39.238  21.205  25.529  1.00  0.00     0.275 C 
BRANCH   2   3
ATOM      3  O   UNL A   1      38.069  21.676  26.208  1.00  0.00    -0.458 OA
BRANCH   3   4
ATOM      4  C   UNL A   1      37.314  22.653  25.620  1.00  0.00     0.348 C 
ATOM      5  O   UNL A   1      37.684  23.815  25.466  1.00  0.00    -0.245 OA
BRANCH   4   6
ATOM      6  C   UNL A   1      36.037  22.110  25.185  1.00  0.00     0.115 A 
ATOM      7  N   UNL A   1      32.641  21.738  23.641  1.00  0.00    -0.254 N 
ATOM      8  N   UNL A   1      32.313  20.413  23.630  1.00  0.00    -0.171 NA
ATOM      9  C   UNL A   1      33.830  21.936  24.238  1.00  0.00     0.122 A 
ATOM     10  C   UNL A   1      33.330  19.793  24.286  1.00  0.00     0.103 A 
ATOM     11  C   UNL A   1      34.294  20.746  24.626  1.00  0.00     0.040 A 
ATOM     12  S   UNL A   1      34.830  23.205  24.569  1.00  0.00    -0.109 S 
ATOM     13  C   UNL A   1      35.570  20.785  25.202  1.00  0.00     0.040 A 
BRANCH   7  14
ATOM     14  C   UNL A   1      31.758  22.688  22.995  1.00  0.00     0.142 C 
ATOM     15  C   UNL A   1      31.002  23.645  23.909  1.00  0.00     0.029 C 
ENDBRANCH   7  14
BRANCH  10  16
ATOM     16  C   UNL A   1      33.284  18.356  24.483  1.00  0.00     0.021 A 
ATOM     17  C   UNL A   1      32.705  17.813  25.634  1.00  0.00     0.013 A 
ATOM     18  C   UNL A   1      33.905  17.480  23.602  1.00  0.00     0.121 A 
ATOM     19  C   UNL A   1      32.763  16.439  25.857  1.00  0.00     0.021 A 
ATOM     20  N   UNL A   1      33.972  16.136  23.793  1.00  0.00    -0.264 NA
ATOM     21  C   UNL A   1      33.407  15.651  24.919  1.00  0.00     0.111 A 
ENDBRANCH  10  16
ENDBRANCH   4   6
ENDBRANCH   3   4
ENDBRANCH   2   3
ENDBRANCH   1   2
BRANCH   1  22
ATOM     22  O   UNL A   1      40.761  22.718  26.633  1.00  0.00    -0.458 OA
BRANCH  22  23
ATOM     23  C   UNL A   1      41.457  22.998  27.759  1.00  0.00     0.338 C 
ATOM     24  O   UNL A   1      41.810  22.217  28.623  1.00  0.00    -0.246 OA
BRANCH  23  25
ATOM     25  C   UNL A   1      41.558  24.453  27.875  1.00  0.00     0.060 A 
ATOM     26  C   UNL A   1      42.576  24.993  28.665  1.00  0.00     0.016 A 
ATOM     27  C   UNL A   1      40.498  25.235  27.393  1.00  0.00     0.016 A 
ATOM     28  C   UNL A   1      42.448  26.302  29.088  1.00  0.00     0.010 A 
ATOM     29  C   UNL A   1      40.364  26.528  27.829  1.00  0.00     0.010 A 
ATOM     30  C   UNL A   1      41.303  27.026  28.725  1.00  0.00    -0.014 A 
BRANCH  30  31
ATOM     31  C   UNL A   1      41.173  28.406  29.142  1.00  0.00     0.031 A 
ATOM     32  C   UNL A   1      42.217  29.264  28.540  1.00  0.00     0.074 A 
ATOM     33  C   UNL A   1      40.130  28.873  29.857  1.00  0.00     0.049 A 
ATOM     34  N   UNL A   1      43.229  29.789  29.142  1.00  0.00    -0.248 NA
ATOM     35  C   UNL A   1      42.277  29.368  27.072  1.00  0.00     0.031 C 
ATOM     36  C   UNL A   1      38.917  28.167  30.275  1.00  0.00     0.029 A 
ATOM     37  N   UNL A   1      39.901  30.140  30.294  1.00  0.00    -0.354 N 
ATOM     38  C   UNL A   1      43.905  30.513  28.170  1.00  0.00     0.074 A 
ATOM     39  C   UNL A   1      43.424  30.028  26.906  1.00  0.00     0.031 C 
ATOM     40  C   UNL A   1      37.997  29.066  30.701  1.00  0.00     0.029 A 
ATOM     41  C   UNL A   1      38.597  30.393  30.713  1.00  0.00     0.049 A 
ATOM     42  H   UNL A   1      40.605  30.828  30.311  1.00  0.00     0.167 HD
ATOM     43  C   UNL A   1      44.586  31.642  28.502  1.00  0.00     0.034 A 
ATOM     44  C   UNL A   1      38.055  31.609  31.005  1.00  0.00     0.034 A 
ATOM     45  C   UNL A   1      44.834  31.693  29.927  1.00  0.00     0.049 A 
ATOM     46  C   UNL A   1      39.195  32.515  31.310  1.00  0.00     0.074 A 
ATOM     47  C   UNL A   1      45.480  30.859  30.822  1.00  0.00     0.029 A 
ATOM     48  N   UNL A   1      44.023  32.498  30.697  1.00  0.00    -0.354 N 
ATOM     49  N   UNL A   1      39.967  32.358  32.350  1.00  0.00    -0.248 NA
ATOM     50  C   UNL A   1      39.790  33.254  30.205  1.00  0.00     0.031 C 
ATOM     51  C   UNL A   1      44.653  30.856  31.984  1.00  0.00     0.029 A 
ATOM     52  C   UNL A   1      43.607  31.759  31.779  1.00  0.00     0.049 A 
ATOM     53  H   UNL A   1      43.784  33.434  30.506  1.00  0.00     0.167 HD
ATOM     54  C   UNL A   1      41.253  32.563  31.876  1.00  0.00     0.074 A 
ATOM     55  C   UNL A   1      41.076  33.198  30.568  1.00  0.00     0.031 C 
ATOM     56  C   UNL A   1      42.328  31.937  32.444  1.00  0.00     0.034 A 
BRANCH  43  57
ATOM     57  C   UNL A   1      44.673  32.867  27.621  1.00  0.00     0.023 A 
ATOM     58  C   UNL A   1      43.960  34.004  28.038  1.00  0.00     0.031 A 
ATOM     59  C   UNL A   1      45.153  32.896  26.290  1.00  0.00     0.131 A 
ATOM     60  C   UNL A   1      43.661  35.039  27.137  1.00  0.00     0.055 A 
ATOM     61  C   UNL A   1      44.914  33.960  25.418  1.00  0.00     0.041 A 
ATOM     62  F   UNL A   1      45.793  31.868  25.721  1.00  0.00    -0.206 F 
ATOM     63  C   UNL A   1      44.135  35.026  25.828  1.00  0.00     0.022 A 
BRANCH  60  64
ATOM     64  S   UNL A   1      42.488  36.313  27.657  1.00  0.00     0.124 S 
ATOM     65  O   UNL A   1      42.520  37.224  26.517  1.00  0.00    -0.237 OA
ATOM     66  O   UNL A   1      41.263  35.540  27.830  1.00  0.00    -0.237 OA
ATOM     67  O   UNL A   1      43.077  36.833  28.888  1.00  0.00    -0.744 OA
ENDBRANCH  60  64
ENDBRANCH  43  57
BRANCH  44  68
ATOM     68  C   UNL A   1      36.683  32.114  30.693  1.00  0.00     0.023 A 
ATOM     69  C   UNL A   1      35.914  32.880  31.605  1.00  0.00     0.031 A 
ATOM     70  C   UNL A   1      36.214  32.071  29.362  1.00  0.00     0.131 A 
ATOM     71  C   UNL A   1      34.749  33.559  31.167  1.00  0.00     0.055 A 
ATOM     72  C   UNL A   1      35.068  32.747  28.935  1.00  0.00     0.041 A 
ATOM     73  F   UNL A   1      36.908  31.440  28.402  1.00  0.00    -0.206 F 
ATOM     74  C   UNL A   1      34.336  33.505  29.835  1.00  0.00     0.022 A 
BRANCH  71  75
ATOM     75  S   UNL A   1      33.785  34.609  32.312  1.00  0.00     0.124 S 
ATOM     76  O   UNL A   1      33.258  33.634  33.259  1.00  0.00    -0.237 OA
ATOM     77  O   UNL A   1      34.793  35.532  32.819  1.00  0.00    -0.237 OA
ATOM     78  O   UNL A   1      32.778  35.225  31.444  1.00  0.00    -0.744 OA
ENDBRANCH  71  75
ENDBRANCH  44  68
BRANCH  56  79
ATOM     79  C   UNL A   1      42.130  31.226  33.773  1.00  0.00     0.023 A 
ATOM     80  C   UNL A   1      41.978  29.827  33.940  1.00  0.00     0.031 A 
ATOM     81  C   UNL A   1      42.205  32.012  34.935  1.00  0.00     0.131 A 
ATOM     82  C   UNL A   1      41.892  29.275  35.237  1.00  0.00     0.055 A 
ATOM     83  C   UNL A   1      42.145  31.461  36.214  1.00  0.00     0.041 A 
ATOM     84  F   UNL A   1      42.370  33.342  34.847  1.00  0.00    -0.206 F 
ATOM     85  C   UNL A   1      41.981  30.090  36.370  1.00  0.00     0.022 A 
BRANCH  82  86
ATOM     86  S   UNL A   1      41.630  27.487  35.483  1.00  0.00     0.124 S 
ATOM     87  O   UNL A   1      41.000  27.408  36.795  1.00  0.00    -0.237 OA
ATOM     88  O   UNL A   1      40.785  27.130  34.347  1.00  0.00    -0.237 OA
ATOM     89  O   UNL A   1      42.985  26.933  35.426  1.00  0.00    -0.744 OA
ENDBRANCH  82  86
ENDBRANCH  56  79
ENDBRANCH  30  31
ENDBRANCH  23  25
ENDBRANCH  22  23
ENDBRANCH   1  22
TORSDOF 16
ENDMDL
MODEL 3
REMARK VINA RESULT:     -11.8      1.468      1.930
REMARK SMILES CCn1nc(-c2cccnc2)c2cc(C(=O)OCCOC(=O)c3ccc(-c4c5nc(c(-c6cc(S(=O)(=O)[O-])ccc6F)c6ccc([nH]6)c(-c6cc(S(=O)(=O)[O-])ccc6F)c6nc(c(-c7cc(S(=O)(=O)[O-])ccc7F)c7ccc4[nH]7)C=C6)C=C5)cc3)sc21
REMARK SMILES IDX 19 1 18 2 17 3 15 4 16 5 14 6 3 7 4 8 87 9 5 10 12 11 86 12
REMARK SMILES IDX 13 13 2 14 1 15 6 16 7 17 11 18 8 19 10 20 9 21 20 22 21 23
REMARK SMILES IDX 22 24 23 25 24 26 85 27 25 28 84 29 26 30 27 31 28 32 78 33
REMARK SMILES IDX 29 34 83 35 77 36 79 37 30 38 82 39 76 40 75 41 31 43 63 44
REMARK SMILES IDX 43 45 62 46 44 47 47 48 61 49 80 50 45 51 46 52 60 54 81 55
REMARK SMILES IDX 48 56 32 57 33 58 41 59 34 60 40 61 42 62 39 63 35 64 36 65
REMARK SMILES IDX 37 66 38 67 64 68 65 69 73 70 66 71 72 72 74 73 71 74 67 75
REMARK SMILES IDX 68 76 69 77 70 78 49 79 50 80 58 81 51 82 57 83 59 84 56 85
REMARK SMILES IDX 52 86 53 87 54 88 55 89
REMARK H PARENT 79 42 47 53
REMARK Flexibility Score: inf
ROOT
ATOM      1  C   UNL A   1      33.522  31.586  27.492  1.00  0.00     0.275 C 
ENDROOT
BRANCH   1   2
ATOM      2  C   UNL A   1      32.559  30.533  26.972  1.00  0.00     0.275 C 
BRANCH   2   3
ATOM      3  O   UNL A   1      33.139  29.228  27.080  1.00  0.00    -0.458 OA
BRANCH   3   4
ATOM      4  C   UNL A   1      32.309  28.146  27.183  1.00  0.00     0.348 C 
ATOM      5  O   UNL A   1      31.467  28.001  28.066  1.00  0.00    -0.245 OA
BRANCH   4   6
ATOM      6  C   UNL A   1      32.553  27.219  26.090  1.00  0.00     0.115 A 
ATOM      7  N   UNL A   1      32.592  25.595  22.711  1.00  0.00    -0.254 N 
ATOM      8  N   UNL A   1      33.510  24.584  22.726  1.00  0.00    -0.171 NA
ATOM      9  C   UNL A   1      32.495  26.178  23.919  1.00  0.00     0.122 A 
ATOM     10  C   UNL A   1      33.954  24.532  24.011  1.00  0.00     0.103 A 
ATOM     11  C   UNL A   1      33.346  25.557  24.740  1.00  0.00     0.040 A 
ATOM     12  S   UNL A   1      31.661  27.423  24.607  1.00  0.00    -0.109 S 
ATOM     13  C   UNL A   1      33.411  26.108  26.026  1.00  0.00     0.040 A 
BRANCH   7  14
ATOM     14  C   UNL A   1      31.932  25.928  21.465  1.00  0.00     0.142 C 
ATOM     15  C   UNL A   1      32.624  25.474  20.185  1.00  0.00     0.029 C 
ENDBRANCH   7  14
BRANCH  10  16
ATOM     16  C   UNL A   1      34.935  23.532  24.388  1.00  0.00     0.021 A 
ATOM     17  C   UNL A   1      34.585  22.179  24.448  1.00  0.00     0.013 A 
ATOM     18  C   UNL A   1      36.210  23.885  24.808  1.00  0.00     0.121 A 
ATOM     19  C   UNL A   1      35.508  21.245  24.914  1.00  0.00     0.021 A 
ATOM     20  N   UNL A   1      37.131  22.994  25.261  1.00  0.00    -0.264 NA
ATOM     21  C   UNL A   1      36.755  21.699  25.311  1.00  0.00     0.111 A 
ENDBRANCH  10  16
ENDBRANCH   4   6
ENDBRANCH   3   4
ENDBRANCH   2   3
ENDBRANCH   1   2
BRANCH   1  22
ATOM     22  O   UNL A   1      34.686  30.965  28.028  1.00  0.00    -0.458 OA
BRANCH  22  23
ATOM     23  C   UNL A   1      35.767  31.767  28.166  1.00  0.00     0.338 C 
ATOM     24  O   UNL A   1      35.919  32.887  27.715  1.00  0.00    -0.246 OA
BRANCH  23  25
ATOM     25  C   UNL A   1      36.829  30.986  28.801  1.00  0.00     0.060 A 
ATOM     26  C   UNL A   1      37.982  31.646  29.230  1.00  0.00     0.016 A 
ATOM     27  C   UNL A   1      36.755  29.586  28.737  1.00  0.00     0.016 A 
ATOM     28  C   UNL A   1      39.117  30.893  29.462  1.00  0.00     0.010 A 
ATOM     29  C   UNL A   1      37.887  28.842  28.949  1.00  0.00     0.010 A 
ATOM     30  C   UNL A   1      39.071  29.508  29.243  1.00  0.00    -0.014 A 
BRANCH  30  31
ATOM     31  C   UNL A   1      40.249  28.708  29.509  1.00  0.00     0.031 A 
ATOM     32  C   UNL A   1      40.538  28.618  30.957  1.00  0.00     0.074 A 
ATOM     33  C   UNL A   1      40.896  28.001  28.562  1.00  0.00     0.049 A 
ATOM     34  N   UNL A   1      41.503  29.192  31.590  1.00  0.00    -0.248 NA
ATOM     35  C   UNL A   1      39.523  28.014  31.837  1.00  0.00     0.031 C 
ATOM     36  C   UNL A   1      40.538  27.810  27.155  1.00  0.00     0.029 A 
ATOM     37  N   UNL A   1      41.997  27.214  28.697  1.00  0.00    -0.354 N 
ATOM     38  C   UNL A   1      41.367  28.797  32.913  1.00  0.00     0.074 A 
ATOM     39  C   UNL A   1      40.028  28.290  33.040  1.00  0.00     0.031 C 
ATOM     40  C   UNL A   1      41.271  26.794  26.638  1.00  0.00     0.029 A 
ATOM     41  C   UNL A   1      42.241  26.353  27.630  1.00  0.00     0.049 A 
ATOM     42  H   UNL A   1      42.577  27.250  29.491  1.00  0.00     0.167 HD
ATOM     43  C   UNL A   1      42.461  28.661  33.707  1.00  0.00     0.034 A 
ATOM     44  C   UNL A   1      43.146  25.334  27.594  1.00  0.00     0.034 A 
ATOM     45  C   UNL A   1      43.599  29.354  33.139  1.00  0.00     0.049 A 
ATOM     46  C   UNL A   1      44.159  25.634  28.642  1.00  0.00     0.074 A 
ATOM     47  C   UNL A   1      43.841  30.665  32.772  1.00  0.00     0.029 A 
ATOM     48  N   UNL A   1      44.546  28.607  32.475  1.00  0.00    -0.354 N 
ATOM     49  N   UNL A   1      44.968  26.656  28.574  1.00  0.00    -0.248 NA
ATOM     50  C   UNL A   1      43.919  25.124  29.984  1.00  0.00     0.031 C 
ATOM     51  C   UNL A   1      44.557  30.576  31.542  1.00  0.00     0.029 A 
ATOM     52  C   UNL A   1      44.801  29.227  31.274  1.00  0.00     0.049 A 
ATOM     53  H   UNL A   1      44.965  27.778  32.801  1.00  0.00     0.167 HD
ATOM     54  C   UNL A   1      44.975  27.192  29.852  1.00  0.00     0.074 A 
ATOM     55  C   UNL A   1      44.380  26.155  30.699  1.00  0.00     0.031 C 
ATOM     56  C   UNL A   1      45.184  28.526  30.061  1.00  0.00     0.034 A 
BRANCH  43  57
ATOM     57  C   UNL A   1      42.610  27.594  34.766  1.00  0.00     0.023 A 
ATOM     58  C   UNL A   1      43.375  26.463  34.427  1.00  0.00     0.031 A 
ATOM     59  C   UNL A   1      41.831  27.479  35.941  1.00  0.00     0.131 A 
ATOM     60  C   UNL A   1      43.267  25.272  35.164  1.00  0.00     0.055 A 
ATOM     61  C   UNL A   1      41.781  26.314  36.711  1.00  0.00     0.041 A 
ATOM     62  F   UNL A   1      41.000  28.439  36.364  1.00  0.00    -0.206 F 
ATOM     63  C   UNL A   1      42.475  25.190  36.306  1.00  0.00     0.022 A 
BRANCH  60  64
ATOM     64  S   UNL A   1      44.039  23.780  34.494  1.00  0.00     0.124 S 
ATOM     65  O   UNL A   1      44.560  23.152  35.704  1.00  0.00    -0.237 OA
ATOM     66  O   UNL A   1      42.906  23.116  33.859  1.00  0.00    -0.237 OA
ATOM     67  O   UNL A   1      45.048  24.304  33.577  1.00  0.00    -0.744 OA
ENDBRANCH  60  64
ENDBRANCH  43  57
BRANCH  44  68
ATOM     68  C   UNL A   1      42.997  23.980  26.979  1.00  0.00     0.023 A 
ATOM     69  C   UNL A   1      43.843  23.500  25.948  1.00  0.00     0.031 A 
ATOM     70  C   UNL A   1      42.167  23.023  27.603  1.00  0.00     0.131 A 
ATOM     71  C   UNL A   1      43.836  22.127  25.594  1.00  0.00     0.055 A 
ATOM     72  C   UNL A   1      42.169  21.669  27.254  1.00  0.00     0.041 A 
ATOM     73  F   UNL A   1      41.385  23.354  28.642  1.00  0.00    -0.206 F 
ATOM     74  C   UNL A   1      43.013  21.213  26.255  1.00  0.00     0.022 A 
BRANCH  71  75
ATOM     75  S   UNL A   1      44.971  21.477  24.317  1.00  0.00     0.124 S 
ATOM     76  O   UNL A   1      44.664  22.322  23.170  1.00  0.00    -0.237 OA
ATOM     77  O   UNL A   1      46.279  21.664  24.932  1.00  0.00    -0.237 OA
ATOM     78  O   UNL A   1      44.560  20.078  24.175  1.00  0.00    -0.744 OA
ENDBRANCH  71  75
ENDBRANCH  44  68
BRANCH  56  79
ATOM     79  C   UNL A   1      45.679  29.371  28.898  1.00  0.00     0.023 A 
ATOM     80  C   UNL A   1      44.937  30.386  28.246  1.00  0.00     0.031 A 
ATOM     81  C   UNL A   1      47.018  29.196  28.506  1.00  0.00     0.131 A 
ATOM     82  C   UNL A   1      45.540  31.165  27.234  1.00  0.00     0.055 A 
ATOM     83  C   UNL A   1      47.617  29.983  27.525  1.00  0.00     0.041 A 
ATOM     84  F   UNL A   1      47.784  28.264  29.099  1.00  0.00    -0.206 F 
ATOM     85  C   UNL A   1      46.878  30.967  26.880  1.00  0.00     0.022 A 
BRANCH  82  86
ATOM     86  S   UNL A   1      44.589  32.434  26.332  1.00  0.00     0.124 S 
ATOM     87  O   UNL A   1      45.566  33.007  25.414  1.00  0.00    -0.237 OA
ATOM     88  O   UNL A   1      43.518  31.654  25.721  1.00  0.00    -0.237 OA
ATOM     89  O   UNL A   1      44.146  33.344  27.392  1.00  0.00    -0.744 OA
ENDBRANCH  82  86
ENDBRANCH  56  79
ENDBRANCH  30  31
ENDBRANCH  23  25
ENDBRANCH  22  23
ENDBRANCH   1  22
TORSDOF 16
ENDMDL
