MODEL 1
REMARK VINA RESULT:     -11.6      0.000      0.000
REMARK SMILES CC[C@@H](C(=O)OCCOC(=O)c1ccc(-c2c3nc(c(-c4cc(S(=O)(=O)[O-])ccc4F)c4ccc([nH]4)c(-c4cc(S(=O)(=O)[O-])ccc4F)c4nc(c(-c5cc(S(=O)(=O)[O-])ccc5F)c5ccc2[nH]5)C=C4)C=C3)cc1)n1c(SCc2cccc(C(F)(F)F)c2)nc2ccncc21
REMARK SMILES IDX 7 1 6 2 4 3 5 4 3 5 2 6 1 7 75 8 76 9 95 10 89 11 90 12
REMARK SMILES IDX 94 13 91 14 93 15 92 16 77 17 78 18 79 19 80 20 88 21 81 22
REMARK SMILES IDX 83 23 82 24 84 25 85 26 86 27 87 28 8 29 9 30 10 31 11 32
REMARK SMILES IDX 12 33 13 34 74 35 14 36 73 37 15 38 16 39 17 40 67 41 18 42
REMARK SMILES IDX 72 43 66 44 68 45 19 46 71 47 65 48 64 49 20 51 52 52 32 53
REMARK SMILES IDX 51 54 33 55 36 56 50 57 69 58 34 59 35 60 49 62 70 63 37 64
REMARK SMILES IDX 21 65 22 66 30 67 23 68 29 69 31 70 28 71 24 72 25 73 26 74
REMARK SMILES IDX 27 75 53 76 54 77 62 78 55 79 61 80 63 81 60 82 56 83 57 84
REMARK SMILES IDX 58 85 59 86 38 87 39 88 47 89 40 90 46 91 48 92 45 93 41 94
REMARK SMILES IDX 42 95 43 96 44 97
REMARK H PARENT 68 50 36 61
REMARK Flexibility Score: inf
ROOT
ATOM      1  C   UNL A   1      31.321  28.771  25.227  1.00  0.00     0.274 C 
ENDROOT
BRANCH   1   2
ATOM      2  O   UNL A   1      30.516  28.647  24.031  1.00  0.00    -0.461 OA
BRANCH   2   3
ATOM      3  C   UNL A   1      31.007  27.760  23.132  1.00  0.00     0.329 C 
ATOM      4  O   UNL A   1      30.397  27.515  22.101  1.00  0.00    -0.250 OA
BRANCH   3   5
ATOM      5  C   UNL A   1      32.305  27.084  23.535  1.00  0.00     0.199 C 
BRANCH   5   6
ATOM      6  C   UNL A   1      33.453  27.404  22.538  1.00  0.00     0.034 C 
ATOM      7  C   UNL A   1      34.261  28.672  22.801  1.00  0.00     0.007 C 
ENDBRANCH   5   6
BRANCH   5   8
ATOM      8  N   UNL A   1      32.104  25.628  23.804  1.00  0.00    -0.303 N 
ATOM      9  C   UNL A   1      31.955  24.628  22.838  1.00  0.00     0.170 A 
ATOM     10  C   UNL A   1      31.659  25.041  24.990  1.00  0.00     0.088 A 
ATOM     11  N   UNL A   1      31.012  23.789  23.212  1.00  0.00    -0.222 NA
ATOM     12  C   UNL A   1      31.002  23.885  24.571  1.00  0.00     0.093 A 
ATOM     13  C   UNL A   1      31.768  25.326  26.346  1.00  0.00     0.139 A 
ATOM     14  C   UNL A   1      30.495  22.977  25.499  1.00  0.00     0.051 A 
ATOM     15  N   UNL A   1      31.289  24.440  27.249  1.00  0.00    -0.262 NA
ATOM     16  C   UNL A   1      30.708  23.297  26.824  1.00  0.00     0.113 A 
BRANCH   9  17
ATOM     17  S   UNL A   1      33.218  23.930  21.849  1.00  0.00    -0.083 SA
BRANCH  17  18
ATOM     18  C   UNL A   1      34.505  23.107  22.793  1.00  0.00     0.113 C 
BRANCH  18  19
ATOM     19  C   UNL A   1      34.191  22.389  24.078  1.00  0.00    -0.037 A 
ATOM     20  C   UNL A   1      34.588  22.960  25.297  1.00  0.00     0.004 A 
ATOM     21  C   UNL A   1      33.517  21.169  24.113  1.00  0.00     0.017 A 
ATOM     22  C   UNL A   1      34.414  22.268  26.496  1.00  0.00     0.001 A 
ATOM     23  C   UNL A   1      33.489  20.396  25.274  1.00  0.00     0.056 A 
ATOM     24  C   UNL A   1      33.907  20.970  26.479  1.00  0.00     0.013 A 
BRANCH  23  25
ATOM     25  C   UNL A   1      33.095  18.944  25.178  1.00  0.00     0.416 C 
ATOM     26  F   UNL A   1      34.156  18.156  24.837  1.00  0.00    -0.166 F 
ATOM     27  F   UNL A   1      32.601  18.437  26.335  1.00  0.00    -0.166 F 
ATOM     28  F   UNL A   1      32.162  18.706  24.216  1.00  0.00    -0.166 F 
ENDBRANCH  23  25
ENDBRANCH  18  19
ENDBRANCH  17  18
ENDBRANCH   9  17
ENDBRANCH   5   8
ENDBRANCH   3   5
ENDBRANCH   2   3
ENDBRANCH   1   2
BRANCH   1  29
ATOM     29  C   UNL A   1      31.779  30.213  25.542  1.00  0.00     0.275 C 
BRANCH  29  30
ATOM     30  O   UNL A   1      32.420  30.363  26.834  1.00  0.00    -0.458 OA
BRANCH  30  31
ATOM     31  C   UNL A   1      33.013  31.568  27.070  1.00  0.00     0.338 C 
ATOM     32  O   UNL A   1      32.477  32.656  26.917  1.00  0.00    -0.246 OA
BRANCH  31  33
ATOM     33  C   UNL A   1      34.293  31.402  27.822  1.00  0.00     0.060 A 
ATOM     34  C   UNL A   1      34.549  30.125  28.338  1.00  0.00     0.016 A 
ATOM     35  C   UNL A   1      35.253  32.400  27.983  1.00  0.00     0.016 A 
ATOM     36  C   UNL A   1      35.784  29.808  28.908  1.00  0.00     0.010 A 
ATOM     37  C   UNL A   1      36.470  32.101  28.632  1.00  0.00     0.010 A 
ATOM     38  C   UNL A   1      36.757  30.797  29.074  1.00  0.00    -0.014 A 
BRANCH  38  39
ATOM     39  C   UNL A   1      37.997  30.471  29.836  1.00  0.00     0.031 A 
ATOM     40  C   UNL A   1      39.030  29.598  29.187  1.00  0.00     0.074 A 
ATOM     41  C   UNL A   1      38.257  31.002  31.048  1.00  0.00     0.049 A 
ATOM     42  N   UNL A   1      40.122  29.084  29.693  1.00  0.00    -0.248 NA
ATOM     43  C   UNL A   1      38.800  29.262  27.775  1.00  0.00     0.031 C 
ATOM     44  C   UNL A   1      37.415  31.975  31.729  1.00  0.00     0.029 A 
ATOM     45  N   UNL A   1      39.311  30.817  31.914  1.00  0.00    -0.354 N 
ATOM     46  C   UNL A   1      40.701  28.348  28.667  1.00  0.00     0.074 A 
ATOM     47  C   UNL A   1      39.840  28.488  27.511  1.00  0.00     0.031 C 
ATOM     48  C   UNL A   1      37.997  32.337  32.885  1.00  0.00     0.029 A 
ATOM     49  C   UNL A   1      39.200  31.532  33.088  1.00  0.00     0.049 A 
ATOM     50  H   UNL A   1      40.075  30.229  31.713  1.00  0.00     0.167 HD
ATOM     51  C   UNL A   1      41.835  27.605  28.695  1.00  0.00     0.034 A 
ATOM     52  C   UNL A   1      39.941  31.496  34.217  1.00  0.00     0.034 A 
ATOM     53  C   UNL A   1      42.656  27.440  29.869  1.00  0.00     0.049 A 
ATOM     54  C   UNL A   1      41.090  30.511  34.292  1.00  0.00     0.074 A 
ATOM     55  C   UNL A   1      43.780  26.652  30.032  1.00  0.00     0.029 A 
ATOM     56  N   UNL A   1      42.430  28.064  31.091  1.00  0.00    -0.354 N 
ATOM     57  N   UNL A   1      41.576  29.734  33.351  1.00  0.00    -0.248 NA
ATOM     58  C   UNL A   1      41.766  30.371  35.590  1.00  0.00     0.031 C 
ATOM     59  C   UNL A   1      44.182  26.731  31.369  1.00  0.00     0.029 A 
ATOM     60  C   UNL A   1      43.368  27.642  32.022  1.00  0.00     0.049 A 
ATOM     61  H   UNL A   1      41.709  28.709  31.270  1.00  0.00     0.167 HD
ATOM     62  C   UNL A   1      42.625  29.031  33.939  1.00  0.00     0.074 A 
ATOM     63  C   UNL A   1      42.713  29.487  35.311  1.00  0.00     0.031 C 
ATOM     64  C   UNL A   1      43.441  28.094  33.392  1.00  0.00     0.034 A 
BRANCH  51  65
ATOM     65  C   UNL A   1      42.164  26.826  27.446  1.00  0.00     0.023 A 
ATOM     66  C   UNL A   1      41.836  25.466  27.309  1.00  0.00     0.031 A 
ATOM     67  C   UNL A   1      42.902  27.435  26.415  1.00  0.00     0.131 A 
ATOM     68  C   UNL A   1      42.327  24.739  26.214  1.00  0.00     0.055 A 
ATOM     69  C   UNL A   1      43.305  26.727  25.282  1.00  0.00     0.041 A 
ATOM     70  F   UNL A   1      43.272  28.722  26.506  1.00  0.00    -0.206 F 
ATOM     71  C   UNL A   1      43.035  25.366  25.186  1.00  0.00     0.022 A 
BRANCH  68  72
ATOM     72  S   UNL A   1      42.193  22.931  26.246  1.00  0.00     0.124 S 
ATOM     73  O   UNL A   1      43.057  22.591  27.374  1.00  0.00    -0.237 OA
ATOM     74  O   UNL A   1      40.763  22.723  26.448  1.00  0.00    -0.237 OA
ATOM     75  O   UNL A   1      42.704  22.525  24.938  1.00  0.00    -0.744 OA
ENDBRANCH  68  72
ENDBRANCH  51  65
BRANCH  52  76
ATOM     76  C   UNL A   1      39.572  32.310  35.419  1.00  0.00     0.023 A 
ATOM     77  C   UNL A   1      40.148  33.571  35.659  1.00  0.00     0.031 A 
ATOM     78  C   UNL A   1      38.704  31.797  36.402  1.00  0.00     0.131 A 
ATOM     79  C   UNL A   1      39.881  34.250  36.861  1.00  0.00     0.055 A 
ATOM     80  C   UNL A   1      38.389  32.506  37.563  1.00  0.00     0.041 A 
ATOM     81  F   UNL A   1      38.147  30.584  36.253  1.00  0.00    -0.206 F 
ATOM     82  C   UNL A   1      38.990  33.736  37.804  1.00  0.00     0.022 A 
BRANCH  79  83
ATOM     83  S   UNL A   1      40.802  35.771  37.236  1.00  0.00     0.124 S 
ATOM     84  O   UNL A   1      41.599  35.358  38.386  1.00  0.00    -0.237 OA
ATOM     85  O   UNL A   1      41.534  35.999  35.996  1.00  0.00    -0.237 OA
ATOM     86  O   UNL A   1      39.751  36.744  37.523  1.00  0.00    -0.744 OA
ENDBRANCH  79  83
ENDBRANCH  52  76
BRANCH  64  87
ATOM     87  C   UNL A   1      44.536  27.527  34.266  1.00  0.00     0.023 A 
ATOM     88  C   UNL A   1      44.365  26.340  35.000  1.00  0.00     0.031 A 
ATOM     89  C   UNL A   1      45.781  28.179  34.346  1.00  0.00     0.131 A 
ATOM     90  C   UNL A   1      45.409  25.861  35.807  1.00  0.00     0.055 A 
ATOM     91  C   UNL A   1      46.834  27.666  35.101  1.00  0.00     0.041 A 
ATOM     92  F   UNL A   1      45.998  29.320  33.672  1.00  0.00    -0.206 F 
ATOM     93  C   UNL A   1      46.649  26.505  35.845  1.00  0.00     0.022 A 
BRANCH  90  94
ATOM     94  S   UNL A   1      45.106  24.419  36.866  1.00  0.00     0.124 S 
ATOM     95  O   UNL A   1      44.072  24.917  37.768  1.00  0.00    -0.237 OA
ATOM     96  O   UNL A   1      44.681  23.407  35.906  1.00  0.00    -0.237 OA
ATOM     97  O   UNL A   1      46.405  24.172  37.490  1.00  0.00    -0.744 OA
ENDBRANCH  90  94
ENDBRANCH  64  87
ENDBRANCH  38  39
ENDBRANCH  31  33
ENDBRANCH  30  31
ENDBRANCH  29  30
ENDBRANCH   1  29
TORSDOF 20
ENDMDL
MODEL 2
REMARK VINA RESULT:     -11.4      4.533      9.182
REMARK SMILES CC[C@@H](C(=O)OCCOC(=O)c1ccc(-c2c3nc(c(-c4cc(S(=O)(=O)[O-])ccc4F)c4ccc([nH]4)c(-c4cc(S(=O)(=O)[O-])ccc4F)c4nc(c(-c5cc(S(=O)(=O)[O-])ccc5F)c5ccc2[nH]5)C=C4)C=C3)cc1)n1c(SCc2cccc(C(F)(F)F)c2)nc2ccncc21
REMARK SMILES IDX 7 1 6 2 4 3 5 4 3 5 2 6 1 7 75 8 76 9 95 10 89 11 90 12
REMARK SMILES IDX 94 13 91 14 93 15 92 16 77 17 78 18 79 19 80 20 88 21 81 22
REMARK SMILES IDX 83 23 82 24 84 25 85 26 86 27 87 28 8 29 9 30 10 31 11 32
REMARK SMILES IDX 12 33 13 34 74 35 14 36 73 37 15 38 16 39 17 40 67 41 18 42
REMARK SMILES IDX 72 43 66 44 68 45 19 46 71 47 65 48 64 49 20 51 52 52 32 53
REMARK SMILES IDX 51 54 33 55 36 56 50 57 69 58 34 59 35 60 49 62 70 63 37 64
REMARK SMILES IDX 21 65 22 66 30 67 23 68 29 69 31 70 28 71 24 72 25 73 26 74
REMARK SMILES IDX 27 75 53 76 54 77 62 78 55 79 61 80 63 81 60 82 56 83 57 84
REMARK SMILES IDX 58 85 59 86 38 87 39 88 47 89 40 90 46 91 48 92 45 93 41 94
REMARK SMILES IDX 42 95 43 96 44 97
REMARK H PARENT 68 50 36 61
REMARK Flexibility Score: inf
ROOT
ATOM      1  C   UNL A   1      35.188  23.046  24.506  1.00  0.00     0.274 C 
ENDROOT
BRANCH   1   2
ATOM      2  O   UNL A   1      34.469  23.398  25.710  1.00  0.00    -0.461 OA
BRANCH   2   3
ATOM      3  C   UNL A   1      34.002  24.670  25.716  1.00  0.00     0.329 C 
ATOM      4  O   UNL A   1      34.769  25.617  25.625  1.00  0.00    -0.250 OA
BRANCH   3   5
ATOM      5  C   UNL A   1      32.500  24.804  25.895  1.00  0.00     0.199 C 
BRANCH   5   6
ATOM      6  C   UNL A   1      31.901  23.594  26.660  1.00  0.00     0.034 C 
ATOM      7  C   UNL A   1      30.380  23.537  26.781  1.00  0.00     0.007 C 
ENDBRANCH   5   6
BRANCH   5   8
ATOM      8  N   UNL A   1      31.822  25.118  24.600  1.00  0.00    -0.303 N 
ATOM      9  C   UNL A   1      31.874  24.343  23.437  1.00  0.00     0.170 A 
ATOM     10  C   UNL A   1      31.343  26.359  24.175  1.00  0.00     0.088 A 
ATOM     11  N   UNL A   1      32.008  25.128  22.389  1.00  0.00    -0.222 NA
ATOM     12  C   UNL A   1      31.460  26.310  22.786  1.00  0.00     0.093 A 
ATOM     13  C   UNL A   1      30.798  27.481  24.788  1.00  0.00     0.139 A 
ATOM     14  C   UNL A   1      30.985  27.354  21.994  1.00  0.00     0.051 A 
ATOM     15  N   UNL A   1      30.325  28.490  24.021  1.00  0.00    -0.262 NA
ATOM     16  C   UNL A   1      30.393  28.398  22.675  1.00  0.00     0.113 A 
BRANCH   9  17
ATOM     17  S   UNL A   1      31.023  22.844  23.137  1.00  0.00    -0.083 SA
BRANCH  17  18
ATOM     18  C   UNL A   1      32.100  21.476  22.699  1.00  0.00     0.113 C 
BRANCH  18  19
ATOM     19  C   UNL A   1      32.401  20.375  23.681  1.00  0.00    -0.037 A 
ATOM     20  C   UNL A   1      32.375  20.656  25.055  1.00  0.00     0.004 A 
ATOM     21  C   UNL A   1      32.708  19.075  23.282  1.00  0.00     0.017 A 
ATOM     22  C   UNL A   1      32.759  19.689  25.985  1.00  0.00     0.001 A 
ATOM     23  C   UNL A   1      33.253  18.157  24.180  1.00  0.00     0.056 A 
ATOM     24  C   UNL A   1      33.240  18.458  25.546  1.00  0.00     0.013 A 
BRANCH  23  25
ATOM     25  C   UNL A   1      33.916  16.914  23.645  1.00  0.00     0.416 C 
ATOM     26  F   UNL A   1      35.006  16.564  24.389  1.00  0.00    -0.166 F 
ATOM     27  F   UNL A   1      33.104  15.828  23.626  1.00  0.00    -0.166 F 
ATOM     28  F   UNL A   1      34.395  17.066  22.379  1.00  0.00    -0.166 F 
ENDBRANCH  23  25
ENDBRANCH  18  19
ENDBRANCH  17  18
ENDBRANCH   9  17
ENDBRANCH   5   8
ENDBRANCH   3   5
ENDBRANCH   2   3
ENDBRANCH   1   2
BRANCH   1  29
ATOM     29  C   UNL A   1      35.948  21.702  24.583  1.00  0.00     0.275 C 
BRANCH  29  30
ATOM     30  O   UNL A   1      36.641  21.484  25.838  1.00  0.00    -0.458 OA
BRANCH  30  31
ATOM     31  C   UNL A   1      37.944  21.093  25.740  1.00  0.00     0.338 C 
ATOM     32  O   UNL A   1      38.335  20.098  25.147  1.00  0.00    -0.246 OA
BRANCH  31  33
ATOM     33  C   UNL A   1      38.867  22.178  26.186  1.00  0.00     0.060 A 
ATOM     34  C   UNL A   1      38.458  23.491  25.921  1.00  0.00     0.016 A 
ATOM     35  C   UNL A   1      40.053  21.970  26.889  1.00  0.00     0.016 A 
ATOM     36  C   UNL A   1      39.152  24.586  26.440  1.00  0.00     0.010 A 
ATOM     37  C   UNL A   1      40.800  23.078  27.343  1.00  0.00     0.010 A 
ATOM     38  C   UNL A   1      40.341  24.394  27.148  1.00  0.00    -0.014 A 
BRANCH  38  39
ATOM     39  C   UNL A   1      41.148  25.584  27.543  1.00  0.00     0.031 A 
ATOM     40  C   UNL A   1      40.512  26.626  28.415  1.00  0.00     0.074 A 
ATOM     41  C   UNL A   1      42.451  25.711  27.215  1.00  0.00     0.049 A 
ATOM     42  N   UNL A   1      40.971  27.794  28.784  1.00  0.00    -0.248 NA
ATOM     43  C   UNL A   1      39.180  26.304  28.942  1.00  0.00     0.031 C 
ATOM     44  C   UNL A   1      43.232  24.711  26.501  1.00  0.00     0.029 A 
ATOM     45  N   UNL A   1      43.353  26.722  27.456  1.00  0.00    -0.354 N 
ATOM     46  C   UNL A   1      39.975  28.356  29.573  1.00  0.00     0.074 A 
ATOM     47  C   UNL A   1      38.892  27.397  29.630  1.00  0.00     0.031 C 
ATOM     48  C   UNL A   1      44.503  25.130  26.395  1.00  0.00     0.029 A 
ATOM     49  C   UNL A   1      44.606  26.487  26.929  1.00  0.00     0.049 A 
ATOM     50  H   UNL A   1      43.127  27.537  27.959  1.00  0.00     0.167 HD
ATOM     51  C   UNL A   1      39.958  29.571  30.175  1.00  0.00     0.034 A 
ATOM     52  C   UNL A   1      45.688  27.292  26.830  1.00  0.00     0.034 A 
ATOM     53  C   UNL A   1      41.027  30.533  30.069  1.00  0.00     0.049 A 
ATOM     54  C   UNL A   1      45.574  28.714  27.338  1.00  0.00     0.074 A 
ATOM     55  C   UNL A   1      41.082  31.820  30.573  1.00  0.00     0.029 A 
ATOM     56  N   UNL A   1      42.225  30.318  29.399  1.00  0.00    -0.354 N 
ATOM     57  N   UNL A   1      44.588  29.282  27.995  1.00  0.00    -0.248 NA
ATOM     58  C   UNL A   1      46.702  29.615  27.061  1.00  0.00     0.031 C 
ATOM     59  C   UNL A   1      42.272  32.411  30.136  1.00  0.00     0.029 A 
ATOM     60  C   UNL A   1      43.005  31.465  29.438  1.00  0.00     0.049 A 
ATOM     61  H   UNL A   1      42.483  29.477  28.959  1.00  0.00     0.167 HD
ATOM     62  C   UNL A   1      44.988  30.596  28.225  1.00  0.00     0.074 A 
ATOM     63  C   UNL A   1      46.311  30.734  27.652  1.00  0.00     0.031 C 
ATOM     64  C   UNL A   1      44.321  31.597  28.854  1.00  0.00     0.034 A 
BRANCH  51  65
ATOM     65  C   UNL A   1      38.685  29.953  30.889  1.00  0.00     0.023 A 
ATOM     66  C   UNL A   1      37.644  30.637  30.238  1.00  0.00     0.031 A 
ATOM     67  C   UNL A   1      38.556  29.711  32.269  1.00  0.00     0.131 A 
ATOM     68  C   UNL A   1      36.566  31.135  30.986  1.00  0.00     0.055 A 
ATOM     69  C   UNL A   1      37.435  30.127  32.987  1.00  0.00     0.041 A 
ATOM     70  F   UNL A   1      39.533  29.092  32.949  1.00  0.00    -0.206 F 
ATOM     71  C   UNL A   1      36.441  30.862  32.350  1.00  0.00     0.022 A 
BRANCH  68  72
ATOM     72  S   UNL A   1      35.431  32.307  30.192  1.00  0.00     0.124 S 
ATOM     73  O   UNL A   1      35.006  31.554  29.015  1.00  0.00    -0.237 OA
ATOM     74  O   UNL A   1      34.418  32.513  31.222  1.00  0.00    -0.237 OA
ATOM     75  O   UNL A   1      36.276  33.465  29.908  1.00  0.00    -0.744 OA
ENDBRANCH  68  72
ENDBRANCH  51  65
BRANCH  52  76
ATOM     76  C   UNL A   1      46.931  26.844  26.123  1.00  0.00     0.023 A 
ATOM     77  C   UNL A   1      47.986  26.221  26.815  1.00  0.00     0.031 A 
ATOM     78  C   UNL A   1      47.126  27.120  24.756  1.00  0.00     0.131 A 
ATOM     79  C   UNL A   1      49.191  25.934  26.150  1.00  0.00     0.055 A 
ATOM     80  C   UNL A   1      48.299  26.771  24.085  1.00  0.00     0.041 A 
ATOM     81  F   UNL A   1      46.173  27.745  24.045  1.00  0.00    -0.206 F 
ATOM     82  C   UNL A   1      49.346  26.186  24.786  1.00  0.00     0.022 A 
BRANCH  79  83
ATOM     83  S   UNL A   1      50.606  25.327  27.115  1.00  0.00     0.124 S 
ATOM     84  O   UNL A   1      51.536  24.935  26.062  1.00  0.00    -0.237 OA
ATOM     85  O   UNL A   1      50.974  26.505  27.892  1.00  0.00    -0.237 OA
ATOM     86  O   UNL A   1      50.041  24.224  27.890  1.00  0.00    -0.744 OA
ENDBRANCH  79  83
ENDBRANCH  52  76
BRANCH  64  87
ATOM     87  C   UNL A   1      45.028  32.924  28.998  1.00  0.00     0.023 A 
ATOM     88  C   UNL A   1      45.878  33.203  30.083  1.00  0.00     0.031 A 
ATOM     89  C   UNL A   1      44.865  33.918  28.015  1.00  0.00     0.131 A 
ATOM     90  C   UNL A   1      46.503  34.456  30.177  1.00  0.00     0.055 A 
ATOM     91  C   UNL A   1      45.536  35.139  28.083  1.00  0.00     0.041 A 
ATOM     92  F   UNL A   1      44.061  33.710  26.960  1.00  0.00    -0.206 F 
ATOM     93  C   UNL A   1      46.354  35.417  29.173  1.00  0.00     0.022 A 
BRANCH  90  94
ATOM     94  S   UNL A   1      47.462  34.846  31.668  1.00  0.00     0.124 S 
ATOM     95  O   UNL A   1      48.786  34.341  31.318  1.00  0.00    -0.237 OA
ATOM     96  O   UNL A   1      47.335  36.297  31.753  1.00  0.00    -0.237 OA
ATOM     97  O   UNL A   1      46.774  34.104  32.723  1.00  0.00    -0.744 OA
ENDBRANCH  90  94
ENDBRANCH  64  87
ENDBRANCH  38  39
ENDBRANCH  31  33
ENDBRANCH  30  31
ENDBRANCH  29  30
ENDBRANCH   1  29
TORSDOF 20
ENDMDL
MODEL 3
REMARK VINA RESULT:     -11.1      5.059      9.722
REMARK SMILES CC[C@@H](C(=O)OCCOC(=O)c1ccc(-c2c3nc(c(-c4cc(S(=O)(=O)[O-])ccc4F)c4ccc([nH]4)c(-c4cc(S(=O)(=O)[O-])ccc4F)c4nc(c(-c5cc(S(=O)(=O)[O-])ccc5F)c5ccc2[nH]5)C=C4)C=C3)cc1)n1c(SCc2cccc(C(F)(F)F)c2)nc2ccncc21
REMARK SMILES IDX 7 1 6 2 4 3 5 4 3 5 2 6 1 7 75 8 76 9 95 10 89 11 90 12
REMARK SMILES IDX 94 13 91 14 93 15 92 16 77 17 78 18 79 19 80 20 88 21 81 22
REMARK SMILES IDX 83 23 82 24 84 25 85 26 86 27 87 28 8 29 9 30 10 31 11 32
REMARK SMILES IDX 12 33 13 34 74 35 14 36 73 37 15 38 16 39 17 40 67 41 18 42
REMARK SMILES IDX 72 43 66 44 68 45 19 46 71 47 65 48 64 49 20 51 52 52 32 53
REMARK SMILES IDX 51 54 33 55 36 56 50 57 69 58 34 59 35 60 49 62 70 63 37 64
REMARK SMILES IDX 21 65 22 66 30 67 23 68 29 69 31 70 28 71 24 72 25 73 26 74
REMARK SMILES IDX 27 75 53 76 54 77 62 78 55 79 61 80 63 81 60 82 56 83 57 84
REMARK SMILES IDX 58 85 59 86 38 87 39 88 47 89 40 90 46 91 48 92 45 93 41 94
REMARK SMILES IDX 42 95 43 96 44 97
REMARK H PARENT 68 50 36 61
REMARK Flexibility Score: inf
ROOT
ATOM      1  C   UNL A   1      36.103  21.663  24.652  1.00  0.00     0.274 C 
ENDROOT
BRANCH   1   2
ATOM      2  O   UNL A   1      35.057  20.665  24.618  1.00  0.00    -0.461 OA
BRANCH   2   3
ATOM      3  C   UNL A   1      33.807  21.186  24.541  1.00  0.00     0.329 C 
ATOM      4  O   UNL A   1      32.987  20.725  23.761  1.00  0.00    -0.250 OA
BRANCH   3   5
ATOM      5  C   UNL A   1      33.551  22.382  25.440  1.00  0.00     0.199 C 
BRANCH   5   6
ATOM      6  C   UNL A   1      33.072  21.947  26.852  1.00  0.00     0.034 C 
ATOM      7  C   UNL A   1      33.845  22.505  28.045  1.00  0.00     0.007 C 
ENDBRANCH   5   6
BRANCH   5   8
ATOM      8  N   UNL A   1      32.676  23.391  24.771  1.00  0.00    -0.303 N 
ATOM      9  C   UNL A   1      31.282  23.455  24.858  1.00  0.00     0.170 A 
ATOM     10  C   UNL A   1      32.997  24.197  23.677  1.00  0.00     0.088 A 
ATOM     11  N   UNL A   1      30.778  23.731  23.674  1.00  0.00    -0.222 NA
ATOM     12  C   UNL A   1      31.777  24.399  23.034  1.00  0.00     0.093 A 
ATOM     13  C   UNL A   1      34.150  24.799  23.187  1.00  0.00     0.139 A 
ATOM     14  C   UNL A   1      31.685  25.246  21.931  1.00  0.00     0.051 A 
ATOM     15  N   UNL A   1      34.061  25.632  22.123  1.00  0.00    -0.262 NA
ATOM     16  C   UNL A   1      32.860  25.862  21.551  1.00  0.00     0.113 A 
BRANCH   9  17
ATOM     17  S   UNL A   1      30.342  24.032  26.216  1.00  0.00    -0.083 SA
BRANCH  17  18
ATOM     18  C   UNL A   1      29.508  25.592  25.910  1.00  0.00     0.113 C 
BRANCH  18  19
ATOM     19  C   UNL A   1      30.206  26.724  25.205  1.00  0.00    -0.037 A 
ATOM     20  C   UNL A   1      29.593  27.322  24.093  1.00  0.00     0.004 A 
ATOM     21  C   UNL A   1      31.447  27.211  25.610  1.00  0.00     0.017 A 
ATOM     22  C   UNL A   1      30.262  28.294  23.350  1.00  0.00     0.001 A 
ATOM     23  C   UNL A   1      32.194  28.054  24.787  1.00  0.00     0.056 A 
ATOM     24  C   UNL A   1      31.576  28.627  23.669  1.00  0.00     0.013 A 
BRANCH  23  25
ATOM     25  C   UNL A   1      33.660  28.250  25.074  1.00  0.00     0.416 C 
ATOM     26  F   UNL A   1      33.908  29.481  25.610  1.00  0.00    -0.166 F 
ATOM     27  F   UNL A   1      34.170  27.346  25.946  1.00  0.00    -0.166 F 
ATOM     28  F   UNL A   1      34.435  28.195  23.955  1.00  0.00    -0.166 F 
ENDBRANCH  23  25
ENDBRANCH  18  19
ENDBRANCH  17  18
ENDBRANCH   9  17
ENDBRANCH   5   8
ENDBRANCH   3   5
ENDBRANCH   2   3
ENDBRANCH   1   2
BRANCH   1  29
ATOM     29  C   UNL A   1      37.426  21.181  25.291  1.00  0.00     0.275 C 
BRANCH  29  30
ATOM     30  O   UNL A   1      38.393  22.236  25.521  1.00  0.00    -0.458 OA
BRANCH  30  31
ATOM     31  C   UNL A   1      39.432  21.924  26.348  1.00  0.00     0.338 C 
ATOM     32  O   UNL A   1      39.934  20.815  26.456  1.00  0.00    -0.246 OA
BRANCH  31  33
ATOM     33  C   UNL A   1      40.081  23.157  26.886  1.00  0.00     0.060 A 
ATOM     34  C   UNL A   1      39.670  24.372  26.325  1.00  0.00     0.016 A 
ATOM     35  C   UNL A   1      41.003  23.174  27.932  1.00  0.00     0.016 A 
ATOM     36  C   UNL A   1      40.078  25.594  26.863  1.00  0.00     0.010 A 
ATOM     37  C   UNL A   1      41.480  24.408  28.423  1.00  0.00     0.010 A 
ATOM     38  C   UNL A   1      41.000  25.628  27.912  1.00  0.00    -0.014 A 
BRANCH  38  39
ATOM     39  C   UNL A   1      41.547  26.944  28.352  1.00  0.00     0.031 A 
ATOM     40  C   UNL A   1      40.599  27.965  28.911  1.00  0.00     0.074 A 
ATOM     41  C   UNL A   1      42.869  27.213  28.345  1.00  0.00     0.049 A 
ATOM     42  N   UNL A   1      40.820  29.210  29.243  1.00  0.00    -0.248 NA
ATOM     43  C   UNL A   1      39.217  27.516  29.124  1.00  0.00     0.031 C 
ATOM     44  C   UNL A   1      43.910  26.266  27.970  1.00  0.00     0.029 A 
ATOM     45  N   UNL A   1      43.566  28.350  28.682  1.00  0.00    -0.354 N 
ATOM     46  C   UNL A   1      39.600  29.703  29.688  1.00  0.00     0.074 A 
ATOM     47  C   UNL A   1      38.647  28.617  29.586  1.00  0.00     0.031 C 
ATOM     48  C   UNL A   1      45.113  26.839  28.135  1.00  0.00     0.029 A 
ATOM     49  C   UNL A   1      44.930  28.238  28.514  1.00  0.00     0.049 A 
ATOM     50  H   UNL A   1      43.131  29.169  29.014  1.00  0.00     0.167 HD
ATOM     51  C   UNL A   1      39.298  30.952  30.119  1.00  0.00     0.034 A 
ATOM     52  C   UNL A   1      45.909  29.167  28.593  1.00  0.00     0.034 A 
ATOM     53  C   UNL A   1      40.251  32.034  30.170  1.00  0.00     0.049 A 
ATOM     54  C   UNL A   1      45.518  30.600  28.887  1.00  0.00     0.074 A 
ATOM     55  C   UNL A   1      40.037  33.355  30.517  1.00  0.00     0.029 A 
ATOM     56  N   UNL A   1      41.598  31.922  29.849  1.00  0.00    -0.354 N 
ATOM     57  N   UNL A   1      44.340  31.088  29.207  1.00  0.00    -0.248 NA
ATOM     58  C   UNL A   1      46.578  31.615  28.795  1.00  0.00     0.031 C 
ATOM     59  C   UNL A   1      41.231  34.058  30.323  1.00  0.00     0.029 A 
ATOM     60  C   UNL A   1      42.216  33.160  29.946  1.00  0.00     0.049 A 
ATOM     61  H   UNL A   1      42.049  31.087  29.588  1.00  0.00     0.167 HD
ATOM     62  C   UNL A   1      44.526  32.458  29.373  1.00  0.00     0.074 A 
ATOM     63  C   UNL A   1      45.930  32.719  29.134  1.00  0.00     0.031 C 
ATOM     64  C   UNL A   1      43.617  33.413  29.695  1.00  0.00     0.034 A 
BRANCH  51  65
ATOM     65  C   UNL A   1      37.851  31.224  30.446  1.00  0.00     0.023 A 
ATOM     66  C   UNL A   1      36.926  31.609  29.459  1.00  0.00     0.031 A 
ATOM     67  C   UNL A   1      37.415  31.187  31.782  1.00  0.00     0.131 A 
ATOM     68  C   UNL A   1      35.642  32.032  29.837  1.00  0.00     0.055 A 
ATOM     69  C   UNL A   1      36.107  31.517  32.139  1.00  0.00     0.041 A 
ATOM     70  F   UNL A   1      38.262  30.858  32.770  1.00  0.00    -0.206 F 
ATOM     71  C   UNL A   1      35.218  31.963  31.166  1.00  0.00     0.022 A 
BRANCH  68  72
ATOM     72  S   UNL A   1      34.602  32.853  28.599  1.00  0.00     0.124 S 
ATOM     73  O   UNL A   1      33.787  31.741  28.115  1.00  0.00    -0.237 OA
ATOM     74  O   UNL A   1      33.906  33.862  29.390  1.00  0.00    -0.237 OA
ATOM     75  O   UNL A   1      35.566  33.374  27.632  1.00  0.00    -0.744 OA
ENDBRANCH  68  72
ENDBRANCH  51  65
BRANCH  52  76
ATOM     76  C   UNL A   1      47.334  28.828  28.275  1.00  0.00     0.023 A 
ATOM     77  C   UNL A   1      47.757  28.598  26.954  1.00  0.00     0.031 A 
ATOM     78  C   UNL A   1      48.278  28.634  29.302  1.00  0.00     0.131 A 
ATOM     79  C   UNL A   1      49.067  28.152  26.702  1.00  0.00     0.055 A 
ATOM     80  C   UNL A   1      49.597  28.258  29.040  1.00  0.00     0.041 A 
ATOM     81  F   UNL A   1      47.930  28.803  30.588  1.00  0.00    -0.206 F 
ATOM     82  C   UNL A   1      49.994  28.001  27.734  1.00  0.00     0.022 A 
BRANCH  79  83
ATOM     83  S   UNL A   1      49.519  27.660  25.012  1.00  0.00     0.124 S 
ATOM     84  O   UNL A   1      48.277  27.909  24.289  1.00  0.00    -0.237 OA
ATOM     85  O   UNL A   1      50.626  28.561  24.716  1.00  0.00    -0.237 OA
ATOM     86  O   UNL A   1      49.886  26.252  25.154  1.00  0.00    -0.744 OA
ENDBRANCH  79  83
ENDBRANCH  52  76
BRANCH  64  87
ATOM     87  C   UNL A   1      44.118  34.829  29.853  1.00  0.00     0.023 A 
ATOM     88  C   UNL A   1      44.040  35.770  28.811  1.00  0.00     0.031 A 
ATOM     89  C   UNL A   1      44.665  35.249  31.081  1.00  0.00     0.131 A 
ATOM     90  C   UNL A   1      44.531  37.071  29.005  1.00  0.00     0.055 A 
ATOM     91  C   UNL A   1      45.095  36.559  31.287  1.00  0.00     0.041 A 
ATOM     92  F   UNL A   1      44.771  34.392  32.109  1.00  0.00    -0.206 F 
ATOM     93  C   UNL A   1      45.038  37.476  30.242  1.00  0.00     0.022 A 
BRANCH  90  94
ATOM     94  S   UNL A   1      44.565  38.212  27.595  1.00  0.00     0.124 S 
ATOM     95  O   UNL A   1      44.959  39.467  28.229  1.00  0.00    -0.237 OA
ATOM     96  O   UNL A   1      45.559  37.602  26.719  1.00  0.00    -0.237 OA
ATOM     97  O   UNL A   1      43.193  38.177  27.090  1.00  0.00    -0.744 OA
ENDBRANCH  90  94
ENDBRANCH  64  87
ENDBRANCH  38  39
ENDBRANCH  31  33
ENDBRANCH  30  31
ENDBRANCH  29  30
ENDBRANCH   1  29
TORSDOF 20
ENDMDL
