MODEL 1
REMARK VINA RESULT:     -12.8      0.000      0.000
REMARK SMILES CC(C)Cc1ccc(-c2cc(Cl)cc3c2O[C@H](C(F)(F)F)C(C(=O)OCCOC(=O)c2ccc(-c4c5nc(c(-c6cc(S(=O)(=O)[O-])ccc6F)c6ccc([nH]6)c(-c6cc(S(=O)(=O)[O-])ccc6F)c6nc(c(-c7cc(S(=O)(=O)[O-])ccc7F)c7ccc4[nH]7)C=C6)C=C5)cc2)=C3)cc1
REMARK SMILES IDX 26 1 25 2 23 3 24 4 22 5 9 6 10 7 15 8 11 9 14 10 16 11
REMARK SMILES IDX 12 12 13 13 94 14 17 15 8 16 5 17 6 18 96 19 7 20 95 21 4 22
REMARK SMILES IDX 2 23 1 24 3 25 18 26 19 27 20 28 21 29 27 30 28 31 29 32
REMARK SMILES IDX 30 33 31 34 32 35 93 36 33 37 92 38 34 39 35 40 36 41 86 42
REMARK SMILES IDX 37 43 91 44 85 45 87 46 38 47 90 48 84 49 83 50 39 52 71 53
REMARK SMILES IDX 51 54 70 55 52 56 55 57 69 58 88 59 53 60 54 61 68 63 89 64
REMARK SMILES IDX 56 65 40 66 41 67 49 68 42 69 48 70 50 71 47 72 43 73 44 74
REMARK SMILES IDX 45 75 46 76 72 77 73 78 81 79 74 80 80 81 82 82 79 83 75 84
REMARK SMILES IDX 76 85 77 86 78 87 57 88 58 89 66 90 59 91 65 92 67 93 64 94
REMARK SMILES IDX 60 95 61 96 62 97 63 98
REMARK H PARENT 87 51 55 62
REMARK Flexibility Score: inf
ROOT
ATOM      1  C   UNL A   1      35.721  21.089  25.247  1.00  0.00     0.275 C 
ENDROOT
BRANCH   1   2
ATOM      2  O   UNL A   1      35.144  22.167  26.023  1.00  0.00    -0.459 OA
BRANCH   2   3
ATOM      3  C   UNL A   1      34.915  23.277  25.274  1.00  0.00     0.338 C 
ATOM      4  O   UNL A   1      35.783  24.079  24.947  1.00  0.00    -0.246 OA
BRANCH   3   5
ATOM      5  C   UNL A   1      33.519  23.404  24.791  1.00  0.00     0.087 C 
ATOM      6  C   UNL A   1      31.976  27.083  23.979  1.00  0.00     0.026 A 
ATOM      7  C   UNL A   1      32.757  27.905  24.834  1.00  0.00     0.033 A 
ATOM      8  C   UNL A   1      32.135  25.713  24.207  1.00  0.00     0.135 A 
ATOM      9  C   UNL A   1      33.509  27.420  25.908  1.00  0.00     0.042 A 
ATOM     10  C   UNL A   1      32.641  25.282  25.461  1.00  0.00     0.019 A 
ATOM     11  O   UNL A   1      32.003  24.716  23.246  1.00  0.00    -0.475 OA
ATOM     12  Cl  UNL A   1      34.690  28.332  26.752  1.00  0.00    -0.084 Cl
ATOM     13  C   UNL A   1      33.346  26.121  26.303  1.00  0.00     0.032 A 
ATOM     14  C   UNL A   1      32.685  23.838  25.750  1.00  0.00     0.027 C 
ATOM     15  C   UNL A   1      33.104  23.683  23.356  1.00  0.00     0.316 C 
BRANCH   6  16
ATOM     16  C   UNL A   1      30.994  27.833  23.127  1.00  0.00    -0.015 A 
ATOM     17  C   UNL A   1      28.972  29.756  22.324  1.00  0.00    -0.048 A 
ATOM     18  C   UNL A   1      30.310  29.872  21.911  1.00  0.00     0.004 A 
ATOM     19  C   UNL A   1      28.650  28.635  23.090  1.00  0.00     0.004 A 
ATOM     20  C   UNL A   1      31.294  28.901  22.269  1.00  0.00     0.009 A 
ATOM     21  C   UNL A   1      29.632  27.706  23.478  1.00  0.00     0.009 A 
BRANCH  17  22
ATOM     22  C   UNL A   1      27.895  30.771  21.924  1.00  0.00     0.038 C 
BRANCH  22  23
ATOM     23  C   UNL A   1      28.440  32.161  21.566  1.00  0.00    -0.013 C 
ATOM     24  C   UNL A   1      27.626  32.655  20.428  1.00  0.00     0.008 C 
ATOM     25  C   UNL A   1      28.402  33.244  22.646  1.00  0.00     0.008 C 
ENDBRANCH  22  23
ENDBRANCH  17  22
ENDBRANCH   6  16
BRANCH  15  26
ATOM     26  C   UNL A   1      32.652  22.323  22.810  1.00  0.00     0.430 C 
ATOM     27  F   UNL A   1      32.921  22.193  21.488  1.00  0.00    -0.167 F 
ATOM     28  F   UNL A   1      33.223  21.284  23.451  1.00  0.00    -0.167 F 
ATOM     29  F   UNL A   1      31.305  22.173  22.946  1.00  0.00    -0.167 F 
ENDBRANCH  15  26
ENDBRANCH   3   5
ENDBRANCH   2   3
ENDBRANCH   1   2
BRANCH   1  30
ATOM     30  C   UNL A   1      37.251  21.150  25.173  1.00  0.00     0.275 C 
BRANCH  30  31
ATOM     31  O   UNL A   1      37.802  21.979  26.214  1.00  0.00    -0.458 OA
BRANCH  31  32
ATOM     32  C   UNL A   1      39.152  21.858  26.362  1.00  0.00     0.338 C 
ATOM     33  O   UNL A   1      39.821  20.926  25.974  1.00  0.00    -0.246 OA
BRANCH  32  34
ATOM     34  C   UNL A   1      39.743  23.096  26.952  1.00  0.00     0.060 A 
ATOM     35  C   UNL A   1      39.206  24.303  26.519  1.00  0.00     0.016 A 
ATOM     36  C   UNL A   1      40.781  23.128  27.893  1.00  0.00     0.016 A 
ATOM     37  C   UNL A   1      39.658  25.509  27.073  1.00  0.00     0.010 A 
ATOM     38  C   UNL A   1      41.225  24.360  28.450  1.00  0.00     0.010 A 
ATOM     39  C   UNL A   1      40.642  25.580  28.075  1.00  0.00    -0.014 A 
BRANCH  39  40
ATOM     40  C   UNL A   1      41.038  26.953  28.607  1.00  0.00     0.031 A 
ATOM     41  C   UNL A   1      42.449  27.484  28.259  1.00  0.00     0.074 A 
ATOM     42  C   UNL A   1      40.155  27.797  29.214  1.00  0.00     0.049 A 
ATOM     43  N   UNL A   1      43.024  28.648  28.485  1.00  0.00    -0.248 NA
ATOM     44  C   UNL A   1      43.322  26.550  27.531  1.00  0.00     0.031 C 
ATOM     45  C   UNL A   1      38.749  27.564  29.517  1.00  0.00     0.029 A 
ATOM     46  N   UNL A   1      40.313  29.111  29.610  1.00  0.00    -0.354 N 
ATOM     47  C   UNL A   1      44.301  28.607  27.899  1.00  0.00     0.074 A 
ATOM     48  C   UNL A   1      44.404  27.280  27.313  1.00  0.00     0.031 C 
ATOM     49  C   UNL A   1      38.137  28.723  29.836  1.00  0.00     0.029 A 
ATOM     50  C   UNL A   1      39.141  29.781  29.980  1.00  0.00     0.049 A 
ATOM     51  H   UNL A   1      41.194  29.550  29.629  1.00  0.00     0.167 HD
ATOM     52  C   UNL A   1      45.322  29.526  27.873  1.00  0.00     0.034 A 
ATOM     53  C   UNL A   1      38.904  31.071  30.381  1.00  0.00     0.034 A 
ATOM     54  C   UNL A   1      45.318  30.792  28.606  1.00  0.00     0.049 A 
ATOM     55  C   UNL A   1      40.090  32.048  30.626  1.00  0.00     0.074 A 
ATOM     56  C   UNL A   1      46.328  31.640  29.042  1.00  0.00     0.029 A 
ATOM     57  N   UNL A   1      44.172  31.530  28.839  1.00  0.00    -0.354 N 
ATOM     58  N   UNL A   1      41.389  31.839  30.519  1.00  0.00    -0.248 NA
ATOM     59  C   UNL A   1      39.777  33.435  31.007  1.00  0.00     0.031 C 
ATOM     60  C   UNL A   1      45.743  32.707  29.773  1.00  0.00     0.029 A 
ATOM     61  C   UNL A   1      44.360  32.573  29.742  1.00  0.00     0.049 A 
ATOM     62  H   UNL A   1      43.308  31.336  28.409  1.00  0.00     0.167 HD
ATOM     63  C   UNL A   1      42.026  33.087  30.604  1.00  0.00     0.074 A 
ATOM     64  C   UNL A   1      40.974  34.017  30.988  1.00  0.00     0.031 C 
ATOM     65  C   UNL A   1      43.310  33.457  30.273  1.00  0.00     0.034 A 
BRANCH  52  66
ATOM     66  C   UNL A   1      46.614  29.063  27.214  1.00  0.00     0.023 A 
ATOM     67  C   UNL A   1      46.746  28.860  25.822  1.00  0.00     0.031 A 
ATOM     68  C   UNL A   1      47.698  28.682  28.026  1.00  0.00     0.131 A 
ATOM     69  C   UNL A   1      47.893  28.217  25.311  1.00  0.00     0.055 A 
ATOM     70  C   UNL A   1      48.871  28.140  27.502  1.00  0.00     0.041 A 
ATOM     71  F   UNL A   1      47.619  28.783  29.362  1.00  0.00    -0.206 F 
ATOM     72  C   UNL A   1      48.966  27.882  26.140  1.00  0.00     0.022 A 
BRANCH  69  73
ATOM     73  S   UNL A   1      47.892  27.622  23.590  1.00  0.00     0.124 S 
ATOM     74  O   UNL A   1      47.717  26.184  23.774  1.00  0.00    -0.237 OA
ATOM     75  O   UNL A   1      46.760  28.336  23.011  1.00  0.00    -0.237 OA
ATOM     76  O   UNL A   1      49.206  28.021  23.087  1.00  0.00    -0.744 OA
ENDBRANCH  69  73
ENDBRANCH  52  66
BRANCH  53  77
ATOM     77  C   UNL A   1      37.475  31.586  30.571  1.00  0.00     0.023 A 
ATOM     78  C   UNL A   1      36.617  31.927  29.491  1.00  0.00     0.031 A 
ATOM     79  C   UNL A   1      36.950  31.790  31.862  1.00  0.00     0.131 A 
ATOM     80  C   UNL A   1      35.329  32.472  29.728  1.00  0.00     0.055 A 
ATOM     81  C   UNL A   1      35.652  32.267  32.091  1.00  0.00     0.041 A 
ATOM     82  F   UNL A   1      37.695  31.519  32.945  1.00  0.00    -0.206 F 
ATOM     83  C   UNL A   1      34.839  32.624  31.024  1.00  0.00     0.022 A 
BRANCH  80  84
ATOM     84  S   UNL A   1      34.316  33.097  28.341  1.00  0.00     0.124 S 
ATOM     85  O   UNL A   1      35.279  33.904  27.602  1.00  0.00    -0.237 OA
ATOM     86  O   UNL A   1      33.885  31.860  27.699  1.00  0.00    -0.237 OA
ATOM     87  O   UNL A   1      33.254  33.852  29.004  1.00  0.00    -0.744 OA
ENDBRANCH  80  84
ENDBRANCH  53  77
BRANCH  65  88
ATOM     88  C   UNL A   1      43.682  34.914  30.511  1.00  0.00     0.023 A 
ATOM     89  C   UNL A   1      43.474  35.886  29.512  1.00  0.00     0.031 A 
ATOM     90  C   UNL A   1      44.227  35.350  31.732  1.00  0.00     0.131 A 
ATOM     91  C   UNL A   1      43.856  37.222  29.724  1.00  0.00     0.055 A 
ATOM     92  C   UNL A   1      44.551  36.695  31.961  1.00  0.00     0.041 A 
ATOM     93  F   UNL A   1      44.466  34.477  32.724  1.00  0.00    -0.206 F 
ATOM     94  C   UNL A   1      44.373  37.638  30.951  1.00  0.00     0.022 A 
BRANCH  91  95
ATOM     95  S   UNL A   1      43.738  38.388  28.339  1.00  0.00     0.124 S 
ATOM     96  O   UNL A   1      44.777  37.895  27.441  1.00  0.00    -0.237 OA
ATOM     97  O   UNL A   1      42.363  38.198  27.887  1.00  0.00    -0.237 OA
ATOM     98  O   UNL A   1      44.012  39.685  28.954  1.00  0.00    -0.744 OA
ENDBRANCH  91  95
ENDBRANCH  65  88
ENDBRANCH  39  40
ENDBRANCH  32  34
ENDBRANCH  31  32
ENDBRANCH  30  31
ENDBRANCH   1  30
TORSDOF 18
ENDMDL
MODEL 2
REMARK VINA RESULT:     -12.0      5.696     10.353
REMARK SMILES CC(C)Cc1ccc(-c2cc(Cl)cc3c2O[C@H](C(F)(F)F)C(C(=O)OCCOC(=O)c2ccc(-c4c5nc(c(-c6cc(S(=O)(=O)[O-])ccc6F)c6ccc([nH]6)c(-c6cc(S(=O)(=O)[O-])ccc6F)c6nc(c(-c7cc(S(=O)(=O)[O-])ccc7F)c7ccc4[nH]7)C=C6)C=C5)cc2)=C3)cc1
REMARK SMILES IDX 26 1 25 2 23 3 24 4 22 5 9 6 10 7 15 8 11 9 14 10 16 11
REMARK SMILES IDX 12 12 13 13 94 14 17 15 8 16 5 17 6 18 96 19 7 20 95 21 4 22
REMARK SMILES IDX 2 23 1 24 3 25 18 26 19 27 20 28 21 29 27 30 28 31 29 32
REMARK SMILES IDX 30 33 31 34 32 35 93 36 33 37 92 38 34 39 35 40 36 41 86 42
REMARK SMILES IDX 37 43 91 44 85 45 87 46 38 47 90 48 84 49 83 50 39 52 71 53
REMARK SMILES IDX 51 54 70 55 52 56 55 57 69 58 88 59 53 60 54 61 68 63 89 64
REMARK SMILES IDX 56 65 40 66 41 67 49 68 42 69 48 70 50 71 47 72 43 73 44 74
REMARK SMILES IDX 45 75 46 76 72 77 73 78 81 79 74 80 80 81 82 82 79 83 75 84
REMARK SMILES IDX 76 85 77 86 78 87 57 88 58 89 66 90 59 91 65 92 67 93 64 94
REMARK SMILES IDX 60 95 61 96 62 97 63 98
REMARK H PARENT 87 51 55 62
REMARK Flexibility Score: inf
ROOT
ATOM      1  C   UNL A   1      45.278  22.959  25.663  1.00  0.00     0.275 C 
ENDROOT
BRANCH   1   2
ATOM      2  O   UNL A   1      43.846  22.878  25.859  1.00  0.00    -0.459 OA
BRANCH   2   3
ATOM      3  C   UNL A   1      43.518  22.569  27.140  1.00  0.00     0.338 C 
ATOM      4  O   UNL A   1      44.084  23.029  28.126  1.00  0.00    -0.246 OA
BRANCH   3   5
ATOM      5  C   UNL A   1      42.336  21.682  27.267  1.00  0.00     0.087 C 
ATOM      6  C   UNL A   1      38.670  22.998  26.087  1.00  0.00     0.026 A 
ATOM      7  C   UNL A   1      38.816  24.403  26.243  1.00  0.00     0.033 A 
ATOM      8  C   UNL A   1      39.717  22.253  26.635  1.00  0.00     0.135 A 
ATOM      9  C   UNL A   1      39.828  25.001  26.999  1.00  0.00     0.042 A 
ATOM     10  C   UNL A   1      40.534  22.850  27.631  1.00  0.00     0.019 A 
ATOM     11  O   UNL A   1      40.154  21.017  26.172  1.00  0.00    -0.475 OA
ATOM     12  Cl  UNL A   1      40.212  26.671  26.952  1.00  0.00    -0.084 Cl
ATOM     13  C   UNL A   1      40.611  24.218  27.803  1.00  0.00     0.032 A 
ATOM     14  C   UNL A   1      41.553  22.023  28.302  1.00  0.00     0.027 C 
ATOM     15  C   UNL A   1      41.665  20.938  26.124  1.00  0.00     0.316 C 
BRANCH   6  16
ATOM     16  C   UNL A   1      37.339  22.573  25.536  1.00  0.00    -0.015 A 
ATOM     17  C   UNL A   1      34.854  21.110  25.199  1.00  0.00    -0.048 A 
ATOM     18  C   UNL A   1      34.880  22.417  25.717  1.00  0.00     0.004 A 
ATOM     19  C   UNL A   1      36.077  20.573  24.796  1.00  0.00     0.004 A 
ATOM     20  C   UNL A   1      36.098  23.152  25.839  1.00  0.00     0.009 A 
ATOM     21  C   UNL A   1      37.279  21.284  24.962  1.00  0.00     0.009 A 
BRANCH  17  22
ATOM     22  C   UNL A   1      33.553  20.317  25.030  1.00  0.00     0.038 C 
BRANCH  22  23
ATOM     23  C   UNL A   1      33.751  18.801  24.897  1.00  0.00    -0.013 C 
ATOM     24  C   UNL A   1      32.848  18.168  25.890  1.00  0.00     0.008 C 
ATOM     25  C   UNL A   1      33.451  18.155  23.543  1.00  0.00     0.008 C 
ENDBRANCH  22  23
ENDBRANCH  17  22
ENDBRANCH   6  16
BRANCH  15  26
ATOM     26  C   UNL A   1      42.155  19.491  26.261  1.00  0.00     0.430 C 
ATOM     27  F   UNL A   1      41.238  18.601  25.809  1.00  0.00    -0.167 F 
ATOM     28  F   UNL A   1      43.309  19.264  25.604  1.00  0.00    -0.167 F 
ATOM     29  F   UNL A   1      42.381  19.180  27.568  1.00  0.00    -0.167 F 
ENDBRANCH  15  26
ENDBRANCH   3   5
ENDBRANCH   2   3
ENDBRANCH   1   2
BRANCH   1  30
ATOM     30  C   UNL A   1      45.722  24.262  24.988  1.00  0.00     0.275 C 
BRANCH  30  31
ATOM     31  O   UNL A   1      44.687  25.264  25.031  1.00  0.00    -0.458 OA
BRANCH  31  32
ATOM     32  C   UNL A   1      45.149  26.526  25.262  1.00  0.00     0.338 C 
ATOM     33  O   UNL A   1      45.808  27.186  24.490  1.00  0.00    -0.246 OA
BRANCH  32  34
ATOM     34  C   UNL A   1      44.623  27.064  26.552  1.00  0.00     0.060 A 
ATOM     35  C   UNL A   1      44.803  28.424  26.774  1.00  0.00     0.016 A 
ATOM     36  C   UNL A   1      43.972  26.308  27.538  1.00  0.00     0.016 A 
ATOM     37  C   UNL A   1      44.280  29.021  27.929  1.00  0.00     0.010 A 
ATOM     38  C   UNL A   1      43.442  26.930  28.703  1.00  0.00     0.010 A 
ATOM     39  C   UNL A   1      43.554  28.314  28.905  1.00  0.00    -0.014 A 
BRANCH  39  40
ATOM     40  C   UNL A   1      43.024  29.080  30.111  1.00  0.00     0.031 A 
ATOM     41  C   UNL A   1      41.558  29.575  30.066  1.00  0.00     0.074 A 
ATOM     42  C   UNL A   1      43.713  29.191  31.282  1.00  0.00     0.049 A 
ATOM     43  N   UNL A   1      40.806  30.161  30.975  1.00  0.00    -0.248 NA
ATOM     44  C   UNL A   1      40.846  29.349  28.799  1.00  0.00     0.031 C 
ATOM     45  C   UNL A   1      45.043  28.685  31.597  1.00  0.00     0.029 A 
ATOM     46  N   UNL A   1      43.318  29.712  32.500  1.00  0.00    -0.354 N 
ATOM     47  C   UNL A   1      39.530  30.339  30.415  1.00  0.00     0.074 A 
ATOM     48  C   UNL A   1      39.630  29.795  29.070  1.00  0.00     0.031 C 
ATOM     49  C   UNL A   1      45.259  28.721  32.928  1.00  0.00     0.029 A 
ATOM     50  C   UNL A   1      44.171  29.458  33.578  1.00  0.00     0.049 A 
ATOM     51  H   UNL A   1      42.487  30.230  32.602  1.00  0.00     0.167 HD
ATOM     52  C   UNL A   1      38.392  30.930  30.908  1.00  0.00     0.034 A 
ATOM     53  C   UNL A   1      44.092  29.771  34.911  1.00  0.00     0.034 A 
ATOM     54  C   UNL A   1      38.312  31.646  32.182  1.00  0.00     0.049 A 
ATOM     55  C   UNL A   1      42.946  30.683  35.436  1.00  0.00     0.074 A 
ATOM     56  C   UNL A   1      37.450  32.616  32.674  1.00  0.00     0.029 A 
ATOM     57  N   UNL A   1      39.051  31.294  33.297  1.00  0.00    -0.354 N 
ATOM     58  N   UNL A   1      41.962  31.264  34.776  1.00  0.00    -0.248 NA
ATOM     59  C   UNL A   1      42.880  30.948  36.883  1.00  0.00     0.031 C 
ATOM     60  C   UNL A   1      37.892  33.008  33.965  1.00  0.00     0.029 A 
ATOM     61  C   UNL A   1      38.994  32.238  34.318  1.00  0.00     0.049 A 
ATOM     62  H   UNL A   1      39.567  30.458  33.361  1.00  0.00     0.167 HD
ATOM     63  C   UNL A   1      41.058  31.771  35.723  1.00  0.00     0.074 A 
ATOM     64  C   UNL A   1      41.732  31.611  37.004  1.00  0.00     0.031 C 
ATOM     65  C   UNL A   1      39.759  32.200  35.574  1.00  0.00     0.034 A 
BRANCH  52  66
ATOM     66  C   UNL A   1      37.219  31.021  29.941  1.00  0.00     0.023 A 
ATOM     67  C   UNL A   1      36.598  32.239  29.585  1.00  0.00     0.031 A 
ATOM     68  C   UNL A   1      36.624  29.834  29.474  1.00  0.00     0.131 A 
ATOM     69  C   UNL A   1      35.383  32.226  28.869  1.00  0.00     0.055 A 
ATOM     70  C   UNL A   1      35.478  29.835  28.679  1.00  0.00     0.041 A 
ATOM     71  F   UNL A   1      37.119  28.638  29.826  1.00  0.00    -0.206 F 
ATOM     72  C   UNL A   1      34.837  31.033  28.391  1.00  0.00     0.022 A 
BRANCH  69  73
ATOM     73  S   UNL A   1      34.403  33.755  28.745  1.00  0.00     0.124 S 
ATOM     74  O   UNL A   1      33.533  33.458  27.609  1.00  0.00    -0.237 OA
ATOM     75  O   UNL A   1      33.753  33.819  30.049  1.00  0.00    -0.237 OA
ATOM     76  O   UNL A   1      35.407  34.788  28.495  1.00  0.00    -0.744 OA
ENDBRANCH  69  73
ENDBRANCH  52  66
BRANCH  53  77
ATOM     77  C   UNL A   1      45.109  29.216  35.912  1.00  0.00     0.023 A 
ATOM     78  C   UNL A   1      44.863  28.076  36.724  1.00  0.00     0.031 A 
ATOM     79  C   UNL A   1      46.348  29.855  36.108  1.00  0.00     0.131 A 
ATOM     80  C   UNL A   1      45.812  27.652  37.690  1.00  0.00     0.055 A 
ATOM     81  C   UNL A   1      47.309  29.393  37.017  1.00  0.00     0.041 A 
ATOM     82  F   UNL A   1      46.661  30.954  35.403  1.00  0.00    -0.206 F 
ATOM     83  C   UNL A   1      47.040  28.295  37.824  1.00  0.00     0.022 A 
BRANCH  80  84
ATOM     84  S   UNL A   1      45.402  26.314  38.867  1.00  0.00     0.124 S 
ATOM     85  O   UNL A   1      46.083  25.169  38.275  1.00  0.00    -0.237 OA
ATOM     86  O   UNL A   1      45.962  26.825  40.113  1.00  0.00    -0.237 OA
ATOM     87  O   UNL A   1      43.941  26.256  38.823  1.00  0.00    -0.744 OA
ENDBRANCH  80  84
ENDBRANCH  53  77
BRANCH  65  88
ATOM     88  C   UNL A   1      39.064  32.712  36.829  1.00  0.00     0.023 A 
ATOM     89  C   UNL A   1      38.222  31.872  37.584  1.00  0.00     0.031 A 
ATOM     90  C   UNL A   1      39.245  34.029  37.291  1.00  0.00     0.131 A 
ATOM     91  C   UNL A   1      37.552  32.363  38.717  1.00  0.00     0.055 A 
ATOM     92  C   UNL A   1      38.622  34.496  38.457  1.00  0.00     0.041 A 
ATOM     93  F   UNL A   1      40.021  34.890  36.615  1.00  0.00    -0.206 F 
ATOM     94  C   UNL A   1      37.764  33.664  39.173  1.00  0.00     0.022 A 
BRANCH  91  95
ATOM     95  S   UNL A   1      36.339  31.292  39.539  1.00  0.00     0.124 S 
ATOM     96  O   UNL A   1      36.307  30.136  38.649  1.00  0.00    -0.237 OA
ATOM     97  O   UNL A   1      36.950  31.073  40.846  1.00  0.00    -0.237 OA
ATOM     98  O   UNL A   1      35.120  32.098  39.555  1.00  0.00    -0.744 OA
ENDBRANCH  91  95
ENDBRANCH  65  88
ENDBRANCH  39  40
ENDBRANCH  32  34
ENDBRANCH  31  32
ENDBRANCH  30  31
ENDBRANCH   1  30
TORSDOF 18
ENDMDL
MODEL 3
REMARK VINA RESULT:     -11.7      5.633      9.868
REMARK SMILES CC(C)Cc1ccc(-c2cc(Cl)cc3c2O[C@H](C(F)(F)F)C(C(=O)OCCOC(=O)c2ccc(-c4c5nc(c(-c6cc(S(=O)(=O)[O-])ccc6F)c6ccc([nH]6)c(-c6cc(S(=O)(=O)[O-])ccc6F)c6nc(c(-c7cc(S(=O)(=O)[O-])ccc7F)c7ccc4[nH]7)C=C6)C=C5)cc2)=C3)cc1
REMARK SMILES IDX 26 1 25 2 23 3 24 4 22 5 9 6 10 7 15 8 11 9 14 10 16 11
REMARK SMILES IDX 12 12 13 13 94 14 17 15 8 16 5 17 6 18 96 19 7 20 95 21 4 22
REMARK SMILES IDX 2 23 1 24 3 25 18 26 19 27 20 28 21 29 27 30 28 31 29 32
REMARK SMILES IDX 30 33 31 34 32 35 93 36 33 37 92 38 34 39 35 40 36 41 86 42
REMARK SMILES IDX 37 43 91 44 85 45 87 46 38 47 90 48 84 49 83 50 39 52 71 53
REMARK SMILES IDX 51 54 70 55 52 56 55 57 69 58 88 59 53 60 54 61 68 63 89 64
REMARK SMILES IDX 56 65 40 66 41 67 49 68 42 69 48 70 50 71 47 72 43 73 44 74
REMARK SMILES IDX 45 75 46 76 72 77 73 78 81 79 74 80 80 81 82 82 79 83 75 84
REMARK SMILES IDX 76 85 77 86 78 87 57 88 58 89 66 90 59 91 65 92 67 93 64 94
REMARK SMILES IDX 60 95 61 96 62 97 63 98
REMARK H PARENT 87 51 55 62
REMARK Flexibility Score: inf
ROOT
ATOM      1  C   UNL A   1      45.436  22.825  25.357  1.00  0.00     0.275 C 
ENDROOT
BRANCH   1   2
ATOM      2  O   UNL A   1      44.031  22.642  25.657  1.00  0.00    -0.459 OA
BRANCH   2   3
ATOM      3  C   UNL A   1      43.805  22.480  26.986  1.00  0.00     0.338 C 
ATOM      4  O   UNL A   1      44.492  22.986  27.868  1.00  0.00    -0.246 OA
BRANCH   3   5
ATOM      5  C   UNL A   1      42.584  21.702  27.304  1.00  0.00     0.087 C 
ATOM      6  C   UNL A   1      38.930  23.104  26.186  1.00  0.00     0.026 A 
ATOM      7  C   UNL A   1      39.172  24.504  26.143  1.00  0.00     0.033 A 
ATOM      8  C   UNL A   1      39.966  22.366  26.764  1.00  0.00     0.135 A 
ATOM      9  C   UNL A   1      40.269  25.123  26.748  1.00  0.00     0.042 A 
ATOM     10  C   UNL A   1      40.886  23.029  27.619  1.00  0.00     0.019 A 
ATOM     11  O   UNL A   1      40.294  21.052  26.445  1.00  0.00    -0.475 OA
ATOM     12  Cl  UNL A   1      40.749  26.743  26.453  1.00  0.00    -0.084 Cl
ATOM     13  C   UNL A   1      41.057  24.400  27.600  1.00  0.00     0.032 A 
ATOM     14  C   UNL A   1      41.897  22.228  28.331  1.00  0.00     0.027 C 
ATOM     15  C   UNL A   1      41.790  20.864  26.316  1.00  0.00     0.316 C 
BRANCH   6  16
ATOM     16  C   UNL A   1      37.541  22.704  25.781  1.00  0.00    -0.015 A 
ATOM     17  C   UNL A   1      35.051  22.575  24.292  1.00  0.00    -0.048 A 
ATOM     18  C   UNL A   1      35.993  21.533  24.252  1.00  0.00     0.004 A 
ATOM     19  C   UNL A   1      35.344  23.649  25.134  1.00  0.00     0.004 A 
ATOM     20  C   UNL A   1      37.196  21.578  25.020  1.00  0.00     0.009 A 
ATOM     21  C   UNL A   1      36.551  23.709  25.853  1.00  0.00     0.009 A 
BRANCH  17  22
ATOM     22  C   UNL A   1      33.739  22.531  23.501  1.00  0.00     0.038 C 
BRANCH  22  23
ATOM     23  C   UNL A   1      32.882  23.798  23.630  1.00  0.00    -0.013 C 
ATOM     24  C   UNL A   1      33.293  24.701  22.525  1.00  0.00     0.008 C 
ATOM     25  C   UNL A   1      31.362  23.646  23.542  1.00  0.00     0.008 C 
ENDBRANCH  22  23
ENDBRANCH  17  22
ENDBRANCH   6  16
BRANCH  15  26
ATOM     26  C   UNL A   1      42.200  19.416  26.615  1.00  0.00     0.430 C 
ATOM     27  F   UNL A   1      42.242  19.168  27.948  1.00  0.00    -0.167 F 
ATOM     28  F   UNL A   1      41.376  18.510  26.053  1.00  0.00    -0.167 F 
ATOM     29  F   UNL A   1      43.449  19.161  26.137  1.00  0.00    -0.167 F 
ENDBRANCH  15  26
ENDBRANCH   3   5
ENDBRANCH   2   3
ENDBRANCH   1   2
BRANCH   1  30
ATOM     30  C   UNL A   1      45.731  24.140  24.625  1.00  0.00     0.275 C 
BRANCH  30  31
ATOM     31  O   UNL A   1      44.730  25.138  24.902  1.00  0.00    -0.458 OA
BRANCH  31  32
ATOM     32  C   UNL A   1      45.240  26.381  25.142  1.00  0.00     0.338 C 
ATOM     33  O   UNL A   1      45.931  27.016  24.379  1.00  0.00    -0.246 OA
BRANCH  32  34
ATOM     34  C   UNL A   1      44.724  26.934  26.430  1.00  0.00     0.060 A 
ATOM     35  C   UNL A   1      44.846  28.307  26.606  1.00  0.00     0.016 A 
ATOM     36  C   UNL A   1      44.137  26.180  27.457  1.00  0.00     0.016 A 
ATOM     37  C   UNL A   1      44.327  28.915  27.758  1.00  0.00     0.010 A 
ATOM     38  C   UNL A   1      43.610  26.812  28.617  1.00  0.00     0.010 A 
ATOM     39  C   UNL A   1      43.662  28.206  28.775  1.00  0.00    -0.014 A 
BRANCH  39  40
ATOM     40  C   UNL A   1      43.129  28.984  29.972  1.00  0.00     0.031 A 
ATOM     41  C   UNL A   1      41.664  29.481  29.917  1.00  0.00     0.074 A 
ATOM     42  C   UNL A   1      43.815  29.105  31.144  1.00  0.00     0.049 A 
ATOM     43  N   UNL A   1      40.911  30.077  30.818  1.00  0.00    -0.248 NA
ATOM     44  C   UNL A   1      40.956  29.245  28.649  1.00  0.00     0.031 C 
ATOM     45  C   UNL A   1      45.143  28.599  31.468  1.00  0.00     0.029 A 
ATOM     46  N   UNL A   1      43.416  29.638  32.355  1.00  0.00    -0.354 N 
ATOM     47  C   UNL A   1      39.636  30.252  30.252  1.00  0.00     0.074 A 
ATOM     48  C   UNL A   1      39.740  29.696  28.912  1.00  0.00     0.031 C 
ATOM     49  C   UNL A   1      45.354  28.647  32.799  1.00  0.00     0.029 A 
ATOM     50  C   UNL A   1      44.266  29.392  33.439  1.00  0.00     0.049 A 
ATOM     51  H   UNL A   1      42.586  30.158  32.450  1.00  0.00     0.167 HD
ATOM     52  C   UNL A   1      38.498  30.850  30.736  1.00  0.00     0.034 A 
ATOM     53  C   UNL A   1      44.183  29.718  34.769  1.00  0.00     0.034 A 
ATOM     54  C   UNL A   1      38.416  31.578  32.002  1.00  0.00     0.049 A 
ATOM     55  C   UNL A   1      43.037  30.637  35.281  1.00  0.00     0.074 A 
ATOM     56  C   UNL A   1      37.553  32.554  32.483  1.00  0.00     0.029 A 
ATOM     57  N   UNL A   1      39.150  31.235  33.123  1.00  0.00    -0.354 N 
ATOM     58  N   UNL A   1      42.056  31.214  34.612  1.00  0.00    -0.248 NA
ATOM     59  C   UNL A   1      42.966  30.916  36.726  1.00  0.00     0.031 C 
ATOM     60  C   UNL A   1      37.991  32.957  33.772  1.00  0.00     0.029 A 
ATOM     61  C   UNL A   1      39.091  32.189  34.136  1.00  0.00     0.049 A 
ATOM     62  H   UNL A   1      39.664  30.399  33.197  1.00  0.00     0.167 HD
ATOM     63  C   UNL A   1      41.150  31.731  35.552  1.00  0.00     0.074 A 
ATOM     64  C   UNL A   1      41.819  31.582  36.836  1.00  0.00     0.031 C 
ATOM     65  C   UNL A   1      39.852  32.161  35.394  1.00  0.00     0.034 A 
BRANCH  52  66
ATOM     66  C   UNL A   1      37.329  30.934  29.764  1.00  0.00     0.023 A 
ATOM     67  C   UNL A   1      36.797  32.155  29.292  1.00  0.00     0.031 A 
ATOM     68  C   UNL A   1      36.645  29.756  29.414  1.00  0.00     0.131 A 
ATOM     69  C   UNL A   1      35.580  32.163  28.579  1.00  0.00     0.055 A 
ATOM     70  C   UNL A   1      35.496  29.765  28.622  1.00  0.00     0.041 A 
ATOM     71  F   UNL A   1      37.051  28.565  29.880  1.00  0.00    -0.206 F 
ATOM     72  C   UNL A   1      34.944  30.974  28.219  1.00  0.00     0.022 A 
BRANCH  69  73
ATOM     73  S   UNL A   1      34.714  33.742  28.308  1.00  0.00     0.124 S 
ATOM     74  O   UNL A   1      35.532  34.351  27.262  1.00  0.00    -0.237 OA
ATOM     75  O   UNL A   1      33.382  33.306  27.907  1.00  0.00    -0.237 OA
ATOM     76  O   UNL A   1      34.790  34.404  29.610  1.00  0.00    -0.744 OA
ENDBRANCH  69  73
ENDBRANCH  52  66
BRANCH  53  77
ATOM     77  C   UNL A   1      45.195  29.171  35.778  1.00  0.00     0.023 A 
ATOM     78  C   UNL A   1      44.976  27.994  36.544  1.00  0.00     0.031 A 
ATOM     79  C   UNL A   1      46.401  29.852  36.029  1.00  0.00     0.131 A 
ATOM     80  C   UNL A   1      45.916  27.575  37.521  1.00  0.00     0.055 A 
ATOM     81  C   UNL A   1      47.357  29.398  36.949  1.00  0.00     0.041 A 
ATOM     82  F   UNL A   1      46.686  30.987  35.371  1.00  0.00    -0.206 F 
ATOM     83  C   UNL A   1      47.112  28.264  37.710  1.00  0.00     0.022 A 
BRANCH  80  84
ATOM     84  S   UNL A   1      45.531  26.182  38.640  1.00  0.00     0.124 S 
ATOM     85  O   UNL A   1      46.861  25.702  38.996  1.00  0.00    -0.237 OA
ATOM     86  O   UNL A   1      44.779  26.844  39.701  1.00  0.00    -0.237 OA
ATOM     87  O   UNL A   1      44.749  25.275  37.801  1.00  0.00    -0.744 OA
ENDBRANCH  80  84
ENDBRANCH  53  77
BRANCH  65  88
ATOM     88  C   UNL A   1      39.153  32.686  36.642  1.00  0.00     0.023 A 
ATOM     89  C   UNL A   1      39.496  33.937  37.192  1.00  0.00     0.031 A 
ATOM     90  C   UNL A   1      38.134  31.957  37.282  1.00  0.00     0.131 A 
ATOM     91  C   UNL A   1      38.876  34.396  38.366  1.00  0.00     0.055 A 
ATOM     92  C   UNL A   1      37.475  32.447  38.419  1.00  0.00     0.041 A 
ATOM     93  F   UNL A   1      37.764  30.751  36.822  1.00  0.00    -0.206 F 
ATOM     94  C   UNL A   1      37.851  33.669  38.972  1.00  0.00     0.022 A 
BRANCH  91  95
ATOM     95  S   UNL A   1      39.489  35.923  39.130  1.00  0.00     0.124 S 
ATOM     96  O   UNL A   1      39.407  36.868  38.021  1.00  0.00    -0.237 OA
ATOM     97  O   UNL A   1      38.538  36.133  40.218  1.00  0.00    -0.237 OA
ATOM     98  O   UNL A   1      40.845  35.579  39.553  1.00  0.00    -0.744 OA
ENDBRANCH  91  95
ENDBRANCH  65  88
ENDBRANCH  39  40
ENDBRANCH  32  34
ENDBRANCH  31  32
ENDBRANCH  30  31
ENDBRANCH   1  30
TORSDOF 18
ENDMDL
