MODEL 1
REMARK VINA RESULT:     -12.7      0.000      0.000
REMARK SMILES O=C(OCCOC(=O)c1ccc(-n2cc(CSc3nc4ccccc4c(=O)n3-c3ccccc3)nn2)cc1)c1ccc(-c2c3nc(c(-c4cc(S(=O)(=O)[O-])ccc4F)c4ccc([nH]4)c(-c4cc(S(=O)(=O)[O-])ccc4F)c4nc(c(-c5cc(S(=O)(=O)[O-])ccc5F)c5ccc2[nH]5)C=C4)C=C3)cc1
REMARK SMILES IDX 5 1 4 2 3 3 2 4 1 5 39 6 40 7 101 8 41 9 100 10 42 11 43 12
REMARK SMILES IDX 44 13 94 14 45 15 99 16 93 17 95 18 46 19 98 20 92 21 91 22
REMARK SMILES IDX 47 24 79 25 59 26 78 27 60 28 63 29 77 30 96 31 61 32 62 33
REMARK SMILES IDX 76 35 97 36 64 37 48 38 49 39 57 40 50 41 56 42 58 43 55 44
REMARK SMILES IDX 51 45 52 46 53 47 54 48 80 49 81 50 89 51 82 52 88 53 90 54
REMARK SMILES IDX 87 55 83 56 84 57 85 58 86 59 65 60 66 61 74 62 67 63 73 64
REMARK SMILES IDX 75 65 72 66 68 67 69 68 70 69 71 70 6 71 7 72 8 73 9 74
REMARK SMILES IDX 10 75 38 76 11 77 37 78 12 79 13 80 14 81 36 82 15 83 35 84
REMARK SMILES IDX 16 85 17 86 18 87 19 88 28 89 20 90 26 91 21 92 25 93 27 94
REMARK SMILES IDX 22 95 24 96 23 97 29 98 30 99 34 100 31 101 33 102 32 103
REMARK H PARENT 95 23 63 34
REMARK Flexibility Score: inf
ROOT
ATOM      1  C   UNL A   1      39.658  21.159  25.878  1.00  0.00     0.275 C 
ENDROOT
BRANCH   1   2
ATOM      2  C   UNL A   1      40.210  21.796  27.154  1.00  0.00     0.275 C 
BRANCH   2   3
ATOM      3  O   UNL A   1      41.181  22.853  27.009  1.00  0.00    -0.458 OA
BRANCH   3   4
ATOM      4  C   UNL A   1      41.996  23.154  28.041  1.00  0.00     0.338 C 
ATOM      5  O   UNL A   1      42.831  22.385  28.494  1.00  0.00    -0.246 OA
BRANCH   4   6
ATOM      6  C   UNL A   1      41.946  24.588  28.412  1.00  0.00     0.060 A 
ATOM      7  C   UNL A   1      42.957  25.223  29.139  1.00  0.00     0.016 A 
ATOM      8  C   UNL A   1      40.837  25.324  27.978  1.00  0.00     0.016 A 
ATOM      9  C   UNL A   1      42.816  26.560  29.500  1.00  0.00     0.010 A 
ATOM     10  C   UNL A   1      40.711  26.666  28.314  1.00  0.00     0.010 A 
ATOM     11  C   UNL A   1      41.669  27.274  29.122  1.00  0.00    -0.014 A 
BRANCH  11  12
ATOM     12  C   UNL A   1      41.555  28.689  29.496  1.00  0.00     0.031 A 
ATOM     13  C   UNL A   1      42.600  29.578  28.901  1.00  0.00     0.074 A 
ATOM     14  C   UNL A   1      40.522  29.209  30.199  1.00  0.00     0.049 A 
ATOM     15  N   UNL A   1      43.556  30.207  29.502  1.00  0.00    -0.248 NA
ATOM     16  C   UNL A   1      42.674  29.663  27.435  1.00  0.00     0.031 C 
ATOM     17  C   UNL A   1      39.297  28.549  30.656  1.00  0.00     0.029 A 
ATOM     18  N   UNL A   1      40.321  30.499  30.593  1.00  0.00    -0.354 N 
ATOM     19  C   UNL A   1      44.225  30.941  28.521  1.00  0.00     0.074 A 
ATOM     20  C   UNL A   1      43.749  30.436  27.266  1.00  0.00     0.031 C 
ATOM     21  C   UNL A   1      38.394  29.480  31.050  1.00  0.00     0.029 A 
ATOM     22  C   UNL A   1      39.028  30.789  31.031  1.00  0.00     0.049 A 
ATOM     23  H   UNL A   1      41.035  31.177  30.571  1.00  0.00     0.167 HD
ATOM     24  C   UNL A   1      44.972  32.041  28.821  1.00  0.00     0.034 A 
ATOM     25  C   UNL A   1      38.510  32.011  31.350  1.00  0.00     0.034 A 
ATOM     26  C   UNL A   1      45.283  32.078  30.226  1.00  0.00     0.049 A 
ATOM     27  C   UNL A   1      39.673  32.878  31.673  1.00  0.00     0.074 A 
ATOM     28  C   UNL A   1      45.967  31.238  31.083  1.00  0.00     0.029 A 
ATOM     29  N   UNL A   1      44.507  32.879  31.033  1.00  0.00    -0.354 N 
ATOM     30  N   UNL A   1      40.456  32.657  32.696  1.00  0.00    -0.248 NA
ATOM     31  C   UNL A   1      40.265  33.651  30.591  1.00  0.00     0.031 C 
ATOM     32  C   UNL A   1      45.154  31.194  32.252  1.00  0.00     0.029 A 
ATOM     33  C   UNL A   1      44.099  32.097  32.085  1.00  0.00     0.049 A 
ATOM     34  H   UNL A   1      44.287  33.827  30.886  1.00  0.00     0.167 HD
ATOM     35  C   UNL A   1      41.738  32.870  32.215  1.00  0.00     0.074 A 
ATOM     36  C   UNL A   1      41.554  33.552  30.932  1.00  0.00     0.031 C 
ATOM     37  C   UNL A   1      42.821  32.235  32.754  1.00  0.00     0.034 A 
BRANCH  24  38
ATOM     38  C   UNL A   1      45.132  33.269  27.946  1.00  0.00     0.023 A 
ATOM     39  C   UNL A   1      44.318  34.382  28.247  1.00  0.00     0.031 A 
ATOM     40  C   UNL A   1      45.771  33.303  26.688  1.00  0.00     0.131 A 
ATOM     41  C   UNL A   1      44.066  35.378  27.288  1.00  0.00     0.055 A 
ATOM     42  C   UNL A   1      45.575  34.336  25.764  1.00  0.00     0.041 A 
ATOM     43  F   UNL A   1      46.531  32.301  26.236  1.00  0.00    -0.206 F 
ATOM     44  C   UNL A   1      44.688  35.361  26.044  1.00  0.00     0.022 A 
BRANCH  41  45
ATOM     45  S   UNL A   1      42.753  36.583  27.624  1.00  0.00     0.124 S 
ATOM     46  O   UNL A   1      41.556  35.758  27.491  1.00  0.00    -0.237 OA
ATOM     47  O   UNL A   1      43.085  37.023  28.974  1.00  0.00    -0.237 OA
ATOM     48  O   UNL A   1      42.937  37.586  26.578  1.00  0.00    -0.744 OA
ENDBRANCH  41  45
ENDBRANCH  24  38
BRANCH  25  49
ATOM     49  C   UNL A   1      37.151  32.546  31.020  1.00  0.00     0.023 A 
ATOM     50  C   UNL A   1      36.212  32.981  31.988  1.00  0.00     0.031 A 
ATOM     51  C   UNL A   1      36.858  32.873  29.676  1.00  0.00     0.131 A 
ATOM     52  C   UNL A   1      35.050  33.699  31.593  1.00  0.00     0.055 A 
ATOM     53  C   UNL A   1      35.719  33.588  29.295  1.00  0.00     0.041 A 
ATOM     54  F   UNL A   1      37.718  32.578  28.689  1.00  0.00    -0.206 F 
ATOM     55  C   UNL A   1      34.813  34.013  30.253  1.00  0.00     0.022 A 
BRANCH  52  56
ATOM     56  S   UNL A   1      33.839  34.302  32.825  1.00  0.00     0.124 S 
ATOM     57  O   UNL A   1      33.030  35.228  32.040  1.00  0.00    -0.237 OA
ATOM     58  O   UNL A   1      33.186  33.071  33.256  1.00  0.00    -0.237 OA
ATOM     59  O   UNL A   1      34.675  34.937  33.845  1.00  0.00    -0.744 OA
ENDBRANCH  52  56
ENDBRANCH  25  49
BRANCH  37  60
ATOM     60  C   UNL A   1      42.662  31.463  34.048  1.00  0.00     0.023 A 
ATOM     61  C   UNL A   1      42.257  30.112  34.155  1.00  0.00     0.031 A 
ATOM     62  C   UNL A   1      43.132  32.101  35.211  1.00  0.00     0.131 A 
ATOM     63  C   UNL A   1      42.343  29.453  35.401  1.00  0.00     0.055 A 
ATOM     64  C   UNL A   1      43.241  31.438  36.429  1.00  0.00     0.041 A 
ATOM     65  F   UNL A   1      43.552  33.376  35.162  1.00  0.00    -0.206 F 
ATOM     66  C   UNL A   1      42.847  30.111  36.529  1.00  0.00     0.022 A 
BRANCH  63  67
ATOM     67  S   UNL A   1      41.802  27.721  35.591  1.00  0.00     0.124 S 
ATOM     68  O   UNL A   1      43.048  27.000  35.820  1.00  0.00    -0.237 OA
ATOM     69  O   UNL A   1      40.884  27.793  36.724  1.00  0.00    -0.237 OA
ATOM     70  O   UNL A   1      41.156  27.422  34.310  1.00  0.00    -0.744 OA
ENDBRANCH  63  67
ENDBRANCH  37  60
ENDBRANCH  11  12
ENDBRANCH   4   6
ENDBRANCH   3   4
ENDBRANCH   2   3
ENDBRANCH   1   2
BRANCH   1  71
ATOM     71  O   UNL A   1      38.291  21.553  25.682  1.00  0.00    -0.458 OA
BRANCH  71  72
ATOM     72  C   UNL A   1      37.495  20.663  25.045  1.00  0.00     0.338 C 
ATOM     73  O   UNL A   1      37.623  19.449  24.975  1.00  0.00    -0.246 OA
BRANCH  72  74
ATOM     74  C   UNL A   1      36.373  21.418  24.471  1.00  0.00     0.060 A 
ATOM     75  C   UNL A   1      35.063  21.019  24.756  1.00  0.00     0.018 A 
ATOM     76  C   UNL A   1      36.628  22.536  23.669  1.00  0.00     0.018 A 
ATOM     77  C   UNL A   1      33.993  21.761  24.258  1.00  0.00     0.029 A 
ATOM     78  C   UNL A   1      35.563  23.293  23.186  1.00  0.00     0.029 A 
ATOM     79  C   UNL A   1      34.253  22.901  23.489  1.00  0.00     0.066 A 
BRANCH  79  80
ATOM     80  N   UNL A   1      33.176  23.596  22.912  1.00  0.00    -0.220 N 
ATOM     81  C   UNL A   1      33.261  24.852  22.359  1.00  0.00     0.141 A 
ATOM     82  N   UNL A   1      31.891  23.296  23.137  1.00  0.00    -0.062 NA
ATOM     83  C   UNL A   1      31.968  25.292  22.215  1.00  0.00     0.093 A 
ATOM     84  N   UNL A   1      31.148  24.250  22.596  1.00  0.00    -0.134 NA
BRANCH  83  85
ATOM     85  C   UNL A   1      31.324  26.624  22.086  1.00  0.00     0.138 C 
BRANCH  85  86
ATOM     86  S   UNL A   1      30.389  27.536  23.300  1.00  0.00    -0.081 SA
BRANCH  86  87
ATOM     87  C   UNL A   1      31.283  28.001  24.713  1.00  0.00     0.176 A 
ATOM     88  N   UNL A   1      31.174  29.275  24.953  1.00  0.00    -0.223 NA
ATOM     89  N   UNL A   1      32.033  27.173  25.531  1.00  0.00    -0.255 N 
ATOM     90  C   UNL A   1      31.972  29.836  25.953  1.00  0.00     0.079 A 
ATOM     91  C   UNL A   1      33.221  27.770  25.981  1.00  0.00     0.266 A 
ATOM     92  C   UNL A   1      31.704  31.098  26.474  1.00  0.00     0.029 A 
ATOM     93  C   UNL A   1      33.130  29.185  26.348  1.00  0.00     0.066 A 
ATOM     94  O   UNL A   1      34.321  27.225  26.071  1.00  0.00    -0.268 OA
ATOM     95  C   UNL A   1      32.634  31.721  27.317  1.00  0.00     0.002 A 
ATOM     96  C   UNL A   1      34.103  29.818  27.125  1.00  0.00     0.016 A 
ATOM     97  C   UNL A   1      33.852  31.100  27.604  1.00  0.00     0.001 A 
BRANCH  89  98
ATOM     98  C   UNL A   1      31.794  25.774  25.847  1.00  0.00     0.051 A 
ATOM     99  C   UNL A   1      30.472  25.285  25.897  1.00  0.00     0.027 A 
ATOM    100  C   UNL A   1      32.793  24.856  26.180  1.00  0.00     0.027 A 
ATOM    101  C   UNL A   1      30.154  24.067  26.502  1.00  0.00     0.002 A 
ATOM    102  C   UNL A   1      32.484  23.661  26.845  1.00  0.00     0.002 A 
ATOM    103  C   UNL A   1      31.163  23.286  27.043  1.00  0.00     0.000 A 
ENDBRANCH  89  98
ENDBRANCH  86  87
ENDBRANCH  85  86
ENDBRANCH  83  85
ENDBRANCH  79  80
ENDBRANCH  72  74
ENDBRANCH  71  72
ENDBRANCH   1  71
TORSDOF 19
ENDMDL
MODEL 2
REMARK VINA RESULT:     -12.7      1.821      2.094
REMARK SMILES O=C(OCCOC(=O)c1ccc(-n2cc(CSc3nc4ccccc4c(=O)n3-c3ccccc3)nn2)cc1)c1ccc(-c2c3nc(c(-c4cc(S(=O)(=O)[O-])ccc4F)c4ccc([nH]4)c(-c4cc(S(=O)(=O)[O-])ccc4F)c4nc(c(-c5cc(S(=O)(=O)[O-])ccc5F)c5ccc2[nH]5)C=C4)C=C3)cc1
REMARK SMILES IDX 5 1 4 2 3 3 2 4 1 5 39 6 40 7 101 8 41 9 100 10 42 11 43 12
REMARK SMILES IDX 44 13 94 14 45 15 99 16 93 17 95 18 46 19 98 20 92 21 91 22
REMARK SMILES IDX 47 24 79 25 59 26 78 27 60 28 63 29 77 30 96 31 61 32 62 33
REMARK SMILES IDX 76 35 97 36 64 37 48 38 49 39 57 40 50 41 56 42 58 43 55 44
REMARK SMILES IDX 51 45 52 46 53 47 54 48 80 49 81 50 89 51 82 52 88 53 90 54
REMARK SMILES IDX 87 55 83 56 84 57 85 58 86 59 65 60 66 61 74 62 67 63 73 64
REMARK SMILES IDX 75 65 72 66 68 67 69 68 70 69 71 70 6 71 7 72 8 73 9 74
REMARK SMILES IDX 10 75 38 76 11 77 37 78 12 79 13 80 14 81 36 82 15 83 35 84
REMARK SMILES IDX 16 85 17 86 18 87 19 88 28 89 20 90 26 91 21 92 25 93 27 94
REMARK SMILES IDX 22 95 24 96 23 97 29 98 30 99 34 100 31 101 33 102 32 103
REMARK H PARENT 95 23 63 34
REMARK Flexibility Score: inf
ROOT
ATOM      1  C   UNL A   1      39.617  21.248  25.878  1.00  0.00     0.275 C 
ENDROOT
BRANCH   1   2
ATOM      2  C   UNL A   1      40.157  21.913  27.145  1.00  0.00     0.275 C 
BRANCH   2   3
ATOM      3  O   UNL A   1      41.082  23.007  26.984  1.00  0.00    -0.458 OA
BRANCH   3   4
ATOM      4  C   UNL A   1      41.904  23.339  28.002  1.00  0.00     0.338 C 
ATOM      5  O   UNL A   1      42.744  22.584  28.471  1.00  0.00    -0.246 OA
BRANCH   4   6
ATOM      6  C   UNL A   1      41.852  24.783  28.334  1.00  0.00     0.060 A 
ATOM      7  C   UNL A   1      42.836  25.426  29.091  1.00  0.00     0.016 A 
ATOM      8  C   UNL A   1      40.774  25.518  27.829  1.00  0.00     0.016 A 
ATOM      9  C   UNL A   1      42.693  26.773  29.410  1.00  0.00     0.010 A 
ATOM     10  C   UNL A   1      40.647  26.869  28.123  1.00  0.00     0.010 A 
ATOM     11  C   UNL A   1      41.574  27.489  28.961  1.00  0.00    -0.014 A 
BRANCH  11  12
ATOM     12  C   UNL A   1      41.457  28.914  29.291  1.00  0.00     0.031 A 
ATOM     13  C   UNL A   1      42.508  29.784  28.679  1.00  0.00     0.074 A 
ATOM     14  C   UNL A   1      40.420  29.455  29.971  1.00  0.00     0.049 A 
ATOM     15  N   UNL A   1      43.460  30.430  29.270  1.00  0.00    -0.248 NA
ATOM     16  C   UNL A   1      42.594  29.827  27.213  1.00  0.00     0.031 C 
ATOM     17  C   UNL A   1      39.191  28.810  30.438  1.00  0.00     0.029 A 
ATOM     18  N   UNL A   1      40.218  30.757  30.326  1.00  0.00    -0.354 N 
ATOM     19  C   UNL A   1      44.137  31.134  28.272  1.00  0.00     0.074 A 
ATOM     20  C   UNL A   1      43.671  30.593  27.030  1.00  0.00     0.031 C 
ATOM     21  C   UNL A   1      38.286  29.753  30.797  1.00  0.00     0.029 A 
ATOM     22  C   UNL A   1      38.921  31.060  30.745  1.00  0.00     0.049 A 
ATOM     23  H   UNL A   1      40.933  31.432  30.290  1.00  0.00     0.167 HD
ATOM     24  C   UNL A   1      44.884  32.242  28.546  1.00  0.00     0.034 A 
ATOM     25  C   UNL A   1      38.403  32.291  31.024  1.00  0.00     0.034 A 
ATOM     26  C   UNL A   1      45.183  32.320  29.952  1.00  0.00     0.049 A 
ATOM     27  C   UNL A   1      39.563  33.166  31.331  1.00  0.00     0.074 A 
ATOM     28  C   UNL A   1      45.860  31.505  30.838  1.00  0.00     0.029 A 
ATOM     29  N   UNL A   1      44.402  33.144  30.729  1.00  0.00    -0.354 N 
ATOM     30  N   UNL A   1      40.338  32.975  32.366  1.00  0.00    -0.248 NA
ATOM     31  C   UNL A   1      40.165  33.907  30.232  1.00  0.00     0.031 C 
ATOM     32  C   UNL A   1      45.038  31.495  32.002  1.00  0.00     0.029 A 
ATOM     33  C   UNL A   1      43.986  32.394  31.800  1.00  0.00     0.049 A 
ATOM     34  H   UNL A   1      44.185  34.088  30.552  1.00  0.00     0.167 HD
ATOM     35  C   UNL A   1      41.625  33.172  31.889  1.00  0.00     0.074 A 
ATOM     36  C   UNL A   1      41.451  33.817  30.585  1.00  0.00     0.031 C 
ATOM     37  C   UNL A   1      42.702  32.553  32.455  1.00  0.00     0.034 A 
BRANCH  24  38
ATOM     38  C   UNL A   1      45.052  33.444  27.637  1.00  0.00     0.023 A 
ATOM     39  C   UNL A   1      46.337  33.668  27.098  1.00  0.00     0.031 A 
ATOM     40  C   UNL A   1      44.149  34.524  27.529  1.00  0.00     0.131 A 
ATOM     41  C   UNL A   1      46.712  34.934  26.617  1.00  0.00     0.055 A 
ATOM     42  C   UNL A   1      44.506  35.760  26.981  1.00  0.00     0.041 A 
ATOM     43  F   UNL A   1      42.913  34.487  28.038  1.00  0.00    -0.206 F 
ATOM     44  C   UNL A   1      45.804  35.985  26.558  1.00  0.00     0.022 A 
BRANCH  41  45
ATOM     45  S   UNL A   1      48.465  35.233  26.263  1.00  0.00     0.124 S 
ATOM     46  O   UNL A   1      48.506  36.691  26.189  1.00  0.00    -0.237 OA
ATOM     47  O   UNL A   1      49.115  34.629  27.420  1.00  0.00    -0.237 OA
ATOM     48  O   UNL A   1      48.678  34.540  24.995  1.00  0.00    -0.744 OA
ENDBRANCH  41  45
ENDBRANCH  24  38
BRANCH  25  49
ATOM     49  C   UNL A   1      37.046  32.818  30.669  1.00  0.00     0.023 A 
ATOM     50  C   UNL A   1      36.106  33.296  31.615  1.00  0.00     0.031 A 
ATOM     51  C   UNL A   1      36.759  33.091  29.312  1.00  0.00     0.131 A 
ATOM     52  C   UNL A   1      34.948  34.001  31.187  1.00  0.00     0.055 A 
ATOM     53  C   UNL A   1      35.624  33.794  28.898  1.00  0.00     0.041 A 
ATOM     54  F   UNL A   1      37.620  32.751  28.340  1.00  0.00    -0.206 F 
ATOM     55  C   UNL A   1      34.717  34.261  29.835  1.00  0.00     0.022 A 
BRANCH  52  56
ATOM     56  S   UNL A   1      33.737  34.659  32.389  1.00  0.00     0.124 S 
ATOM     57  O   UNL A   1      33.426  33.483  33.195  1.00  0.00    -0.237 OA
ATOM     58  O   UNL A   1      34.489  35.719  33.049  1.00  0.00    -0.237 OA
ATOM     59  O   UNL A   1      32.635  35.127  31.547  1.00  0.00    -0.744 OA
ENDBRANCH  52  56
ENDBRANCH  25  49
BRANCH  37  60
ATOM     60  C   UNL A   1      42.533  31.819  33.769  1.00  0.00     0.023 A 
ATOM     61  C   UNL A   1      42.442  32.424  35.044  1.00  0.00     0.031 A 
ATOM     62  C   UNL A   1      42.265  30.440  33.678  1.00  0.00     0.131 A 
ATOM     63  C   UNL A   1      42.084  31.644  36.165  1.00  0.00     0.055 A 
ATOM     64  C   UNL A   1      41.884  29.682  34.781  1.00  0.00     0.041 A 
ATOM     65  F   UNL A   1      42.313  29.817  32.488  1.00  0.00    -0.206 F 
ATOM     66  C   UNL A   1      41.792  30.282  36.030  1.00  0.00     0.022 A 
BRANCH  63  67
ATOM     67  S   UNL A   1      41.985  32.377  37.832  1.00  0.00     0.124 S 
ATOM     68  O   UNL A   1      42.708  33.636  37.693  1.00  0.00    -0.237 OA
ATOM     69  O   UNL A   1      40.545  32.485  38.052  1.00  0.00    -0.237 OA
ATOM     70  O   UNL A   1      42.652  31.387  38.681  1.00  0.00    -0.744 OA
ENDBRANCH  63  67
ENDBRANCH  37  60
ENDBRANCH  11  12
ENDBRANCH   4   6
ENDBRANCH   3   4
ENDBRANCH   2   3
ENDBRANCH   1   2
BRANCH   1  71
ATOM     71  O   UNL A   1      38.240  21.603  25.684  1.00  0.00    -0.458 OA
BRANCH  71  72
ATOM     72  C   UNL A   1      37.483  20.721  24.990  1.00  0.00     0.338 C 
ATOM     73  O   UNL A   1      37.657  19.518  24.855  1.00  0.00    -0.246 OA
BRANCH  72  74
ATOM     74  C   UNL A   1      36.340  21.464  24.444  1.00  0.00     0.060 A 
ATOM     75  C   UNL A   1      35.041  21.033  24.735  1.00  0.00     0.018 A 
ATOM     76  C   UNL A   1      36.563  22.603  23.663  1.00  0.00     0.018 A 
ATOM     77  C   UNL A   1      33.951  21.762  24.264  1.00  0.00     0.029 A 
ATOM     78  C   UNL A   1      35.477  23.348  23.208  1.00  0.00     0.029 A 
ATOM     79  C   UNL A   1      34.179  22.923  23.517  1.00  0.00     0.066 A 
BRANCH  79  80
ATOM     80  N   UNL A   1      33.081  23.607  22.967  1.00  0.00    -0.220 N 
ATOM     81  C   UNL A   1      33.115  24.905  22.514  1.00  0.00     0.141 A 
ATOM     82  N   UNL A   1      31.808  23.229  23.133  1.00  0.00    -0.062 NA
ATOM     83  C   UNL A   1      31.805  25.291  22.370  1.00  0.00     0.093 A 
ATOM     84  N   UNL A   1      31.031  24.185  22.648  1.00  0.00    -0.134 NA
BRANCH  83  85
ATOM     85  C   UNL A   1      31.098  26.597  22.326  1.00  0.00     0.138 C 
BRANCH  85  86
ATOM     86  S   UNL A   1      30.406  27.538  23.674  1.00  0.00    -0.081 SA
BRANCH  86  87
ATOM     87  C   UNL A   1      31.483  27.807  25.007  1.00  0.00     0.176 A 
ATOM     88  N   UNL A   1      31.572  29.071  25.306  1.00  0.00    -0.223 NA
ATOM     89  N   UNL A   1      32.188  26.847  25.713  1.00  0.00    -0.255 N 
ATOM     90  C   UNL A   1      32.529  29.469  26.242  1.00  0.00     0.079 A 
ATOM     91  C   UNL A   1      33.483  27.258  26.064  1.00  0.00     0.266 A 
ATOM     92  C   UNL A   1      32.485  30.727  26.837  1.00  0.00     0.029 A 
ATOM     93  C   UNL A   1      33.620  28.653  26.493  1.00  0.00     0.066 A 
ATOM     94  O   UNL A   1      34.503  26.570  26.022  1.00  0.00    -0.268 OA
ATOM     95  C   UNL A   1      33.566  31.177  27.606  1.00  0.00     0.002 A 
ATOM     96  C   UNL A   1      34.739  29.111  27.193  1.00  0.00     0.016 A 
ATOM     97  C   UNL A   1      34.710  30.388  27.745  1.00  0.00     0.001 A 
BRANCH  89  98
ATOM     98  C   UNL A   1      31.792  25.476  25.996  1.00  0.00     0.051 A 
ATOM     99  C   UNL A   1      30.429  25.118  25.945  1.00  0.00     0.027 A 
ATOM    100  C   UNL A   1      32.671  24.464  26.391  1.00  0.00     0.027 A 
ATOM    101  C   UNL A   1      29.951  23.935  26.513  1.00  0.00     0.002 A 
ATOM    102  C   UNL A   1      32.200  23.303  27.019  1.00  0.00     0.002 A 
ATOM    103  C   UNL A   1      30.838  23.058  27.117  1.00  0.00     0.000 A 
ENDBRANCH  89  98
ENDBRANCH  86  87
ENDBRANCH  85  86
ENDBRANCH  83  85
ENDBRANCH  79  80
ENDBRANCH  72  74
ENDBRANCH  71  72
ENDBRANCH   1  71
TORSDOF 19
ENDMDL
MODEL 3
REMARK VINA RESULT:     -12.6      3.464      9.981
REMARK SMILES O=C(OCCOC(=O)c1ccc(-n2cc(CSc3nc4ccccc4c(=O)n3-c3ccccc3)nn2)cc1)c1ccc(-c2c3nc(c(-c4cc(S(=O)(=O)[O-])ccc4F)c4ccc([nH]4)c(-c4cc(S(=O)(=O)[O-])ccc4F)c4nc(c(-c5cc(S(=O)(=O)[O-])ccc5F)c5ccc2[nH]5)C=C4)C=C3)cc1
REMARK SMILES IDX 5 1 4 2 3 3 2 4 1 5 39 6 40 7 101 8 41 9 100 10 42 11 43 12
REMARK SMILES IDX 44 13 94 14 45 15 99 16 93 17 95 18 46 19 98 20 92 21 91 22
REMARK SMILES IDX 47 24 79 25 59 26 78 27 60 28 63 29 77 30 96 31 61 32 62 33
REMARK SMILES IDX 76 35 97 36 64 37 48 38 49 39 57 40 50 41 56 42 58 43 55 44
REMARK SMILES IDX 51 45 52 46 53 47 54 48 80 49 81 50 89 51 82 52 88 53 90 54
REMARK SMILES IDX 87 55 83 56 84 57 85 58 86 59 65 60 66 61 74 62 67 63 73 64
REMARK SMILES IDX 75 65 72 66 68 67 69 68 70 69 71 70 6 71 7 72 8 73 9 74
REMARK SMILES IDX 10 75 38 76 11 77 37 78 12 79 13 80 14 81 36 82 15 83 35 84
REMARK SMILES IDX 16 85 17 86 18 87 19 88 28 89 20 90 26 91 21 92 25 93 27 94
REMARK SMILES IDX 22 95 24 96 23 97 29 98 30 99 34 100 31 101 33 102 32 103
REMARK H PARENT 95 23 63 34
REMARK Flexibility Score: inf
ROOT
ATOM      1  C   UNL A   1      33.488  33.635  28.253  1.00  0.00     0.275 C 
ENDROOT
BRANCH   1   2
ATOM      2  C   UNL A   1      34.235  33.511  29.582  1.00  0.00     0.275 C 
BRANCH   2   3
ATOM      3  O   UNL A   1      35.352  32.600  29.638  1.00  0.00    -0.458 OA
BRANCH   3   4
ATOM      4  C   UNL A   1      36.571  33.017  29.237  1.00  0.00     0.338 C 
ATOM      5  O   UNL A   1      36.844  34.183  28.991  1.00  0.00    -0.246 OA
BRANCH   4   6
ATOM      6  C   UNL A   1      37.606  31.962  29.356  1.00  0.00     0.060 A 
ATOM      7  C   UNL A   1      37.380  30.630  28.996  1.00  0.00     0.016 A 
ATOM      8  C   UNL A   1      38.866  32.350  29.825  1.00  0.00     0.016 A 
ATOM      9  C   UNL A   1      38.381  29.682  29.187  1.00  0.00     0.010 A 
ATOM     10  C   UNL A   1      39.874  31.409  29.987  1.00  0.00     0.010 A 
ATOM     11  C   UNL A   1      39.620  30.064  29.724  1.00  0.00    -0.014 A 
BRANCH  11  12
ATOM     12  C   UNL A   1      40.667  29.050  29.894  1.00  0.00     0.031 A 
ATOM     13  C   UNL A   1      41.010  28.741  31.316  1.00  0.00     0.074 A 
ATOM     14  C   UNL A   1      41.200  28.329  28.881  1.00  0.00     0.049 A 
ATOM     15  N   UNL A   1      42.109  28.991  31.950  1.00  0.00    -0.248 NA
ATOM     16  C   UNL A   1      39.944  28.213  32.180  1.00  0.00     0.031 C 
ATOM     17  C   UNL A   1      40.825  28.318  27.464  1.00  0.00     0.029 A 
ATOM     18  N   UNL A   1      42.169  27.370  28.932  1.00  0.00    -0.354 N 
ATOM     19  C   UNL A   1      41.955  28.461  33.232  1.00  0.00     0.074 A 
ATOM     20  C   UNL A   1      40.561  28.155  33.361  1.00  0.00     0.031 C 
ATOM     21  C   UNL A   1      41.387  27.248  26.850  1.00  0.00     0.029 A 
ATOM     22  C   UNL A   1      42.291  26.591  27.780  1.00  0.00     0.049 A 
ATOM     23  H   UNL A   1      42.741  27.237  29.722  1.00  0.00     0.167 HD
ATOM     24  C   UNL A   1      43.023  28.134  34.015  1.00  0.00     0.034 A 
ATOM     25  C   UNL A   1      43.070  25.485  27.602  1.00  0.00     0.034 A 
ATOM     26  C   UNL A   1      44.224  28.758  33.525  1.00  0.00     0.049 A 
ATOM     27  C   UNL A   1      44.147  25.571  28.621  1.00  0.00     0.074 A 
ATOM     28  C   UNL A   1      44.619  30.068  33.334  1.00  0.00     0.029 A 
ATOM     29  N   UNL A   1      45.070  28.000  32.748  1.00  0.00    -0.354 N 
ATOM     30  N   UNL A   1      45.045  26.520  28.621  1.00  0.00    -0.248 NA
ATOM     31  C   UNL A   1      43.915  24.935  29.910  1.00  0.00     0.031 C 
ATOM     32  C   UNL A   1      45.262  30.058  32.062  1.00  0.00     0.029 A 
ATOM     33  C   UNL A   1      45.328  28.734  31.618  1.00  0.00     0.049 A 
ATOM     34  H   UNL A   1      45.422  27.106  32.961  1.00  0.00     0.167 HD
ATOM     35  C   UNL A   1      45.168  26.895  29.950  1.00  0.00     0.074 A 
ATOM     36  C   UNL A   1      44.502  25.833  30.707  1.00  0.00     0.031 C 
ATOM     37  C   UNL A   1      45.549  28.158  30.306  1.00  0.00     0.034 A 
BRANCH  24  38
ATOM     38  C   UNL A   1      43.079  26.985  35.002  1.00  0.00     0.023 A 
ATOM     39  C   UNL A   1      43.838  25.854  34.629  1.00  0.00     0.031 A 
ATOM     40  C   UNL A   1      42.209  26.800  36.097  1.00  0.00     0.131 A 
ATOM     41  C   UNL A   1      43.623  24.604  35.233  1.00  0.00     0.055 A 
ATOM     42  C   UNL A   1      42.052  25.569  36.745  1.00  0.00     0.041 A 
ATOM     43  F   UNL A   1      41.386  27.757  36.537  1.00  0.00    -0.206 F 
ATOM     44  C   UNL A   1      42.731  24.452  36.289  1.00  0.00     0.022 A 
BRANCH  41  45
ATOM     45  S   UNL A   1      44.381  23.142  34.475  1.00  0.00     0.124 S 
ATOM     46  O   UNL A   1      45.555  23.720  33.828  1.00  0.00    -0.237 OA
ATOM     47  O   UNL A   1      44.638  22.298  35.637  1.00  0.00    -0.237 OA
ATOM     48  O   UNL A   1      43.346  22.654  33.567  1.00  0.00    -0.744 OA
ENDBRANCH  41  45
ENDBRANCH  24  38
BRANCH  25  49
ATOM     49  C   UNL A   1      42.715  24.218  26.885  1.00  0.00     0.023 A 
ATOM     50  C   UNL A   1      43.626  23.466  26.102  1.00  0.00     0.031 A 
ATOM     51  C   UNL A   1      41.485  23.590  27.186  1.00  0.00     0.131 A 
ATOM     52  C   UNL A   1      43.286  22.159  25.659  1.00  0.00     0.055 A 
ATOM     53  C   UNL A   1      41.161  22.300  26.756  1.00  0.00     0.041 A 
ATOM     54  F   UNL A   1      40.583  24.182  27.985  1.00  0.00    -0.206 F 
ATOM     55  C   UNL A   1      42.064  21.574  25.997  1.00  0.00     0.022 A 
BRANCH  52  56
ATOM     56  S   UNL A   1      44.456  21.153  24.677  1.00  0.00     0.124 S 
ATOM     57  O   UNL A   1      45.671  21.211  25.483  1.00  0.00    -0.237 OA
ATOM     58  O   UNL A   1      43.783  19.861  24.607  1.00  0.00    -0.237 OA
ATOM     59  O   UNL A   1      44.538  21.867  23.401  1.00  0.00    -0.744 OA
ENDBRANCH  52  56
ENDBRANCH  25  49
BRANCH  37  60
ATOM     60  C   UNL A   1      46.072  29.104  29.245  1.00  0.00     0.023 A 
ATOM     61  C   UNL A   1      45.330  30.136  28.624  1.00  0.00     0.031 A 
ATOM     62  C   UNL A   1      47.458  29.055  29.002  1.00  0.00     0.131 A 
ATOM     63  C   UNL A   1      45.991  31.073  27.801  1.00  0.00     0.055 A 
ATOM     64  C   UNL A   1      48.107  29.999  28.212  1.00  0.00     0.041 A 
ATOM     65  F   UNL A   1      48.216  28.111  29.585  1.00  0.00    -0.206 F 
ATOM     66  C   UNL A   1      47.376  31.012  27.608  1.00  0.00     0.022 A 
BRANCH  63  67
ATOM     67  S   UNL A   1      45.068  32.401  26.955  1.00  0.00     0.124 S 
ATOM     68  O   UNL A   1      45.131  32.016  25.550  1.00  0.00    -0.237 OA
ATOM     69  O   UNL A   1      43.751  32.328  27.583  1.00  0.00    -0.237 OA
ATOM     70  O   UNL A   1      45.828  33.609  27.286  1.00  0.00    -0.744 OA
ENDBRANCH  63  67
ENDBRANCH  37  60
ENDBRANCH  11  12
ENDBRANCH   4   6
ENDBRANCH   3   4
ENDBRANCH   2   3
ENDBRANCH   1   2
BRANCH   1  71
ATOM     71  O   UNL A   1      33.254  32.332  27.696  1.00  0.00    -0.458 OA
BRANCH  71  72
ATOM     72  C   UNL A   1      32.142  32.193  26.937  1.00  0.00     0.338 C 
ATOM     73  O   UNL A   1      31.368  33.063  26.564  1.00  0.00    -0.246 OA
BRANCH  72  74
ATOM     74  C   UNL A   1      32.040  30.774  26.572  1.00  0.00     0.060 A 
ATOM     75  C   UNL A   1      31.331  30.413  25.421  1.00  0.00     0.018 A 
ATOM     76  C   UNL A   1      32.671  29.808  27.363  1.00  0.00     0.018 A 
ATOM     77  C   UNL A   1      31.273  29.074  25.040  1.00  0.00     0.029 A 
ATOM     78  C   UNL A   1      32.635  28.470  26.974  1.00  0.00     0.029 A 
ATOM     79  C   UNL A   1      31.939  28.115  25.812  1.00  0.00     0.066 A 
BRANCH  79  80
ATOM     80  N   UNL A   1      31.806  26.756  25.478  1.00  0.00    -0.220 N 
ATOM     81  C   UNL A   1      32.432  26.146  24.417  1.00  0.00     0.141 A 
ATOM     82  N   UNL A   1      30.807  25.977  25.911  1.00  0.00    -0.062 NA
ATOM     83  C   UNL A   1      31.799  24.939  24.245  1.00  0.00     0.093 A 
ATOM     84  N   UNL A   1      30.880  24.823  25.267  1.00  0.00    -0.134 NA
BRANCH  83  85
ATOM     85  C   UNL A   1      31.655  23.984  23.116  1.00  0.00     0.138 C 
BRANCH  85  86
ATOM     86  S   UNL A   1      32.873  22.882  22.423  1.00  0.00    -0.081 SA
BRANCH  86  87
ATOM     87  C   UNL A   1      33.276  21.519  23.417  1.00  0.00     0.176 A 
ATOM     88  N   UNL A   1      32.686  20.433  23.008  1.00  0.00    -0.223 NA
ATOM     89  N   UNL A   1      34.116  21.513  24.518  1.00  0.00    -0.255 N 
ATOM     90  C   UNL A   1      32.771  19.288  23.802  1.00  0.00     0.079 A 
ATOM     91  C   UNL A   1      33.659  20.688  25.558  1.00  0.00     0.266 A 
ATOM     92  C   UNL A   1      32.440  18.031  23.303  1.00  0.00     0.029 A 
ATOM     93  C   UNL A   1      33.064  19.412  25.151  1.00  0.00     0.066 A 
ATOM     94  O   UNL A   1      33.690  20.946  26.761  1.00  0.00    -0.268 OA
ATOM     95  C   UNL A   1      32.331  16.938  24.172  1.00  0.00     0.002 A 
ATOM     96  C   UNL A   1      32.887  18.353  26.044  1.00  0.00     0.016 A 
ATOM     97  C   UNL A   1      32.509  17.109  25.547  1.00  0.00     0.001 A 
BRANCH  89  98
ATOM     98  C   UNL A   1      35.293  22.335  24.749  1.00  0.00     0.051 A 
ATOM     99  C   UNL A   1      36.578  21.770  24.614  1.00  0.00     0.027 A 
ATOM    100  C   UNL A   1      35.257  23.667  25.171  1.00  0.00     0.027 A 
ATOM    101  C   UNL A   1      37.718  22.390  25.129  1.00  0.00     0.002 A 
ATOM    102  C   UNL A   1      36.382  24.272  25.748  1.00  0.00     0.002 A 
ATOM    103  C   UNL A   1      37.605  23.616  25.763  1.00  0.00     0.000 A 
ENDBRANCH  89  98
ENDBRANCH  86  87
ENDBRANCH  85  86
ENDBRANCH  83  85
ENDBRANCH  79  80
ENDBRANCH  72  74
ENDBRANCH  71  72
ENDBRANCH   1  71
TORSDOF 19
ENDMDL
