MODEL 1
REMARK VINA RESULT:     -13.2      0.000      0.000
REMARK SMILES Cc1nnc(SCC2=C(C(=O)OCCOC(=O)c3ccc(-c4c5nc(c(-c6cc(S(=O)(=O)[O-])ccc6F)c6ccc([nH]6)c(-c6cc(S(=O)(=O)[O-])ccc6F)c6nc(c(-c7cc(S(=O)(=O)[O-])ccc7F)c7ccc4[nH]7)C=C6)C=C5)cc3)N3C(=O)[C@H](NC(=O)c4ccc(F)cc4F)[C@H]3SC2)s1
REMARK SMILES IDX 13 1 12 2 10 3 11 4 9 5 8 6 98 7 81 8 97 9 82 10 96 11 83 12
REMARK SMILES IDX 84 13 7 14 6 15 5 16 1 17 2 18 3 19 99 20 4 21 85 22 86 23
REMARK SMILES IDX 87 25 88 26 89 27 94 28 90 29 93 30 95 31 91 32 92 33 14 34
REMARK SMILES IDX 15 35 16 36 17 37 18 38 19 39 80 40 20 41 79 42 21 43 22 44
REMARK SMILES IDX 23 45 73 46 24 47 78 48 72 49 74 50 25 51 77 52 71 53 70 54
REMARK SMILES IDX 26 56 58 57 38 58 57 59 39 60 42 61 56 62 75 63 40 64 41 65
REMARK SMILES IDX 55 67 76 68 43 69 27 70 28 71 36 72 29 73 35 74 37 75 34 76
REMARK SMILES IDX 30 77 31 78 32 79 33 80 59 81 60 82 68 83 61 84 67 85 69 86
REMARK SMILES IDX 66 87 62 88 63 89 64 90 65 91 44 92 45 93 53 94 46 95 52 96
REMARK SMILES IDX 54 97 51 98 47 99 48 100 49 101 50 102
REMARK H PARENT 85 24 74 55 42 66
REMARK Flexibility Score: inf
ROOT
ATOM      1  C   UNL A   1      31.576  29.934  25.084  1.00  0.00     0.275 C 
ENDROOT
BRANCH   1   2
ATOM      2  O   UNL A   1      32.859  29.432  24.652  1.00  0.00    -0.457 OA
BRANCH   2   3
ATOM      3  C   UNL A   1      32.806  28.565  23.613  1.00  0.00     0.355 C 
ATOM      4  O   UNL A   1      33.261  28.747  22.491  1.00  0.00    -0.244 OA
BRANCH   3   5
ATOM      5  C   UNL A   1      32.024  27.332  23.928  1.00  0.00     0.132 C 
ATOM      6  C   UNL A   1      30.792  27.061  23.431  1.00  0.00    -0.019 C 
ATOM      7  C   UNL A   1      30.059  25.744  23.688  1.00  0.00     0.106 C 
ATOM      8  N   UNL A   1      32.709  26.349  24.558  1.00  0.00    -0.289 N 
ATOM      9  S   UNL A   1      30.871  24.531  24.774  1.00  0.00    -0.129 SA
ATOM     10  C   UNL A   1      33.593  26.212  25.563  1.00  0.00     0.253 C 
ATOM     11  C   UNL A   1      32.548  24.961  24.243  1.00  0.00     0.181 C 
ATOM     12  O   UNL A   1      34.018  27.000  26.367  1.00  0.00    -0.272 OA
ATOM     13  C   UNL A   1      33.695  24.657  25.266  1.00  0.00     0.206 C 
BRANCH   6  14
ATOM     14  C   UNL A   1      29.974  28.048  22.620  1.00  0.00     0.111 C 
BRANCH  14  15
ATOM     15  S   UNL A   1      28.431  28.514  23.458  1.00  0.00    -0.089 SA
BRANCH  15  16
ATOM     16  C   UNL A   1      28.173  30.132  22.855  1.00  0.00     0.174 A 
ATOM     17  C   UNL A   1      27.710  33.192  20.594  1.00  0.00     0.081 C 
ATOM     18  C   UNL A   1      27.856  32.133  21.625  1.00  0.00     0.115 A 
ATOM     19  N   UNL A   1      27.686  32.313  22.919  1.00  0.00    -0.143 NA
ATOM     20  S   UNL A   1      28.224  30.513  21.187  1.00  0.00    -0.091 S 
ATOM     21  N   UNL A   1      27.870  31.146  23.634  1.00  0.00    -0.132 NA
ENDBRANCH  15  16
ENDBRANCH  14  15
ENDBRANCH   6  14
BRANCH  13  22
ATOM     22  N   UNL A   1      35.023  24.263  24.705  1.00  0.00    -0.338 N 
ATOM     23  C   UNL A   1      35.431  23.061  24.182  1.00  0.00     0.254 C 
ATOM     24  H   UNL A   1      35.708  24.971  24.711  1.00  0.00     0.164 HD
ATOM     25  O   UNL A   1      36.542  22.920  23.691  1.00  0.00    -0.269 OA
BRANCH  23  26
ATOM     26  C   UNL A   1      34.519  21.918  24.230  1.00  0.00     0.075 A 
ATOM     27  C   UNL A   1      33.346  21.933  23.471  1.00  0.00     0.020 A 
ATOM     28  C   UNL A   1      34.815  20.834  25.054  1.00  0.00     0.138 A 
ATOM     29  C   UNL A   1      32.506  20.819  23.502  1.00  0.00     0.040 A 
ATOM     30  C   UNL A   1      33.996  19.714  25.066  1.00  0.00     0.079 A 
ATOM     31  F   UNL A   1      35.932  20.819  25.797  1.00  0.00    -0.206 F 
ATOM     32  C   UNL A   1      32.848  19.715  24.283  1.00  0.00     0.126 A 
ATOM     33  F   UNL A   1      32.059  18.633  24.279  1.00  0.00    -0.207 F 
ENDBRANCH  23  26
ENDBRANCH  13  22
ENDBRANCH   3   5
ENDBRANCH   2   3
ENDBRANCH   1   2
BRANCH   1  34
ATOM     34  C   UNL A   1      31.699  30.738  26.374  1.00  0.00     0.275 C 
BRANCH  34  35
ATOM     35  O   UNL A   1      32.963  30.445  26.986  1.00  0.00    -0.458 OA
BRANCH  35  36
ATOM     36  C   UNL A   1      33.658  31.503  27.466  1.00  0.00     0.338 C 
ATOM     37  O   UNL A   1      33.233  32.638  27.612  1.00  0.00    -0.246 OA
BRANCH  36  38
ATOM     38  C   UNL A   1      35.043  31.090  27.798  1.00  0.00     0.060 A 
ATOM     39  C   UNL A   1      35.360  29.748  27.999  1.00  0.00     0.016 A 
ATOM     40  C   UNL A   1      36.015  32.061  28.037  1.00  0.00     0.016 A 
ATOM     41  C   UNL A   1      36.573  29.395  28.588  1.00  0.00     0.010 A 
ATOM     42  C   UNL A   1      37.279  31.687  28.516  1.00  0.00     0.010 A 
ATOM     43  C   UNL A   1      37.554  30.353  28.871  1.00  0.00    -0.014 A 
BRANCH  43  44
ATOM     44  C   UNL A   1      38.793  29.988  29.630  1.00  0.00     0.031 A 
ATOM     45  C   UNL A   1      39.817  29.069  29.001  1.00  0.00     0.074 A 
ATOM     46  C   UNL A   1      39.059  30.505  30.850  1.00  0.00     0.049 A 
ATOM     47  N   UNL A   1      40.802  28.412  29.561  1.00  0.00    -0.248 NA
ATOM     48  C   UNL A   1      39.699  28.840  27.553  1.00  0.00     0.031 C 
ATOM     49  C   UNL A   1      38.228  31.472  31.568  1.00  0.00     0.029 A 
ATOM     50  N   UNL A   1      40.126  30.304  31.696  1.00  0.00    -0.354 N 
ATOM     51  C   UNL A   1      41.349  27.613  28.559  1.00  0.00     0.074 A 
ATOM     52  C   UNL A   1      40.594  27.882  27.354  1.00  0.00     0.031 C 
ATOM     53  C   UNL A   1      38.851  31.841  32.697  1.00  0.00     0.029 A 
ATOM     54  C   UNL A   1      40.053  31.034  32.861  1.00  0.00     0.049 A 
ATOM     55  H   UNL A   1      40.871  29.695  31.487  1.00  0.00     0.167 HD
ATOM     56  C   UNL A   1      42.378  26.731  28.645  1.00  0.00     0.034 A 
ATOM     57  C   UNL A   1      40.821  31.015  33.969  1.00  0.00     0.034 A 
ATOM     58  C   UNL A   1      43.187  26.553  29.828  1.00  0.00     0.049 A 
ATOM     59  C   UNL A   1      41.952  30.026  34.051  1.00  0.00     0.074 A 
ATOM     60  C   UNL A   1      44.256  25.695  30.025  1.00  0.00     0.029 A 
ATOM     61  N   UNL A   1      43.037  27.270  31.009  1.00  0.00    -0.354 N 
ATOM     62  N   UNL A   1      42.359  29.159  33.152  1.00  0.00    -0.248 NA
ATOM     63  C   UNL A   1      42.705  29.988  35.311  1.00  0.00     0.031 C 
ATOM     64  C   UNL A   1      44.724  25.863  31.334  1.00  0.00     0.029 A 
ATOM     65  C   UNL A   1      43.987  26.870  31.937  1.00  0.00     0.049 A 
ATOM     66  H   UNL A   1      42.355  27.964  31.164  1.00  0.00     0.167 HD
ATOM     67  C   UNL A   1      43.408  28.464  33.747  1.00  0.00     0.074 A 
ATOM     68  C   UNL A   1      43.597  29.041  35.063  1.00  0.00     0.031 C 
ATOM     69  C   UNL A   1      44.141  27.432  33.256  1.00  0.00     0.034 A 
BRANCH  56  70
ATOM     70  C   UNL A   1      42.636  25.840  27.453  1.00  0.00     0.023 A 
ATOM     71  C   UNL A   1      42.127  24.533  27.355  1.00  0.00     0.031 A 
ATOM     72  C   UNL A   1      43.440  26.311  26.396  1.00  0.00     0.131 A 
ATOM     73  C   UNL A   1      42.480  23.724  26.262  1.00  0.00     0.055 A 
ATOM     74  C   UNL A   1      43.726  25.528  25.278  1.00  0.00     0.041 A 
ATOM     75  F   UNL A   1      43.969  27.544  26.440  1.00  0.00    -0.206 F 
ATOM     76  C   UNL A   1      43.257  24.220  25.212  1.00  0.00     0.022 A 
BRANCH  73  77
ATOM     77  S   UNL A   1      42.015  21.971  26.289  1.00  0.00     0.124 S 
ATOM     78  O   UNL A   1      40.586  22.038  25.995  1.00  0.00    -0.237 OA
ATOM     79  O   UNL A   1      42.856  21.405  25.242  1.00  0.00    -0.237 OA
ATOM     80  O   UNL A   1      42.344  21.548  27.650  1.00  0.00    -0.744 OA
ENDBRANCH  73  77
ENDBRANCH  56  70
BRANCH  57  81
ATOM     81  C   UNL A   1      40.481  31.879  35.139  1.00  0.00     0.023 A 
ATOM     82  C   UNL A   1      39.452  31.530  36.029  1.00  0.00     0.031 A 
ATOM     83  C   UNL A   1      41.159  33.093  35.359  1.00  0.00     0.131 A 
ATOM     84  C   UNL A   1      39.114  32.398  37.080  1.00  0.00     0.055 A 
ATOM     85  C   UNL A   1      40.860  33.921  36.440  1.00  0.00     0.041 A 
ATOM     86  F   UNL A   1      42.141  33.483  34.530  1.00  0.00    -0.206 F 
ATOM     87  C   UNL A   1      39.824  33.580  37.303  1.00  0.00     0.022 A 
BRANCH  84  88
ATOM     88  S   UNL A   1      37.670  32.008  38.108  1.00  0.00     0.124 S 
ATOM     89  O   UNL A   1      38.197  32.209  39.453  1.00  0.00    -0.237 OA
ATOM     90  O   UNL A   1      36.691  32.988  37.650  1.00  0.00    -0.237 OA
ATOM     91  O   UNL A   1      37.366  30.622  37.759  1.00  0.00    -0.744 OA
ENDBRANCH  84  88
ENDBRANCH  57  81
BRANCH  69  92
ATOM     92  C   UNL A   1      45.222  26.888  34.156  1.00  0.00     0.023 A 
ATOM     93  C   UNL A   1      44.970  25.828  35.043  1.00  0.00     0.031 A 
ATOM     94  C   UNL A   1      46.503  27.466  34.156  1.00  0.00     0.131 A 
ATOM     95  C   UNL A   1      45.968  25.415  35.939  1.00  0.00     0.055 A 
ATOM     96  C   UNL A   1      47.508  27.016  35.013  1.00  0.00     0.041 A 
ATOM     97  F   UNL A   1      46.794  28.483  33.330  1.00  0.00    -0.206 F 
ATOM     98  C   UNL A   1      47.239  25.995  35.920  1.00  0.00     0.022 A 
BRANCH  95  99
ATOM     99  S   UNL A   1      45.553  24.175  37.197  1.00  0.00     0.124 S 
ATOM    100  O   UNL A   1      45.074  23.063  36.383  1.00  0.00    -0.237 OA
ATOM    101  O   UNL A   1      46.833  23.971  37.867  1.00  0.00    -0.237 OA
ATOM    102  O   UNL A   1      44.531  24.836  38.005  1.00  0.00    -0.744 OA
ENDBRANCH  95  99
ENDBRANCH  69  92
ENDBRANCH  43  44
ENDBRANCH  36  38
ENDBRANCH  35  36
ENDBRANCH  34  35
ENDBRANCH   1  34
TORSDOF 19
ENDMDL
MODEL 2
REMARK VINA RESULT:     -13.1      2.518      5.430
REMARK SMILES Cc1nnc(SCC2=C(C(=O)OCCOC(=O)c3ccc(-c4c5nc(c(-c6cc(S(=O)(=O)[O-])ccc6F)c6ccc([nH]6)c(-c6cc(S(=O)(=O)[O-])ccc6F)c6nc(c(-c7cc(S(=O)(=O)[O-])ccc7F)c7ccc4[nH]7)C=C6)C=C5)cc3)N3C(=O)[C@H](NC(=O)c4ccc(F)cc4F)[C@H]3SC2)s1
REMARK SMILES IDX 13 1 12 2 10 3 11 4 9 5 8 6 98 7 81 8 97 9 82 10 96 11 83 12
REMARK SMILES IDX 84 13 7 14 6 15 5 16 1 17 2 18 3 19 99 20 4 21 85 22 86 23
REMARK SMILES IDX 87 25 88 26 89 27 94 28 90 29 93 30 95 31 91 32 92 33 14 34
REMARK SMILES IDX 15 35 16 36 17 37 18 38 19 39 80 40 20 41 79 42 21 43 22 44
REMARK SMILES IDX 23 45 73 46 24 47 78 48 72 49 74 50 25 51 77 52 71 53 70 54
REMARK SMILES IDX 26 56 58 57 38 58 57 59 39 60 42 61 56 62 75 63 40 64 41 65
REMARK SMILES IDX 55 67 76 68 43 69 27 70 28 71 36 72 29 73 35 74 37 75 34 76
REMARK SMILES IDX 30 77 31 78 32 79 33 80 59 81 60 82 68 83 61 84 67 85 69 86
REMARK SMILES IDX 66 87 62 88 63 89 64 90 65 91 44 92 45 93 53 94 46 95 52 96
REMARK SMILES IDX 54 97 51 98 47 99 48 100 49 101 50 102
REMARK H PARENT 85 24 74 55 42 66
REMARK Flexibility Score: inf
ROOT
ATOM      1  C   UNL A   1      32.264  28.462  27.651  1.00  0.00     0.275 C 
ENDROOT
BRANCH   1   2
ATOM      2  O   UNL A   1      32.909  27.660  26.638  1.00  0.00    -0.457 OA
BRANCH   2   3
ATOM      3  C   UNL A   1      32.192  26.587  26.226  1.00  0.00     0.355 C 
ATOM      4  O   UNL A   1      31.612  25.782  26.943  1.00  0.00    -0.244 OA
BRANCH   3   5
ATOM      5  C   UNL A   1      32.239  26.395  24.745  1.00  0.00     0.132 C 
ATOM      6  C   UNL A   1      32.982  25.448  24.122  1.00  0.00    -0.019 C 
ATOM      7  C   UNL A   1      32.930  25.207  22.612  1.00  0.00     0.106 C 
ATOM      8  N   UNL A   1      31.299  27.066  24.038  1.00  0.00    -0.289 N 
ATOM      9  S   UNL A   1      31.868  26.305  21.624  1.00  0.00    -0.129 SA
ATOM     10  C   UNL A   1      30.737  28.287  24.000  1.00  0.00     0.253 C 
ATOM     11  C   UNL A   1      30.614  26.496  22.916  1.00  0.00     0.181 C 
ATOM     12  O   UNL A   1      30.998  29.305  24.587  1.00  0.00    -0.272 OA
ATOM     13  C   UNL A   1      29.754  27.803  22.854  1.00  0.00     0.206 C 
BRANCH   6  14
ATOM     14  C   UNL A   1      33.990  24.563  24.831  1.00  0.00     0.111 C 
BRANCH  14  15
ATOM     15  S   UNL A   1      34.798  23.397  23.696  1.00  0.00    -0.089 SA
BRANCH  15  16
ATOM     16  C   UNL A   1      33.942  21.915  24.042  1.00  0.00     0.174 A 
ATOM     17  C   UNL A   1      32.735  18.640  25.627  1.00  0.00     0.081 C 
ATOM     18  C   UNL A   1      33.056  19.881  24.876  1.00  0.00     0.115 A 
ATOM     19  N   UNL A   1      32.378  20.331  23.840  1.00  0.00    -0.143 NA
ATOM     20  S   UNL A   1      34.359  20.894  25.352  1.00  0.00    -0.091 S 
ATOM     21  N   UNL A   1      32.895  21.516  23.356  1.00  0.00    -0.132 NA
ENDBRANCH  15  16
ENDBRANCH  14  15
ENDBRANCH   6  14
BRANCH  13  22
ATOM     22  N   UNL A   1      28.334  27.708  23.314  1.00  0.00    -0.338 N 
ATOM     23  C   UNL A   1      27.306  28.607  23.173  1.00  0.00     0.254 C 
ATOM     24  H   UNL A   1      28.101  26.877  23.789  1.00  0.00     0.164 HD
ATOM     25  O   UNL A   1      26.171  28.345  23.545  1.00  0.00    -0.269 OA
BRANCH  23  26
ATOM     26  C   UNL A   1      27.581  29.915  22.580  1.00  0.00     0.075 A 
ATOM     27  C   UNL A   1      27.848  30.015  21.212  1.00  0.00     0.020 A 
ATOM     28  C   UNL A   1      27.602  31.049  23.390  1.00  0.00     0.138 A 
ATOM     29  C   UNL A   1      28.074  31.276  20.657  1.00  0.00     0.040 A 
ATOM     30  C   UNL A   1      27.798  32.307  22.836  1.00  0.00     0.079 A 
ATOM     31  F   UNL A   1      27.360  30.958  24.706  1.00  0.00    -0.206 F 
ATOM     32  C   UNL A   1      28.027  32.409  21.470  1.00  0.00     0.126 A 
ATOM     33  F   UNL A   1      28.205  33.620  20.926  1.00  0.00    -0.207 F 
ENDBRANCH  23  26
ENDBRANCH  13  22
ENDBRANCH   3   5
ENDBRANCH   2   3
ENDBRANCH   1   2
BRANCH   1  34
ATOM     34  C   UNL A   1      32.041  29.891  27.169  1.00  0.00     0.275 C 
BRANCH  34  35
ATOM     35  O   UNL A   1      33.282  30.416  26.677  1.00  0.00    -0.458 OA
BRANCH  35  36
ATOM     36  C   UNL A   1      33.854  31.397  27.415  1.00  0.00     0.338 C 
ATOM     37  O   UNL A   1      33.327  32.443  27.756  1.00  0.00    -0.246 OA
BRANCH  36  38
ATOM     38  C   UNL A   1      35.246  31.021  27.761  1.00  0.00     0.060 A 
ATOM     39  C   UNL A   1      35.621  29.683  27.864  1.00  0.00     0.016 A 
ATOM     40  C   UNL A   1      36.162  32.012  28.113  1.00  0.00     0.016 A 
ATOM     41  C   UNL A   1      36.831  29.338  28.465  1.00  0.00     0.010 A 
ATOM     42  C   UNL A   1      37.426  31.658  28.606  1.00  0.00     0.010 A 
ATOM     43  C   UNL A   1      37.754  30.314  28.860  1.00  0.00    -0.014 A 
BRANCH  43  44
ATOM     44  C   UNL A   1      38.985  29.945  29.631  1.00  0.00     0.031 A 
ATOM     45  C   UNL A   1      40.013  29.023  29.011  1.00  0.00     0.074 A 
ATOM     46  C   UNL A   1      39.241  30.458  30.854  1.00  0.00     0.049 A 
ATOM     47  N   UNL A   1      40.990  28.362  29.579  1.00  0.00    -0.248 NA
ATOM     48  C   UNL A   1      39.909  28.796  27.561  1.00  0.00     0.031 C 
ATOM     49  C   UNL A   1      38.406  31.427  31.565  1.00  0.00     0.029 A 
ATOM     50  N   UNL A   1      40.298  30.254  31.710  1.00  0.00    -0.354 N 
ATOM     51  C   UNL A   1      41.545  27.563  28.583  1.00  0.00     0.074 A 
ATOM     52  C   UNL A   1      40.803  27.836  27.370  1.00  0.00     0.031 C 
ATOM     53  C   UNL A   1      39.018  31.793  32.700  1.00  0.00     0.029 A 
ATOM     54  C   UNL A   1      40.216  30.983  32.876  1.00  0.00     0.049 A 
ATOM     55  H   UNL A   1      41.044  29.643  31.508  1.00  0.00     0.167 HD
ATOM     56  C   UNL A   1      42.570  26.678  28.677  1.00  0.00     0.034 A 
ATOM     57  C   UNL A   1      40.973  30.960  33.991  1.00  0.00     0.034 A 
ATOM     58  C   UNL A   1      43.367  26.497  29.868  1.00  0.00     0.049 A 
ATOM     59  C   UNL A   1      42.100  29.968  34.083  1.00  0.00     0.074 A 
ATOM     60  C   UNL A   1      44.432  25.635  30.074  1.00  0.00     0.029 A 
ATOM     61  N   UNL A   1      43.207  27.213  31.048  1.00  0.00    -0.354 N 
ATOM     62  N   UNL A   1      42.514  29.100  33.187  1.00  0.00    -0.248 NA
ATOM     63  C   UNL A   1      42.841  29.926  35.350  1.00  0.00     0.031 C 
ATOM     64  C   UNL A   1      44.887  25.801  31.388  1.00  0.00     0.029 A 
ATOM     65  C   UNL A   1      44.147  26.808  31.985  1.00  0.00     0.049 A 
ATOM     66  H   UNL A   1      42.526  27.908  31.197  1.00  0.00     0.167 HD
ATOM     67  C   UNL A   1      43.554  28.401  33.791  1.00  0.00     0.074 A 
ATOM     68  C   UNL A   1      43.732  28.977  35.110  1.00  0.00     0.031 C 
ATOM     69  C   UNL A   1      44.289  27.369  33.306  1.00  0.00     0.034 A 
BRANCH  56  70
ATOM     70  C   UNL A   1      42.838  25.788  27.486  1.00  0.00     0.023 A 
ATOM     71  C   UNL A   1      42.297  24.495  27.366  1.00  0.00     0.031 A 
ATOM     72  C   UNL A   1      43.683  26.244  26.456  1.00  0.00     0.131 A 
ATOM     73  C   UNL A   1      42.658  23.684  26.277  1.00  0.00     0.055 A 
ATOM     74  C   UNL A   1      43.979  25.460  25.340  1.00  0.00     0.041 A 
ATOM     75  F   UNL A   1      44.243  27.462  26.522  1.00  0.00    -0.206 F 
ATOM     76  C   UNL A   1      43.478  24.166  25.253  1.00  0.00     0.022 A 
BRANCH  73  77
ATOM     77  S   UNL A   1      42.147  21.944  26.280  1.00  0.00     0.124 S 
ATOM     78  O   UNL A   1      42.503  21.532  27.635  1.00  0.00    -0.237 OA
ATOM     79  O   UNL A   1      40.720  22.034  25.996  1.00  0.00    -0.237 OA
ATOM     80  O   UNL A   1      42.957  21.345  25.221  1.00  0.00    -0.744 OA
ENDBRANCH  73  77
ENDBRANCH  56  70
BRANCH  57  81
ATOM     81  C   UNL A   1      40.623  31.823  35.159  1.00  0.00     0.023 A 
ATOM     82  C   UNL A   1      39.564  31.493  36.019  1.00  0.00     0.031 A 
ATOM     83  C   UNL A   1      41.325  33.018  35.407  1.00  0.00     0.131 A 
ATOM     84  C   UNL A   1      39.219  32.361  37.068  1.00  0.00     0.055 A 
ATOM     85  C   UNL A   1      41.019  33.846  36.486  1.00  0.00     0.041 A 
ATOM     86  F   UNL A   1      42.338  33.390  34.606  1.00  0.00    -0.206 F 
ATOM     87  C   UNL A   1      39.953  33.524  37.319  1.00  0.00     0.022 A 
BRANCH  84  88
ATOM     88  S   UNL A   1      37.740  32.000  38.055  1.00  0.00     0.124 S 
ATOM     89  O   UNL A   1      37.456  30.620  37.674  1.00  0.00    -0.237 OA
ATOM     90  O   UNL A   1      38.220  32.202  39.417  1.00  0.00    -0.237 OA
ATOM     91  O   UNL A   1      36.769  32.987  37.588  1.00  0.00    -0.744 OA
ENDBRANCH  84  88
ENDBRANCH  57  81
BRANCH  69  92
ATOM     92  C   UNL A   1      45.360  26.820  34.216  1.00  0.00     0.023 A 
ATOM     93  C   UNL A   1      45.088  25.782  35.123  1.00  0.00     0.031 A 
ATOM     94  C   UNL A   1      46.652  27.372  34.205  1.00  0.00     0.131 A 
ATOM     95  C   UNL A   1      46.078  25.366  36.026  1.00  0.00     0.055 A 
ATOM     96  C   UNL A   1      47.649  26.919  35.070  1.00  0.00     0.041 A 
ATOM     97  F   UNL A   1      46.963  28.368  33.360  1.00  0.00    -0.206 F 
ATOM     98  C   UNL A   1      47.360  25.921  35.997  1.00  0.00     0.022 A 
BRANCH  95  99
ATOM     99  S   UNL A   1      45.639  24.159  37.308  1.00  0.00     0.124 S 
ATOM    100  O   UNL A   1      45.384  22.957  36.521  1.00  0.00    -0.237 OA
ATOM    101  O   UNL A   1      46.839  24.136  38.137  1.00  0.00    -0.237 OA
ATOM    102  O   UNL A   1      44.461  24.746  37.942  1.00  0.00    -0.744 OA
ENDBRANCH  95  99
ENDBRANCH  69  92
ENDBRANCH  43  44
ENDBRANCH  36  38
ENDBRANCH  35  36
ENDBRANCH  34  35
ENDBRANCH   1  34
TORSDOF 19
ENDMDL
MODEL 3
REMARK VINA RESULT:     -12.8      5.226     10.547
REMARK SMILES Cc1nnc(SCC2=C(C(=O)OCCOC(=O)c3ccc(-c4c5nc(c(-c6cc(S(=O)(=O)[O-])ccc6F)c6ccc([nH]6)c(-c6cc(S(=O)(=O)[O-])ccc6F)c6nc(c(-c7cc(S(=O)(=O)[O-])ccc7F)c7ccc4[nH]7)C=C6)C=C5)cc3)N3C(=O)[C@H](NC(=O)c4ccc(F)cc4F)[C@H]3SC2)s1
REMARK SMILES IDX 13 1 12 2 10 3 11 4 9 5 8 6 98 7 81 8 97 9 82 10 96 11 83 12
REMARK SMILES IDX 84 13 7 14 6 15 5 16 1 17 2 18 3 19 99 20 4 21 85 22 86 23
REMARK SMILES IDX 87 25 88 26 89 27 94 28 90 29 93 30 95 31 91 32 92 33 14 34
REMARK SMILES IDX 15 35 16 36 17 37 18 38 19 39 80 40 20 41 79 42 21 43 22 44
REMARK SMILES IDX 23 45 73 46 24 47 78 48 72 49 74 50 25 51 77 52 71 53 70 54
REMARK SMILES IDX 26 56 58 57 38 58 57 59 39 60 42 61 56 62 75 63 40 64 41 65
REMARK SMILES IDX 55 67 76 68 43 69 27 70 28 71 36 72 29 73 35 74 37 75 34 76
REMARK SMILES IDX 30 77 31 78 32 79 33 80 59 81 60 82 68 83 61 84 67 85 69 86
REMARK SMILES IDX 66 87 62 88 63 89 64 90 65 91 44 92 45 93 53 94 46 95 52 96
REMARK SMILES IDX 54 97 51 98 47 99 48 100 49 101 50 102
REMARK H PARENT 85 24 74 55 42 66
REMARK Flexibility Score: inf
ROOT
ATOM      1  C   UNL A   1      36.815  22.687  23.398  1.00  0.00     0.275 C 
ENDROOT
BRANCH   1   2
ATOM      2  O   UNL A   1      35.421  22.989  23.177  1.00  0.00    -0.457 OA
BRANCH   2   3
ATOM      3  C   UNL A   1      34.877  23.840  24.080  1.00  0.00     0.355 C 
ATOM      4  O   UNL A   1      35.469  24.418  24.982  1.00  0.00    -0.244 OA
BRANCH   3   5
ATOM      5  C   UNL A   1      33.394  23.959  23.941  1.00  0.00     0.132 C 
ATOM      6  C   UNL A   1      32.515  22.984  24.281  1.00  0.00    -0.019 C 
ATOM      7  C   UNL A   1      30.998  23.171  24.226  1.00  0.00     0.106 C 
ATOM      8  N   UNL A   1      32.928  25.203  23.681  1.00  0.00    -0.289 N 
ATOM      9  S   UNL A   1      30.373  24.762  23.604  1.00  0.00    -0.129 SA
ATOM     10  C   UNL A   1      33.224  26.253  22.894  1.00  0.00     0.253 C 
ATOM     11  C   UNL A   1      31.742  25.733  24.284  1.00  0.00     0.181 C 
ATOM     12  O   UNL A   1      34.026  26.387  22.008  1.00  0.00    -0.272 OA
ATOM     13  C   UNL A   1      32.052  27.088  23.562  1.00  0.00     0.206 C 
BRANCH   6  14
ATOM     14  C   UNL A   1      32.927  21.583  24.693  1.00  0.00     0.111 C 
BRANCH  14  15
ATOM     15  S   UNL A   1      32.689  20.377  23.354  1.00  0.00    -0.089 SA
BRANCH  15  16
ATOM     16  C   UNL A   1      32.664  18.869  24.235  1.00  0.00     0.174 A 
ATOM     17  C   UNL A   1      33.043  15.197  25.266  1.00  0.00     0.081 C 
ATOM     18  C   UNL A   1      32.824  16.650  25.054  1.00  0.00     0.115 A 
ATOM     19  N   UNL A   1      32.400  17.491  25.975  1.00  0.00    -0.143 NA
ATOM     20  S   UNL A   1      33.171  17.388  23.541  1.00  0.00    -0.091 S 
ATOM     21  N   UNL A   1      32.308  18.783  25.496  1.00  0.00    -0.132 NA
ENDBRANCH  15  16
ENDBRANCH  14  15
ENDBRANCH   6  14
BRANCH  13  22
ATOM     22  N   UNL A   1      32.555  28.213  24.409  1.00  0.00    -0.338 N 
ATOM     23  C   UNL A   1      31.995  29.441  24.655  1.00  0.00     0.254 C 
ATOM     24  H   UNL A   1      33.417  28.048  24.857  1.00  0.00     0.164 HD
ATOM     25  O   UNL A   1      32.502  30.231  25.439  1.00  0.00    -0.269 OA
BRANCH  23  26
ATOM     26  C   UNL A   1      30.772  29.820  23.948  1.00  0.00     0.075 A 
ATOM     27  C   UNL A   1      30.349  29.076  22.844  1.00  0.00     0.020 A 
ATOM     28  C   UNL A   1      30.052  30.939  24.366  1.00  0.00     0.138 A 
ATOM     29  C   UNL A   1      29.160  29.431  22.204  1.00  0.00     0.040 A 
ATOM     30  C   UNL A   1      28.856  31.277  23.748  1.00  0.00     0.079 A 
ATOM     31  F   UNL A   1      30.461  31.666  25.416  1.00  0.00    -0.206 F 
ATOM     32  C   UNL A   1      28.418  30.515  22.673  1.00  0.00     0.126 A 
ATOM     33  F   UNL A   1      27.258  30.827  22.080  1.00  0.00    -0.207 F 
ENDBRANCH  23  26
ENDBRANCH  13  22
ENDBRANCH   3   5
ENDBRANCH   2   3
ENDBRANCH   1   2
BRANCH   1  34
ATOM     34  C   UNL A   1      36.985  21.430  24.245  1.00  0.00     0.275 C 
BRANCH  34  35
ATOM     35  O   UNL A   1      37.369  21.812  25.573  1.00  0.00    -0.458 OA
BRANCH  35  36
ATOM     36  C   UNL A   1      38.669  21.624  25.901  1.00  0.00     0.338 C 
ATOM     37  O   UNL A   1      39.342  20.640  25.640  1.00  0.00    -0.246 OA
BRANCH  36  38
ATOM     38  C   UNL A   1      39.179  22.803  26.641  1.00  0.00     0.060 A 
ATOM     39  C   UNL A   1      38.644  24.071  26.423  1.00  0.00     0.016 A 
ATOM     40  C   UNL A   1      40.291  22.668  27.472  1.00  0.00     0.016 A 
ATOM     41  C   UNL A   1      39.309  25.203  26.892  1.00  0.00     0.010 A 
ATOM     42  C   UNL A   1      40.885  23.805  28.041  1.00  0.00     0.010 A 
ATOM     43  C   UNL A   1      40.448  25.098  27.700  1.00  0.00    -0.014 A 
BRANCH  43  44
ATOM     44  C   UNL A   1      41.237  26.313  28.084  1.00  0.00     0.031 A 
ATOM     45  C   UNL A   1      40.609  27.369  28.967  1.00  0.00     0.074 A 
ATOM     46  C   UNL A   1      42.525  26.473  27.711  1.00  0.00     0.049 A 
ATOM     47  N   UNL A   1      40.992  28.601  29.193  1.00  0.00    -0.248 NA
ATOM     48  C   UNL A   1      39.371  26.995  29.669  1.00  0.00     0.031 C 
ATOM     49  C   UNL A   1      43.315  25.516  26.934  1.00  0.00     0.029 A 
ATOM     50  N   UNL A   1      43.411  27.497  27.959  1.00  0.00    -0.354 N 
ATOM     51  C   UNL A   1      39.990  29.178  29.970  1.00  0.00     0.074 A 
ATOM     52  C   UNL A   1      38.991  28.153  30.190  1.00  0.00     0.031 C 
ATOM     53  C   UNL A   1      44.579  25.954  26.842  1.00  0.00     0.029 A 
ATOM     54  C   UNL A   1      44.662  27.288  27.423  1.00  0.00     0.049 A 
ATOM     55  H   UNL A   1      43.171  28.303  28.472  1.00  0.00     0.167 HD
ATOM     56  C   UNL A   1      39.910  30.447  30.446  1.00  0.00     0.034 A 
ATOM     57  C   UNL A   1      45.739  28.096  27.343  1.00  0.00     0.034 A 
ATOM     58  C   UNL A   1      40.965  31.425  30.307  1.00  0.00     0.049 A 
ATOM     59  C   UNL A   1      45.631  29.502  27.867  1.00  0.00     0.074 A 
ATOM     60  C   UNL A   1      40.995  32.736  30.754  1.00  0.00     0.029 A 
ATOM     61  N   UNL A   1      42.193  31.189  29.700  1.00  0.00    -0.354 N 
ATOM     62  N   UNL A   1      44.615  30.089  28.458  1.00  0.00    -0.248 NA
ATOM     63  C   UNL A   1      46.802  30.368  27.680  1.00  0.00     0.031 C 
ATOM     64  C   UNL A   1      42.220  33.302  30.382  1.00  0.00     0.029 A 
ATOM     65  C   UNL A   1      42.981  32.329  29.754  1.00  0.00     0.049 A 
ATOM     66  H   UNL A   1      42.463  30.335  29.290  1.00  0.00     0.167 HD
ATOM     67  C   UNL A   1      45.024  31.397  28.701  1.00  0.00     0.074 A 
ATOM     68  C   UNL A   1      46.391  31.500  28.231  1.00  0.00     0.031 C 
ATOM     69  C   UNL A   1      44.329  32.425  29.251  1.00  0.00     0.034 A 
BRANCH  56  70
ATOM     70  C   UNL A   1      38.613  30.872  31.092  1.00  0.00     0.023 A 
ATOM     71  C   UNL A   1      37.544  31.422  30.363  1.00  0.00     0.031 A 
ATOM     72  C   UNL A   1      38.458  30.744  32.486  1.00  0.00     0.131 A 
ATOM     73  C   UNL A   1      36.399  31.880  31.036  1.00  0.00     0.055 A 
ATOM     74  C   UNL A   1      37.289  31.134  33.140  1.00  0.00     0.041 A 
ATOM     75  F   UNL A   1      39.450  30.243  33.239  1.00  0.00    -0.206 F 
ATOM     76  C   UNL A   1      36.256  31.720  32.417  1.00  0.00     0.022 A 
BRANCH  73  77
ATOM     77  S   UNL A   1      35.151  32.808  30.102  1.00  0.00     0.124 S 
ATOM     78  O   UNL A   1      34.720  31.817  29.119  1.00  0.00    -0.237 OA
ATOM     79  O   UNL A   1      34.177  33.151  31.131  1.00  0.00    -0.237 OA
ATOM     80  O   UNL A   1      35.900  33.936  29.551  1.00  0.00    -0.744 OA
ENDBRANCH  73  77
ENDBRANCH  56  70
BRANCH  57  81
ATOM     81  C   UNL A   1      46.975  27.640  26.640  1.00  0.00     0.023 A 
ATOM     82  C   UNL A   1      47.150  27.849  25.262  1.00  0.00     0.031 A 
ATOM     83  C   UNL A   1      47.985  26.949  27.335  1.00  0.00     0.131 A 
ATOM     84  C   UNL A   1      48.295  27.348  24.620  1.00  0.00     0.055 A 
ATOM     85  C   UNL A   1      49.148  26.507  26.705  1.00  0.00     0.041 A 
ATOM     86  F   UNL A   1      47.862  26.708  28.651  1.00  0.00    -0.206 F 
ATOM     87  C   UNL A   1      49.303  26.697  25.336  1.00  0.00     0.022 A 
BRANCH  84  88
ATOM     88  S   UNL A   1      48.414  27.478  22.814  1.00  0.00     0.124 S 
ATOM     89  O   UNL A   1      47.229  28.266  22.492  1.00  0.00    -0.237 OA
ATOM     90  O   UNL A   1      49.697  28.150  22.637  1.00  0.00    -0.237 OA
ATOM     91  O   UNL A   1      48.378  26.087  22.368  1.00  0.00    -0.744 OA
ENDBRANCH  84  88
ENDBRANCH  57  81
BRANCH  69  92
ATOM     92  C   UNL A   1      45.061  33.737  29.381  1.00  0.00     0.023 A 
ATOM     93  C   UNL A   1      45.200  34.608  28.287  1.00  0.00     0.031 A 
ATOM     94  C   UNL A   1      45.662  34.097  30.599  1.00  0.00     0.131 A 
ATOM     95  C   UNL A   1      45.975  35.771  28.415  1.00  0.00     0.055 A 
ATOM     96  C   UNL A   1      46.387  35.281  30.735  1.00  0.00     0.041 A 
ATOM     97  F   UNL A   1      45.561  33.299  31.673  1.00  0.00    -0.206 F 
ATOM     98  C   UNL A   1      46.559  36.119  29.636  1.00  0.00     0.022 A 
BRANCH  95  99
ATOM     99  S   UNL A   1      46.292  36.776  26.937  1.00  0.00     0.124 S 
ATOM    100  O   UNL A   1      47.690  37.151  27.118  1.00  0.00    -0.237 OA
ATOM    101  O   UNL A   1      46.018  35.834  25.857  1.00  0.00    -0.237 OA
ATOM    102  O   UNL A   1      45.335  37.873  27.058  1.00  0.00    -0.744 OA
ENDBRANCH  95  99
ENDBRANCH  69  92
ENDBRANCH  43  44
ENDBRANCH  36  38
ENDBRANCH  35  36
ENDBRANCH  34  35
ENDBRANCH   1  34
TORSDOF 19
ENDMDL
