MODEL 1
REMARK VINA RESULT:     -13.0      0.000      0.000
REMARK SMILES COc1ccccc1[C@@H]1CN(C(=O)c2cnn3ccccc23)C[C@H]1C(=O)OCCOC(=O)c1ccc(-c2c3nc(c(-c4cc(S(=O)(=O)[O-])ccc4F)c4ccc([nH]4)c(-c4cc(S(=O)(=O)[O-])ccc4F)c4nc(c(-c5cc(S(=O)(=O)[O-])ccc5F)c5ccc2[nH]5)C=C4)C=C3)cc1
REMARK SMILES IDX 29 1 28 2 27 3 25 4 26 5 24 6 9 7 10 8 11 9 23 10 8 11 3 12
REMARK SMILES IDX 4 13 5 14 7 15 6 16 2 17 1 18 12 19 13 20 14 21 15 22 22 23
REMARK SMILES IDX 16 24 17 25 21 26 18 27 20 28 19 29 30 30 31 31 32 32 33 33
REMARK SMILES IDX 34 34 95 35 35 36 94 37 36 38 37 39 38 40 88 41 39 42 93 43
REMARK SMILES IDX 87 44 89 45 40 46 92 47 86 48 85 49 41 51 73 52 53 53 72 54
REMARK SMILES IDX 54 55 57 56 71 57 90 58 55 59 56 60 70 62 91 63 58 64 42 65
REMARK SMILES IDX 43 66 51 67 44 68 50 69 52 70 49 71 45 72 46 73 47 74 48 75
REMARK SMILES IDX 74 76 75 77 83 78 76 79 82 80 84 81 81 82 77 83 78 84 79 85
REMARK SMILES IDX 80 86 59 87 60 88 68 89 61 90 67 91 69 92 66 93 62 94 63 95
REMARK SMILES IDX 64 96 65 97
REMARK H PARENT 89 50 57 61
REMARK Flexibility Score: inf
ROOT
ATOM      1  C   UNL A   1      33.391  30.701  27.240  1.00  0.00     0.275 C 
ENDROOT
BRANCH   1   2
ATOM      2  C   UNL A   1      32.665  30.195  25.991  1.00  0.00     0.274 C 
BRANCH   2   3
ATOM      3  O   UNL A   1      32.436  28.765  25.985  1.00  0.00    -0.462 OA
BRANCH   3   4
ATOM      4  C   UNL A   1      32.778  28.124  24.836  1.00  0.00     0.311 C 
ATOM      5  O   UNL A   1      33.702  28.480  24.105  1.00  0.00    -0.252 OA
BRANCH   4   6
ATOM      6  C   UNL A   1      31.858  26.993  24.428  1.00  0.00     0.128 C 
ATOM      7  C   UNL A   1      30.985  27.052  23.146  1.00  0.00     0.058 C 
ATOM      8  C   UNL A   1      31.054  25.619  22.616  1.00  0.00     0.129 C 
ATOM      9  N   UNL A   1      32.384  25.176  22.976  1.00  0.00    -0.337 N 
ATOM     10  C   UNL A   1      32.788  25.795  24.219  1.00  0.00     0.135 C 
BRANCH   7  11
ATOM     11  C   UNL A   1      29.533  27.521  23.206  1.00  0.00    -0.000 A 
ATOM     12  C   UNL A   1      29.042  28.764  22.763  1.00  0.00     0.122 A 
ATOM     13  C   UNL A   1      27.684  29.099  22.904  1.00  0.00     0.047 A 
ATOM     14  C   UNL A   1      26.792  28.214  23.509  1.00  0.00     0.004 A 
ATOM     15  C   UNL A   1      28.609  26.671  23.857  1.00  0.00     0.008 A 
ATOM     16  C   UNL A   1      27.260  27.005  24.002  1.00  0.00     0.001 A 
BRANCH  12  17
ATOM     17  O   UNL A   1      29.870  29.794  22.398  1.00  0.00    -0.496 OA
ATOM     18  C   UNL A   1      29.191  30.951  21.931  1.00  0.00     0.278 C 
ENDBRANCH  12  17
ENDBRANCH   7  11
BRANCH   9  19
ATOM     19  C   UNL A   1      33.115  24.138  22.438  1.00  0.00     0.257 C 
ATOM     20  O   UNL A   1      33.505  24.167  21.271  1.00  0.00    -0.269 OA
BRANCH  19  21
ATOM     21  C   UNL A   1      33.467  23.028  23.297  1.00  0.00     0.085 A 
ATOM     22  C   UNL A   1      32.555  22.158  23.927  1.00  0.00     0.150 A 
ATOM     23  C   UNL A   1      34.700  22.609  23.760  1.00  0.00     0.079 A 
ATOM     24  N   UNL A   1      33.145  21.212  24.659  1.00  0.00    -0.176 NA
ATOM     25  N   UNL A   1      34.474  21.463  24.531  1.00  0.00    -0.240 N 
ATOM     26  C   UNL A   1      36.054  23.044  23.610  1.00  0.00     0.029 A 
ATOM     27  C   UNL A   1      35.520  20.717  25.075  1.00  0.00     0.113 A 
ATOM     28  C   UNL A   1      37.055  22.304  24.122  1.00  0.00     0.004 A 
ATOM     29  C   UNL A   1      36.794  21.094  24.880  1.00  0.00     0.020 A 
ENDBRANCH  19  21
ENDBRANCH   9  19
ENDBRANCH   4   6
ENDBRANCH   3   4
ENDBRANCH   2   3
ENDBRANCH   1   2
BRANCH   1  30
ATOM     30  O   UNL A   1      34.781  30.360  27.266  1.00  0.00    -0.458 OA
BRANCH  30  31
ATOM     31  C   UNL A   1      35.509  31.320  27.877  1.00  0.00     0.338 C 
ATOM     32  O   UNL A   1      35.550  32.492  27.554  1.00  0.00    -0.246 OA
BRANCH  31  33
ATOM     33  C   UNL A   1      36.467  30.787  28.833  1.00  0.00     0.060 A 
ATOM     34  C   UNL A   1      37.498  31.653  29.217  1.00  0.00     0.016 A 
ATOM     35  C   UNL A   1      36.587  29.399  28.892  1.00  0.00     0.016 A 
ATOM     36  C   UNL A   1      38.745  31.124  29.452  1.00  0.00     0.010 A 
ATOM     37  C   UNL A   1      37.835  28.875  29.123  1.00  0.00     0.010 A 
ATOM     38  C   UNL A   1      38.912  29.747  29.317  1.00  0.00    -0.014 A 
BRANCH  38  39
ATOM     39  C   UNL A   1      40.237  29.195  29.529  1.00  0.00     0.031 A 
ATOM     40  C   UNL A   1      40.612  29.148  30.965  1.00  0.00     0.074 A 
ATOM     41  C   UNL A   1      40.908  28.607  28.519  1.00  0.00     0.049 A 
ATOM     42  N   UNL A   1      41.671  29.603  31.546  1.00  0.00    -0.248 NA
ATOM     43  C   UNL A   1      39.580  28.668  31.907  1.00  0.00     0.031 C 
ATOM     44  C   UNL A   1      40.426  28.376  27.152  1.00  0.00     0.029 A 
ATOM     45  N   UNL A   1      42.087  27.931  28.545  1.00  0.00    -0.354 N 
ATOM     46  C   UNL A   1      41.528  29.270  32.891  1.00  0.00     0.074 A 
ATOM     47  C   UNL A   1      40.154  28.913  33.080  1.00  0.00     0.031 C 
ATOM     48  C   UNL A   1      41.165  27.395  26.587  1.00  0.00     0.029 A 
ATOM     49  C   UNL A   1      42.223  27.012  27.509  1.00  0.00     0.049 A 
ATOM     50  H   UNL A   1      42.778  28.078  29.231  1.00  0.00     0.167 HD
ATOM     51  C   UNL A   1      42.605  29.059  33.693  1.00  0.00     0.034 A 
ATOM     52  C   UNL A   1      43.054  25.936  27.476  1.00  0.00     0.034 A 
ATOM     53  C   UNL A   1      43.784  29.687  33.150  1.00  0.00     0.049 A 
ATOM     54  C   UNL A   1      44.083  26.148  28.528  1.00  0.00     0.074 A 
ATOM     55  C   UNL A   1      44.107  30.991  32.825  1.00  0.00     0.029 A 
ATOM     56  N   UNL A   1      44.705  28.898  32.498  1.00  0.00    -0.354 N 
ATOM     57  N   UNL A   1      44.963  27.114  28.496  1.00  0.00    -0.248 NA
ATOM     58  C   UNL A   1      43.826  25.597  29.852  1.00  0.00     0.031 C 
ATOM     59  C   UNL A   1      44.869  30.892  31.626  1.00  0.00     0.029 A 
ATOM     60  C   UNL A   1      45.034  29.537  31.327  1.00  0.00     0.049 A 
ATOM     61  H   UNL A   1      45.062  28.036  32.812  1.00  0.00     0.167 HD
ATOM     62  C   UNL A   1      45.053  27.567  29.805  1.00  0.00     0.074 A 
ATOM     63  C   UNL A   1      44.402  26.536  30.609  1.00  0.00     0.031 C 
ATOM     64  C   UNL A   1      45.382  28.861  30.091  1.00  0.00     0.034 A 
BRANCH  51  65
ATOM     65  C   UNL A   1      42.661  27.995  34.767  1.00  0.00     0.023 A 
ATOM     66  C   UNL A   1      43.427  26.849  34.491  1.00  0.00     0.031 A 
ATOM     67  C   UNL A   1      41.808  27.901  35.895  1.00  0.00     0.131 A 
ATOM     68  C   UNL A   1      43.253  25.668  35.230  1.00  0.00     0.055 A 
ATOM     69  C   UNL A   1      41.696  26.747  36.674  1.00  0.00     0.041 A 
ATOM     70  F   UNL A   1      40.963  28.872  36.258  1.00  0.00    -0.206 F 
ATOM     71  C   UNL A   1      42.395  25.608  36.323  1.00  0.00     0.022 A 
BRANCH  68  72
ATOM     72  S   UNL A   1      44.029  24.154  34.614  1.00  0.00     0.124 S 
ATOM     73  O   UNL A   1      42.894  23.470  34.005  1.00  0.00    -0.237 OA
ATOM     74  O   UNL A   1      45.032  24.684  33.698  1.00  0.00    -0.237 OA
ATOM     75  O   UNL A   1      44.557  23.529  35.825  1.00  0.00    -0.744 OA
ENDBRANCH  68  72
ENDBRANCH  51  65
BRANCH  52  76
ATOM     76  C   UNL A   1      42.751  24.610  26.858  1.00  0.00     0.023 A 
ATOM     77  C   UNL A   1      43.672  23.903  26.058  1.00  0.00     0.031 A 
ATOM     78  C   UNL A   1      41.572  23.915  27.222  1.00  0.00     0.131 A 
ATOM     79  C   UNL A   1      43.386  22.579  25.640  1.00  0.00     0.055 A 
ATOM     80  C   UNL A   1      41.286  22.617  26.792  1.00  0.00     0.041 A 
ATOM     81  F   UNL A   1      40.684  24.448  28.077  1.00  0.00    -0.206 F 
ATOM     82  C   UNL A   1      42.196  21.940  26.000  1.00  0.00     0.022 A 
BRANCH  79  83
ATOM     83  S   UNL A   1      44.603  21.631  24.670  1.00  0.00     0.124 S 
ATOM     84  O   UNL A   1      44.052  20.282  24.712  1.00  0.00    -0.237 OA
ATOM     85  O   UNL A   1      44.565  22.308  23.379  1.00  0.00    -0.237 OA
ATOM     86  O   UNL A   1      45.849  21.809  25.416  1.00  0.00    -0.744 OA
ENDBRANCH  79  83
ENDBRANCH  52  76
BRANCH  64  87
ATOM     87  C   UNL A   1      45.942  29.738  28.992  1.00  0.00     0.023 A 
ATOM     88  C   UNL A   1      45.187  30.663  28.236  1.00  0.00     0.031 A 
ATOM     89  C   UNL A   1      47.341  29.757  28.843  1.00  0.00     0.131 A 
ATOM     90  C   UNL A   1      45.843  31.567  27.376  1.00  0.00     0.055 A 
ATOM     91  C   UNL A   1      47.986  30.664  28.007  1.00  0.00     0.041 A 
ATOM     92  F   UNL A   1      48.111  28.923  29.562  1.00  0.00    -0.206 F 
ATOM     93  C   UNL A   1      47.238  31.575  27.269  1.00  0.00     0.022 A 
BRANCH  90  94
ATOM     94  S   UNL A   1      44.891  32.771  26.392  1.00  0.00     0.124 S 
ATOM     95  O   UNL A   1      43.888  31.947  25.729  1.00  0.00    -0.237 OA
ATOM     96  O   UNL A   1      44.392  33.693  27.410  1.00  0.00    -0.237 OA
ATOM     97  O   UNL A   1      45.894  33.347  25.494  1.00  0.00    -0.744 OA
ENDBRANCH  90  94
ENDBRANCH  64  87
ENDBRANCH  38  39
ENDBRANCH  31  33
ENDBRANCH  30  31
ENDBRANCH   1  30
TORSDOF 18
ENDMDL
MODEL 2
REMARK VINA RESULT:     -12.7      3.244      9.235
REMARK SMILES COc1ccccc1[C@@H]1CN(C(=O)c2cnn3ccccc23)C[C@H]1C(=O)OCCOC(=O)c1ccc(-c2c3nc(c(-c4cc(S(=O)(=O)[O-])ccc4F)c4ccc([nH]4)c(-c4cc(S(=O)(=O)[O-])ccc4F)c4nc(c(-c5cc(S(=O)(=O)[O-])ccc5F)c5ccc2[nH]5)C=C4)C=C3)cc1
REMARK SMILES IDX 29 1 28 2 27 3 25 4 26 5 24 6 9 7 10 8 11 9 23 10 8 11 3 12
REMARK SMILES IDX 4 13 5 14 7 15 6 16 2 17 1 18 12 19 13 20 14 21 15 22 22 23
REMARK SMILES IDX 16 24 17 25 21 26 18 27 20 28 19 29 30 30 31 31 32 32 33 33
REMARK SMILES IDX 34 34 95 35 35 36 94 37 36 38 37 39 38 40 88 41 39 42 93 43
REMARK SMILES IDX 87 44 89 45 40 46 92 47 86 48 85 49 41 51 73 52 53 53 72 54
REMARK SMILES IDX 54 55 57 56 71 57 90 58 55 59 56 60 70 62 91 63 58 64 42 65
REMARK SMILES IDX 43 66 51 67 44 68 50 69 52 70 49 71 45 72 46 73 47 74 48 75
REMARK SMILES IDX 74 76 75 77 83 78 76 79 82 80 84 81 81 82 77 83 78 84 79 85
REMARK SMILES IDX 80 86 59 87 60 88 68 89 61 90 67 91 69 92 66 93 62 94 63 95
REMARK SMILES IDX 64 96 65 97
REMARK H PARENT 89 50 57 61
REMARK Flexibility Score: inf
ROOT
ATOM      1  C   UNL A   1      38.113  21.983  25.583  1.00  0.00     0.275 C 
ENDROOT
BRANCH   1   2
ATOM      2  C   UNL A   1      36.833  22.151  24.759  1.00  0.00     0.274 C 
BRANCH   2   3
ATOM      3  O   UNL A   1      35.639  21.681  25.430  1.00  0.00    -0.462 OA
BRANCH   3   4
ATOM      4  C   UNL A   1      34.759  22.649  25.798  1.00  0.00     0.311 C 
ATOM      5  O   UNL A   1      34.858  23.303  26.836  1.00  0.00    -0.252 OA
BRANCH   4   6
ATOM      6  C   UNL A   1      33.548  22.799  24.902  1.00  0.00     0.128 C 
ATOM      7  C   UNL A   1      32.362  21.798  24.932  1.00  0.00     0.058 C 
ATOM      8  C   UNL A   1      31.143  22.704  24.750  1.00  0.00     0.129 C 
ATOM      9  N   UNL A   1      31.515  23.931  25.421  1.00  0.00    -0.337 N 
ATOM     10  C   UNL A   1      32.939  24.147  25.296  1.00  0.00     0.135 C 
BRANCH   7  11
ATOM     11  C   UNL A   1      32.297  20.628  23.953  1.00  0.00    -0.000 A 
ATOM     12  C   UNL A   1      32.507  19.271  24.266  1.00  0.00     0.122 A 
ATOM     13  C   UNL A   1      32.457  18.282  23.268  1.00  0.00     0.047 A 
ATOM     14  C   UNL A   1      32.220  18.625  21.937  1.00  0.00     0.004 A 
ATOM     15  C   UNL A   1      32.109  20.942  22.587  1.00  0.00     0.008 A 
ATOM     16  C   UNL A   1      32.062  19.959  21.594  1.00  0.00     0.001 A 
BRANCH  12  17
ATOM     17  O   UNL A   1      32.998  18.863  25.478  1.00  0.00    -0.496 OA
ATOM     18  C   UNL A   1      32.754  17.496  25.777  1.00  0.00     0.278 C 
ENDBRANCH  12  17
ENDBRANCH   7  11
BRANCH   9  19
ATOM     19  C   UNL A   1      30.692  24.931  25.895  1.00  0.00     0.257 C 
ATOM     20  O   UNL A   1      29.909  24.730  26.824  1.00  0.00    -0.269 OA
BRANCH  19  21
ATOM     21  C   UNL A   1      30.807  26.250  25.311  1.00  0.00     0.085 A 
ATOM     22  C   UNL A   1      30.477  26.591  23.984  1.00  0.00     0.150 A 
ATOM     23  C   UNL A   1      31.315  27.423  25.838  1.00  0.00     0.079 A 
ATOM     24  N   UNL A   1      30.670  27.881  23.704  1.00  0.00    -0.176 NA
ATOM     25  N   UNL A   1      31.155  28.409  24.858  1.00  0.00    -0.240 N 
ATOM     26  C   UNL A   1      31.898  27.820  27.083  1.00  0.00     0.029 A 
ATOM     27  C   UNL A   1      31.472  29.747  25.094  1.00  0.00     0.113 A 
ATOM     28  C   UNL A   1      32.181  29.117  27.304  1.00  0.00     0.004 A 
ATOM     29  C   UNL A   1      31.962  30.127  26.286  1.00  0.00     0.020 A 
ENDBRANCH  19  21
ENDBRANCH   9  19
ENDBRANCH   4   6
ENDBRANCH   3   4
ENDBRANCH   2   3
ENDBRANCH   1   2
BRANCH   1  30
ATOM     30  O   UNL A   1      38.534  23.188  26.230  1.00  0.00    -0.458 OA
BRANCH  30  31
ATOM     31  C   UNL A   1      39.737  23.030  26.822  1.00  0.00     0.338 C 
ATOM     32  O   UNL A   1      40.124  22.024  27.387  1.00  0.00    -0.246 OA
BRANCH  31  33
ATOM     33  C   UNL A   1      40.474  24.278  26.957  1.00  0.00     0.060 A 
ATOM     34  C   UNL A   1      41.457  24.306  27.953  1.00  0.00     0.016 A 
ATOM     35  C   UNL A   1      39.847  25.430  26.484  1.00  0.00     0.016 A 
ATOM     36  C   UNL A   1      41.657  25.478  28.644  1.00  0.00     0.010 A 
ATOM     37  C   UNL A   1      40.046  26.597  27.178  1.00  0.00     0.010 A 
ATOM     38  C   UNL A   1      40.883  26.585  28.299  1.00  0.00    -0.014 A 
BRANCH  38  39
ATOM     39  C   UNL A   1      41.069  27.809  29.055  1.00  0.00     0.031 A 
ATOM     40  C   UNL A   1      42.224  28.608  28.570  1.00  0.00     0.074 A 
ATOM     41  C   UNL A   1      40.137  28.225  29.934  1.00  0.00     0.049 A 
ATOM     42  N   UNL A   1      43.220  29.088  29.237  1.00  0.00    -0.248 NA
ATOM     43  C   UNL A   1      42.366  28.752  27.107  1.00  0.00     0.031 C 
ATOM     44  C   UNL A   1      38.839  27.598  30.210  1.00  0.00     0.029 A 
ATOM     45  N   UNL A   1      40.069  29.388  30.634  1.00  0.00    -0.354 N 
ATOM     46  C   UNL A   1      43.995  29.773  28.303  1.00  0.00     0.074 A 
ATOM     47  C   UNL A   1      43.552  29.344  27.011  1.00  0.00     0.031 C 
ATOM     48  C   UNL A   1      38.024  28.512  30.782  1.00  0.00     0.029 A 
ATOM     49  C   UNL A   1      38.773  29.739  31.003  1.00  0.00     0.049 A 
ATOM     50  H   UNL A   1      40.860  29.930  30.858  1.00  0.00     0.167 HD
ATOM     51  C   UNL A   1      44.763  30.838  28.656  1.00  0.00     0.034 A 
ATOM     52  C   UNL A   1      38.326  30.980  31.335  1.00  0.00     0.034 A 
ATOM     53  C   UNL A   1      45.047  30.822  30.070  1.00  0.00     0.049 A 
ATOM     54  C   UNL A   1      39.524  31.803  31.651  1.00  0.00     0.074 A 
ATOM     55  C   UNL A   1      45.673  29.917  30.907  1.00  0.00     0.029 A 
ATOM     56  N   UNL A   1      44.331  31.662  30.892  1.00  0.00    -0.354 N 
ATOM     57  N   UNL A   1      40.317  31.571  32.663  1.00  0.00    -0.248 NA
ATOM     58  C   UNL A   1      40.121  32.578  30.570  1.00  0.00     0.031 C 
ATOM     59  C   UNL A   1      44.916  29.950  32.113  1.00  0.00     0.029 A 
ATOM     60  C   UNL A   1      43.922  30.923  31.975  1.00  0.00     0.049 A 
ATOM     61  H   UNL A   1      44.147  32.617  30.734  1.00  0.00     0.167 HD
ATOM     62  C   UNL A   1      41.599  31.793  32.180  1.00  0.00     0.074 A 
ATOM     63  C   UNL A   1      41.410  32.500  30.915  1.00  0.00     0.031 C 
ATOM     64  C   UNL A   1      42.680  31.136  32.694  1.00  0.00     0.034 A 
BRANCH  51  65
ATOM     65  C   UNL A   1      44.948  32.067  27.794  1.00  0.00     0.023 A 
ATOM     66  C   UNL A   1      44.297  33.242  28.209  1.00  0.00     0.031 A 
ATOM     67  C   UNL A   1      45.470  32.092  26.476  1.00  0.00     0.131 A 
ATOM     68  C   UNL A   1      44.093  34.309  27.318  1.00  0.00     0.055 A 
ATOM     69  C   UNL A   1      45.331  33.186  25.620  1.00  0.00     0.041 A 
ATOM     70  F   UNL A   1      46.057  31.037  25.900  1.00  0.00    -0.206 F 
ATOM     71  C   UNL A   1      44.608  34.292  26.026  1.00  0.00     0.022 A 
BRANCH  68  72
ATOM     72  S   UNL A   1      42.975  35.639  27.822  1.00  0.00     0.124 S 
ATOM     73  O   UNL A   1      43.874  36.511  28.569  1.00  0.00    -0.237 OA
ATOM     74  O   UNL A   1      42.509  36.141  26.534  1.00  0.00    -0.237 OA
ATOM     75  O   UNL A   1      41.968  34.946  28.623  1.00  0.00    -0.744 OA
ENDBRANCH  68  72
ENDBRANCH  51  65
BRANCH  52  76
ATOM     76  C   UNL A   1      36.984  31.548  31.008  1.00  0.00     0.023 A 
ATOM     77  C   UNL A   1      36.210  32.279  31.933  1.00  0.00     0.031 A 
ATOM     78  C   UNL A   1      36.519  31.534  29.671  1.00  0.00     0.131 A 
ATOM     79  C   UNL A   1      35.023  32.930  31.512  1.00  0.00     0.055 A 
ATOM     80  C   UNL A   1      35.339  32.162  29.266  1.00  0.00     0.041 A 
ATOM     81  F   UNL A   1      37.239  30.969  28.688  1.00  0.00    -0.206 F 
ATOM     82  C   UNL A   1      34.586  32.868  30.186  1.00  0.00     0.022 A 
BRANCH  79  83
ATOM     83  S   UNL A   1      34.057  33.940  32.682  1.00  0.00     0.124 S 
ATOM     84  O   UNL A   1      33.241  32.939  33.358  1.00  0.00    -0.237 OA
ATOM     85  O   UNL A   1      35.101  34.575  33.478  1.00  0.00    -0.237 OA
ATOM     86  O   UNL A   1      33.313  34.853  31.813  1.00  0.00    -0.744 OA
ENDBRANCH  79  83
ENDBRANCH  52  76
BRANCH  64  87
ATOM     87  C   UNL A   1      42.529  30.377  33.995  1.00  0.00     0.023 A 
ATOM     88  C   UNL A   1      42.331  28.981  34.095  1.00  0.00     0.031 A 
ATOM     89  C   UNL A   1      42.783  31.090  35.181  1.00  0.00     0.131 A 
ATOM     90  C   UNL A   1      42.402  28.352  35.355  1.00  0.00     0.055 A 
ATOM     91  C   UNL A   1      42.871  30.462  36.420  1.00  0.00     0.041 A 
ATOM     92  F   UNL A   1      43.012  32.414  35.140  1.00  0.00    -0.206 F 
ATOM     93  C   UNL A   1      42.680  29.088  36.512  1.00  0.00     0.022 A 
BRANCH  90  94
ATOM     94  S   UNL A   1      42.153  26.553  35.510  1.00  0.00     0.124 S 
ATOM     95  O   UNL A   1      43.182  25.993  34.642  1.00  0.00    -0.237 OA
ATOM     96  O   UNL A   1      42.330  26.328  36.943  1.00  0.00    -0.237 OA
ATOM     97  O   UNL A   1      40.782  26.356  35.033  1.00  0.00    -0.744 OA
ENDBRANCH  90  94
ENDBRANCH  64  87
ENDBRANCH  38  39
ENDBRANCH  31  33
ENDBRANCH  30  31
ENDBRANCH   1  30
TORSDOF 18
ENDMDL
MODEL 3
REMARK VINA RESULT:     -12.6      3.696      8.517
REMARK SMILES COc1ccccc1[C@@H]1CN(C(=O)c2cnn3ccccc23)C[C@H]1C(=O)OCCOC(=O)c1ccc(-c2c3nc(c(-c4cc(S(=O)(=O)[O-])ccc4F)c4ccc([nH]4)c(-c4cc(S(=O)(=O)[O-])ccc4F)c4nc(c(-c5cc(S(=O)(=O)[O-])ccc5F)c5ccc2[nH]5)C=C4)C=C3)cc1
REMARK SMILES IDX 29 1 28 2 27 3 25 4 26 5 24 6 9 7 10 8 11 9 23 10 8 11 3 12
REMARK SMILES IDX 4 13 5 14 7 15 6 16 2 17 1 18 12 19 13 20 14 21 15 22 22 23
REMARK SMILES IDX 16 24 17 25 21 26 18 27 20 28 19 29 30 30 31 31 32 32 33 33
REMARK SMILES IDX 34 34 95 35 35 36 94 37 36 38 37 39 38 40 88 41 39 42 93 43
REMARK SMILES IDX 87 44 89 45 40 46 92 47 86 48 85 49 41 51 73 52 53 53 72 54
REMARK SMILES IDX 54 55 57 56 71 57 90 58 55 59 56 60 70 62 91 63 58 64 42 65
REMARK SMILES IDX 43 66 51 67 44 68 50 69 52 70 49 71 45 72 46 73 47 74 48 75
REMARK SMILES IDX 74 76 75 77 83 78 76 79 82 80 84 81 81 82 77 83 78 84 79 85
REMARK SMILES IDX 80 86 59 87 60 88 68 89 61 90 67 91 69 92 66 93 62 94 63 95
REMARK SMILES IDX 64 96 65 97
REMARK H PARENT 89 50 57 61
REMARK Flexibility Score: inf
ROOT
ATOM      1  C   UNL A   1      38.223  23.773  26.152  1.00  0.00     0.275 C 
ENDROOT
BRANCH   1   2
ATOM      2  C   UNL A   1      37.817  22.427  25.546  1.00  0.00     0.274 C 
BRANCH   2   3
ATOM      3  O   UNL A   1      36.597  22.478  24.768  1.00  0.00    -0.462 OA
BRANCH   3   4
ATOM      4  C   UNL A   1      35.492  21.981  25.383  1.00  0.00     0.311 C 
ATOM      5  O   UNL A   1      35.532  21.244  26.368  1.00  0.00    -0.252 OA
BRANCH   4   6
ATOM      6  C   UNL A   1      34.176  22.290  24.701  1.00  0.00     0.128 C 
ATOM      7  C   UNL A   1      32.937  21.363  24.825  1.00  0.00     0.058 C 
ATOM      8  C   UNL A   1      31.774  22.354  24.914  1.00  0.00     0.129 C 
ATOM      9  N   UNL A   1      32.331  23.485  25.625  1.00  0.00    -0.337 N 
ATOM     10  C   UNL A   1      33.733  23.627  25.301  1.00  0.00     0.135 C 
BRANCH   7  11
ATOM     11  C   UNL A   1      32.642  20.301  23.769  1.00  0.00    -0.000 A 
ATOM     12  C   UNL A   1      32.915  18.924  23.877  1.00  0.00     0.122 A 
ATOM     13  C   UNL A   1      32.631  18.044  22.818  1.00  0.00     0.047 A 
ATOM     14  C   UNL A   1      32.091  18.518  21.623  1.00  0.00     0.004 A 
ATOM     15  C   UNL A   1      32.141  20.752  22.525  1.00  0.00     0.008 A 
ATOM     16  C   UNL A   1      31.862  19.878  21.471  1.00  0.00     0.001 A 
BRANCH  12  17
ATOM     17  O   UNL A   1      33.675  18.402  24.891  1.00  0.00    -0.496 OA
ATOM     18  C   UNL A   1      34.966  17.968  24.489  1.00  0.00     0.278 C 
ENDBRANCH  12  17
ENDBRANCH   7  11
BRANCH   9  19
ATOM     19  C   UNL A   1      31.663  24.480  26.306  1.00  0.00     0.257 C 
ATOM     20  O   UNL A   1      31.083  24.252  27.368  1.00  0.00    -0.269 OA
BRANCH  19  21
ATOM     21  C   UNL A   1      31.704  25.824  25.772  1.00  0.00     0.085 A 
ATOM     22  C   UNL A   1      32.697  26.785  26.046  1.00  0.00     0.150 A 
ATOM     23  C   UNL A   1      30.799  26.500  24.975  1.00  0.00     0.079 A 
ATOM     24  N   UNL A   1      32.501  27.945  25.417  1.00  0.00    -0.176 NA
ATOM     25  N   UNL A   1      31.347  27.763  24.724  1.00  0.00    -0.240 N 
ATOM     26  C   UNL A   1      29.536  26.200  24.376  1.00  0.00     0.029 A 
ATOM     27  C   UNL A   1      30.738  28.678  23.863  1.00  0.00     0.113 A 
ATOM     28  C   UNL A   1      28.969  27.083  23.533  1.00  0.00     0.004 A 
ATOM     29  C   UNL A   1      29.583  28.369  23.254  1.00  0.00     0.020 A 
ENDBRANCH  19  21
ENDBRANCH   9  19
ENDBRANCH   4   6
ENDBRANCH   3   4
ENDBRANCH   2   3
ENDBRANCH   1   2
BRANCH   1  30
ATOM     30  O   UNL A   1      39.420  23.706  26.934  1.00  0.00    -0.458 OA
BRANCH  30  31
ATOM     31  C   UNL A   1      40.190  24.799  26.744  1.00  0.00     0.338 C 
ATOM     32  O   UNL A   1      41.327  24.800  26.310  1.00  0.00    -0.246 OA
BRANCH  31  33
ATOM     33  C   UNL A   1      39.633  26.001  27.347  1.00  0.00     0.060 A 
ATOM     34  C   UNL A   1      40.051  27.217  26.793  1.00  0.00     0.016 A 
ATOM     35  C   UNL A   1      39.175  25.889  28.659  1.00  0.00     0.016 A 
ATOM     36  C   UNL A   1      40.225  28.294  27.630  1.00  0.00     0.010 A 
ATOM     37  C   UNL A   1      39.354  26.964  29.493  1.00  0.00     0.010 A 
ATOM     38  C   UNL A   1      39.953  28.123  28.986  1.00  0.00    -0.014 A 
BRANCH  38  39
ATOM     39  C   UNL A   1      40.172  29.249  29.874  1.00  0.00     0.031 A 
ATOM     40  C   UNL A   1      38.977  30.123  29.993  1.00  0.00     0.074 A 
ATOM     41  C   UNL A   1      41.277  29.316  30.642  1.00  0.00     0.049 A 
ATOM     42  N   UNL A   1      38.882  31.400  29.832  1.00  0.00    -0.248 NA
ATOM     43  C   UNL A   1      37.673  29.447  30.155  1.00  0.00     0.031 C 
ATOM     44  C   UNL A   1      42.336  28.307  30.760  1.00  0.00     0.029 A 
ATOM     45  N   UNL A   1      41.600  30.211  31.613  1.00  0.00    -0.354 N 
ATOM     46  C   UNL A   1      37.547  31.707  30.087  1.00  0.00     0.074 A 
ATOM     47  C   UNL A   1      36.829  30.468  30.053  1.00  0.00     0.031 C 
ATOM     48  C   UNL A   1      43.006  28.508  31.916  1.00  0.00     0.029 A 
ATOM     49  C   UNL A   1      42.494  29.710  32.555  1.00  0.00     0.049 A 
ATOM     50  H   UNL A   1      41.236  31.125  31.646  1.00  0.00     0.167 HD
ATOM     51  C   UNL A   1      37.172  32.922  30.568  1.00  0.00     0.034 A 
ATOM     52  C   UNL A   1      42.696  30.174  33.817  1.00  0.00     0.034 A 
ATOM     53  C   UNL A   1      38.180  33.917  30.296  1.00  0.00     0.049 A 
ATOM     54  C   UNL A   1      42.125  31.546  33.872  1.00  0.00     0.074 A 
ATOM     55  C   UNL A   1      38.757  34.399  29.136  1.00  0.00     0.029 A 
ATOM     56  N   UNL A   1      39.021  34.294  31.318  1.00  0.00    -0.354 N 
ATOM     57  N   UNL A   1      42.592  32.554  33.184  1.00  0.00    -0.248 NA
ATOM     58  C   UNL A   1      40.741  31.690  34.307  1.00  0.00     0.031 C 
ATOM     59  C   UNL A   1      40.129  34.594  29.462  1.00  0.00     0.029 A 
ATOM     60  C   UNL A   1      40.300  34.295  30.817  1.00  0.00     0.049 A 
ATOM     61  H   UNL A   1      38.756  34.522  32.239  1.00  0.00     0.167 HD
ATOM     62  C   UNL A   1      41.472  33.246  32.747  1.00  0.00     0.074 A 
ATOM     63  C   UNL A   1      40.366  32.723  33.545  1.00  0.00     0.031 C 
ATOM     64  C   UNL A   1      41.486  33.966  31.586  1.00  0.00     0.034 A 
BRANCH  51  65
ATOM     65  C   UNL A   1      36.071  33.124  31.586  1.00  0.00     0.023 A 
ATOM     66  C   UNL A   1      35.007  33.964  31.216  1.00  0.00     0.031 A 
ATOM     67  C   UNL A   1      36.133  32.786  32.960  1.00  0.00     0.131 A 
ATOM     68  C   UNL A   1      34.147  34.509  32.184  1.00  0.00     0.055 A 
ATOM     69  C   UNL A   1      35.228  33.269  33.907  1.00  0.00     0.041 A 
ATOM     70  F   UNL A   1      37.117  32.052  33.492  1.00  0.00    -0.206 F 
ATOM     71  C   UNL A   1      34.246  34.165  33.528  1.00  0.00     0.022 A 
BRANCH  68  72
ATOM     72  S   UNL A   1      33.016  35.826  31.675  1.00  0.00     0.124 S 
ATOM     73  O   UNL A   1      33.715  37.014  32.154  1.00  0.00    -0.237 OA
ATOM     74  O   UNL A   1      32.972  35.641  30.229  1.00  0.00    -0.237 OA
ATOM     75  O   UNL A   1      31.780  35.501  32.384  1.00  0.00    -0.744 OA
ENDBRANCH  68  72
ENDBRANCH  51  65
BRANCH  52  76
ATOM     76  C   UNL A   1      42.994  29.344  35.022  1.00  0.00     0.023 A 
ATOM     77  C   UNL A   1      42.282  28.171  35.346  1.00  0.00     0.031 A 
ATOM     78  C   UNL A   1      44.153  29.609  35.792  1.00  0.00     0.131 A 
ATOM     79  C   UNL A   1      42.720  27.340  36.409  1.00  0.00     0.055 A 
ATOM     80  C   UNL A   1      44.570  28.797  36.849  1.00  0.00     0.041 A 
ATOM     81  F   UNL A   1      44.969  30.631  35.493  1.00  0.00    -0.206 F 
ATOM     82  C   UNL A   1      43.856  27.654  37.161  1.00  0.00     0.022 A 
BRANCH  79  83
ATOM     83  S   UNL A   1      41.851  25.783  36.786  1.00  0.00     0.124 S 
ATOM     84  O   UNL A   1      41.026  25.592  35.599  1.00  0.00    -0.237 OA
ATOM     85  O   UNL A   1      42.956  24.849  36.968  1.00  0.00    -0.237 OA
ATOM     86  O   UNL A   1      41.106  26.093  38.007  1.00  0.00    -0.744 OA
ENDBRANCH  79  83
ENDBRANCH  52  76
BRANCH  64  87
ATOM     87  C   UNL A   1      42.811  34.257  30.917  1.00  0.00     0.023 A 
ATOM     88  C   UNL A   1      43.348  33.520  29.837  1.00  0.00     0.031 A 
ATOM     89  C   UNL A   1      43.460  35.451  31.281  1.00  0.00     0.131 A 
ATOM     90  C   UNL A   1      44.491  33.995  29.163  1.00  0.00     0.055 A 
ATOM     91  C   UNL A   1      44.576  35.927  30.600  1.00  0.00     0.041 A 
ATOM     92  F   UNL A   1      42.973  36.210  32.278  1.00  0.00    -0.206 F 
ATOM     93  C   UNL A   1      45.098  35.199  29.537  1.00  0.00     0.022 A 
BRANCH  90  94
ATOM     94  S   UNL A   1      45.201  33.062  27.767  1.00  0.00     0.124 S 
ATOM     95  O   UNL A   1      46.560  32.775  28.208  1.00  0.00    -0.237 OA
ATOM     96  O   UNL A   1      44.304  31.914  27.661  1.00  0.00    -0.237 OA
ATOM     97  O   UNL A   1      45.112  34.003  26.647  1.00  0.00    -0.744 OA
ENDBRANCH  90  94
ENDBRANCH  64  87
ENDBRANCH  38  39
ENDBRANCH  31  33
ENDBRANCH  30  31
ENDBRANCH   1  30
TORSDOF 18
ENDMDL
