MODEL 1
REMARK VINA RESULT:     -10.2      0.000      0.000
REMARK SMILES CCc1cccc2c3c([nH]c12)[C@](CC)(CC(=O)OCCOC(=O)c1ccc(-c2c4nc(c(-c5cc(S(=O)(=O)[O-])ccc5F)c5ccc([nH]5)c(-c5cc(S(=O)(=O)[O-])ccc5F)c5nc(c(-c6cc(S(=O)(=O)[O-])ccc6F)c6ccc2[nH]6)C=C5)C=C4)cc1)OCC3
REMARK SMILES IDX 20 1 19 2 18 3 16 4 17 5 15 6 12 7 3 8 4 9 11 10 5 11 7 12
REMARK SMILES IDX 10 13 6 14 8 15 9 16 89 18 88 19 87 20 2 21 1 22 13 23 14 24
REMARK SMILES IDX 21 25 22 26 23 27 24 28 25 29 86 30 26 31 85 32 27 33 28 34
REMARK SMILES IDX 29 35 79 36 30 37 84 38 78 39 80 40 31 41 83 42 77 43 76 44
REMARK SMILES IDX 32 46 64 47 44 48 63 49 45 50 48 51 62 52 81 53 46 54 47 55
REMARK SMILES IDX 61 57 82 58 49 59 33 60 34 61 42 62 35 63 41 64 43 65 40 66
REMARK SMILES IDX 36 67 37 68 38 69 39 70 65 71 66 72 74 73 67 74 73 75 75 76
REMARK SMILES IDX 72 77 68 78 69 79 70 80 71 81 50 82 51 83 59 84 52 85 58 86
REMARK SMILES IDX 60 87 57 88 53 89 54 90 55 91 56 92
REMARK H PARENT 10 17 80 45 48 56
REMARK Flexibility Score: inf
ROOT
ATOM      1  C   UNL A   1      34.205  34.535  29.489  1.00  0.00     0.275 C 
ENDROOT
BRANCH   1   2
ATOM      2  C   UNL A   1      33.787  35.070  30.860  1.00  0.00     0.274 C 
BRANCH   2   3
ATOM      3  O   UNL A   1      34.339  34.246  31.917  1.00  0.00    -0.462 OA
BRANCH   3   4
ATOM      4  C   UNL A   1      34.971  34.899  32.915  1.00  0.00     0.309 C 
ATOM      5  O   UNL A   1      35.126  36.118  32.928  1.00  0.00    -0.252 OA
BRANCH   4   6
ATOM      6  C   UNL A   1      35.615  34.049  33.988  1.00  0.00     0.164 C 
BRANCH   6   7
ATOM      7  C   UNL A   1      36.782  33.046  33.862  1.00  0.00     0.118 C 
ATOM      8  C   UNL A   1      40.992  34.408  31.341  1.00  0.00    -0.024 A 
ATOM      9  C   UNL A   1      42.205  34.979  31.786  1.00  0.00     0.006 A 
ATOM     10  C   UNL A   1      40.040  34.115  32.348  1.00  0.00     0.049 A 
ATOM     11  C   UNL A   1      42.476  35.189  33.135  1.00  0.00     0.001 A 
ATOM     12  C   UNL A   1      40.291  34.321  33.709  1.00  0.00     0.003 A 
ATOM     13  N   UNL A   1      38.755  33.602  32.266  1.00  0.00    -0.356 N 
ATOM     14  C   UNL A   1      41.536  34.843  34.105  1.00  0.00     0.010 A 
ATOM     15  C   UNL A   1      39.135  33.890  34.421  1.00  0.00    -0.014 A 
ATOM     16  C   UNL A   1      38.156  33.566  33.507  1.00  0.00     0.052 A 
ATOM     17  H   UNL A   1      38.327  33.302  31.431  1.00  0.00     0.166 HD
ATOM     18  C   UNL A   1      38.927  33.701  35.877  1.00  0.00     0.066 C 
ATOM     19  C   UNL A   1      37.552  33.073  36.185  1.00  0.00     0.166 C 
ATOM     20  O   UNL A   1      36.969  32.321  35.109  1.00  0.00    -0.368 OA
BRANCH   8  21
ATOM     21  C   UNL A   1      40.785  34.191  29.859  1.00  0.00     0.034 C 
ATOM     22  C   UNL A   1      41.392  35.299  29.002  1.00  0.00     0.009 C 
ENDBRANCH   8  21
BRANCH   7  23
ATOM     23  C   UNL A   1      36.365  31.957  32.815  1.00  0.00     0.039 C 
ATOM     24  C   UNL A   1      37.136  30.640  32.899  1.00  0.00     0.007 C 
ENDBRANCH   7  23
ENDBRANCH   6   7
ENDBRANCH   4   6
ENDBRANCH   3   4
ENDBRANCH   2   3
ENDBRANCH   1   2
BRANCH   1  25
ATOM     25  O   UNL A   1      35.059  33.401  29.684  1.00  0.00    -0.458 OA
BRANCH  25  26
ATOM     26  C   UNL A   1      34.772  32.313  28.927  1.00  0.00     0.338 C 
ATOM     27  O   UNL A   1      33.748  32.114  28.302  1.00  0.00    -0.246 OA
BRANCH  26  28
ATOM     28  C   UNL A   1      36.050  31.598  28.742  1.00  0.00     0.060 A 
ATOM     29  C   UNL A   1      36.070  30.253  28.387  1.00  0.00     0.016 A 
ATOM     30  C   UNL A   1      37.217  32.237  29.172  1.00  0.00     0.016 A 
ATOM     31  C   UNL A   1      37.228  29.521  28.600  1.00  0.00     0.010 A 
ATOM     32  C   UNL A   1      38.369  31.502  29.414  1.00  0.00     0.010 A 
ATOM     33  C   UNL A   1      38.355  30.131  29.176  1.00  0.00    -0.014 A 
BRANCH  33  34
ATOM     34  C   UNL A   1      39.576  29.341  29.229  1.00  0.00     0.031 A 
ATOM     35  C   UNL A   1      39.905  28.929  30.610  1.00  0.00     0.074 A 
ATOM     36  C   UNL A   1      40.384  28.961  28.224  1.00  0.00     0.049 A 
ATOM     37  N   UNL A   1      40.735  29.507  31.410  1.00  0.00    -0.248 NA
ATOM     38  C   UNL A   1      39.082  27.883  31.224  1.00  0.00     0.031 C 
ATOM     39  C   UNL A   1      40.140  28.939  26.784  1.00  0.00     0.029 A 
ATOM     40  N   UNL A   1      41.640  28.441  28.339  1.00  0.00    -0.354 N 
ATOM     41  C   UNL A   1      40.672  28.788  32.596  1.00  0.00     0.074 A 
ATOM     42  C   UNL A   1      39.515  27.932  32.483  1.00  0.00     0.031 C 
ATOM     43  C   UNL A   1      41.140  28.247  26.178  1.00  0.00     0.029 A 
ATOM     44  C   UNL A   1      42.167  27.934  27.163  1.00  0.00     0.049 A 
ATOM     45  H   UNL A   1      42.133  28.426  29.191  1.00  0.00     0.167 HD
ATOM     46  C   UNL A   1      41.689  28.811  33.501  1.00  0.00     0.034 A 
ATOM     47  C   UNL A   1      43.342  27.271  27.038  1.00  0.00     0.034 A 
ATOM     48  C   UNL A   1      42.629  29.861  33.210  1.00  0.00     0.049 A 
ATOM     49  C   UNL A   1      44.203  27.604  28.200  1.00  0.00     0.074 A 
ATOM     50  C   UNL A   1      42.574  31.239  33.169  1.00  0.00     0.029 A 
ATOM     51  N   UNL A   1      43.773  29.505  32.537  1.00  0.00    -0.354 N 
ATOM     52  N   UNL A   1      44.782  28.755  28.388  1.00  0.00    -0.248 NA
ATOM     53  C   UNL A   1      44.154  26.736  29.366  1.00  0.00     0.031 C 
ATOM     54  C   UNL A   1      43.460  31.623  32.121  1.00  0.00     0.029 A 
ATOM     55  C   UNL A   1      44.035  30.463  31.593  1.00  0.00     0.049 A 
ATOM     56  H   UNL A   1      44.313  28.700  32.706  1.00  0.00     0.167 HD
ATOM     57  C   UNL A   1      44.745  28.942  29.759  1.00  0.00     0.074 A 
ATOM     58  C   UNL A   1      44.496  27.615  30.311  1.00  0.00     0.031 C 
ATOM     59  C   UNL A   1      44.639  30.192  30.300  1.00  0.00     0.034 A 
BRANCH  46  60
ATOM     60  C   UNL A   1      41.999  27.673  34.438  1.00  0.00     0.023 A 
ATOM     61  C   UNL A   1      42.764  26.555  34.056  1.00  0.00     0.031 A 
ATOM     62  C   UNL A   1      41.714  27.776  35.814  1.00  0.00     0.131 A 
ATOM     63  C   UNL A   1      43.181  25.591  34.979  1.00  0.00     0.055 A 
ATOM     64  C   UNL A   1      42.195  26.855  36.751  1.00  0.00     0.041 A 
ATOM     65  F   UNL A   1      41.007  28.810  36.297  1.00  0.00    -0.206 F 
ATOM     66  C   UNL A   1      42.930  25.751  36.336  1.00  0.00     0.022 A 
BRANCH  63  67
ATOM     67  S   UNL A   1      44.068  24.115  34.411  1.00  0.00     0.124 S 
ATOM     68  O   UNL A   1      45.335  24.234  35.123  1.00  0.00    -0.237 OA
ATOM     69  O   UNL A   1      43.183  23.045  34.865  1.00  0.00    -0.237 OA
ATOM     70  O   UNL A   1      44.130  24.289  32.963  1.00  0.00    -0.744 OA
ENDBRANCH  63  67
ENDBRANCH  46  60
BRANCH  47  71
ATOM     71  C   UNL A   1      43.627  26.073  26.217  1.00  0.00     0.023 A 
ATOM     72  C   UNL A   1      42.854  24.914  26.401  1.00  0.00     0.031 A 
ATOM     73  C   UNL A   1      44.852  25.937  25.538  1.00  0.00     0.131 A 
ATOM     74  C   UNL A   1      43.341  23.667  25.987  1.00  0.00     0.055 A 
ATOM     75  C   UNL A   1      45.328  24.694  25.109  1.00  0.00     0.041 A 
ATOM     76  F   UNL A   1      45.652  27.000  25.355  1.00  0.00    -0.206 F 
ATOM     77  C   UNL A   1      44.579  23.547  25.350  1.00  0.00     0.022 A 
BRANCH  74  78
ATOM     78  S   UNL A   1      42.410  22.156  26.357  1.00  0.00     0.124 S 
ATOM     79  O   UNL A   1      42.960  21.207  25.392  1.00  0.00    -0.237 OA
ATOM     80  O   UNL A   1      42.773  21.918  27.749  1.00  0.00    -0.237 OA
ATOM     81  O   UNL A   1      41.023  22.545  26.119  1.00  0.00    -0.744 OA
ENDBRANCH  74  78
ENDBRANCH  47  71
BRANCH  59  82
ATOM     82  C   UNL A   1      44.926  31.392  29.421  1.00  0.00     0.023 A 
ATOM     83  C   UNL A   1      46.213  31.959  29.507  1.00  0.00     0.031 A 
ATOM     84  C   UNL A   1      43.966  32.086  28.659  1.00  0.00     0.131 A 
ATOM     85  C   UNL A   1      46.500  33.175  28.874  1.00  0.00     0.055 A 
ATOM     86  C   UNL A   1      44.279  33.260  27.965  1.00  0.00     0.041 A 
ATOM     87  F   UNL A   1      42.682  31.699  28.623  1.00  0.00    -0.206 F 
ATOM     88  C   UNL A   1      45.547  33.819  28.083  1.00  0.00     0.022 A 
BRANCH  85  89
ATOM     89  S   UNL A   1      48.068  34.025  29.192  1.00  0.00     0.124 S 
ATOM     90  O   UNL A   1      49.017  32.917  29.236  1.00  0.00    -0.237 OA
ATOM     91  O   UNL A   1      48.188  34.905  28.030  1.00  0.00    -0.237 OA
ATOM     92  O   UNL A   1      47.848  34.711  30.462  1.00  0.00    -0.744 OA
ENDBRANCH  85  89
ENDBRANCH  59  82
ENDBRANCH  33  34
ENDBRANCH  26  28
ENDBRANCH  25  26
ENDBRANCH   1  25
TORSDOF 17
ENDMDL
MODEL 2
REMARK VINA RESULT:      -9.9      4.484     10.776
REMARK SMILES CCc1cccc2c3c([nH]c12)[C@](CC)(CC(=O)OCCOC(=O)c1ccc(-c2c4nc(c(-c5cc(S(=O)(=O)[O-])ccc5F)c5ccc([nH]5)c(-c5cc(S(=O)(=O)[O-])ccc5F)c5nc(c(-c6cc(S(=O)(=O)[O-])ccc6F)c6ccc2[nH]6)C=C5)C=C4)cc1)OCC3
REMARK SMILES IDX 20 1 19 2 18 3 16 4 17 5 15 6 12 7 3 8 4 9 11 10 5 11 7 12
REMARK SMILES IDX 10 13 6 14 8 15 9 16 89 18 88 19 87 20 2 21 1 22 13 23 14 24
REMARK SMILES IDX 21 25 22 26 23 27 24 28 25 29 86 30 26 31 85 32 27 33 28 34
REMARK SMILES IDX 29 35 79 36 30 37 84 38 78 39 80 40 31 41 83 42 77 43 76 44
REMARK SMILES IDX 32 46 64 47 44 48 63 49 45 50 48 51 62 52 81 53 46 54 47 55
REMARK SMILES IDX 61 57 82 58 49 59 33 60 34 61 42 62 35 63 41 64 43 65 40 66
REMARK SMILES IDX 36 67 37 68 38 69 39 70 65 71 66 72 74 73 67 74 73 75 75 76
REMARK SMILES IDX 72 77 68 78 69 79 70 80 71 81 50 82 51 83 59 84 52 85 58 86
REMARK SMILES IDX 60 87 57 88 53 89 54 90 55 91 56 92
REMARK H PARENT 10 17 80 45 48 56
REMARK Flexibility Score: inf
ROOT
ATOM      1  C   UNL A   1      38.912  21.080  25.642  1.00  0.00     0.275 C 
ENDROOT
BRANCH   1   2
ATOM      2  C   UNL A   1      37.686  21.584  24.879  1.00  0.00     0.274 C 
BRANCH   2   3
ATOM      3  O   UNL A   1      36.470  21.262  25.601  1.00  0.00    -0.462 OA
BRANCH   3   4
ATOM      4  C   UNL A   1      35.605  22.279  25.796  1.00  0.00     0.309 C 
ATOM      5  O   UNL A   1      35.957  23.402  26.150  1.00  0.00    -0.252 OA
BRANCH   4   6
ATOM      6  C   UNL A   1      34.131  21.953  25.686  1.00  0.00     0.164 C 
BRANCH   6   7
ATOM      7  C   UNL A   1      32.933  22.915  25.537  1.00  0.00     0.118 C 
ATOM      8  C   UNL A   1      33.740  27.943  25.558  1.00  0.00    -0.024 A 
ATOM      9  C   UNL A   1      33.951  28.861  24.505  1.00  0.00     0.006 A 
ATOM     10  C   UNL A   1      33.500  26.602  25.172  1.00  0.00     0.049 A 
ATOM     11  C   UNL A   1      33.870  28.487  23.168  1.00  0.00     0.001 A 
ATOM     12  C   UNL A   1      33.418  26.204  23.833  1.00  0.00     0.003 A 
ATOM     13  N   UNL A   1      33.301  25.457  25.928  1.00  0.00    -0.356 N 
ATOM     14  C   UNL A   1      33.583  27.167  22.820  1.00  0.00     0.010 A 
ATOM     15  C   UNL A   1      33.139  24.808  23.824  1.00  0.00    -0.014 A 
ATOM     16  C   UNL A   1      33.192  24.345  25.121  1.00  0.00     0.052 A 
ATOM     17  H   UNL A   1      33.244  25.441  26.911  1.00  0.00     0.166 HD
ATOM     18  C   UNL A   1      32.761  23.918  22.700  1.00  0.00     0.066 C 
ATOM     19  C   UNL A   1      32.406  22.497  23.185  1.00  0.00     0.166 C 
ATOM     20  O   UNL A   1      31.988  22.406  24.555  1.00  0.00    -0.368 OA
BRANCH   8  21
ATOM     21  C   UNL A   1      33.822  28.435  26.986  1.00  0.00     0.034 C 
ATOM     22  C   UNL A   1      35.030  29.333  27.242  1.00  0.00     0.009 C 
ENDBRANCH   8  21
BRANCH   7  23
ATOM     23  C   UNL A   1      32.150  22.916  26.895  1.00  0.00     0.039 C 
ATOM     24  C   UNL A   1      32.898  22.311  28.083  1.00  0.00     0.007 C 
ENDBRANCH   7  23
ENDBRANCH   6   7
ENDBRANCH   4   6
ENDBRANCH   3   4
ENDBRANCH   2   3
ENDBRANCH   1   2
BRANCH   1  25
ATOM     25  O   UNL A   1      39.271  22.058  26.625  1.00  0.00    -0.458 OA
BRANCH  25  26
ATOM     26  C   UNL A   1      40.601  22.270  26.784  1.00  0.00     0.338 C 
ATOM     27  O   UNL A   1      41.498  21.497  26.502  1.00  0.00    -0.246 OA
BRANCH  26  28
ATOM     28  C   UNL A   1      40.755  23.716  27.038  1.00  0.00     0.060 A 
ATOM     29  C   UNL A   1      41.686  24.182  27.962  1.00  0.00     0.016 A 
ATOM     30  C   UNL A   1      39.781  24.571  26.517  1.00  0.00     0.016 A 
ATOM     31  C   UNL A   1      41.546  25.468  28.462  1.00  0.00     0.010 A 
ATOM     32  C   UNL A   1      39.619  25.848  27.037  1.00  0.00     0.010 A 
ATOM     33  C   UNL A   1      40.473  26.275  28.050  1.00  0.00    -0.014 A 
BRANCH  33  34
ATOM     34  C   UNL A   1      40.478  27.658  28.503  1.00  0.00     0.031 A 
ATOM     35  C   UNL A   1      41.654  28.397  27.999  1.00  0.00     0.074 A 
ATOM     36  C   UNL A   1      39.584  28.301  29.275  1.00  0.00     0.049 A 
ATOM     37  N   UNL A   1      42.756  28.619  28.632  1.00  0.00    -0.248 NA
ATOM     38  C   UNL A   1      41.677  28.757  26.578  1.00  0.00     0.031 C 
ATOM     39  C   UNL A   1      38.215  27.933  29.625  1.00  0.00     0.029 A 
ATOM     40  N   UNL A   1      39.750  29.513  29.879  1.00  0.00    -0.354 N 
ATOM     41  C   UNL A   1      43.566  29.307  27.741  1.00  0.00     0.074 A 
ATOM     42  C   UNL A   1      42.928  29.196  26.451  1.00  0.00     0.031 C 
ATOM     43  C   UNL A   1      37.610  28.997  30.216  1.00  0.00     0.029 A 
ATOM     44  C   UNL A   1      38.599  30.044  30.436  1.00  0.00     0.049 A 
ATOM     45  H   UNL A   1      40.619  29.974  29.915  1.00  0.00     0.167 HD
ATOM     46  C   UNL A   1      44.601  30.083  28.168  1.00  0.00     0.034 A 
ATOM     47  C   UNL A   1      38.478  31.275  30.992  1.00  0.00     0.034 A 
ATOM     48  C   UNL A   1      44.898  29.846  29.556  1.00  0.00     0.049 A 
ATOM     49  C   UNL A   1      39.828  31.757  31.376  1.00  0.00     0.074 A 
ATOM     50  C   UNL A   1      45.345  28.767  30.291  1.00  0.00     0.029 A 
ATOM     51  N   UNL A   1      44.383  30.739  30.465  1.00  0.00    -0.354 N 
ATOM     52  N   UNL A   1      40.527  31.290  32.371  1.00  0.00    -0.248 NA
ATOM     53  C   UNL A   1      40.570  32.565  30.421  1.00  0.00     0.031 C 
ATOM     54  C   UNL A   1      44.701  28.878  31.557  1.00  0.00     0.029 A 
ATOM     55  C   UNL A   1      43.917  30.035  31.545  1.00  0.00     0.049 A 
ATOM     56  H   UNL A   1      44.354  31.717  30.359  1.00  0.00     0.167 HD
ATOM     57  C   UNL A   1      41.838  31.343  31.928  1.00  0.00     0.074 A 
ATOM     58  C   UNL A   1      41.815  32.271  30.803  1.00  0.00     0.031 C 
ATOM     59  C   UNL A   1      42.759  30.420  32.333  1.00  0.00     0.034 A 
BRANCH  46  60
ATOM     60  C   UNL A   1      45.108  31.287  27.417  1.00  0.00     0.023 A 
ATOM     61  C   UNL A   1      44.346  32.458  27.247  1.00  0.00     0.031 A 
ATOM     62  C   UNL A   1      46.460  31.376  27.030  1.00  0.00     0.131 A 
ATOM     63  C   UNL A   1      44.890  33.622  26.694  1.00  0.00     0.055 A 
ATOM     64  C   UNL A   1      47.026  32.562  26.548  1.00  0.00     0.041 A 
ATOM     65  F   UNL A   1      47.287  30.327  27.163  1.00  0.00    -0.206 F 
ATOM     66  C   UNL A   1      46.239  33.694  26.373  1.00  0.00     0.022 A 
BRANCH  63  67
ATOM     67  S   UNL A   1      43.832  35.064  26.396  1.00  0.00     0.124 S 
ATOM     68  O   UNL A   1      44.793  36.159  26.450  1.00  0.00    -0.237 OA
ATOM     69  O   UNL A   1      43.287  34.762  25.074  1.00  0.00    -0.237 OA
ATOM     70  O   UNL A   1      42.863  35.010  27.487  1.00  0.00    -0.744 OA
ENDBRANCH  63  67
ENDBRANCH  46  60
BRANCH  47  71
ATOM     71  C   UNL A   1      37.356  32.228  30.853  1.00  0.00     0.023 A 
ATOM     72  C   UNL A   1      36.698  32.689  32.005  1.00  0.00     0.031 A 
ATOM     73  C   UNL A   1      36.702  32.399  29.617  1.00  0.00     0.131 A 
ATOM     74  C   UNL A   1      35.404  33.221  31.915  1.00  0.00     0.055 A 
ATOM     75  C   UNL A   1      35.419  32.948  29.528  1.00  0.00     0.041 A 
ATOM     76  F   UNL A   1      37.264  31.955  28.482  1.00  0.00    -0.206 F 
ATOM     77  C   UNL A   1      34.756  33.346  30.684  1.00  0.00     0.022 A 
BRANCH  74  78
ATOM     78  S   UNL A   1      34.499  33.677  33.418  1.00  0.00     0.124 S 
ATOM     79  O   UNL A   1      35.327  33.091  34.469  1.00  0.00    -0.237 OA
ATOM     80  O   UNL A   1      34.515  35.133  33.343  1.00  0.00    -0.237 OA
ATOM     81  O   UNL A   1      33.196  33.044  33.235  1.00  0.00    -0.744 OA
ENDBRANCH  74  78
ENDBRANCH  47  71
BRANCH  59  82
ATOM     82  C   UNL A   1      42.445  29.559  33.541  1.00  0.00     0.023 A 
ATOM     83  C   UNL A   1      43.173  29.816  34.720  1.00  0.00     0.031 A 
ATOM     84  C   UNL A   1      41.615  28.422  33.530  1.00  0.00     0.131 A 
ATOM     85  C   UNL A   1      43.080  28.951  35.817  1.00  0.00     0.055 A 
ATOM     86  C   UNL A   1      41.466  27.604  34.656  1.00  0.00     0.041 A 
ATOM     87  F   UNL A   1      40.984  28.020  32.417  1.00  0.00    -0.206 F 
ATOM     88  C   UNL A   1      42.212  27.858  35.802  1.00  0.00     0.022 A 
BRANCH  85  89
ATOM     89  S   UNL A   1      44.200  29.139  37.229  1.00  0.00     0.124 S 
ATOM     90  O   UNL A   1      45.486  29.363  36.575  1.00  0.00    -0.237 OA
ATOM     91  O   UNL A   1      43.640  30.299  37.920  1.00  0.00    -0.237 OA
ATOM     92  O   UNL A   1      44.077  27.875  37.950  1.00  0.00    -0.744 OA
ENDBRANCH  85  89
ENDBRANCH  59  82
ENDBRANCH  33  34
ENDBRANCH  26  28
ENDBRANCH  25  26
ENDBRANCH   1  25
TORSDOF 17
ENDMDL
MODEL 3
REMARK VINA RESULT:      -9.8      3.775      6.798
REMARK SMILES CCc1cccc2c3c([nH]c12)[C@](CC)(CC(=O)OCCOC(=O)c1ccc(-c2c4nc(c(-c5cc(S(=O)(=O)[O-])ccc5F)c5ccc([nH]5)c(-c5cc(S(=O)(=O)[O-])ccc5F)c5nc(c(-c6cc(S(=O)(=O)[O-])ccc6F)c6ccc2[nH]6)C=C5)C=C4)cc1)OCC3
REMARK SMILES IDX 20 1 19 2 18 3 16 4 17 5 15 6 12 7 3 8 4 9 11 10 5 11 7 12
REMARK SMILES IDX 10 13 6 14 8 15 9 16 89 18 88 19 87 20 2 21 1 22 13 23 14 24
REMARK SMILES IDX 21 25 22 26 23 27 24 28 25 29 86 30 26 31 85 32 27 33 28 34
REMARK SMILES IDX 29 35 79 36 30 37 84 38 78 39 80 40 31 41 83 42 77 43 76 44
REMARK SMILES IDX 32 46 64 47 44 48 63 49 45 50 48 51 62 52 81 53 46 54 47 55
REMARK SMILES IDX 61 57 82 58 49 59 33 60 34 61 42 62 35 63 41 64 43 65 40 66
REMARK SMILES IDX 36 67 37 68 38 69 39 70 65 71 66 72 74 73 67 74 73 75 75 76
REMARK SMILES IDX 72 77 68 78 69 79 70 80 71 81 50 82 51 83 59 84 52 85 58 86
REMARK SMILES IDX 60 87 57 88 53 89 54 90 55 91 56 92
REMARK H PARENT 10 17 80 45 48 56
REMARK Flexibility Score: inf
ROOT
ATOM      1  C   UNL A   1      33.112  31.801  27.437  1.00  0.00     0.275 C 
ENDROOT
BRANCH   1   2
ATOM      2  C   UNL A   1      32.932  30.505  26.645  1.00  0.00     0.274 C 
BRANCH   2   3
ATOM      3  O   UNL A   1      31.688  30.531  25.902  1.00  0.00    -0.462 OA
BRANCH   3   4
ATOM      4  C   UNL A   1      31.476  29.503  25.054  1.00  0.00     0.309 C 
ATOM      5  O   UNL A   1      30.578  29.499  24.214  1.00  0.00    -0.252 OA
BRANCH   4   6
ATOM      6  C   UNL A   1      32.319  28.263  25.258  1.00  0.00     0.164 C 
BRANCH   6   7
ATOM      7  C   UNL A   1      32.300  26.937  24.469  1.00  0.00     0.118 C 
ATOM      8  C   UNL A   1      35.588  23.246  25.695  1.00  0.00    -0.024 A 
ATOM      9  C   UNL A   1      35.468  22.138  26.563  1.00  0.00     0.006 A 
ATOM     10  C   UNL A   1      34.432  24.054  25.561  1.00  0.00     0.049 A 
ATOM     11  C   UNL A   1      34.274  21.821  27.203  1.00  0.00     0.001 A 
ATOM     12  C   UNL A   1      33.223  23.756  26.198  1.00  0.00     0.003 A 
ATOM     13  N   UNL A   1      34.214  25.220  24.843  1.00  0.00    -0.356 N 
ATOM     14  C   UNL A   1      33.140  22.610  27.011  1.00  0.00     0.010 A 
ATOM     15  C   UNL A   1      32.286  24.757  25.814  1.00  0.00    -0.014 A 
ATOM     16  C   UNL A   1      32.949  25.715  25.078  1.00  0.00     0.052 A 
ATOM     17  H   UNL A   1      34.874  25.638  24.244  1.00  0.00     0.166 HD
ATOM     18  C   UNL A   1      30.821  24.826  26.031  1.00  0.00     0.066 C 
ATOM     19  C   UNL A   1      30.187  26.031  25.306  1.00  0.00     0.166 C 
ATOM     20  O   UNL A   1      30.933  26.530  24.185  1.00  0.00    -0.368 OA
BRANCH   8  21
ATOM     21  C   UNL A   1      36.915  23.508  25.020  1.00  0.00     0.034 C 
ATOM     22  C   UNL A   1      38.079  23.600  26.003  1.00  0.00     0.009 C 
ENDBRANCH   8  21
BRANCH   7  23
ATOM     23  C   UNL A   1      32.945  27.207  23.066  1.00  0.00     0.039 C 
ATOM     24  C   UNL A   1      32.414  26.342  21.923  1.00  0.00     0.007 C 
ENDBRANCH   7  23
ENDBRANCH   6   7
ENDBRANCH   4   6
ENDBRANCH   3   4
ENDBRANCH   2   3
ENDBRANCH   1   2
BRANCH   1  25
ATOM     25  O   UNL A   1      34.170  31.614  28.385  1.00  0.00    -0.458 OA
BRANCH  25  26
ATOM     26  C   UNL A   1      35.371  32.134  28.033  1.00  0.00     0.338 C 
ATOM     27  O   UNL A   1      35.583  33.261  27.626  1.00  0.00    -0.246 OA
BRANCH  26  28
ATOM     28  C   UNL A   1      36.388  31.199  28.553  1.00  0.00     0.060 A 
ATOM     29  C   UNL A   1      37.620  31.662  29.005  1.00  0.00     0.016 A 
ATOM     30  C   UNL A   1      36.174  29.833  28.346  1.00  0.00     0.016 A 
ATOM     31  C   UNL A   1      38.673  30.767  29.112  1.00  0.00     0.010 A 
ATOM     32  C   UNL A   1      37.234  28.939  28.424  1.00  0.00     0.010 A 
ATOM     33  C   UNL A   1      38.497  29.419  28.757  1.00  0.00    -0.014 A 
BRANCH  33  34
ATOM     34  C   UNL A   1      39.601  28.515  29.038  1.00  0.00     0.031 A 
ATOM     35  C   UNL A   1      39.953  28.507  30.473  1.00  0.00     0.074 A 
ATOM     36  C   UNL A   1      40.290  27.729  28.192  1.00  0.00     0.049 A 
ATOM     37  N   UNL A   1      40.900  29.176  31.040  1.00  0.00    -0.248 NA
ATOM     38  C   UNL A   1      39.035  27.834  31.398  1.00  0.00     0.031 C 
ATOM     39  C   UNL A   1      39.960  27.298  26.836  1.00  0.00     0.029 A 
ATOM     40  N   UNL A   1      41.469  27.091  28.447  1.00  0.00    -0.354 N 
ATOM     41  C   UNL A   1      40.810  28.877  32.392  1.00  0.00     0.074 A 
ATOM     42  C   UNL A   1      39.545  28.207  32.571  1.00  0.00     0.031 C 
ATOM     43  C   UNL A   1      40.819  26.314  26.465  1.00  0.00     0.029 A 
ATOM     44  C   UNL A   1      41.852  26.175  27.484  1.00  0.00     0.049 A 
ATOM     45  H   UNL A   1      42.005  27.269  29.254  1.00  0.00     0.167 HD
ATOM     46  C   UNL A   1      41.874  29.029  33.229  1.00  0.00     0.034 A 
ATOM     47  C   UNL A   1      42.918  25.340  27.556  1.00  0.00     0.034 A 
ATOM     48  C   UNL A   1      42.927  29.788  32.609  1.00  0.00     0.049 A 
ATOM     49  C   UNL A   1      43.883  25.887  28.542  1.00  0.00     0.074 A 
ATOM     50  C   UNL A   1      43.057  31.079  32.137  1.00  0.00     0.029 A 
ATOM     51  N   UNL A   1      43.971  29.078  32.067  1.00  0.00    -0.354 N 
ATOM     52  N   UNL A   1      44.622  26.942  28.350  1.00  0.00    -0.248 NA
ATOM     53  C   UNL A   1      43.787  25.439  29.923  1.00  0.00     0.031 C 
ATOM     54  C   UNL A   1      43.922  30.984  31.009  1.00  0.00     0.029 A 
ATOM     55  C   UNL A   1      44.303  29.647  30.865  1.00  0.00     0.049 A 
ATOM     56  H   UNL A   1      44.407  28.295  32.473  1.00  0.00     0.167 HD
ATOM     57  C   UNL A   1      44.692  27.547  29.593  1.00  0.00     0.074 A 
ATOM     58  C   UNL A   1      44.300  26.507  30.538  1.00  0.00     0.031 C 
ATOM     59  C   UNL A   1      44.787  28.904  29.715  1.00  0.00     0.034 A 
BRANCH  46  60
ATOM     60  C   UNL A   1      42.083  28.204  34.473  1.00  0.00     0.023 A 
ATOM     61  C   UNL A   1      42.410  26.836  34.435  1.00  0.00     0.031 A 
ATOM     62  C   UNL A   1      42.170  28.819  35.737  1.00  0.00     0.131 A 
ATOM     63  C   UNL A   1      42.762  26.127  35.588  1.00  0.00     0.055 A 
ATOM     64  C   UNL A   1      42.596  28.131  36.879  1.00  0.00     0.041 A 
ATOM     65  F   UNL A   1      41.898  30.125  35.891  1.00  0.00    -0.206 F 
ATOM     66  C   UNL A   1      42.892  26.774  36.810  1.00  0.00     0.022 A 
BRANCH  63  67
ATOM     67  S   UNL A   1      43.065  24.341  35.497  1.00  0.00     0.124 S 
ATOM     68  O   UNL A   1      43.782  24.222  34.233  1.00  0.00    -0.237 OA
ATOM     69  O   UNL A   1      43.859  24.114  36.702  1.00  0.00    -0.237 OA
ATOM     70  O   UNL A   1      41.724  23.764  35.527  1.00  0.00    -0.744 OA
ENDBRANCH  63  67
ENDBRANCH  46  60
BRANCH  47  71
ATOM     71  C   UNL A   1      42.989  23.919  27.151  1.00  0.00     0.023 A 
ATOM     72  C   UNL A   1      44.038  23.493  26.319  1.00  0.00     0.031 A 
ATOM     73  C   UNL A   1      41.865  23.079  27.265  1.00  0.00     0.131 A 
ATOM     74  C   UNL A   1      43.914  22.310  25.576  1.00  0.00     0.055 A 
ATOM     75  C   UNL A   1      41.752  21.890  26.537  1.00  0.00     0.041 A 
ATOM     76  F   UNL A   1      40.816  23.441  28.021  1.00  0.00    -0.206 F 
ATOM     77  C   UNL A   1      42.773  21.510  25.672  1.00  0.00     0.022 A 
BRANCH  74  78
ATOM     78  S   UNL A   1      45.203  21.839  24.392  1.00  0.00     0.124 S 
ATOM     79  O   UNL A   1      45.246  22.996  23.502  1.00  0.00    -0.237 OA
ATOM     80  O   UNL A   1      46.360  21.673  25.264  1.00  0.00    -0.237 OA
ATOM     81  O   UNL A   1      44.680  20.616  23.789  1.00  0.00    -0.744 OA
ENDBRANCH  74  78
ENDBRANCH  47  71
BRANCH  59  82
ATOM     82  C   UNL A   1      45.181  29.718  28.499  1.00  0.00     0.023 A 
ATOM     83  C   UNL A   1      46.517  30.158  28.424  1.00  0.00     0.031 A 
ATOM     84  C   UNL A   1      44.284  30.211  27.531  1.00  0.00     0.131 A 
ATOM     85  C   UNL A   1      46.914  31.068  27.436  1.00  0.00     0.055 A 
ATOM     86  C   UNL A   1      44.703  31.059  26.498  1.00  0.00     0.041 A 
ATOM     87  F   UNL A   1      42.969  29.957  27.593  1.00  0.00    -0.206 F 
ATOM     88  C   UNL A   1      46.020  31.504  26.456  1.00  0.00     0.022 A 
BRANCH  85  89
ATOM     89  S   UNL A   1      48.559  31.823  27.494  1.00  0.00     0.124 S 
ATOM     90  O   UNL A   1      48.947  31.612  28.886  1.00  0.00    -0.237 OA
ATOM     91  O   UNL A   1      49.301  31.034  26.512  1.00  0.00    -0.237 OA
ATOM     92  O   UNL A   1      48.325  33.214  27.115  1.00  0.00    -0.744 OA
ENDBRANCH  85  89
ENDBRANCH  59  82
ENDBRANCH  33  34
ENDBRANCH  26  28
ENDBRANCH  25  26
ENDBRANCH   1  25
TORSDOF 17
ENDMDL
