MODEL 1
REMARK VINA RESULT:     -11.8      0.000      0.000
REMARK SMILES [NH3+]Cc1c(-c2ccccc2)c(C(=O)OCCOC(=O)c2ccc(-c3c4nc(c(-c5cc(S(=O)(=O)[O-])ccc5F)c5ccc([nH]5)c(-c5cc(S(=O)(=O)[O-])ccc5F)c5nc(c(-c6cc(S(=O)(=O)[O-])ccc6F)c6ccc3[nH]6)C=C5)C=C4)cc2)c2ccccn12
REMARK SMILES IDX 16 1 15 2 14 3 12 4 13 5 11 6 3 7 4 8 88 9 83 10 87 11 84 12
REMARK SMILES IDX 86 13 85 14 2 15 1 16 5 20 6 21 10 22 7 23 9 24 8 25 17 26
REMARK SMILES IDX 18 27 19 28 20 29 21 30 82 31 22 32 81 33 23 34 24 35 25 36
REMARK SMILES IDX 75 37 26 38 80 39 74 40 76 41 27 42 79 43 73 44 72 45 28 47
REMARK SMILES IDX 60 48 40 49 59 50 41 51 44 52 58 53 77 54 42 55 43 56 57 58
REMARK SMILES IDX 78 59 45 60 29 61 30 62 38 63 31 64 37 65 39 66 36 67 32 68
REMARK SMILES IDX 33 69 34 70 35 71 61 72 62 73 70 74 63 75 69 76 71 77 68 78
REMARK SMILES IDX 64 79 65 80 66 81 67 82 46 83 47 84 55 85 48 86 54 87 56 88
REMARK SMILES IDX 53 89 49 90 50 91 51 92 52 93
REMARK H PARENT 1 17 1 18 1 19 76 46 44 57
REMARK Flexibility Score: inf
ROOT
ATOM      1  C   UNL A   1      35.054  20.929  25.804  1.00  0.00     0.275 C 
ENDROOT
BRANCH   1   2
ATOM      2  C   UNL A   1      34.243  21.849  26.710  1.00  0.00     0.275 C 
BRANCH   2   3
ATOM      3  O   UNL A   1      34.554  23.230  26.430  1.00  0.00    -0.458 OA
BRANCH   3   4
ATOM      4  C   UNL A   1      33.478  24.062  26.253  1.00  0.00     0.341 C 
ATOM      5  O   UNL A   1      32.417  23.928  26.852  1.00  0.00    -0.246 OA
BRANCH   4   6
ATOM      6  C   UNL A   1      33.656  25.012  25.159  1.00  0.00     0.093 A 
ATOM      7  C   UNL A   1      33.430  26.841  23.795  1.00  0.00     0.086 A 
ATOM      8  C   UNL A   1      33.680  26.462  25.127  1.00  0.00     0.024 A 
ATOM      9  N   UNL A   1      33.409  25.672  23.012  1.00  0.00    -0.314 N 
ATOM     10  C   UNL A   1      33.593  24.576  23.852  1.00  0.00     0.061 A 
ATOM     11  C   UNL A   1      33.143  25.463  21.644  1.00  0.00     0.092 A 
ATOM     12  C   UNL A   1      33.517  23.256  23.301  1.00  0.00     0.027 A 
ATOM     13  C   UNL A   1      33.030  24.221  21.139  1.00  0.00     0.018 A 
ATOM     14  C   UNL A   1      33.229  23.083  22.003  1.00  0.00     0.004 A 
BRANCH   7  15
ATOM     15  C   UNL A   1      33.171  28.251  23.331  1.00  0.00     0.315 C 
BRANCH  15  16
ATOM     16  N   UNL A   1      34.325  29.039  22.939  1.00  0.00    -0.353 N 
ATOM     17  H   UNL A   1      34.029  29.994  22.732  1.00  0.00     0.344 HD
ATOM     18  H   UNL A   1      34.754  28.627  22.111  1.00  0.00     0.344 HD
ATOM     19  H   UNL A   1      35.002  29.053  23.702  1.00  0.00     0.344 HD
ENDBRANCH  15  16
ENDBRANCH   7  15
BRANCH   8  20
ATOM     20  C   UNL A   1      33.460  27.374  26.288  1.00  0.00    -0.015 A 
ATOM     21  C   UNL A   1      31.857  28.142  26.663  1.00  0.00     0.009 A 
ATOM     22  C   UNL A   1      34.915  28.305  26.629  1.00  0.00     0.009 A 
ATOM     23  C   UNL A   1      31.862  30.066  27.314  1.00  0.00     0.001 A 
ATOM     24  C   UNL A   1      34.916  29.968  27.216  1.00  0.00     0.001 A 
ATOM     25  C   UNL A   1      33.459  30.882  27.527  1.00  0.00     0.000 A 
ENDBRANCH   8  20
ENDBRANCH   4   6
ENDBRANCH   3   4
ENDBRANCH   2   3
ENDBRANCH   1   2
BRANCH   1  26
ATOM     26  O   UNL A   1      36.083  21.699  25.165  1.00  0.00    -0.458 OA
BRANCH  26  27
ATOM     27  C   UNL A   1      37.282  21.091  25.222  1.00  0.00     0.338 C 
ATOM     28  O   UNL A   1      37.530  19.915  25.002  1.00  0.00    -0.246 OA
BRANCH  27  29
ATOM     29  C   UNL A   1      38.347  22.015  25.563  1.00  0.00     0.060 A 
ATOM     30  C   UNL A   1      39.821  21.531  26.485  1.00  0.00     0.016 A 
ATOM     31  C   UNL A   1      37.839  23.693  25.613  1.00  0.00     0.016 A 
ATOM     32  C   UNL A   1      40.774  22.972  27.550  1.00  0.00     0.010 A 
ATOM     33  C   UNL A   1      38.698  24.947  26.504  1.00  0.00     0.010 A 
ATOM     34  C   UNL A   1      40.142  24.671  27.467  1.00  0.00    -0.014 A 
BRANCH  34  35
ATOM     35  C   UNL A   1      40.956  25.883  27.872  1.00  0.00     0.031 A 
ATOM     36  C   UNL A   1      40.447  26.937  28.825  1.00  0.00     0.074 A 
ATOM     37  C   UNL A   1      42.090  26.174  27.201  1.00  0.00     0.049 A 
ATOM     38  N   UNL A   1      40.986  28.094  29.131  1.00  0.00    -0.248 NA
ATOM     39  C   UNL A   1      39.128  26.723  29.427  1.00  0.00     0.031 C 
ATOM     40  C   UNL A   1      42.513  25.480  26.004  1.00  0.00     0.029 A 
ATOM     41  N   UNL A   1      43.090  27.101  27.366  1.00  0.00    -0.354 N 
ATOM     42  C   UNL A   1      40.049  28.774  29.903  1.00  0.00     0.074 A 
ATOM     43  C   UNL A   1      38.892  27.903  29.987  1.00  0.00     0.031 C 
ATOM     44  C   UNL A   1      43.765  25.798  25.676  1.00  0.00     0.029 A 
ATOM     45  C   UNL A   1      44.176  26.892  26.532  1.00  0.00     0.049 A 
ATOM     46  H   UNL A   1      43.039  27.842  28.012  1.00  0.00     0.167 HD
ATOM     47  C   UNL A   1      40.149  30.003  30.477  1.00  0.00     0.034 A 
ATOM     48  C   UNL A   1      45.356  27.530  26.416  1.00  0.00     0.034 A 
ATOM     49  C   UNL A   1      41.330  30.840  30.381  1.00  0.00     0.049 A 
ATOM     50  C   UNL A   1      45.522  28.787  27.211  1.00  0.00     0.074 A 
ATOM     51  C   UNL A   1      41.574  32.069  30.972  1.00  0.00     0.029 A 
ATOM     52  N   UNL A   1      42.470  30.532  29.641  1.00  0.00    -0.354 N 
ATOM     53  N   UNL A   1      44.646  29.376  27.991  1.00  0.00    -0.248 NA
ATOM     54  C   UNL A   1      46.798  29.493  27.079  1.00  0.00     0.031 C 
ATOM     55  C   UNL A   1      42.835  32.520  30.559  1.00  0.00     0.029 A 
ATOM     56  C   UNL A   1      43.414  31.546  29.764  1.00  0.00     0.049 A 
ATOM     57  H   UNL A   1      42.591  29.713  29.109  1.00  0.00     0.167 HD
ATOM     58  C   UNL A   1      45.254  30.543  28.419  1.00  0.00     0.074 A 
ATOM     59  C   UNL A   1      46.595  30.542  27.863  1.00  0.00     0.031 C 
ATOM     60  C   UNL A   1      44.737  31.540  29.179  1.00  0.00     0.034 A 
BRANCH  47  61
ATOM     61  C   UNL A   1      38.941  30.521  31.239  1.00  0.00     0.023 A 
ATOM     62  C   UNL A   1      37.899  31.207  30.588  1.00  0.00     0.031 A 
ATOM     63  C   UNL A   1      38.844  30.370  32.635  1.00  0.00     0.131 A 
ATOM     64  C   UNL A   1      36.873  31.808  31.336  1.00  0.00     0.055 A 
ATOM     65  C   UNL A   1      37.768  30.888  33.364  1.00  0.00     0.041 A 
ATOM     66  F   UNL A   1      39.804  29.735  33.325  1.00  0.00    -0.206 F 
ATOM     67  C   UNL A   1      36.786  31.632  32.717  1.00  0.00     0.022 A 
BRANCH  64  68
ATOM     68  S   UNL A   1      35.758  32.964  30.495  1.00  0.00     0.124 S 
ATOM     69  O   UNL A   1      34.450  32.455  30.898  1.00  0.00    -0.237 OA
ATOM     70  O   UNL A   1      36.145  34.250  31.064  1.00  0.00    -0.237 OA
ATOM     71  O   UNL A   1      36.080  32.786  29.080  1.00  0.00    -0.744 OA
ENDBRANCH  64  68
ENDBRANCH  47  61
BRANCH  48  72
ATOM     72  C   UNL A   1      46.434  27.016  25.517  1.00  0.00     0.023 A 
ATOM     73  C   UNL A   1      46.784  27.727  24.357  1.00  0.00     0.031 A 
ATOM     74  C   UNL A   1      47.145  25.832  25.792  1.00  0.00     0.131 A 
ATOM     75  C   UNL A   1      47.794  27.242  23.509  1.00  0.00     0.055 A 
ATOM     76  C   UNL A   1      48.200  25.395  24.987  1.00  0.00     0.041 A 
ATOM     77  F   UNL A   1      46.850  25.098  26.877  1.00  0.00    -0.206 F 
ATOM     78  C   UNL A   1      48.524  26.097  23.831  1.00  0.00     0.022 A 
BRANCH  75  79
ATOM     79  S   UNL A   1      48.084  28.082  21.927  1.00  0.00     0.124 S 
ATOM     80  O   UNL A   1      46.988  29.046  21.898  1.00  0.00    -0.237 OA
ATOM     81  O   UNL A   1      49.420  28.637  22.114  1.00  0.00    -0.237 OA
ATOM     82  O   UNL A   1      47.990  27.003  20.946  1.00  0.00    -0.744 OA
ENDBRANCH  75  79
ENDBRANCH  48  72
BRANCH  60  83
ATOM     83  C   UNL A   1      45.658  32.697  29.455  1.00  0.00     0.023 A 
ATOM     84  C   UNL A   1      45.707  33.814  28.603  1.00  0.00     0.031 A 
ATOM     85  C   UNL A   1      46.541  32.650  30.546  1.00  0.00     0.131 A 
ATOM     86  C   UNL A   1      46.668  34.812  28.819  1.00  0.00     0.055 A 
ATOM     87  C   UNL A   1      47.454  33.675  30.791  1.00  0.00     0.041 A 
ATOM     88  F   UNL A   1      46.540  31.599  31.381  1.00  0.00    -0.206 F 
ATOM     89  C   UNL A   1      47.531  34.757  29.916  1.00  0.00     0.022 A 
BRANCH  86  90
ATOM     90  S   UNL A   1      46.847  36.129  27.585  1.00  0.00     0.124 S 
ATOM     91  O   UNL A   1      46.367  37.297  28.317  1.00  0.00    -0.237 OA
ATOM     92  O   UNL A   1      48.278  36.100  27.300  1.00  0.00    -0.237 OA
ATOM     93  O   UNL A   1      45.989  35.690  26.487  1.00  0.00    -0.744 OA
ENDBRANCH  86  90
ENDBRANCH  60  83
ENDBRANCH  34  35
ENDBRANCH  27  29
ENDBRANCH  26  27
ENDBRANCH   1  26
TORSDOF 17
ENDMDL
MODEL 2
REMARK VINA RESULT:     -11.7      4.992     10.087
REMARK SMILES [NH3+]Cc1c(-c2ccccc2)c(C(=O)OCCOC(=O)c2ccc(-c3c4nc(c(-c5cc(S(=O)(=O)[O-])ccc5F)c5ccc([nH]5)c(-c5cc(S(=O)(=O)[O-])ccc5F)c5nc(c(-c6cc(S(=O)(=O)[O-])ccc6F)c6ccc3[nH]6)C=C5)C=C4)cc2)c2ccccn12
REMARK SMILES IDX 16 1 15 2 14 3 12 4 13 5 11 6 3 7 4 8 88 9 83 10 87 11 84 12
REMARK SMILES IDX 86 13 85 14 2 15 1 16 5 20 6 21 10 22 7 23 9 24 8 25 17 26
REMARK SMILES IDX 18 27 19 28 20 29 21 30 82 31 22 32 81 33 23 34 24 35 25 36
REMARK SMILES IDX 75 37 26 38 80 39 74 40 76 41 27 42 79 43 73 44 72 45 28 47
REMARK SMILES IDX 60 48 40 49 59 50 41 51 44 52 58 53 77 54 42 55 43 56 57 58
REMARK SMILES IDX 78 59 45 60 29 61 30 62 38 63 31 64 37 65 39 66 36 67 32 68
REMARK SMILES IDX 33 69 34 70 35 71 61 72 62 73 70 74 63 75 69 76 71 77 68 78
REMARK SMILES IDX 64 79 65 80 66 81 67 82 46 83 47 84 55 85 48 86 54 87 56 88
REMARK SMILES IDX 53 89 49 90 50 91 51 92 52 93
REMARK H PARENT 1 17 1 18 1 19 76 46 44 57
REMARK Flexibility Score: inf
ROOT
ATOM      1  C   UNL A   1      31.817  29.326  25.617  1.00  0.00     0.275 C 
ENDROOT
BRANCH   1   2
ATOM      2  C   UNL A   1      31.727  28.297  26.739  1.00  0.00     0.275 C 
BRANCH   2   3
ATOM      3  O   UNL A   1      32.647  27.212  26.500  1.00  0.00    -0.458 OA
BRANCH   3   4
ATOM      4  C   UNL A   1      32.082  25.978  26.308  1.00  0.00     0.341 C 
ATOM      5  O   UNL A   1      31.209  25.516  27.034  1.00  0.00    -0.246 OA
BRANCH   4   6
ATOM      6  C   UNL A   1      32.740  25.197  25.265  1.00  0.00     0.093 A 
ATOM      7  C   UNL A   1      33.116  23.949  23.378  1.00  0.00     0.086 A 
ATOM      8  C   UNL A   1      32.578  25.171  23.824  1.00  0.00     0.024 A 
ATOM      9  N   UNL A   1      33.725  23.320  24.480  1.00  0.00    -0.314 N 
ATOM     10  C   UNL A   1      33.524  24.115  25.607  1.00  0.00     0.061 A 
ATOM     11  C   UNL A   1      34.352  22.066  24.616  1.00  0.00     0.092 A 
ATOM     12  C   UNL A   1      33.972  23.641  26.882  1.00  0.00     0.027 A 
ATOM     13  C   UNL A   1      34.733  21.606  25.821  1.00  0.00     0.018 A 
ATOM     14  C   UNL A   1      34.536  22.429  26.990  1.00  0.00     0.004 A 
BRANCH   7  15
ATOM     15  C   UNL A   1      32.992  23.409  21.976  1.00  0.00     0.315 C 
BRANCH  15  16
ATOM     16  N   UNL A   1      32.306  22.140  21.817  1.00  0.00    -0.353 N 
ATOM     17  H   UNL A   1      32.784  21.583  21.109  1.00  0.00     0.344 HD
ATOM     18  H   UNL A   1      31.343  22.308  21.526  1.00  0.00     0.344 HD
ATOM     19  H   UNL A   1      32.310  21.637  22.704  1.00  0.00     0.344 HD
ENDBRANCH  15  16
ENDBRANCH   7  15
BRANCH   8  20
ATOM     20  C   UNL A   1      31.590  25.962  23.032  1.00  0.00    -0.015 A 
ATOM     21  C   UNL A   1      31.958  27.593  22.322  1.00  0.00     0.009 A 
ATOM     22  C   UNL A   1      29.954  25.671  23.616  1.00  0.00     0.009 A 
ATOM     23  C   UNL A   1      30.494  29.000  22.385  1.00  0.00     0.001 A 
ATOM     24  C   UNL A   1      28.679  26.889  23.648  1.00  0.00     0.001 A 
ATOM     25  C   UNL A   1      28.902  28.533  23.098  1.00  0.00     0.000 A 
ENDBRANCH   8  20
ENDBRANCH   4   6
ENDBRANCH   3   4
ENDBRANCH   2   3
ENDBRANCH   1   2
BRANCH   1  26
ATOM     26  O   UNL A   1      33.017  30.094  25.791  1.00  0.00    -0.458 OA
BRANCH  26  27
ATOM     27  C   UNL A   1      32.865  31.073  26.702  1.00  0.00     0.338 C 
ATOM     28  O   UNL A   1      31.938  31.865  26.794  1.00  0.00    -0.246 OA
BRANCH  27  29
ATOM     29  C   UNL A   1      33.954  31.103  27.659  1.00  0.00     0.060 A 
ATOM     30  C   UNL A   1      34.976  32.561  27.953  1.00  0.00     0.016 A 
ATOM     31  C   UNL A   1      34.624  29.521  28.016  1.00  0.00     0.016 A 
ATOM     32  C   UNL A   1      36.858  32.260  28.651  1.00  0.00     0.010 A 
ATOM     33  C   UNL A   1      36.244  29.272  28.665  1.00  0.00     0.010 A 
ATOM     34  C   UNL A   1      37.388  30.561  29.006  1.00  0.00    -0.014 A 
BRANCH  34  35
ATOM     35  C   UNL A   1      38.580  30.226  29.879  1.00  0.00     0.031 A 
ATOM     36  C   UNL A   1      39.739  29.384  29.405  1.00  0.00     0.074 A 
ATOM     37  C   UNL A   1      38.527  30.489  31.202  1.00  0.00     0.049 A 
ATOM     38  N   UNL A   1      40.742  28.902  30.102  1.00  0.00    -0.248 NA
ATOM     39  C   UNL A   1      39.722  28.936  28.009  1.00  0.00     0.031 C 
ATOM     40  C   UNL A   1      37.334  30.940  31.881  1.00  0.00     0.029 A 
ATOM     41  N   UNL A   1      39.435  30.415  32.230  1.00  0.00    -0.354 N 
ATOM     42  C   UNL A   1      41.435  28.043  29.254  1.00  0.00     0.074 A 
ATOM     43  C   UNL A   1      40.710  28.049  27.997  1.00  0.00     0.031 C 
ATOM     44  C   UNL A   1      37.605  31.344  33.122  1.00  0.00     0.029 A 
ATOM     45  C   UNL A   1      38.979  30.986  33.407  1.00  0.00     0.049 A 
ATOM     46  H   UNL A   1      40.321  29.996  32.140  1.00  0.00     0.167 HD
ATOM     47  C   UNL A   1      42.560  27.321  29.507  1.00  0.00     0.034 A 
ATOM     48  C   UNL A   1      39.564  31.162  34.607  1.00  0.00     0.034 A 
ATOM     49  C   UNL A   1      43.264  27.352  30.774  1.00  0.00     0.049 A 
ATOM     50  C   UNL A   1      40.901  30.518  34.803  1.00  0.00     0.074 A 
ATOM     51  C   UNL A   1      44.446  26.720  31.126  1.00  0.00     0.029 A 
ATOM     52  N   UNL A   1      42.850  28.055  31.903  1.00  0.00    -0.354 N 
ATOM     53  N   UNL A   1      41.572  29.766  33.962  1.00  0.00    -0.248 NA
ATOM     54  C   UNL A   1      41.538  30.693  36.111  1.00  0.00     0.031 C 
ATOM     55  C   UNL A   1      44.721  27.005  32.471  1.00  0.00     0.029 A 
ATOM     56  C   UNL A   1      43.751  27.871  32.946  1.00  0.00     0.049 A 
ATOM     57  H   UNL A   1      42.035  28.606  31.955  1.00  0.00     0.167 HD
ATOM     58  C   UNL A   1      42.699  29.351  34.650  1.00  0.00     0.074 A 
ATOM     59  C   UNL A   1      42.649  29.988  35.953  1.00  0.00     0.031 C 
ATOM     60  C   UNL A   1      43.670  28.494  34.249  1.00  0.00     0.034 A 
BRANCH  47  61
ATOM     61  C   UNL A   1      43.081  26.425  28.398  1.00  0.00     0.023 A 
ATOM     62  C   UNL A   1      44.218  26.770  27.644  1.00  0.00     0.031 A 
ATOM     63  C   UNL A   1      42.415  25.233  28.053  1.00  0.00     0.131 A 
ATOM     64  C   UNL A   1      44.587  26.003  26.527  1.00  0.00     0.055 A 
ATOM     65  C   UNL A   1      42.845  24.421  26.999  1.00  0.00     0.041 A 
ATOM     66  F   UNL A   1      41.319  24.843  28.722  1.00  0.00    -0.206 F 
ATOM     67  C   UNL A   1      43.924  24.816  26.214  1.00  0.00     0.022 A 
BRANCH  64  68
ATOM     68  S   UNL A   1      45.832  26.675  25.394  1.00  0.00     0.124 S 
ATOM     69  O   UNL A   1      46.886  27.077  26.323  1.00  0.00    -0.237 OA
ATOM     70  O   UNL A   1      46.136  25.532  24.540  1.00  0.00    -0.237 OA
ATOM     71  O   UNL A   1      45.139  27.780  24.734  1.00  0.00    -0.744 OA
ENDBRANCH  64  68
ENDBRANCH  47  61
BRANCH  48  72
ATOM     72  C   UNL A   1      38.897  31.942  35.692  1.00  0.00     0.023 A 
ATOM     73  C   UNL A   1      38.310  31.276  36.782  1.00  0.00     0.031 A 
ATOM     74  C   UNL A   1      38.839  33.348  35.684  1.00  0.00     0.131 A 
ATOM     75  C   UNL A   1      37.678  32.009  37.801  1.00  0.00     0.055 A 
ATOM     76  C   UNL A   1      38.278  34.075  36.737  1.00  0.00     0.041 A 
ATOM     77  F   UNL A   1      39.368  34.045  34.665  1.00  0.00    -0.206 F 
ATOM     78  C   UNL A   1      37.684  33.405  37.800  1.00  0.00     0.022 A 
BRANCH  75  79
ATOM     79  S   UNL A   1      36.768  31.109  39.087  1.00  0.00     0.124 S 
ATOM     80  O   UNL A   1      35.557  31.913  39.211  1.00  0.00    -0.237 OA
ATOM     81  O   UNL A   1      36.604  29.792  38.482  1.00  0.00    -0.237 OA
ATOM     82  O   UNL A   1      37.668  31.157  40.237  1.00  0.00    -0.744 OA
ENDBRANCH  75  79
ENDBRANCH  48  72
BRANCH  60  83
ATOM     83  C   UNL A   1      44.762  28.229  35.249  1.00  0.00     0.023 A 
ATOM     84  C   UNL A   1      44.612  27.262  36.259  1.00  0.00     0.031 A 
ATOM     85  C   UNL A   1      45.937  28.998  35.231  1.00  0.00     0.131 A 
ATOM     86  C   UNL A   1      45.595  27.133  37.250  1.00  0.00     0.055 A 
ATOM     87  C   UNL A   1      46.939  28.824  36.185  1.00  0.00     0.041 A 
ATOM     88  F   UNL A   1      46.120  29.942  34.294  1.00  0.00    -0.206 F 
ATOM     89  C   UNL A   1      46.764  27.897  37.210  1.00  0.00     0.022 A 
BRANCH  86  90
ATOM     90  S   UNL A   1      45.277  26.029  38.653  1.00  0.00     0.124 S 
ATOM     91  O   UNL A   1      44.287  26.783  39.414  1.00  0.00    -0.237 OA
ATOM     92  O   UNL A   1      44.790  24.819  37.997  1.00  0.00    -0.237 OA
ATOM     93  O   UNL A   1      46.585  25.902  39.293  1.00  0.00    -0.744 OA
ENDBRANCH  86  90
ENDBRANCH  60  83
ENDBRANCH  34  35
ENDBRANCH  27  29
ENDBRANCH  26  27
ENDBRANCH   1  26
TORSDOF 17
ENDMDL
MODEL 3
REMARK VINA RESULT:     -11.6      4.845      7.014
REMARK SMILES [NH3+]Cc1c(-c2ccccc2)c(C(=O)OCCOC(=O)c2ccc(-c3c4nc(c(-c5cc(S(=O)(=O)[O-])ccc5F)c5ccc([nH]5)c(-c5cc(S(=O)(=O)[O-])ccc5F)c5nc(c(-c6cc(S(=O)(=O)[O-])ccc6F)c6ccc3[nH]6)C=C5)C=C4)cc2)c2ccccn12
REMARK SMILES IDX 16 1 15 2 14 3 12 4 13 5 11 6 3 7 4 8 88 9 83 10 87 11 84 12
REMARK SMILES IDX 86 13 85 14 2 15 1 16 5 20 6 21 10 22 7 23 9 24 8 25 17 26
REMARK SMILES IDX 18 27 19 28 20 29 21 30 82 31 22 32 81 33 23 34 24 35 25 36
REMARK SMILES IDX 75 37 26 38 80 39 74 40 76 41 27 42 79 43 73 44 72 45 28 47
REMARK SMILES IDX 60 48 40 49 59 50 41 51 44 52 58 53 77 54 42 55 43 56 57 58
REMARK SMILES IDX 78 59 45 60 29 61 30 62 38 63 31 64 37 65 39 66 36 67 32 68
REMARK SMILES IDX 33 69 34 70 35 71 61 72 62 73 70 74 63 75 69 76 71 77 68 78
REMARK SMILES IDX 64 79 65 80 66 81 67 82 46 83 47 84 55 85 48 86 54 87 56 88
REMARK SMILES IDX 53 89 49 90 50 91 51 92 52 93
REMARK H PARENT 1 17 1 18 1 19 76 46 44 57
REMARK Flexibility Score: inf
ROOT
ATOM      1  C   UNL A   1      31.998  29.036  24.807  1.00  0.00     0.275 C 
ENDROOT
BRANCH   1   2
ATOM      2  C   UNL A   1      32.670  28.095  23.813  1.00  0.00     0.275 C 
BRANCH   2   3
ATOM      3  O   UNL A   1      33.617  27.242  24.490  1.00  0.00    -0.458 OA
BRANCH   3   4
ATOM      4  C   UNL A   1      33.636  25.931  24.089  1.00  0.00     0.341 C 
ATOM      5  O   UNL A   1      33.640  25.586  22.913  1.00  0.00    -0.246 OA
BRANCH   4   6
ATOM      6  C   UNL A   1      33.473  24.988  25.191  1.00  0.00     0.093 A 
ATOM      7  C   UNL A   1      33.528  23.077  26.458  1.00  0.00     0.086 A 
ATOM      8  C   UNL A   1      34.344  23.957  25.723  1.00  0.00     0.024 A 
ATOM      9  N   UNL A   1      32.235  23.630  26.507  1.00  0.00    -0.314 N 
ATOM     10  C   UNL A   1      32.234  24.813  25.770  1.00  0.00     0.061 A 
ATOM     11  C   UNL A   1      31.029  23.148  27.051  1.00  0.00     0.092 A 
ATOM     12  C   UNL A   1      31.001  25.519  25.590  1.00  0.00     0.027 A 
ATOM     13  C   UNL A   1      29.865  23.792  26.844  1.00  0.00     0.018 A 
ATOM     14  C   UNL A   1      29.860  25.021  26.089  1.00  0.00     0.004 A 
BRANCH   7  15
ATOM     15  C   UNL A   1      33.974  21.754  27.026  1.00  0.00     0.315 C 
BRANCH  15  16
ATOM     16  N   UNL A   1      33.322  20.563  26.515  1.00  0.00    -0.353 N 
ATOM     17  H   UNL A   1      32.641  20.828  25.803  1.00  0.00     0.344 HD
ATOM     18  H   UNL A   1      32.846  20.081  27.278  1.00  0.00     0.344 HD
ATOM     19  H   UNL A   1      34.020  19.943  26.103  1.00  0.00     0.344 HD
ENDBRANCH  15  16
ENDBRANCH   7  15
BRANCH   8  20
ATOM     20  C   UNL A   1      35.683  23.569  25.186  1.00  0.00    -0.015 A 
ATOM     21  C   UNL A   1      35.983  22.027  24.275  1.00  0.00     0.009 A 
ATOM     22  C   UNL A   1      36.967  24.167  26.233  1.00  0.00     0.009 A 
ATOM     23  C   UNL A   1      37.719  21.038  24.641  1.00  0.00     0.001 A 
ATOM     24  C   UNL A   1      38.482  23.316  26.531  1.00  0.00     0.001 A 
ATOM     25  C   UNL A   1      38.880  21.773  25.813  1.00  0.00     0.000 A 
ENDBRANCH   8  20
ENDBRANCH   4   6
ENDBRANCH   3   4
ENDBRANCH   2   3
ENDBRANCH   1   2
BRANCH   1  26
ATOM     26  O   UNL A   1      32.922  30.080  25.151  1.00  0.00    -0.458 OA
BRANCH  26  27
ATOM     27  C   UNL A   1      32.574  30.712  26.287  1.00  0.00     0.338 C 
ATOM     28  O   UNL A   1      31.497  31.228  26.550  1.00  0.00    -0.246 OA
BRANCH  27  29
ATOM     29  C   UNL A   1      33.645  30.709  27.265  1.00  0.00     0.060 A 
ATOM     30  C   UNL A   1      34.585  32.184  27.709  1.00  0.00     0.016 A 
ATOM     31  C   UNL A   1      34.391  29.137  27.491  1.00  0.00     0.016 A 
ATOM     32  C   UNL A   1      36.469  31.916  28.415  1.00  0.00     0.010 A 
ATOM     33  C   UNL A   1      36.011  28.912  28.147  1.00  0.00     0.010 A 
ATOM     34  C   UNL A   1      37.081  30.221  28.625  1.00  0.00    -0.014 A 
BRANCH  34  35
ATOM     35  C   UNL A   1      38.276  29.868  29.488  1.00  0.00     0.031 A 
ATOM     36  C   UNL A   1      38.430  30.336  30.915  1.00  0.00     0.074 A 
ATOM     37  C   UNL A   1      39.362  29.304  28.918  1.00  0.00     0.049 A 
ATOM     38  N   UNL A   1      39.473  30.229  31.705  1.00  0.00    -0.248 NA
ATOM     39  C   UNL A   1      37.328  31.111  31.494  1.00  0.00     0.031 C 
ATOM     40  C   UNL A   1      39.525  29.146  27.491  1.00  0.00     0.029 A 
ATOM     41  N   UNL A   1      40.534  28.778  29.404  1.00  0.00    -0.354 N 
ATOM     42  C   UNL A   1      39.183  30.975  32.843  1.00  0.00     0.074 A 
ATOM     43  C   UNL A   1      37.874  31.558  32.619  1.00  0.00     0.031 C 
ATOM     44  C   UNL A   1      40.564  28.361  27.205  1.00  0.00     0.029 A 
ATOM     45  C   UNL A   1      41.280  28.119  28.441  1.00  0.00     0.049 A 
ATOM     46  H   UNL A   1      40.816  28.862  30.343  1.00  0.00     0.167 HD
ATOM     47  C   UNL A   1      39.942  31.156  33.958  1.00  0.00     0.034 A 
ATOM     48  C   UNL A   1      42.440  27.438  28.512  1.00  0.00     0.034 A 
ATOM     49  C   UNL A   1      41.243  30.546  34.151  1.00  0.00     0.049 A 
ATOM     50  C   UNL A   1      43.170  27.488  29.818  1.00  0.00     0.074 A 
ATOM     51  C   UNL A   1      42.072  30.600  35.261  1.00  0.00     0.029 A 
ATOM     52  N   UNL A   1      41.908  29.766  33.208  1.00  0.00    -0.354 N 
ATOM     53  N   UNL A   1      42.842  28.145  30.906  1.00  0.00    -0.248 NA
ATOM     54  C   UNL A   1      44.439  26.761  29.898  1.00  0.00     0.031 C 
ATOM     55  C   UNL A   1      43.248  29.894  34.973  1.00  0.00     0.029 A 
ATOM     56  C   UNL A   1      43.132  29.337  33.711  1.00  0.00     0.049 A 
ATOM     57  H   UNL A   1      41.562  29.548  32.312  1.00  0.00     0.167 HD
ATOM     58  C   UNL A   1      43.884  27.936  31.794  1.00  0.00     0.074 A 
ATOM     59  C   UNL A   1      44.817  27.040  31.137  1.00  0.00     0.031 C 
ATOM     60  C   UNL A   1      44.063  28.465  33.030  1.00  0.00     0.034 A 
BRANCH  47  61
ATOM     61  C   UNL A   1      39.389  32.066  35.041  1.00  0.00     0.023 A 
ATOM     62  C   UNL A   1      39.817  33.401  35.171  1.00  0.00     0.031 A 
ATOM     63  C   UNL A   1      38.458  31.591  35.985  1.00  0.00     0.131 A 
ATOM     64  C   UNL A   1      39.407  34.171  36.271  1.00  0.00     0.055 A 
ATOM     65  C   UNL A   1      37.978  32.396  37.024  1.00  0.00     0.041 A 
ATOM     66  F   UNL A   1      38.011  30.327  35.930  1.00  0.00    -0.206 F 
ATOM     67  C   UNL A   1      38.470  33.688  37.185  1.00  0.00     0.022 A 
BRANCH  64  68
ATOM     68  S   UNL A   1      40.250  35.747  36.581  1.00  0.00     0.124 S 
ATOM     69  O   UNL A   1      41.634  35.406  36.259  1.00  0.00    -0.237 OA
ATOM     70  O   UNL A   1      39.584  36.652  35.651  1.00  0.00    -0.237 OA
ATOM     71  O   UNL A   1      39.991  36.004  37.996  1.00  0.00    -0.744 OA
ENDBRANCH  64  68
ENDBRANCH  47  61
BRANCH  48  72
ATOM     72  C   UNL A   1      42.977  26.690  27.335  1.00  0.00     0.023 A 
ATOM     73  C   UNL A   1      42.787  25.302  27.233  1.00  0.00     0.031 A 
ATOM     74  C   UNL A   1      43.670  27.329  26.289  1.00  0.00     0.131 A 
ATOM     75  C   UNL A   1      43.296  24.598  26.129  1.00  0.00     0.055 A 
ATOM     76  C   UNL A   1      44.107  26.637  25.156  1.00  0.00     0.041 A 
ATOM     77  F   UNL A   1      43.898  28.651  26.331  1.00  0.00    -0.206 F 
ATOM     78  C   UNL A   1      43.929  25.260  25.076  1.00  0.00     0.022 A 
BRANCH  75  79
ATOM     79  S   UNL A   1      43.198  22.786  26.129  1.00  0.00     0.124 S 
ATOM     80  O   UNL A   1      44.486  22.419  26.708  1.00  0.00    -0.237 OA
ATOM     81  O   UNL A   1      42.027  22.542  26.964  1.00  0.00    -0.237 OA
ATOM     82  O   UNL A   1      43.033  22.454  24.716  1.00  0.00    -0.744 OA
ENDBRANCH  75  79
ENDBRANCH  48  72
BRANCH  60  83
ATOM     83  C   UNL A   1      45.323  28.051  33.740  1.00  0.00     0.023 A 
ATOM     84  C   UNL A   1      45.352  26.931  34.590  1.00  0.00     0.031 A 
ATOM     85  C   UNL A   1      46.489  28.824  33.617  1.00  0.00     0.131 A 
ATOM     86  C   UNL A   1      46.506  26.652  35.335  1.00  0.00     0.055 A 
ATOM     87  C   UNL A   1      47.653  28.507  34.314  1.00  0.00     0.041 A 
ATOM     88  F   UNL A   1      46.507  29.910  32.827  1.00  0.00    -0.206 F 
ATOM     89  C   UNL A   1      47.662  27.424  35.190  1.00  0.00     0.022 A 
BRANCH  86  90
ATOM     90  S   UNL A   1      46.443  25.331  36.575  1.00  0.00     0.124 S 
ATOM     91  O   UNL A   1      45.008  25.189  36.795  1.00  0.00    -0.237 OA
ATOM     92  O   UNL A   1      47.095  24.221  35.885  1.00  0.00    -0.237 OA
ATOM     93  O   UNL A   1      47.192  25.883  37.702  1.00  0.00    -0.744 OA
ENDBRANCH  86  90
ENDBRANCH  60  83
ENDBRANCH  34  35
ENDBRANCH  27  29
ENDBRANCH  26  27
ENDBRANCH   1  26
TORSDOF 17
ENDMDL
