MODEL 1
REMARK VINA RESULT:     -14.5      0.000      0.000
REMARK SMILES O=C(OCCOC(=O)c1ccc(-c2c3nc(c(-c4cc(S(=O)(=O)[O-])ccc4F)c4ccc([nH]4)c(-c4cc(S(=O)(=O)[O-])ccc4F)c4nc(c(-c5cc(S(=O)(=O)[O-])ccc5F)c5ccc2[nH]5)C=C4)C=C3)cc1)C1=Cc2cc(Cl)c(Cl)cc2O[C@@H]1C(F)(F)F
REMARK SMILES IDX 5 1 4 2 3 3 2 4 1 5 72 6 73 7 83 8 74 9 82 10 75 11 81 12
REMARK SMILES IDX 76 13 80 14 77 15 78 16 79 17 84 18 85 19 86 20 87 21 6 22
REMARK SMILES IDX 7 23 8 24 9 25 10 26 71 27 11 28 70 29 12 30 13 31 14 32
REMARK SMILES IDX 64 33 15 34 69 35 63 36 65 37 16 38 68 39 62 40 61 41 17 43
REMARK SMILES IDX 49 44 29 45 48 46 30 47 33 48 47 49 66 50 31 51 32 52 46 54
REMARK SMILES IDX 67 55 34 56 18 57 19 58 27 59 20 60 26 61 28 62 25 63 21 64
REMARK SMILES IDX 22 65 23 66 24 67 50 68 51 69 59 70 52 71 58 72 60 73 57 74
REMARK SMILES IDX 53 75 54 76 55 77 56 78 35 79 36 80 44 81 37 82 43 83 45 84
REMARK SMILES IDX 42 85 38 86 39 87 40 88 41 89
REMARK H PARENT 65 42 33 53
REMARK Flexibility Score: inf
ROOT
ATOM      1  C   UNL A   1      31.334  32.533  26.517  1.00  0.00     0.275 C 
ENDROOT
BRANCH   1   2
ATOM      2  C   UNL A   1      31.865  30.438  26.578  1.00  0.00     0.275 C 
BRANCH   2   3
ATOM      3  O   UNL A   1      32.111  29.511  25.356  1.00  0.00    -0.459 OA
BRANCH   3   4
ATOM      4  C   UNL A   1      31.726  28.246  25.571  1.00  0.00     0.338 C 
ATOM      5  O   UNL A   1      31.607  27.638  26.603  1.00  0.00    -0.246 OA
BRANCH   4   6
ATOM      6  C   UNL A   1      31.876  27.830  24.199  1.00  0.00     0.087 C 
ATOM      7  C   UNL A   1      33.077  27.019  23.988  1.00  0.00     0.027 C 
ATOM      8  C   UNL A   1      30.058  27.226  23.977  1.00  0.00     0.316 C 
ATOM      9  C   UNL A   1      33.025  25.251  23.679  1.00  0.00     0.019 A 
ATOM     10  O   UNL A   1      29.983  25.311  23.712  1.00  0.00    -0.475 OA
ATOM     11  C   UNL A   1      34.207  24.568  23.722  1.00  0.00     0.034 A 
ATOM     12  C   UNL A   1      31.541  24.358  23.632  1.00  0.00     0.129 A 
ATOM     13  C   UNL A   1      34.085  23.168  23.751  1.00  0.00     0.060 A 
ATOM     14  C   UNL A   1      31.502  22.991  23.660  1.00  0.00     0.069 A 
ATOM     15  Cl  UNL A   1      35.615  22.331  23.870  1.00  0.00    -0.083 Cl
ATOM     16  C   UNL A   1      32.810  22.424  23.733  1.00  0.00     0.063 A 
ATOM     17  Cl  UNL A   1      32.875  20.683  23.864  1.00  0.00    -0.083 Cl
BRANCH   8  18
ATOM     18  C   UNL A   1      29.596  28.490  23.134  1.00  0.00     0.430 C 
ATOM     19  F   UNL A   1      30.260  28.575  21.976  1.00  0.00    -0.167 F 
ATOM     20  F   UNL A   1      28.297  28.301  22.745  1.00  0.00    -0.167 F 
ATOM     21  F   UNL A   1      29.534  29.676  23.759  1.00  0.00    -0.167 F 
ENDBRANCH   8  18
ENDBRANCH   4   6
ENDBRANCH   3   4
ENDBRANCH   2   3
ENDBRANCH   1   2
BRANCH   1  22
ATOM     22  O   UNL A   1      32.268  33.822  27.225  1.00  0.00    -0.458 OA
BRANCH  22  23
ATOM     23  C   UNL A   1      33.047  34.165  28.310  1.00  0.00     0.338 C 
ATOM     24  O   UNL A   1      32.741  34.787  29.311  1.00  0.00    -0.246 OA
BRANCH  23  25
ATOM     25  C   UNL A   1      34.261  33.282  28.243  1.00  0.00     0.060 A 
ATOM     26  C   UNL A   1      35.535  33.870  28.364  1.00  0.00     0.016 A 
ATOM     27  C   UNL A   1      34.121  31.913  28.461  1.00  0.00     0.016 A 
ATOM     28  C   UNL A   1      36.590  33.141  28.957  1.00  0.00     0.010 A 
ATOM     29  C   UNL A   1      35.176  31.191  29.034  1.00  0.00     0.010 A 
ATOM     30  C   UNL A   1      36.388  31.817  29.376  1.00  0.00    -0.014 A 
BRANCH  30  31
ATOM     31  C   UNL A   1      37.480  30.997  29.981  1.00  0.00     0.031 A 
ATOM     32  C   UNL A   1      37.817  31.311  31.408  1.00  0.00     0.074 A 
ATOM     33  C   UNL A   1      38.221  30.089  29.300  1.00  0.00     0.049 A 
ATOM     34  N   UNL A   1      38.799  30.881  32.151  1.00  0.00    -0.248 NA
ATOM     35  C   UNL A   1      36.928  32.281  32.067  1.00  0.00     0.031 C 
ATOM     36  C   UNL A   1      38.010  29.675  27.913  1.00  0.00     0.029 A 
ATOM     37  N   UNL A   1      39.329  29.358  29.685  1.00  0.00    -0.354 N 
ATOM     38  C   UNL A   1      38.648  31.534  33.368  1.00  0.00     0.074 A 
ATOM     39  C   UNL A   1      37.520  32.429  33.237  1.00  0.00     0.031 C 
ATOM     40  C   UNL A   1      38.958  28.780  27.563  1.00  0.00     0.029 A 
ATOM     41  C   UNL A   1      39.871  28.569  28.686  1.00  0.00     0.049 A 
ATOM     42  H   UNL A   1      39.701  29.395  30.596  1.00  0.00     0.167 HD
ATOM     43  C   UNL A   1      39.370  31.392  34.502  1.00  0.00     0.034 A 
ATOM     44  C   UNL A   1      40.979  27.787  28.680  1.00  0.00     0.034 A 
ATOM     45  C   UNL A   1      40.513  30.531  34.620  1.00  0.00     0.049 A 
ATOM     46  C   UNL A   1      41.827  27.715  29.943  1.00  0.00     0.074 A 
ATOM     47  C   UNL A   1      41.317  30.316  35.724  1.00  0.00     0.029 A 
ATOM     48  N   UNL A   1      41.026  29.755  33.591  1.00  0.00    -0.354 N 
ATOM     49  N   UNL A   1      41.633  28.296  31.106  1.00  0.00    -0.248 NA
ATOM     50  C   UNL A   1      43.038  26.880  29.893  1.00  0.00     0.031 C 
ATOM     51  C   UNL A   1      42.357  29.464  35.343  1.00  0.00     0.029 A 
ATOM     52  C   UNL A   1      42.156  29.082  34.026  1.00  0.00     0.049 A 
ATOM     53  H   UNL A   1      40.645  29.692  32.685  1.00  0.00     0.167 HD
ATOM     54  C   UNL A   1      42.670  27.857  31.931  1.00  0.00     0.074 A 
ATOM     55  C   UNL A   1      43.477  26.953  31.141  1.00  0.00     0.031 C 
ATOM     56  C   UNL A   1      42.935  28.168  33.226  1.00  0.00     0.034 A 
BRANCH  43  57
ATOM     57  C   UNL A   1      38.948  32.237  35.673  1.00  0.00     0.023 A 
ATOM     58  C   UNL A   1      39.384  33.569  35.800  1.00  0.00     0.031 A 
ATOM     59  C   UNL A   1      38.189  31.684  36.715  1.00  0.00     0.131 A 
ATOM     60  C   UNL A   1      39.140  34.269  36.987  1.00  0.00     0.055 A 
ATOM     61  C   UNL A   1      37.871  32.420  37.857  1.00  0.00     0.041 A 
ATOM     62  F   UNL A   1      37.777  30.407  36.659  1.00  0.00    -0.206 F 
ATOM     63  C   UNL A   1      38.362  33.715  38.006  1.00  0.00     0.022 A 
BRANCH  60  64
ATOM     64  S   UNL A   1      39.996  35.846  37.247  1.00  0.00     0.124 S 
ATOM     65  O   UNL A   1      39.658  36.568  36.022  1.00  0.00    -0.237 OA
ATOM     66  O   UNL A   1      39.379  36.345  38.471  1.00  0.00    -0.237 OA
ATOM     67  O   UNL A   1      41.399  35.458  37.367  1.00  0.00    -0.744 OA
ENDBRANCH  60  64
ENDBRANCH  43  57
BRANCH  44  68
ATOM     68  C   UNL A   1      41.429  27.028  27.460  1.00  0.00     0.023 A 
ATOM     69  C   UNL A   1      41.298  25.626  27.381  1.00  0.00     0.031 A 
ATOM     70  C   UNL A   1      42.136  27.666  26.426  1.00  0.00     0.131 A 
ATOM     71  C   UNL A   1      41.928  24.909  26.346  1.00  0.00     0.055 A 
ATOM     72  C   UNL A   1      42.706  26.954  25.362  1.00  0.00     0.041 A 
ATOM     73  F   UNL A   1      42.317  28.996  26.445  1.00  0.00    -0.206 F 
ATOM     74  C   UNL A   1      42.621  25.565  25.329  1.00  0.00     0.022 A 
BRANCH  71  75
ATOM     75  S   UNL A   1      41.956  23.091  26.423  1.00  0.00     0.124 S 
ATOM     76  O   UNL A   1      40.534  22.776  26.491  1.00  0.00    -0.237 OA
ATOM     77  O   UNL A   1      42.633  22.745  25.178  1.00  0.00    -0.237 OA
ATOM     78  O   UNL A   1      42.715  22.812  27.640  1.00  0.00    -0.744 OA
ENDBRANCH  71  75
ENDBRANCH  44  68
BRANCH  56  79
ATOM     79  C   UNL A   1      44.102  27.478  33.892  1.00  0.00     0.023 A 
ATOM     80  C   UNL A   1      43.948  26.287  34.622  1.00  0.00     0.031 A 
ATOM     81  C   UNL A   1      45.399  28.009  33.758  1.00  0.00     0.131 A 
ATOM     82  C   UNL A   1      45.065  25.689  35.225  1.00  0.00     0.055 A 
ATOM     83  C   UNL A   1      46.514  27.374  34.305  1.00  0.00     0.041 A 
ATOM     84  F   UNL A   1      45.606  29.144  33.070  1.00  0.00    -0.206 F 
ATOM     85  C   UNL A   1      46.349  26.213  35.053  1.00  0.00     0.022 A 
BRANCH  82  86
ATOM     86  S   UNL A   1      44.810  24.252  36.302  1.00  0.00     0.124 S 
ATOM     87  O   UNL A   1      44.150  24.852  37.457  1.00  0.00    -0.237 OA
ATOM     88  O   UNL A   1      43.981  23.383  35.475  1.00  0.00    -0.237 OA
ATOM     89  O   UNL A   1      46.166  23.763  36.548  1.00  0.00    -0.744 OA
ENDBRANCH  82  86
ENDBRANCH  56  79
ENDBRANCH  30  31
ENDBRANCH  23  25
ENDBRANCH  22  23
ENDBRANCH   1  22
TORSDOF 15
ENDMDL
MODEL 2
REMARK VINA RESULT:     -14.4      5.174     10.637
REMARK SMILES O=C(OCCOC(=O)c1ccc(-c2c3nc(c(-c4cc(S(=O)(=O)[O-])ccc4F)c4ccc([nH]4)c(-c4cc(S(=O)(=O)[O-])ccc4F)c4nc(c(-c5cc(S(=O)(=O)[O-])ccc5F)c5ccc2[nH]5)C=C4)C=C3)cc1)C1=Cc2cc(Cl)c(Cl)cc2O[C@@H]1C(F)(F)F
REMARK SMILES IDX 5 1 4 2 3 3 2 4 1 5 72 6 73 7 83 8 74 9 82 10 75 11 81 12
REMARK SMILES IDX 76 13 80 14 77 15 78 16 79 17 84 18 85 19 86 20 87 21 6 22
REMARK SMILES IDX 7 23 8 24 9 25 10 26 71 27 11 28 70 29 12 30 13 31 14 32
REMARK SMILES IDX 64 33 15 34 69 35 63 36 65 37 16 38 68 39 62 40 61 41 17 43
REMARK SMILES IDX 49 44 29 45 48 46 30 47 33 48 47 49 66 50 31 51 32 52 46 54
REMARK SMILES IDX 67 55 34 56 18 57 19 58 27 59 20 60 26 61 28 62 25 63 21 64
REMARK SMILES IDX 22 65 23 66 24 67 50 68 51 69 59 70 52 71 58 72 60 73 57 74
REMARK SMILES IDX 53 75 54 76 55 77 56 78 35 79 36 80 44 81 37 82 43 83 45 84
REMARK SMILES IDX 42 85 38 86 39 87 40 88 41 89
REMARK H PARENT 65 42 33 53
REMARK Flexibility Score: inf
ROOT
ATOM      1  C   UNL A   1      37.969  19.629  24.711  1.00  0.00     0.275 C 
ENDROOT
BRANCH   1   2
ATOM      2  C   UNL A   1      36.240  20.788  25.297  1.00  0.00     0.275 C 
BRANCH   2   3
ATOM      3  O   UNL A   1      35.963  22.276  24.946  1.00  0.00    -0.459 OA
BRANCH   3   4
ATOM      4  C   UNL A   1      34.691  22.504  24.594  1.00  0.00     0.338 C 
ATOM      5  O   UNL A   1      34.088  22.165  23.609  1.00  0.00    -0.246 OA
BRANCH   4   6
ATOM      6  C   UNL A   1      34.469  23.542  25.571  1.00  0.00     0.087 C 
ATOM      7  C   UNL A   1      34.598  24.884  25.001  1.00  0.00     0.027 C 
ATOM      8  C   UNL A   1      32.855  22.780  26.303  1.00  0.00     0.316 C 
ATOM      9  C   UNL A   1      33.195  25.967  24.714  1.00  0.00     0.019 A 
ATOM     10  O   UNL A   1      31.323  23.904  25.938  1.00  0.00    -0.475 OA
ATOM     11  C   UNL A   1      33.411  27.096  23.976  1.00  0.00     0.034 A 
ATOM     12  C   UNL A   1      31.566  25.492  25.067  1.00  0.00     0.129 A 
ATOM     13  C   UNL A   1      32.247  27.758  23.547  1.00  0.00     0.060 A 
ATOM     14  C   UNL A   1      30.481  26.191  24.615  1.00  0.00     0.069 A 
ATOM     15  Cl  UNL A   1      32.562  29.161  22.554  1.00  0.00    -0.083 Cl
ATOM     16  C   UNL A   1      30.865  27.326  23.839  1.00  0.00     0.063 A 
ATOM     17  Cl  UNL A   1      29.555  28.243  23.136  1.00  0.00    -0.083 Cl
BRANCH   8  18
ATOM     18  C   UNL A   1      33.549  22.228  27.620  1.00  0.00     0.430 C 
ATOM     19  F   UNL A   1      32.706  22.238  28.658  1.00  0.00    -0.167 F 
ATOM     20  F   UNL A   1      33.823  20.899  27.442  1.00  0.00    -0.167 F 
ATOM     21  F   UNL A   1      34.752  22.722  27.953  1.00  0.00    -0.167 F 
ENDBRANCH   8  18
ENDBRANCH   4   6
ENDBRANCH   3   4
ENDBRANCH   2   3
ENDBRANCH   1   2
BRANCH   1  22
ATOM     22  O   UNL A   1      39.314  19.247  25.751  1.00  0.00    -0.458 OA
BRANCH  22  23
ATOM     23  C   UNL A   1      40.592  19.629  26.101  1.00  0.00     0.338 C 
ATOM     24  O   UNL A   1      41.660  19.217  25.687  1.00  0.00    -0.246 OA
BRANCH  23  25
ATOM     25  C   UNL A   1      40.451  20.949  26.806  1.00  0.00     0.060 A 
ATOM     26  C   UNL A   1      41.349  21.263  27.844  1.00  0.00     0.016 A 
ATOM     27  C   UNL A   1      39.733  21.974  26.194  1.00  0.00     0.016 A 
ATOM     28  C   UNL A   1      41.714  22.609  28.072  1.00  0.00     0.010 A 
ATOM     29  C   UNL A   1      40.087  23.308  26.436  1.00  0.00     0.010 A 
ATOM     30  C   UNL A   1      41.144  23.636  27.304  1.00  0.00    -0.014 A 
BRANCH  30  31
ATOM     31  C   UNL A   1      41.475  25.076  27.527  1.00  0.00     0.031 A 
ATOM     32  C   UNL A   1      42.848  25.502  27.097  1.00  0.00     0.074 A 
ATOM     33  C   UNL A   1      40.668  25.956  28.165  1.00  0.00     0.049 A 
ATOM     34  N   UNL A   1      43.473  26.631  27.290  1.00  0.00    -0.248 NA
ATOM     35  C   UNL A   1      43.630  24.483  26.379  1.00  0.00     0.031 C 
ATOM     36  C   UNL A   1      39.307  25.690  28.635  1.00  0.00     0.029 A 
ATOM     37  N   UNL A   1      40.887  27.265  28.551  1.00  0.00    -0.354 N 
ATOM     38  C   UNL A   1      44.727  26.455  26.719  1.00  0.00     0.074 A 
ATOM     39  C   UNL A   1      44.789  25.096  26.231  1.00  0.00     0.031 C 
ATOM     40  C   UNL A   1      38.824  26.788  29.252  1.00  0.00     0.029 A 
ATOM     41  C   UNL A   1      39.842  27.838  29.255  1.00  0.00     0.049 A 
ATOM     42  H   UNL A   1      41.718  27.750  28.343  1.00  0.00     0.167 HD
ATOM     43  C   UNL A   1      45.735  27.348  26.593  1.00  0.00     0.034 A 
ATOM     44  C   UNL A   1      39.734  29.056  29.842  1.00  0.00     0.034 A 
ATOM     45  C   UNL A   1      45.686  28.686  27.111  1.00  0.00     0.049 A 
ATOM     46  C   UNL A   1      40.917  30.010  29.763  1.00  0.00     0.074 A 
ATOM     47  C   UNL A   1      46.655  29.670  27.040  1.00  0.00     0.029 A 
ATOM     48  N   UNL A   1      44.617  29.223  27.813  1.00  0.00    -0.354 N 
ATOM     49  N   UNL A   1      42.077  29.847  29.165  1.00  0.00    -0.248 NA
ATOM     50  C   UNL A   1      40.777  31.313  30.435  1.00  0.00     0.031 C 
ATOM     51  C   UNL A   1      46.199  30.779  27.759  1.00  0.00     0.029 A 
ATOM     52  C   UNL A   1      44.914  30.516  28.208  1.00  0.00     0.049 A 
ATOM     53  H   UNL A   1      43.772  28.754  28.004  1.00  0.00     0.167 HD
ATOM     54  C   UNL A   1      42.776  31.041  29.351  1.00  0.00     0.074 A 
ATOM     55  C   UNL A   1      41.907  31.919  30.102  1.00  0.00     0.031 C 
ATOM     56  C   UNL A   1      44.023  31.384  28.940  1.00  0.00     0.034 A 
BRANCH  43  57
ATOM     57  C   UNL A   1      46.979  26.857  25.905  1.00  0.00     0.023 A 
ATOM     58  C   UNL A   1      47.981  26.175  26.620  1.00  0.00     0.031 A 
ATOM     59  C   UNL A   1      47.213  27.157  24.555  1.00  0.00     0.131 A 
ATOM     60  C   UNL A   1      49.209  25.902  26.005  1.00  0.00     0.055 A 
ATOM     61  C   UNL A   1      48.404  26.799  23.923  1.00  0.00     0.041 A 
ATOM     62  F   UNL A   1      46.304  27.837  23.837  1.00  0.00    -0.206 F 
ATOM     63  C   UNL A   1      49.418  26.183  24.653  1.00  0.00     0.022 A 
BRANCH  60  64
ATOM     64  S   UNL A   1      50.582  25.330  27.041  1.00  0.00     0.124 S 
ATOM     65  O   UNL A   1      50.954  26.560  27.738  1.00  0.00    -0.237 OA
ATOM     66  O   UNL A   1      49.955  24.298  27.860  1.00  0.00    -0.237 OA
ATOM     67  O   UNL A   1      51.564  24.849  26.072  1.00  0.00    -0.744 OA
ENDBRANCH  60  64
ENDBRANCH  43  57
BRANCH  44  68
ATOM     68  C   UNL A   1      38.508  29.481  30.607  1.00  0.00     0.023 A 
ATOM     69  C   UNL A   1      37.543  30.333  30.029  1.00  0.00     0.031 A 
ATOM     70  C   UNL A   1      38.359  29.174  31.971  1.00  0.00     0.131 A 
ATOM     71  C   UNL A   1      36.532  30.906  30.824  1.00  0.00     0.055 A 
ATOM     72  C   UNL A   1      37.313  29.695  32.742  1.00  0.00     0.041 A 
ATOM     73  F   UNL A   1      39.250  28.385  32.592  1.00  0.00    -0.206 F 
ATOM     74  C   UNL A   1      36.404  30.583  32.175  1.00  0.00     0.022 A 
BRANCH  71  75
ATOM     75  S   UNL A   1      35.471  32.198  30.104  1.00  0.00     0.124 S 
ATOM     76  O   UNL A   1      34.946  31.524  28.923  1.00  0.00    -0.237 OA
ATOM     77  O   UNL A   1      34.519  32.443  31.182  1.00  0.00    -0.237 OA
ATOM     78  O   UNL A   1      36.400  33.293  29.836  1.00  0.00    -0.744 OA
ENDBRANCH  71  75
ENDBRANCH  44  68
BRANCH  56  79
ATOM     79  C   UNL A   1      44.498  32.789  29.229  1.00  0.00     0.023 A 
ATOM     80  C   UNL A   1      44.144  33.879  28.417  1.00  0.00     0.031 A 
ATOM     81  C   UNL A   1      45.292  33.039  30.365  1.00  0.00     0.131 A 
ATOM     82  C   UNL A   1      44.616  35.164  28.729  1.00  0.00     0.055 A 
ATOM     83  C   UNL A   1      45.704  34.328  30.705  1.00  0.00     0.041 A 
ATOM     84  F   UNL A   1      45.660  32.035  31.177  1.00  0.00    -0.206 F 
ATOM     85  C   UNL A   1      45.376  35.398  29.878  1.00  0.00     0.022 A 
BRANCH  82  86
ATOM     86  S   UNL A   1      44.287  36.519  27.569  1.00  0.00     0.124 S 
ATOM     87  O   UNL A   1      43.648  37.509  28.431  1.00  0.00    -0.237 OA
ATOM     88  O   UNL A   1      45.625  36.857  27.095  1.00  0.00    -0.237 OA
ATOM     89  O   UNL A   1      43.412  35.910  26.569  1.00  0.00    -0.744 OA
ENDBRANCH  82  86
ENDBRANCH  56  79
ENDBRANCH  30  31
ENDBRANCH  23  25
ENDBRANCH  22  23
ENDBRANCH   1  22
TORSDOF 15
ENDMDL
MODEL 3
REMARK VINA RESULT:     -14.2      5.149     10.654
REMARK SMILES O=C(OCCOC(=O)c1ccc(-c2c3nc(c(-c4cc(S(=O)(=O)[O-])ccc4F)c4ccc([nH]4)c(-c4cc(S(=O)(=O)[O-])ccc4F)c4nc(c(-c5cc(S(=O)(=O)[O-])ccc5F)c5ccc2[nH]5)C=C4)C=C3)cc1)C1=Cc2cc(Cl)c(Cl)cc2O[C@@H]1C(F)(F)F
REMARK SMILES IDX 5 1 4 2 3 3 2 4 1 5 72 6 73 7 83 8 74 9 82 10 75 11 81 12
REMARK SMILES IDX 76 13 80 14 77 15 78 16 79 17 84 18 85 19 86 20 87 21 6 22
REMARK SMILES IDX 7 23 8 24 9 25 10 26 71 27 11 28 70 29 12 30 13 31 14 32
REMARK SMILES IDX 64 33 15 34 69 35 63 36 65 37 16 38 68 39 62 40 61 41 17 43
REMARK SMILES IDX 49 44 29 45 48 46 30 47 33 48 47 49 66 50 31 51 32 52 46 54
REMARK SMILES IDX 67 55 34 56 18 57 19 58 27 59 20 60 26 61 28 62 25 63 21 64
REMARK SMILES IDX 22 65 23 66 24 67 50 68 51 69 59 70 52 71 58 72 60 73 57 74
REMARK SMILES IDX 53 75 54 76 55 77 56 78 35 79 36 80 44 81 37 82 43 83 45 84
REMARK SMILES IDX 42 85 38 86 39 87 40 88 41 89
REMARK H PARENT 65 42 33 53
REMARK Flexibility Score: inf
ROOT
ATOM      1  C   UNL A   1      38.047  19.639  25.012  1.00  0.00     0.275 C 
ENDROOT
BRANCH   1   2
ATOM      2  C   UNL A   1      36.653  21.245  25.404  1.00  0.00     0.275 C 
BRANCH   2   3
ATOM      3  O   UNL A   1      36.665  22.658  24.757  1.00  0.00    -0.459 OA
BRANCH   3   4
ATOM      4  C   UNL A   1      35.634  22.864  23.927  1.00  0.00     0.338 C 
ATOM      5  O   UNL A   1      35.625  23.121  22.752  1.00  0.00    -0.246 OA
BRANCH   4   6
ATOM      6  C   UNL A   1      34.656  23.029  24.975  1.00  0.00     0.087 C 
ATOM      7  C   UNL A   1      34.736  24.344  25.613  1.00  0.00     0.027 C 
ATOM      8  C   UNL A   1      33.161  22.363  23.955  1.00  0.00     0.316 C 
ATOM      9  C   UNL A   1      33.508  25.631  25.366  1.00  0.00     0.019 A 
ATOM     10  O   UNL A   1      31.863  23.758  23.621  1.00  0.00    -0.475 OA
ATOM     11  C   UNL A   1      33.803  26.881  25.830  1.00  0.00     0.034 A 
ATOM     12  C   UNL A   1      32.139  25.422  24.325  1.00  0.00     0.129 A 
ATOM     13  C   UNL A   1      32.950  27.902  25.373  1.00  0.00     0.060 A 
ATOM     14  C   UNL A   1      31.351  26.466  23.926  1.00  0.00     0.069 A 
ATOM     15  Cl  UNL A   1      33.396  29.495  25.936  1.00  0.00    -0.083 Cl
ATOM     16  C   UNL A   1      31.800  27.708  24.467  1.00  0.00     0.063 A 
ATOM     17  Cl  UNL A   1      30.917  29.124  23.951  1.00  0.00    -0.083 Cl
BRANCH   8  18
ATOM     18  C   UNL A   1      33.122  20.948  24.677  1.00  0.00     0.430 C 
ATOM     19  F   UNL A   1      33.149  21.077  26.008  1.00  0.00    -0.167 F 
ATOM     20  F   UNL A   1      31.904  20.372  24.435  1.00  0.00    -0.167 F 
ATOM     21  F   UNL A   1      33.973  20.001  24.252  1.00  0.00    -0.167 F 
ENDBRANCH   8  18
ENDBRANCH   4   6
ENDBRANCH   3   4
ENDBRANCH   2   3
ENDBRANCH   1   2
BRANCH   1  22
ATOM     22  O   UNL A   1      39.757  19.699  25.340  1.00  0.00    -0.458 OA
BRANCH  22  23
ATOM     23  C   UNL A   1      40.694  19.765  26.350  1.00  0.00     0.338 C 
ATOM     24  O   UNL A   1      41.683  19.078  26.529  1.00  0.00    -0.246 OA
BRANCH  23  25
ATOM     25  C   UNL A   1      40.516  21.112  26.992  1.00  0.00     0.060 A 
ATOM     26  C   UNL A   1      41.330  21.454  28.088  1.00  0.00     0.016 A 
ATOM     27  C   UNL A   1      39.865  22.122  26.286  1.00  0.00     0.016 A 
ATOM     28  C   UNL A   1      41.695  22.803  28.296  1.00  0.00     0.010 A 
ATOM     29  C   UNL A   1      40.219  23.460  26.507  1.00  0.00     0.010 A 
ATOM     30  C   UNL A   1      41.206  23.808  27.447  1.00  0.00    -0.014 A 
BRANCH  30  31
ATOM     31  C   UNL A   1      41.540  25.250  27.644  1.00  0.00     0.031 A 
ATOM     32  C   UNL A   1      42.902  25.673  27.180  1.00  0.00     0.074 A 
ATOM     33  C   UNL A   1      40.744  26.138  28.286  1.00  0.00     0.049 A 
ATOM     34  N   UNL A   1      43.529  26.805  27.346  1.00  0.00    -0.248 NA
ATOM     35  C   UNL A   1      43.671  24.645  26.460  1.00  0.00     0.031 C 
ATOM     36  C   UNL A   1      39.394  25.877  28.788  1.00  0.00     0.029 A 
ATOM     37  N   UNL A   1      40.969  27.452  28.651  1.00  0.00    -0.354 N 
ATOM     38  C   UNL A   1      44.772  26.623  26.751  1.00  0.00     0.074 A 
ATOM     39  C   UNL A   1      44.826  25.257  26.280  1.00  0.00     0.031 C 
ATOM     40  C   UNL A   1      38.921  26.982  29.400  1.00  0.00     0.029 A 
ATOM     41  C   UNL A   1      39.937  28.033  29.368  1.00  0.00     0.049 A 
ATOM     42  H   UNL A   1      41.795  27.935  28.419  1.00  0.00     0.167 HD
ATOM     43  C   UNL A   1      45.775  27.515  26.593  1.00  0.00     0.034 A 
ATOM     44  C   UNL A   1      39.839  29.259  29.940  1.00  0.00     0.034 A 
ATOM     45  C   UNL A   1      45.735  28.861  27.094  1.00  0.00     0.049 A 
ATOM     46  C   UNL A   1      41.019  30.214  29.825  1.00  0.00     0.074 A 
ATOM     47  C   UNL A   1      46.701  29.844  26.990  1.00  0.00     0.029 A 
ATOM     48  N   UNL A   1      44.680  29.405  27.811  1.00  0.00    -0.354 N 
ATOM     49  N   UNL A   1      42.167  30.044  29.206  1.00  0.00    -0.248 NA
ATOM     50  C   UNL A   1      40.891  31.525  30.482  1.00  0.00     0.031 C 
ATOM     51  C   UNL A   1      46.258  30.962  27.703  1.00  0.00     0.029 A 
ATOM     52  C   UNL A   1      44.982  30.704  28.182  1.00  0.00     0.049 A 
ATOM     53  H   UNL A   1      43.840  28.938  28.025  1.00  0.00     0.167 HD
ATOM     54  C   UNL A   1      42.867  31.241  29.362  1.00  0.00     0.074 A 
ATOM     55  C   UNL A   1      42.013  32.128  30.118  1.00  0.00     0.031 C 
ATOM     56  C   UNL A   1      44.106  31.581  28.920  1.00  0.00     0.034 A 
BRANCH  43  57
ATOM     57  C   UNL A   1      47.006  27.017  25.887  1.00  0.00     0.023 A 
ATOM     58  C   UNL A   1      48.011  26.322  26.585  1.00  0.00     0.031 A 
ATOM     59  C   UNL A   1      47.225  27.322  24.534  1.00  0.00     0.131 A 
ATOM     60  C   UNL A   1      49.228  26.042  25.952  1.00  0.00     0.055 A 
ATOM     61  C   UNL A   1      48.404  26.957  23.885  1.00  0.00     0.041 A 
ATOM     62  F   UNL A   1      46.313  28.013  23.832  1.00  0.00    -0.206 F 
ATOM     63  C   UNL A   1      49.423  26.328  24.599  1.00  0.00     0.022 A 
BRANCH  60  64
ATOM     64  S   UNL A   1      50.610  25.452  26.968  1.00  0.00     0.124 S 
ATOM     65  O   UNL A   1      51.591  25.093  25.946  1.00  0.00    -0.237 OA
ATOM     66  O   UNL A   1      50.931  26.622  27.778  1.00  0.00    -0.237 OA
ATOM     67  O   UNL A   1      50.039  24.323  27.699  1.00  0.00    -0.744 OA
ENDBRANCH  60  64
ENDBRANCH  43  57
BRANCH  44  68
ATOM     68  C   UNL A   1      38.629  29.693  30.725  1.00  0.00     0.023 A 
ATOM     69  C   UNL A   1      37.614  30.473  30.132  1.00  0.00     0.031 A 
ATOM     70  C   UNL A   1      38.542  29.471  32.110  1.00  0.00     0.131 A 
ATOM     71  C   UNL A   1      36.613  31.063  30.928  1.00  0.00     0.055 A 
ATOM     72  C   UNL A   1      37.507  30.006  32.888  1.00  0.00     0.041 A 
ATOM     73  F   UNL A   1      39.483  28.753  32.745  1.00  0.00    -0.206 F 
ATOM     74  C   UNL A   1      36.547  30.825  32.301  1.00  0.00     0.022 A 
BRANCH  71  75
ATOM     75  S   UNL A   1      35.481  32.270  30.170  1.00  0.00     0.124 S 
ATOM     76  O   UNL A   1      34.465  32.412  31.206  1.00  0.00    -0.237 OA
ATOM     77  O   UNL A   1      36.356  33.418  29.964  1.00  0.00    -0.237 OA
ATOM     78  O   UNL A   1      35.037  31.601  28.949  1.00  0.00    -0.744 OA
ENDBRANCH  71  75
ENDBRANCH  44  68
BRANCH  56  79
ATOM     79  C   UNL A   1      44.584  32.989  29.181  1.00  0.00     0.023 A 
ATOM     80  C   UNL A   1      44.192  34.073  28.376  1.00  0.00     0.031 A 
ATOM     81  C   UNL A   1      45.421  33.252  30.282  1.00  0.00     0.131 A 
ATOM     82  C   UNL A   1      44.670  35.362  28.661  1.00  0.00     0.055 A 
ATOM     83  C   UNL A   1      45.840  34.545  30.597  1.00  0.00     0.041 A 
ATOM     84  F   UNL A   1      45.826  32.255  31.087  1.00  0.00    -0.206 F 
ATOM     85  C   UNL A   1      45.473  35.607  29.778  1.00  0.00     0.022 A 
BRANCH  82  86
ATOM     86  S   UNL A   1      44.288  36.707  27.506  1.00  0.00     0.124 S 
ATOM     87  O   UNL A   1      45.617  37.118  27.067  1.00  0.00    -0.237 OA
ATOM     88  O   UNL A   1      43.464  36.037  26.505  1.00  0.00    -0.237 OA
ATOM     89  O   UNL A   1      43.580  37.681  28.336  1.00  0.00    -0.744 OA
ENDBRANCH  82  86
ENDBRANCH  56  79
ENDBRANCH  30  31
ENDBRANCH  23  25
ENDBRANCH  22  23
ENDBRANCH   1  22
TORSDOF 15
ENDMDL
