MODEL 1
REMARK VINA RESULT:     -12.6      0.000      0.000
REMARK SMILES Cc1cc2c(c(C)c1Br)C=C(C(=O)OCCOC(=O)c1ccc(-c3c4nc(c(-c5cc(S(=O)(=O)[O-])ccc5F)c5ccc([nH]5)c(-c5cc(S(=O)(=O)[O-])ccc5F)c5nc(c(-c6cc(S(=O)(=O)[O-])ccc6F)c6ccc3[nH]6)C=C5)C=C4)cc1)[C@@H](C(F)(F)F)O2
REMARK SMILES IDX 16 1 15 2 14 3 12 4 13 5 11 6 1 7 2 8 3 9 8 10 4 11 6 12
REMARK SMILES IDX 9 13 5 14 88 15 7 16 10 17 83 18 84 19 85 20 86 21 87 22
REMARK SMILES IDX 17 23 18 24 19 25 20 26 21 27 82 28 22 29 81 30 23 31 24 32
REMARK SMILES IDX 25 33 75 34 26 35 80 36 74 37 76 38 27 39 79 40 73 41 72 42
REMARK SMILES IDX 28 44 60 45 40 46 59 47 41 48 44 49 58 50 77 51 42 52 43 53
REMARK SMILES IDX 57 55 78 56 45 57 29 58 30 59 38 60 31 61 37 62 39 63 36 64
REMARK SMILES IDX 32 65 33 66 34 67 35 68 61 69 62 70 70 71 63 72 69 73 71 74
REMARK SMILES IDX 68 75 64 76 65 77 66 78 67 79 46 80 47 81 55 82 48 83 54 84
REMARK SMILES IDX 56 85 53 86 49 87 50 88 51 89 52 90
REMARK H PARENT 76 43 44 54
REMARK Flexibility Score: inf
ROOT
ATOM      1  C   UNL A   1      36.384  20.711  24.879  1.00  0.00     0.275 C 
ENDROOT
BRANCH   1   2
ATOM      2  C   UNL A   1      35.016  21.387  24.817  1.00  0.00     0.275 C 
BRANCH   2   3
ATOM      3  O   UNL A   1      35.132  22.821  24.945  1.00  0.00    -0.459 OA
BRANCH   3   4
ATOM      4  C   UNL A   1      34.291  23.395  25.838  1.00  0.00     0.338 C 
ATOM      5  O   UNL A   1      34.127  23.058  27.000  1.00  0.00    -0.246 OA
BRANCH   4   6
ATOM      6  C   UNL A   1      33.562  24.516  25.218  1.00  0.00     0.087 C 
ATOM      7  C   UNL A   1      30.100  29.816  23.791  1.00  0.00     0.046 C 
ATOM      8  C   UNL A   1      31.084  28.810  24.327  1.00  0.00    -0.033 A 
ATOM      9  C   UNL A   1      31.153  27.552  23.713  1.00  0.00     0.051 A 
ATOM     10  C   UNL A   1      31.909  29.077  25.439  1.00  0.00     0.024 A 
ATOM     11  C   UNL A   1      32.005  26.563  24.196  1.00  0.00     0.128 A 
ATOM     12  C   UNL A   1      32.799  28.094  25.930  1.00  0.00    -0.026 A 
ATOM     13  Br  UNL A   1      31.770  30.790  26.284  1.00  0.00    -0.050 Br
ATOM     14  C   UNL A   1      32.820  26.818  25.304  1.00  0.00     0.021 A 
ATOM     15  O   UNL A   1      31.978  25.380  23.508  1.00  0.00    -0.475 OA
ATOM     16  C   UNL A   1      33.728  28.366  27.095  1.00  0.00     0.046 C 
ATOM     17  C   UNL A   1      33.646  25.719  25.796  1.00  0.00     0.027 C 
ATOM     18  C   UNL A   1      32.657  24.225  24.062  1.00  0.00     0.316 C 
BRANCH  18  19
ATOM     19  C   UNL A   1      31.610  23.157  24.422  1.00  0.00     0.430 C 
ATOM     20  F   UNL A   1      30.463  23.335  23.723  1.00  0.00    -0.167 F 
ATOM     21  F   UNL A   1      32.048  21.909  24.118  1.00  0.00    -0.167 F 
ATOM     22  F   UNL A   1      31.291  23.165  25.734  1.00  0.00    -0.167 F 
ENDBRANCH  18  19
ENDBRANCH   4   6
ENDBRANCH   3   4
ENDBRANCH   2   3
ENDBRANCH   1   2
BRANCH   1  23
ATOM     23  O   UNL A   1      37.423  21.700  24.991  1.00  0.00    -0.458 OA
BRANCH  23  24
ATOM     24  C   UNL A   1      38.510  21.317  25.700  1.00  0.00     0.338 C 
ATOM     25  O   UNL A   1      39.020  20.211  25.728  1.00  0.00    -0.246 OA
BRANCH  24  26
ATOM     26  C   UNL A   1      39.074  22.471  26.421  1.00  0.00     0.060 A 
ATOM     27  C   UNL A   1      38.550  23.733  26.173  1.00  0.00     0.016 A 
ATOM     28  C   UNL A   1      40.229  22.338  27.186  1.00  0.00     0.016 A 
ATOM     29  C   UNL A   1      39.266  24.866  26.545  1.00  0.00     0.010 A 
ATOM     30  C   UNL A   1      40.866  23.483  27.686  1.00  0.00     0.010 A 
ATOM     31  C   UNL A   1      40.429  24.771  27.323  1.00  0.00    -0.014 A 
BRANCH  31  32
ATOM     32  C   UNL A   1      41.195  26.003  27.701  1.00  0.00     0.031 A 
ATOM     33  C   UNL A   1      40.567  27.051  28.594  1.00  0.00     0.074 A 
ATOM     34  C   UNL A   1      42.475  26.173  27.299  1.00  0.00     0.049 A 
ATOM     35  N   UNL A   1      40.981  28.264  28.861  1.00  0.00    -0.248 NA
ATOM     36  C   UNL A   1      39.306  26.696  29.266  1.00  0.00     0.031 C 
ATOM     37  C   UNL A   1      43.251  25.221  26.499  1.00  0.00     0.029 A 
ATOM     38  N   UNL A   1      43.366  27.194  27.533  1.00  0.00    -0.354 N 
ATOM     39  C   UNL A   1      40.008  28.834  29.678  1.00  0.00     0.074 A 
ATOM     40  C   UNL A   1      38.976  27.836  29.856  1.00  0.00     0.031 C 
ATOM     41  C   UNL A   1      44.514  25.654  26.390  1.00  0.00     0.029 A 
ATOM     42  C   UNL A   1      44.610  26.983  26.979  1.00  0.00     0.049 A 
ATOM     43  H   UNL A   1      43.137  28.001  28.048  1.00  0.00     0.167 HD
ATOM     44  C   UNL A   1      39.979  30.073  30.227  1.00  0.00     0.034 A 
ATOM     45  C   UNL A   1      45.693  27.782  26.891  1.00  0.00     0.034 A 
ATOM     46  C   UNL A   1      41.045  31.036  30.098  1.00  0.00     0.049 A 
ATOM     47  C   UNL A   1      45.608  29.181  27.437  1.00  0.00     0.074 A 
ATOM     48  C   UNL A   1      41.106  32.324  30.604  1.00  0.00     0.029 A 
ATOM     49  N   UNL A   1      42.248  30.809  29.446  1.00  0.00    -0.354 N 
ATOM     50  N   UNL A   1      44.618  29.753  28.080  1.00  0.00    -0.248 NA
ATOM     51  C   UNL A   1      46.767  30.054  27.211  1.00  0.00     0.031 C 
ATOM     52  C   UNL A   1      42.321  32.894  30.213  1.00  0.00     0.029 A 
ATOM     53  C   UNL A   1      43.047  31.939  29.520  1.00  0.00     0.049 A 
ATOM     54  H   UNL A   1      42.497  29.970  28.996  1.00  0.00     0.167 HD
ATOM     55  C   UNL A   1      45.041  31.050  28.345  1.00  0.00     0.074 A 
ATOM     56  C   UNL A   1      46.379  31.174  27.806  1.00  0.00     0.031 C 
ATOM     57  C   UNL A   1      44.377  32.051  28.973  1.00  0.00     0.034 A 
BRANCH  44  58
ATOM     58  C   UNL A   1      38.744  30.490  30.986  1.00  0.00     0.023 A 
ATOM     59  C   UNL A   1      37.680  31.165  30.367  1.00  0.00     0.031 A 
ATOM     60  C   UNL A   1      38.611  30.150  32.345  1.00  0.00     0.131 A 
ATOM     61  C   UNL A   1      36.541  31.504  31.114  1.00  0.00     0.055 A 
ATOM     62  C   UNL A   1      37.452  30.437  33.067  1.00  0.00     0.041 A 
ATOM     63  F   UNL A   1      39.604  29.518  32.990  1.00  0.00    -0.206 F 
ATOM     64  C   UNL A   1      36.408  31.121  32.453  1.00  0.00     0.022 A 
BRANCH  61  65
ATOM     65  S   UNL A   1      35.249  32.509  30.333  1.00  0.00     0.124 S 
ATOM     66  O   UNL A   1      34.839  31.651  29.224  1.00  0.00    -0.237 OA
ATOM     67  O   UNL A   1      34.277  32.670  31.408  1.00  0.00    -0.237 OA
ATOM     68  O   UNL A   1      35.952  33.729  29.941  1.00  0.00    -0.744 OA
ENDBRANCH  61  65
ENDBRANCH  44  58
BRANCH  45  69
ATOM     69  C   UNL A   1      46.923  27.310  26.189  1.00  0.00     0.023 A 
ATOM     70  C   UNL A   1      47.165  27.648  24.849  1.00  0.00     0.031 A 
ATOM     71  C   UNL A   1      47.870  26.501  26.846  1.00  0.00     0.131 A 
ATOM     72  C   UNL A   1      48.316  27.168  24.204  1.00  0.00     0.055 A 
ATOM     73  C   UNL A   1      49.040  26.074  26.218  1.00  0.00     0.041 A 
ATOM     74  F   UNL A   1      47.685  26.142  28.126  1.00  0.00    -0.206 F 
ATOM     75  C   UNL A   1      49.265  26.401  24.886  1.00  0.00     0.022 A 
BRANCH  72  76
ATOM     76  S   UNL A   1      48.536  27.514  22.437  1.00  0.00     0.124 S 
ATOM     77  O   UNL A   1      48.602  26.168  21.879  1.00  0.00    -0.237 OA
ATOM     78  O   UNL A   1      47.334  28.281  22.125  1.00  0.00    -0.237 OA
ATOM     79  O   UNL A   1      49.785  28.272  22.391  1.00  0.00    -0.744 OA
ENDBRANCH  72  76
ENDBRANCH  45  69
BRANCH  57  80
ATOM     80  C   UNL A   1      45.099  33.359  29.144  1.00  0.00     0.023 A 
ATOM     81  C   UNL A   1      44.990  34.385  28.190  1.00  0.00     0.031 A 
ATOM     82  C   UNL A   1      45.875  33.594  30.291  1.00  0.00     0.131 A 
ATOM     83  C   UNL A   1      45.672  35.593  28.388  1.00  0.00     0.055 A 
ATOM     84  C   UNL A   1      46.513  34.815  30.506  1.00  0.00     0.041 A 
ATOM     85  F   UNL A   1      46.008  32.645  31.231  1.00  0.00    -0.206 F 
ATOM     86  C   UNL A   1      46.419  35.821  29.548  1.00  0.00     0.022 A 
BRANCH  83  87
ATOM     87  S   UNL A   1      45.602  36.856  27.089  1.00  0.00     0.124 S 
ATOM     88  O   UNL A   1      46.268  36.183  25.978  1.00  0.00    -0.237 OA
ATOM     89  O   UNL A   1      44.167  37.073  26.935  1.00  0.00    -0.237 OA
ATOM     90  O   UNL A   1      46.337  37.981  27.664  1.00  0.00    -0.744 OA
ENDBRANCH  83  87
ENDBRANCH  57  80
ENDBRANCH  31  32
ENDBRANCH  24  26
ENDBRANCH  23  24
ENDBRANCH   1  23
TORSDOF 15
ENDMDL
MODEL 2
REMARK VINA RESULT:     -12.4      5.103     10.098
REMARK SMILES Cc1cc2c(c(C)c1Br)C=C(C(=O)OCCOC(=O)c1ccc(-c3c4nc(c(-c5cc(S(=O)(=O)[O-])ccc5F)c5ccc([nH]5)c(-c5cc(S(=O)(=O)[O-])ccc5F)c5nc(c(-c6cc(S(=O)(=O)[O-])ccc6F)c6ccc3[nH]6)C=C5)C=C4)cc1)[C@@H](C(F)(F)F)O2
REMARK SMILES IDX 16 1 15 2 14 3 12 4 13 5 11 6 1 7 2 8 3 9 8 10 4 11 6 12
REMARK SMILES IDX 9 13 5 14 88 15 7 16 10 17 83 18 84 19 85 20 86 21 87 22
REMARK SMILES IDX 17 23 18 24 19 25 20 26 21 27 82 28 22 29 81 30 23 31 24 32
REMARK SMILES IDX 25 33 75 34 26 35 80 36 74 37 76 38 27 39 79 40 73 41 72 42
REMARK SMILES IDX 28 44 60 45 40 46 59 47 41 48 44 49 58 50 77 51 42 52 43 53
REMARK SMILES IDX 57 55 78 56 45 57 29 58 30 59 38 60 31 61 37 62 39 63 36 64
REMARK SMILES IDX 32 65 33 66 34 67 35 68 61 69 62 70 70 71 63 72 69 73 71 74
REMARK SMILES IDX 68 75 64 76 65 77 66 78 67 79 46 80 47 81 55 82 48 83 54 84
REMARK SMILES IDX 56 85 53 86 49 87 50 88 51 89 52 90
REMARK H PARENT 76 43 44 54
REMARK Flexibility Score: inf
ROOT
ATOM      1  C   UNL A   1      31.791  30.379  25.750  1.00  0.00     0.275 C 
ENDROOT
BRANCH   1   2
ATOM      2  C   UNL A   1      31.449  29.030  25.119  1.00  0.00     0.275 C 
BRANCH   2   3
ATOM      3  O   UNL A   1      32.236  27.966  25.695  1.00  0.00    -0.459 OA
BRANCH   3   4
ATOM      4  C   UNL A   1      33.165  27.419  24.875  1.00  0.00     0.338 C 
ATOM      5  O   UNL A   1      33.922  28.023  24.130  1.00  0.00    -0.246 OA
BRANCH   4   6
ATOM      6  C   UNL A   1      33.151  25.949  24.983  1.00  0.00     0.087 C 
ATOM      7  C   UNL A   1      34.230  19.557  24.689  1.00  0.00     0.046 C 
ATOM      8  C   UNL A   1      34.318  21.050  24.862  1.00  0.00    -0.033 A 
ATOM      9  C   UNL A   1      33.130  21.794  24.843  1.00  0.00     0.051 A 
ATOM     10  C   UNL A   1      35.547  21.724  25.009  1.00  0.00     0.024 A 
ATOM     11  C   UNL A   1      33.150  23.182  24.945  1.00  0.00     0.128 A 
ATOM     12  C   UNL A   1      35.587  23.131  25.140  1.00  0.00    -0.026 A 
ATOM     13  Br  UNL A   1      37.159  20.690  24.997  1.00  0.00    -0.050 Br
ATOM     14  C   UNL A   1      34.366  23.858  25.083  1.00  0.00     0.021 A 
ATOM     15  O   UNL A   1      31.923  23.788  24.912  1.00  0.00    -0.475 OA
ATOM     16  C   UNL A   1      36.888  23.879  25.342  1.00  0.00     0.046 C 
ATOM     17  C   UNL A   1      34.322  25.317  25.125  1.00  0.00     0.027 C 
ATOM     18  C   UNL A   1      31.852  25.232  24.788  1.00  0.00     0.316 C 
BRANCH  18  19
ATOM     19  C   UNL A   1      31.212  25.584  23.435  1.00  0.00     0.430 C 
ATOM     20  F   UNL A   1      30.258  26.537  23.574  1.00  0.00    -0.167 F 
ATOM     21  F   UNL A   1      32.126  26.089  22.568  1.00  0.00    -0.167 F 
ATOM     22  F   UNL A   1      30.636  24.517  22.840  1.00  0.00    -0.167 F 
ENDBRANCH  18  19
ENDBRANCH   4   6
ENDBRANCH   3   4
ENDBRANCH   2   3
ENDBRANCH   1   2
BRANCH   1  23
ATOM     23  O   UNL A   1      32.698  30.197  26.852  1.00  0.00    -0.458 OA
BRANCH  23  24
ATOM     24  C   UNL A   1      33.330  31.317  27.270  1.00  0.00     0.338 C 
ATOM     25  O   UNL A   1      32.855  32.435  27.378  1.00  0.00    -0.246 OA
BRANCH  24  26
ATOM     26  C   UNL A   1      34.712  31.000  27.664  1.00  0.00     0.060 A 
ATOM     27  C   UNL A   1      35.049  29.675  27.909  1.00  0.00     0.016 A 
ATOM     28  C   UNL A   1      35.616  32.013  27.974  1.00  0.00     0.016 A 
ATOM     29  C   UNL A   1      36.210  29.373  28.611  1.00  0.00     0.010 A 
ATOM     30  C   UNL A   1      36.853  31.687  28.549  1.00  0.00     0.010 A 
ATOM     31  C   UNL A   1      37.147  30.366  28.933  1.00  0.00    -0.014 A 
BRANCH  31  32
ATOM     32  C   UNL A   1      38.385  30.023  29.705  1.00  0.00     0.031 A 
ATOM     33  C   UNL A   1      39.447  29.133  29.094  1.00  0.00     0.074 A 
ATOM     34  C   UNL A   1      38.604  30.545  30.933  1.00  0.00     0.049 A 
ATOM     35  N   UNL A   1      40.474  28.560  29.667  1.00  0.00    -0.248 NA
ATOM     36  C   UNL A   1      39.333  28.840  27.656  1.00  0.00     0.031 C 
ATOM     37  C   UNL A   1      37.717  31.480  31.632  1.00  0.00     0.029 A 
ATOM     38  N   UNL A   1      39.655  30.390  31.806  1.00  0.00    -0.354 N 
ATOM     39  C   UNL A   1      41.091  27.795  28.681  1.00  0.00     0.074 A 
ATOM     40  C   UNL A   1      40.317  27.970  27.471  1.00  0.00     0.031 C 
ATOM     41  C   UNL A   1      38.298  31.883  32.769  1.00  0.00     0.029 A 
ATOM     42  C   UNL A   1      39.529  31.128  32.963  1.00  0.00     0.049 A 
ATOM     43  H   UNL A   1      40.425  29.806  31.622  1.00  0.00     0.167 HD
ATOM     44  C   UNL A   1      42.200  27.021  28.775  1.00  0.00     0.034 A 
ATOM     45  C   UNL A   1      40.276  31.159  34.085  1.00  0.00     0.034 A 
ATOM     46  C   UNL A   1      43.004  26.906  29.968  1.00  0.00     0.049 A 
ATOM     47  C   UNL A   1      41.454  30.231  34.198  1.00  0.00     0.074 A 
ATOM     48  C   UNL A   1      44.137  26.137  30.171  1.00  0.00     0.029 A 
ATOM     49  N   UNL A   1      42.781  27.603  31.147  1.00  0.00    -0.354 N 
ATOM     50  N   UNL A   1      41.936  29.403  33.301  1.00  0.00    -0.248 NA
ATOM     51  C   UNL A   1      42.164  30.211  35.483  1.00  0.00     0.031 C 
ATOM     52  C   UNL A   1      44.568  26.326  31.487  1.00  0.00     0.029 A 
ATOM     53  C   UNL A   1      43.744  27.265  32.085  1.00  0.00     0.049 A 
ATOM     54  H   UNL A   1      42.048  28.242  31.295  1.00  0.00     0.167 HD
ATOM     55  C   UNL A   1      43.013  28.772  33.913  1.00  0.00     0.074 A 
ATOM     56  C   UNL A   1      43.120  29.323  35.248  1.00  0.00     0.031 C 
ATOM     57  C   UNL A   1      43.835  27.817  33.414  1.00  0.00     0.034 A 
BRANCH  44  58
ATOM     58  C   UNL A   1      42.600  26.195  27.578  1.00  0.00     0.023 A 
ATOM     59  C   UNL A   1      42.198  24.859  27.423  1.00  0.00     0.031 A 
ATOM     60  C   UNL A   1      43.353  26.784  26.544  1.00  0.00     0.131 A 
ATOM     61  C   UNL A   1      42.574  24.146  26.275  1.00  0.00     0.055 A 
ATOM     62  C   UNL A   1      43.673  26.088  25.377  1.00  0.00     0.041 A 
ATOM     63  F   UNL A   1      43.776  28.053  26.646  1.00  0.00    -0.206 F 
ATOM     64  C   UNL A   1      43.286  24.759  25.239  1.00  0.00     0.022 A 
BRANCH  61  65
ATOM     65  S   UNL A   1      42.174  22.380  26.171  1.00  0.00     0.124 S 
ATOM     66  O   UNL A   1      40.716  22.413  26.102  1.00  0.00    -0.237 OA
ATOM     67  O   UNL A   1      42.862  21.969  24.952  1.00  0.00    -0.237 OA
ATOM     68  O   UNL A   1      42.721  21.830  27.410  1.00  0.00    -0.744 OA
ENDBRANCH  61  65
ENDBRANCH  44  58
BRANCH  45  69
ATOM     69  C   UNL A   1      39.885  32.039  35.227  1.00  0.00     0.023 A 
ATOM     70  C   UNL A   1      39.012  31.582  36.226  1.00  0.00     0.031 A 
ATOM     71  C   UNL A   1      40.371  33.356  35.328  1.00  0.00     0.131 A 
ATOM     72  C   UNL A   1      38.640  32.440  37.273  1.00  0.00     0.055 A 
ATOM     73  C   UNL A   1      40.043  34.185  36.401  1.00  0.00     0.041 A 
ATOM     74  F   UNL A   1      41.203  33.847  34.396  1.00  0.00    -0.206 F 
ATOM     75  C   UNL A   1      39.166  33.730  37.379  1.00  0.00     0.022 A 
BRANCH  72  76
ATOM     76  S   UNL A   1      37.410  31.864  38.477  1.00  0.00     0.124 S 
ATOM     77  O   UNL A   1      38.134  32.018  39.734  1.00  0.00    -0.237 OA
ATOM     78  O   UNL A   1      36.306  32.792  38.253  1.00  0.00    -0.237 OA
ATOM     79  O   UNL A   1      37.154  30.485  38.069  1.00  0.00    -0.744 OA
ENDBRANCH  72  76
ENDBRANCH  45  69
BRANCH  57  80
ATOM     80  C   UNL A   1      44.947  27.330  34.303  1.00  0.00     0.023 A 
ATOM     81  C   UNL A   1      44.796  26.183  35.100  1.00  0.00     0.031 A 
ATOM     82  C   UNL A   1      46.182  27.999  34.322  1.00  0.00     0.131 A 
ATOM     83  C   UNL A   1      45.857  25.755  35.909  1.00  0.00     0.055 A 
ATOM     84  C   UNL A   1      47.250  27.542  35.093  1.00  0.00     0.041 A 
ATOM     85  F   UNL A   1      46.375  29.098  33.575  1.00  0.00    -0.206 F 
ATOM     86  C   UNL A   1      47.089  26.417  35.898  1.00  0.00     0.022 A 
BRANCH  83  87
ATOM     87  S   UNL A   1      45.597  24.339  37.010  1.00  0.00     0.124 S 
ATOM     88  O   UNL A   1      46.966  23.893  37.256  1.00  0.00    -0.237 OA
ATOM     89  O   UNL A   1      44.910  24.942  38.147  1.00  0.00    -0.237 OA
ATOM     90  O   UNL A   1      44.783  23.426  36.210  1.00  0.00    -0.744 OA
ENDBRANCH  83  87
ENDBRANCH  57  80
ENDBRANCH  31  32
ENDBRANCH  24  26
ENDBRANCH  23  24
ENDBRANCH   1  23
TORSDOF 15
ENDMDL
MODEL 3
REMARK VINA RESULT:     -12.4      5.167     10.062
REMARK SMILES Cc1cc2c(c(C)c1Br)C=C(C(=O)OCCOC(=O)c1ccc(-c3c4nc(c(-c5cc(S(=O)(=O)[O-])ccc5F)c5ccc([nH]5)c(-c5cc(S(=O)(=O)[O-])ccc5F)c5nc(c(-c6cc(S(=O)(=O)[O-])ccc6F)c6ccc3[nH]6)C=C5)C=C4)cc1)[C@@H](C(F)(F)F)O2
REMARK SMILES IDX 16 1 15 2 14 3 12 4 13 5 11 6 1 7 2 8 3 9 8 10 4 11 6 12
REMARK SMILES IDX 9 13 5 14 88 15 7 16 10 17 83 18 84 19 85 20 86 21 87 22
REMARK SMILES IDX 17 23 18 24 19 25 20 26 21 27 82 28 22 29 81 30 23 31 24 32
REMARK SMILES IDX 25 33 75 34 26 35 80 36 74 37 76 38 27 39 79 40 73 41 72 42
REMARK SMILES IDX 28 44 60 45 40 46 59 47 41 48 44 49 58 50 77 51 42 52 43 53
REMARK SMILES IDX 57 55 78 56 45 57 29 58 30 59 38 60 31 61 37 62 39 63 36 64
REMARK SMILES IDX 32 65 33 66 34 67 35 68 61 69 62 70 70 71 63 72 69 73 71 74
REMARK SMILES IDX 68 75 64 76 65 77 66 78 67 79 46 80 47 81 55 82 48 83 54 84
REMARK SMILES IDX 56 85 53 86 49 87 50 88 51 89 52 90
REMARK H PARENT 76 43 44 54
REMARK Flexibility Score: inf
ROOT
ATOM      1  C   UNL A   1      31.513  29.830  25.950  1.00  0.00     0.275 C 
ENDROOT
BRANCH   1   2
ATOM      2  C   UNL A   1      31.002  29.645  24.522  1.00  0.00     0.275 C 
BRANCH   2   3
ATOM      3  O   UNL A   1      30.611  28.277  24.276  1.00  0.00    -0.459 OA
BRANCH   3   4
ATOM      4  C   UNL A   1      30.807  27.835  23.011  1.00  0.00     0.338 C 
ATOM      5  O   UNL A   1      30.252  28.248  22.004  1.00  0.00    -0.246 OA
BRANCH   4   6
ATOM      6  C   UNL A   1      31.802  26.748  22.989  1.00  0.00     0.087 C 
ATOM      7  C   UNL A   1      35.967  21.935  24.252  1.00  0.00     0.046 C 
ATOM      8  C   UNL A   1      34.776  22.849  24.143  1.00  0.00    -0.033 A 
ATOM      9  C   UNL A   1      34.835  23.914  23.234  1.00  0.00     0.051 A 
ATOM     10  C   UNL A   1      33.625  22.692  24.942  1.00  0.00     0.024 A 
ATOM     11  C   UNL A   1      33.787  24.825  23.126  1.00  0.00     0.128 A 
ATOM     12  C   UNL A   1      32.539  23.590  24.829  1.00  0.00    -0.026 A 
ATOM     13  Br  UNL A   1      33.583  21.250  26.202  1.00  0.00    -0.050 Br
ATOM     14  C   UNL A   1      32.646  24.679  23.921  1.00  0.00     0.021 A 
ATOM     15  O   UNL A   1      33.969  25.818  22.202  1.00  0.00    -0.475 OA
ATOM     16  C   UNL A   1      31.273  23.422  25.642  1.00  0.00     0.046 C 
ATOM     17  C   UNL A   1      31.610  25.701  23.801  1.00  0.00     0.027 C 
ATOM     18  C   UNL A   1      33.042  26.933  22.172  1.00  0.00     0.316 C 
BRANCH  18  19
ATOM     19  C   UNL A   1      33.791  28.215  22.569  1.00  0.00     0.430 C 
ATOM     20  F   UNL A   1      34.980  28.312  21.924  1.00  0.00    -0.167 F 
ATOM     21  F   UNL A   1      33.089  29.327  22.235  1.00  0.00    -0.167 F 
ATOM     22  F   UNL A   1      34.043  28.280  23.894  1.00  0.00    -0.167 F 
ENDBRANCH  18  19
ENDBRANCH   4   6
ENDBRANCH   3   4
ENDBRANCH   2   3
ENDBRANCH   1   2
BRANCH   1  23
ATOM     23  O   UNL A   1      32.891  30.242  25.937  1.00  0.00    -0.458 OA
BRANCH  23  24
ATOM     24  C   UNL A   1      33.231  31.149  26.882  1.00  0.00     0.338 C 
ATOM     25  O   UNL A   1      32.527  32.028  27.347  1.00  0.00    -0.246 OA
BRANCH  24  26
ATOM     26  C   UNL A   1      34.601  30.893  27.355  1.00  0.00     0.060 A 
ATOM     27  C   UNL A   1      34.999  29.580  27.569  1.00  0.00     0.016 A 
ATOM     28  C   UNL A   1      35.420  31.942  27.766  1.00  0.00     0.016 A 
ATOM     29  C   UNL A   1      36.128  29.315  28.337  1.00  0.00     0.010 A 
ATOM     30  C   UNL A   1      36.634  31.662  28.411  1.00  0.00     0.010 A 
ATOM     31  C   UNL A   1      36.981  30.344  28.761  1.00  0.00    -0.014 A 
BRANCH  31  32
ATOM     32  C   UNL A   1      38.185  30.039  29.601  1.00  0.00     0.031 A 
ATOM     33  C   UNL A   1      39.314  29.198  29.044  1.00  0.00     0.074 A 
ATOM     34  C   UNL A   1      38.310  30.553  30.845  1.00  0.00     0.049 A 
ATOM     35  N   UNL A   1      40.328  28.657  29.671  1.00  0.00    -0.248 NA
ATOM     36  C   UNL A   1      39.296  28.920  27.599  1.00  0.00     0.031 C 
ATOM     37  C   UNL A   1      37.348  31.444  31.500  1.00  0.00     0.029 A 
ATOM     38  N   UNL A   1      39.313  30.427  31.777  1.00  0.00    -0.354 N 
ATOM     39  C   UNL A   1      41.031  27.929  28.714  1.00  0.00     0.074 A 
ATOM     40  C   UNL A   1      40.322  28.091  27.463  1.00  0.00     0.031 C 
ATOM     41  C   UNL A   1      37.846  31.854  32.674  1.00  0.00     0.029 A 
ATOM     42  C   UNL A   1      39.091  31.145  32.932  1.00  0.00     0.049 A 
ATOM     43  H   UNL A   1      40.116  29.876  31.633  1.00  0.00     0.167 HD
ATOM     44  C   UNL A   1      42.161  27.197  28.866  1.00  0.00     0.034 A 
ATOM     45  C   UNL A   1      39.769  31.190  34.097  1.00  0.00     0.034 A 
ATOM     46  C   UNL A   1      42.897  27.098  30.103  1.00  0.00     0.049 A 
ATOM     47  C   UNL A   1      40.974  30.306  34.269  1.00  0.00     0.074 A 
ATOM     48  C   UNL A   1      44.046  26.370  30.364  1.00  0.00     0.029 A 
ATOM     49  N   UNL A   1      42.579  27.771  31.274  1.00  0.00    -0.354 N 
ATOM     50  N   UNL A   1      41.540  29.509  33.394  1.00  0.00    -0.248 NA
ATOM     51  C   UNL A   1      41.608  30.296  35.594  1.00  0.00     0.031 C 
ATOM     52  C   UNL A   1      44.391  26.558  31.705  1.00  0.00     0.029 A 
ATOM     53  C   UNL A   1      43.498  27.457  32.264  1.00  0.00     0.049 A 
ATOM     54  H   UNL A   1      41.814  28.378  31.386  1.00  0.00     0.167 HD
ATOM     55  C   UNL A   1      42.602  28.911  34.061  1.00  0.00     0.074 A 
ATOM     56  C   UNL A   1      42.610  29.449  35.406  1.00  0.00     0.031 C 
ATOM     57  C   UNL A   1      43.490  27.995  33.602  1.00  0.00     0.034 A 
BRANCH  44  58
ATOM     58  C   UNL A   1      42.662  26.403  27.686  1.00  0.00     0.023 A 
ATOM     59  C   UNL A   1      42.276  25.072  27.462  1.00  0.00     0.031 A 
ATOM     60  C   UNL A   1      43.500  27.018  26.735  1.00  0.00     0.131 A 
ATOM     61  C   UNL A   1      42.749  24.389  26.331  1.00  0.00     0.055 A 
ATOM     62  C   UNL A   1      43.919  26.353  25.582  1.00  0.00     0.041 A 
ATOM     63  F   UNL A   1      43.911  28.283  26.907  1.00  0.00    -0.206 F 
ATOM     64  C   UNL A   1      43.546  25.028  25.376  1.00  0.00     0.022 A 
BRANCH  61  65
ATOM     65  S   UNL A   1      42.362  22.627  26.148  1.00  0.00     0.124 S 
ATOM     66  O   UNL A   1      43.006  22.060  27.329  1.00  0.00    -0.237 OA
ATOM     67  O   UNL A   1      40.903  22.620  26.150  1.00  0.00    -0.237 OA
ATOM     68  O   UNL A   1      42.984  22.269  24.875  1.00  0.00    -0.744 OA
ENDBRANCH  61  65
ENDBRANCH  44  58
BRANCH  45  69
ATOM     69  C   UNL A   1      39.278  32.039  35.223  1.00  0.00     0.023 A 
ATOM     70  C   UNL A   1      39.740  33.353  35.392  1.00  0.00     0.031 A 
ATOM     71  C   UNL A   1      38.347  31.543  36.155  1.00  0.00     0.131 A 
ATOM     72  C   UNL A   1      39.282  34.120  36.475  1.00  0.00     0.055 A 
ATOM     73  C   UNL A   1      37.853  32.328  37.196  1.00  0.00     0.041 A 
ATOM     74  F   UNL A   1      37.878  30.290  36.045  1.00  0.00    -0.206 F 
ATOM     75  C   UNL A   1      38.327  33.624  37.366  1.00  0.00     0.022 A 
BRANCH  72  76
ATOM     76  S   UNL A   1      39.995  35.767  36.741  1.00  0.00     0.124 S 
ATOM     77  O   UNL A   1      41.406  35.451  36.934  1.00  0.00    -0.237 OA
ATOM     78  O   UNL A   1      39.654  36.452  35.498  1.00  0.00    -0.237 OA
ATOM     79  O   UNL A   1      39.296  36.253  37.929  1.00  0.00    -0.744 OA
ENDBRANCH  72  76
ENDBRANCH  45  69
BRANCH  57  80
ATOM     80  C   UNL A   1      44.565  27.539  34.549  1.00  0.00     0.023 A 
ATOM     81  C   UNL A   1      44.414  26.374  35.320  1.00  0.00     0.031 A 
ATOM     82  C   UNL A   1      45.768  28.258  34.652  1.00  0.00     0.131 A 
ATOM     83  C   UNL A   1      45.442  25.977  36.186  1.00  0.00     0.055 A 
ATOM     84  C   UNL A   1      46.806  27.832  35.480  1.00  0.00     0.041 A 
ATOM     85  F   UNL A   1      45.959  29.376  33.934  1.00  0.00    -0.206 F 
ATOM     86  C   UNL A   1      46.644  26.689  36.258  1.00  0.00     0.022 A 
BRANCH  83  87
ATOM     87  S   UNL A   1      45.176  24.534  37.250  1.00  0.00     0.124 S 
ATOM     88  O   UNL A   1      44.731  23.529  36.288  1.00  0.00    -0.237 OA
ATOM     89  O   UNL A   1      46.498  24.319  37.829  1.00  0.00    -0.237 OA
ATOM     90  O   UNL A   1      44.155  24.984  38.193  1.00  0.00    -0.744 OA
ENDBRANCH  83  87
ENDBRANCH  57  80
ENDBRANCH  31  32
ENDBRANCH  24  26
ENDBRANCH  23  24
ENDBRANCH   1  23
TORSDOF 15
ENDMDL
