MODEL 1
REMARK VINA RESULT:     -11.7      0.000      0.000
REMARK SMILES O=C(OCCOC(=O)[C@H]1CCCN(S(=O)(=O)c2cccc(Br)c2)C1)c1ccc(-c2c3nc(c(-c4cc(S(=O)(=O)[O-])ccc4F)c4ccc([nH]4)c(-c4cc(S(=O)(=O)[O-])ccc4F)c4nc(c(-c5cc(S(=O)(=O)[O-])ccc5F)c5ccc2[nH]5)C=C4)C=C3)cc1
REMARK SMILES IDX 4 1 3 2 2 3 1 4 25 5 26 6 87 7 27 8 86 9 28 10 29 11 30 12
REMARK SMILES IDX 80 13 31 14 85 15 79 16 81 17 32 18 84 19 78 20 77 21 33 23
REMARK SMILES IDX 65 24 45 25 64 26 46 27 49 28 63 29 82 30 47 31 48 32 62 34
REMARK SMILES IDX 83 35 50 36 34 37 35 38 43 39 36 40 42 41 44 42 41 43 37 44
REMARK SMILES IDX 38 45 39 46 40 47 66 48 67 49 75 50 68 51 74 52 76 53 73 54
REMARK SMILES IDX 69 55 70 56 71 57 72 58 51 59 52 60 60 61 53 62 59 63 61 64
REMARK SMILES IDX 58 65 54 66 55 67 56 68 57 69 5 70 6 71 7 72 8 73 9 74 10 75
REMARK SMILES IDX 24 76 11 77 13 78 12 79 14 80 15 81 16 82 17 83 18 84 23 85
REMARK SMILES IDX 19 86 21 87 20 88 22 89
REMARK H PARENT 81 22 49 33
REMARK Flexibility Score: inf
ROOT
ATOM      1  C   UNL A   1      37.050  22.609  25.549  1.00  0.00     0.275 C 
ENDROOT
BRANCH   1   2
ATOM      2  O   UNL A   1      38.243  21.929  25.982  1.00  0.00    -0.458 OA
BRANCH   2   3
ATOM      3  C   UNL A   1      39.330  22.386  26.650  1.00  0.00     0.338 C 
ATOM      4  O   UNL A   1      40.159  21.557  27.028  1.00  0.00    -0.246 OA
BRANCH   3   5
ATOM      5  C   UNL A   1      39.539  23.813  27.064  1.00  0.00     0.060 A 
ATOM      6  C   UNL A   1      39.239  24.382  28.310  1.00  0.00     0.016 A 
ATOM      7  C   UNL A   1      40.113  24.653  26.092  1.00  0.00     0.016 A 
ATOM      8  C   UNL A   1      39.620  25.702  28.629  1.00  0.00     0.010 A 
ATOM      9  C   UNL A   1      40.478  25.970  26.400  1.00  0.00     0.010 A 
ATOM     10  C   UNL A   1      40.270  26.498  27.687  1.00  0.00    -0.014 A 
BRANCH  10  11
ATOM     11  C   UNL A   1      40.597  27.930  27.937  1.00  0.00     0.031 A 
ATOM     12  C   UNL A   1      42.052  28.295  27.938  1.00  0.00     0.074 A 
ATOM     13  C   UNL A   1      39.669  28.860  28.252  1.00  0.00     0.049 A 
ATOM     14  N   UNL A   1      42.634  29.407  28.293  1.00  0.00    -0.248 NA
ATOM     15  C   UNL A   1      42.974  27.235  27.497  1.00  0.00     0.031 C 
ATOM     16  C   UNL A   1      38.222  28.661  28.261  1.00  0.00     0.029 A 
ATOM     17  N   UNL A   1      39.815  30.156  28.691  1.00  0.00    -0.354 N 
ATOM     18  C   UNL A   1      43.988  29.192  28.070  1.00  0.00     0.074 A 
ATOM     19  C   UNL A   1      44.146  27.800  27.716  1.00  0.00     0.031 C 
ATOM     20  C   UNL A   1      37.622  29.744  28.790  1.00  0.00     0.029 A 
ATOM     21  C   UNL A   1      38.638  30.735  29.124  1.00  0.00     0.049 A 
ATOM     22  H   UNL A   1      40.679  30.629  28.696  1.00  0.00     0.167 HD
ATOM     23  C   UNL A   1      45.001  30.092  28.071  1.00  0.00     0.034 A 
ATOM     24  C   UNL A   1      38.419  31.916  29.741  1.00  0.00     0.034 A 
ATOM     25  C   UNL A   1      44.836  31.461  28.471  1.00  0.00     0.049 A 
ATOM     26  C   UNL A   1      39.586  32.844  29.963  1.00  0.00     0.074 A 
ATOM     27  C   UNL A   1      45.773  32.477  28.508  1.00  0.00     0.029 A 
ATOM     28  N   UNL A   1      43.642  31.999  28.935  1.00  0.00    -0.354 N 
ATOM     29  N   UNL A   1      40.854  32.651  29.685  1.00  0.00    -0.248 NA
ATOM     30  C   UNL A   1      39.288  34.156  30.550  1.00  0.00     0.031 C 
ATOM     31  C   UNL A   1      45.158  33.613  29.048  1.00  0.00     0.029 A 
ATOM     32  C   UNL A   1      43.821  33.326  29.285  1.00  0.00     0.049 A 
ATOM     33  H   UNL A   1      42.792  31.509  29.004  1.00  0.00     0.167 HD
ATOM     34  C   UNL A   1      41.492  33.851  29.983  1.00  0.00     0.074 A 
ATOM     35  C   UNL A   1      40.477  34.740  30.514  1.00  0.00     0.031 C 
ATOM     36  C   UNL A   1      42.789  34.199  29.793  1.00  0.00     0.034 A 
BRANCH  23  37
ATOM     37  C   UNL A   1      46.341  29.569  27.615  1.00  0.00     0.023 A 
ATOM     38  C   UNL A   1      46.548  29.241  26.259  1.00  0.00     0.031 A 
ATOM     39  C   UNL A   1      47.348  29.245  28.533  1.00  0.00     0.131 A 
ATOM     40  C   UNL A   1      47.659  28.473  25.890  1.00  0.00     0.055 A 
ATOM     41  C   UNL A   1      48.509  28.576  28.136  1.00  0.00     0.041 A 
ATOM     42  F   UNL A   1      47.198  29.516  29.839  1.00  0.00    -0.206 F 
ATOM     43  C   UNL A   1      48.655  28.157  26.814  1.00  0.00     0.022 A 
BRANCH  40  44
ATOM     44  S   UNL A   1      47.653  27.698  24.248  1.00  0.00     0.124 S 
ATOM     45  O   UNL A   1      46.827  28.632  23.484  1.00  0.00    -0.237 OA
ATOM     46  O   UNL A   1      49.070  27.673  23.902  1.00  0.00    -0.237 OA
ATOM     47  O   UNL A   1      47.044  26.391  24.488  1.00  0.00    -0.744 OA
ENDBRANCH  40  44
ENDBRANCH  23  37
BRANCH  24  48
ATOM     48  C   UNL A   1      37.074  32.273  30.277  1.00  0.00     0.023 A 
ATOM     49  C   UNL A   1      36.118  32.987  29.538  1.00  0.00     0.031 A 
ATOM     50  C   UNL A   1      36.778  31.979  31.618  1.00  0.00     0.131 A 
ATOM     51  C   UNL A   1      34.925  33.404  30.157  1.00  0.00     0.055 A 
ATOM     52  C   UNL A   1      35.577  32.360  32.220  1.00  0.00     0.041 A 
ATOM     53  F   UNL A   1      37.684  31.330  32.365  1.00  0.00    -0.206 F 
ATOM     54  C   UNL A   1      34.643  33.086  31.488  1.00  0.00     0.022 A 
BRANCH  51  55
ATOM     55  S   UNL A   1      33.766  34.444  29.221  1.00  0.00     0.124 S 
ATOM     56  O   UNL A   1      34.661  35.453  28.664  1.00  0.00    -0.237 OA
ATOM     57  O   UNL A   1      33.203  33.490  28.272  1.00  0.00    -0.237 OA
ATOM     58  O   UNL A   1      32.838  34.927  30.241  1.00  0.00    -0.744 OA
ENDBRANCH  51  55
ENDBRANCH  24  48
BRANCH  36  59
ATOM     59  C   UNL A   1      43.153  35.640  30.034  1.00  0.00     0.023 A 
ATOM     60  C   UNL A   1      42.999  36.630  29.051  1.00  0.00     0.031 A 
ATOM     61  C   UNL A   1      43.658  36.018  31.291  1.00  0.00     0.131 A 
ATOM     62  C   UNL A   1      43.384  37.949  29.334  1.00  0.00     0.055 A 
ATOM     63  C   UNL A   1      43.984  37.340  31.584  1.00  0.00     0.041 A 
ATOM     64  F   UNL A   1      43.831  35.104  32.260  1.00  0.00    -0.206 F 
ATOM     65  C   UNL A   1      43.856  38.313  30.598  1.00  0.00     0.022 A 
BRANCH  62  66
ATOM     66  S   UNL A   1      43.329  39.175  27.999  1.00  0.00     0.124 S 
ATOM     67  O   UNL A   1      41.901  39.242  27.711  1.00  0.00    -0.237 OA
ATOM     68  O   UNL A   1      43.907  40.354  28.635  1.00  0.00    -0.237 OA
ATOM     69  O   UNL A   1      44.148  38.574  26.948  1.00  0.00    -0.744 OA
ENDBRANCH  62  66
ENDBRANCH  36  59
ENDBRANCH  10  11
ENDBRANCH   3   5
ENDBRANCH   2   3
ENDBRANCH   1   2
BRANCH   1  70
ATOM     70  C   UNL A   1      36.398  21.998  24.306  1.00  0.00     0.274 C 
BRANCH  70  71
ATOM     71  O   UNL A   1      35.513  20.924  24.654  1.00  0.00    -0.462 OA
BRANCH  71  72
ATOM     72  C   UNL A   1      34.355  21.231  25.313  1.00  0.00     0.310 C 
ATOM     73  O   UNL A   1      34.012  20.739  26.379  1.00  0.00    -0.252 OA
BRANCH  72  74
ATOM     74  C   UNL A   1      33.588  22.338  24.590  1.00  0.00     0.114 C 
ATOM     75  C   UNL A   1      32.515  21.746  23.695  1.00  0.00     0.018 C 
ATOM     76  C   UNL A   1      32.901  23.311  25.554  1.00  0.00     0.117 C 
ATOM     77  C   UNL A   1      31.890  22.844  22.873  1.00  0.00     0.018 C 
ATOM     78  N   UNL A   1      32.038  24.346  24.832  1.00  0.00    -0.197 NA
ATOM     79  C   UNL A   1      31.136  23.754  23.800  1.00  0.00     0.102 C 
BRANCH  78  80
ATOM     80  S   UNL A   1      31.170  25.322  25.978  1.00  0.00     0.243 S 
ATOM     81  O   UNL A   1      29.903  25.680  25.365  1.00  0.00    -0.207 OA
ATOM     82  O   UNL A   1      31.205  24.626  27.242  1.00  0.00    -0.207 OA
BRANCH  80  83
ATOM     83  C   UNL A   1      32.123  26.821  26.134  1.00  0.00     0.083 A 
ATOM     84  C   UNL A   1      33.521  26.745  26.172  1.00  0.00     0.022 A 
ATOM     85  C   UNL A   1      31.490  28.064  26.135  1.00  0.00     0.037 A 
ATOM     86  C   UNL A   1      34.287  27.902  26.309  1.00  0.00     0.003 A 
ATOM     87  C   UNL A   1      32.270  29.219  26.220  1.00  0.00     0.019 A 
ATOM     88  C   UNL A   1      33.661  29.145  26.328  1.00  0.00     0.016 A 
ATOM     89  Br  UNL A   1      31.437  30.916  26.166  1.00  0.00    -0.051 Br
ENDBRANCH  80  83
ENDBRANCH  78  80
ENDBRANCH  72  74
ENDBRANCH  71  72
ENDBRANCH  70  71
ENDBRANCH   1  70
TORSDOF 16
ENDMDL
MODEL 2
REMARK VINA RESULT:     -11.5      5.191     10.376
REMARK SMILES O=C(OCCOC(=O)[C@H]1CCCN(S(=O)(=O)c2cccc(Br)c2)C1)c1ccc(-c2c3nc(c(-c4cc(S(=O)(=O)[O-])ccc4F)c4ccc([nH]4)c(-c4cc(S(=O)(=O)[O-])ccc4F)c4nc(c(-c5cc(S(=O)(=O)[O-])ccc5F)c5ccc2[nH]5)C=C4)C=C3)cc1
REMARK SMILES IDX 4 1 3 2 2 3 1 4 25 5 26 6 87 7 27 8 86 9 28 10 29 11 30 12
REMARK SMILES IDX 80 13 31 14 85 15 79 16 81 17 32 18 84 19 78 20 77 21 33 23
REMARK SMILES IDX 65 24 45 25 64 26 46 27 49 28 63 29 82 30 47 31 48 32 62 34
REMARK SMILES IDX 83 35 50 36 34 37 35 38 43 39 36 40 42 41 44 42 41 43 37 44
REMARK SMILES IDX 38 45 39 46 40 47 66 48 67 49 75 50 68 51 74 52 76 53 73 54
REMARK SMILES IDX 69 55 70 56 71 57 72 58 51 59 52 60 60 61 53 62 59 63 61 64
REMARK SMILES IDX 58 65 54 66 55 67 56 68 57 69 5 70 6 71 7 72 8 73 9 74 10 75
REMARK SMILES IDX 24 76 11 77 13 78 12 79 14 80 15 81 16 82 17 83 18 84 23 85
REMARK SMILES IDX 19 86 21 87 20 88 22 89
REMARK H PARENT 81 22 49 33
REMARK Flexibility Score: inf
ROOT
ATOM      1  C   UNL A   1      32.134  30.806  26.225  1.00  0.00     0.275 C 
ENDROOT
BRANCH   1   2
ATOM      2  O   UNL A   1      33.104  30.413  27.213  1.00  0.00    -0.458 OA
BRANCH   2   3
ATOM      3  C   UNL A   1      34.236  31.026  27.636  1.00  0.00     0.338 C 
ATOM      4  O   UNL A   1      34.268  32.257  27.597  1.00  0.00    -0.246 OA
BRANCH   3   5
ATOM      5  C   UNL A   1      35.494  30.313  28.036  1.00  0.00     0.060 A 
ATOM      6  C   UNL A   1      36.640  30.119  27.251  1.00  0.00     0.016 A 
ATOM      7  C   UNL A   1      35.517  29.805  29.348  1.00  0.00     0.016 A 
ATOM      8  C   UNL A   1      37.817  29.563  27.790  1.00  0.00     0.010 A 
ATOM      9  C   UNL A   1      36.680  29.237  29.882  1.00  0.00     0.010 A 
ATOM     10  C   UNL A   1      37.859  29.144  29.120  1.00  0.00    -0.014 A 
BRANCH  10  11
ATOM     11  C   UNL A   1      39.042  28.453  29.706  1.00  0.00     0.031 A 
ATOM     12  C   UNL A   1      39.695  29.122  30.880  1.00  0.00     0.074 A 
ATOM     13  C   UNL A   1      39.589  27.338  29.176  1.00  0.00     0.049 A 
ATOM     14  N   UNL A   1      40.823  28.850  31.474  1.00  0.00    -0.248 NA
ATOM     15  C   UNL A   1      38.973  30.278  31.435  1.00  0.00     0.031 C 
ATOM     16  C   UNL A   1      39.050  26.563  28.061  1.00  0.00     0.029 A 
ATOM     17  N   UNL A   1      40.769  26.693  29.471  1.00  0.00    -0.354 N 
ATOM     18  C   UNL A   1      40.918  29.775  32.506  1.00  0.00     0.074 A 
ATOM     19  C   UNL A   1      39.827  30.708  32.345  1.00  0.00     0.031 C 
ATOM     20  C   UNL A   1      39.944  25.626  27.691  1.00  0.00     0.029 A 
ATOM     21  C   UNL A   1      41.106  25.705  28.568  1.00  0.00     0.049 A 
ATOM     22  H   UNL A   1      41.322  26.915  30.255  1.00  0.00     0.167 HD
ATOM     23  C   UNL A   1      41.783  29.796  33.549  1.00  0.00     0.034 A 
ATOM     24  C   UNL A   1      42.234  24.971  28.454  1.00  0.00     0.034 A 
ATOM     25  C   UNL A   1      42.891  28.890  33.670  1.00  0.00     0.049 A 
ATOM     26  C   UNL A   1      43.320  25.149  29.484  1.00  0.00     0.074 A 
ATOM     27  C   UNL A   1      43.833  28.796  34.677  1.00  0.00     0.029 A 
ATOM     28  N   UNL A   1      43.220  27.930  32.722  1.00  0.00    -0.354 N 
ATOM     29  N   UNL A   1      43.365  25.985  30.496  1.00  0.00    -0.248 NA
ATOM     30  C   UNL A   1      44.487  24.265  29.378  1.00  0.00     0.031 C 
ATOM     31  C   UNL A   1      44.764  27.817  34.309  1.00  0.00     0.029 A 
ATOM     32  C   UNL A   1      44.365  27.253  33.106  1.00  0.00     0.049 A 
ATOM     33  H   UNL A   1      42.712  27.755  31.897  1.00  0.00     0.167 HD
ATOM     34  C   UNL A   1      44.525  25.667  31.196  1.00  0.00     0.074 A 
ATOM     35  C   UNL A   1      45.176  24.601  30.459  1.00  0.00     0.031 C 
ATOM     36  C   UNL A   1      44.985  26.180  32.364  1.00  0.00     0.034 A 
BRANCH  23  37
ATOM     37  C   UNL A   1      41.511  30.841  34.603  1.00  0.00     0.023 A 
ATOM     38  C   UNL A   1      40.424  30.689  35.487  1.00  0.00     0.031 A 
ATOM     39  C   UNL A   1      42.219  32.051  34.629  1.00  0.00     0.131 A 
ATOM     40  C   UNL A   1      39.981  31.782  36.243  1.00  0.00     0.055 A 
ATOM     41  C   UNL A   1      41.839  33.099  35.471  1.00  0.00     0.041 A 
ATOM     42  F   UNL A   1      43.251  32.258  33.798  1.00  0.00    -0.206 F 
ATOM     43  C   UNL A   1      40.695  32.980  36.260  1.00  0.00     0.022 A 
BRANCH  40  44
ATOM     44  S   UNL A   1      38.337  31.682  37.005  1.00  0.00     0.124 S 
ATOM     45  O   UNL A   1      38.063  30.248  36.929  1.00  0.00    -0.237 OA
ATOM     46  O   UNL A   1      38.574  32.214  38.343  1.00  0.00    -0.237 OA
ATOM     47  O   UNL A   1      37.506  32.515  36.138  1.00  0.00    -0.744 OA
ENDBRANCH  40  44
ENDBRANCH  23  37
BRANCH  24  48
ATOM     48  C   UNL A   1      42.456  24.065  27.290  1.00  0.00     0.023 A 
ATOM     49  C   UNL A   1      41.998  22.739  27.252  1.00  0.00     0.031 A 
ATOM     50  C   UNL A   1      43.249  24.515  26.222  1.00  0.00     0.131 A 
ATOM     51  C   UNL A   1      42.363  21.905  26.178  1.00  0.00     0.055 A 
ATOM     52  C   UNL A   1      43.578  23.698  25.139  1.00  0.00     0.041 A 
ATOM     53  F   UNL A   1      43.735  25.765  26.243  1.00  0.00    -0.206 F 
ATOM     54  C   UNL A   1      43.139  22.378  25.118  1.00  0.00     0.022 A 
BRANCH  51  55
ATOM     55  S   UNL A   1      41.874  20.155  26.220  1.00  0.00     0.124 S 
ATOM     56  O   UNL A   1      42.637  19.610  25.104  1.00  0.00    -0.237 OA
ATOM     57  O   UNL A   1      42.307  19.753  27.554  1.00  0.00    -0.237 OA
ATOM     58  O   UNL A   1      40.426  20.201  26.025  1.00  0.00    -0.744 OA
ENDBRANCH  51  55
ENDBRANCH  24  48
BRANCH  36  59
ATOM     59  C   UNL A   1      46.177  25.503  32.986  1.00  0.00     0.023 A 
ATOM     60  C   UNL A   1      46.053  24.402  33.847  1.00  0.00     0.031 A 
ATOM     61  C   UNL A   1      47.467  25.981  32.691  1.00  0.00     0.131 A 
ATOM     62  C   UNL A   1      47.205  23.836  34.414  1.00  0.00     0.055 A 
ATOM     63  C   UNL A   1      48.610  25.378  33.211  1.00  0.00     0.041 A 
ATOM     64  F   UNL A   1      47.634  27.037  31.879  1.00  0.00    -0.206 F 
ATOM     65  C   UNL A   1      48.481  24.303  34.086  1.00  0.00     0.022 A 
BRANCH  62  66
ATOM     66  S   UNL A   1      47.011  22.522  35.647  1.00  0.00     0.124 S 
ATOM     67  O   UNL A   1      48.224  22.673  36.442  1.00  0.00    -0.237 OA
ATOM     68  O   UNL A   1      45.765  22.895  36.308  1.00  0.00    -0.237 OA
ATOM     69  O   UNL A   1      46.942  21.304  34.841  1.00  0.00    -0.744 OA
ENDBRANCH  62  66
ENDBRANCH  36  59
ENDBRANCH  10  11
ENDBRANCH   3   5
ENDBRANCH   2   3
ENDBRANCH   1   2
BRANCH   1  70
ATOM     70  C   UNL A   1      31.481  29.634  25.487  1.00  0.00     0.274 C 
BRANCH  70  71
ATOM     71  O   UNL A   1      32.406  28.997  24.596  1.00  0.00    -0.462 OA
BRANCH  71  72
ATOM     72  C   UNL A   1      32.913  27.779  24.956  1.00  0.00     0.310 C 
ATOM     73  O   UNL A   1      33.975  27.615  25.539  1.00  0.00    -0.252 OA
BRANCH  72  74
ATOM     74  C   UNL A   1      31.935  26.655  24.617  1.00  0.00     0.114 C 
ATOM     75  C   UNL A   1      32.294  26.019  23.286  1.00  0.00     0.018 C 
ATOM     76  C   UNL A   1      31.919  25.542  25.671  1.00  0.00     0.117 C 
ATOM     77  C   UNL A   1      31.221  25.033  22.899  1.00  0.00     0.018 C 
ATOM     78  N   UNL A   1      31.030  24.364  25.272  1.00  0.00    -0.197 NA
ATOM     79  C   UNL A   1      31.259  23.891  23.875  1.00  0.00     0.102 C 
BRANCH  78  80
ATOM     80  S   UNL A   1      31.171  23.077  26.431  1.00  0.00     0.243 S 
ATOM     81  O   UNL A   1      31.654  23.664  27.668  1.00  0.00    -0.207 OA
ATOM     82  O   UNL A   1      29.931  22.339  26.401  1.00  0.00    -0.207 OA
BRANCH  80  83
ATOM     83  C   UNL A   1      32.468  22.024  25.806  1.00  0.00     0.083 A 
ATOM     84  C   UNL A   1      33.805  22.402  25.984  1.00  0.00     0.022 A 
ATOM     85  C   UNL A   1      32.160  20.796  25.220  1.00  0.00     0.037 A 
ATOM     86  C   UNL A   1      34.836  21.602  25.491  1.00  0.00     0.003 A 
ATOM     87  C   UNL A   1      33.203  19.980  24.777  1.00  0.00     0.019 A 
ATOM     88  C   UNL A   1      34.535  20.385  24.888  1.00  0.00     0.016 A 
ATOM     89  Br  UNL A   1      32.812  18.286  24.030  1.00  0.00    -0.051 Br
ENDBRANCH  80  83
ENDBRANCH  78  80
ENDBRANCH  72  74
ENDBRANCH  71  72
ENDBRANCH  70  71
ENDBRANCH   1  70
TORSDOF 16
ENDMDL
MODEL 3
REMARK VINA RESULT:     -11.5      5.073     10.442
REMARK SMILES O=C(OCCOC(=O)[C@H]1CCCN(S(=O)(=O)c2cccc(Br)c2)C1)c1ccc(-c2c3nc(c(-c4cc(S(=O)(=O)[O-])ccc4F)c4ccc([nH]4)c(-c4cc(S(=O)(=O)[O-])ccc4F)c4nc(c(-c5cc(S(=O)(=O)[O-])ccc5F)c5ccc2[nH]5)C=C4)C=C3)cc1
REMARK SMILES IDX 4 1 3 2 2 3 1 4 25 5 26 6 87 7 27 8 86 9 28 10 29 11 30 12
REMARK SMILES IDX 80 13 31 14 85 15 79 16 81 17 32 18 84 19 78 20 77 21 33 23
REMARK SMILES IDX 65 24 45 25 64 26 46 27 49 28 63 29 82 30 47 31 48 32 62 34
REMARK SMILES IDX 83 35 50 36 34 37 35 38 43 39 36 40 42 41 44 42 41 43 37 44
REMARK SMILES IDX 38 45 39 46 40 47 66 48 67 49 75 50 68 51 74 52 76 53 73 54
REMARK SMILES IDX 69 55 70 56 71 57 72 58 51 59 52 60 60 61 53 62 59 63 61 64
REMARK SMILES IDX 58 65 54 66 55 67 56 68 57 69 5 70 6 71 7 72 8 73 9 74 10 75
REMARK SMILES IDX 24 76 11 77 13 78 12 79 14 80 15 81 16 82 17 83 18 84 23 85
REMARK SMILES IDX 19 86 21 87 20 88 22 89
REMARK H PARENT 81 22 49 33
REMARK Flexibility Score: inf
ROOT
ATOM      1  C   UNL A   1      32.037  32.864  26.911  1.00  0.00     0.275 C 
ENDROOT
BRANCH   1   2
ATOM      2  O   UNL A   1      32.676  33.773  27.828  1.00  0.00    -0.458 OA
BRANCH   2   3
ATOM      3  C   UNL A   1      33.983  34.080  28.003  1.00  0.00     0.338 C 
ATOM      4  O   UNL A   1      34.415  35.088  27.441  1.00  0.00    -0.246 OA
BRANCH   3   5
ATOM      5  C   UNL A   1      34.972  33.220  28.735  1.00  0.00     0.060 A 
ATOM      6  C   UNL A   1      34.695  32.303  29.759  1.00  0.00     0.016 A 
ATOM      7  C   UNL A   1      36.312  33.347  28.327  1.00  0.00     0.016 A 
ATOM      8  C   UNL A   1      35.690  31.443  30.267  1.00  0.00     0.010 A 
ATOM      9  C   UNL A   1      37.307  32.505  28.840  1.00  0.00     0.010 A 
ATOM     10  C   UNL A   1      36.999  31.515  29.790  1.00  0.00    -0.014 A 
BRANCH  10  11
ATOM     11  C   UNL A   1      38.108  30.705  30.369  1.00  0.00     0.031 A 
ATOM     12  C   UNL A   1      38.647  31.157  31.694  1.00  0.00     0.074 A 
ATOM     13  C   UNL A   1      38.692  29.674  29.720  1.00  0.00     0.049 A 
ATOM     14  N   UNL A   1      39.707  30.761  32.344  1.00  0.00    -0.248 NA
ATOM     15  C   UNL A   1      37.887  32.229  32.357  1.00  0.00     0.031 C 
ATOM     16  C   UNL A   1      38.259  29.104  28.446  1.00  0.00     0.029 A 
ATOM     17  N   UNL A   1      39.828  28.957  30.020  1.00  0.00    -0.354 N 
ATOM     18  C   UNL A   1      39.708  31.505  33.517  1.00  0.00     0.074 A 
ATOM     19  C   UNL A   1      38.650  32.483  33.404  1.00  0.00     0.031 C 
ATOM     20  C   UNL A   1      39.173  28.214  28.018  1.00  0.00     0.029 A 
ATOM     21  C   UNL A   1      40.242  28.117  29.005  1.00  0.00     0.049 A 
ATOM     22  H   UNL A   1      40.302  29.034  30.880  1.00  0.00     0.167 HD
ATOM     23  C   UNL A   1      40.463  31.333  34.629  1.00  0.00     0.034 A 
ATOM     24  C   UNL A   1      41.367  27.380  28.884  1.00  0.00     0.034 A 
ATOM     25  C   UNL A   1      41.542  30.388  34.708  1.00  0.00     0.049 A 
ATOM     26  C   UNL A   1      42.345  27.358  30.031  1.00  0.00     0.074 A 
ATOM     27  C   UNL A   1      42.376  30.106  35.773  1.00  0.00     0.029 A 
ATOM     28  N   UNL A   1      41.953  29.583  33.652  1.00  0.00    -0.354 N 
ATOM     29  N   UNL A   1      42.298  28.018  31.164  1.00  0.00    -0.248 NA
ATOM     30  C   UNL A   1      43.506  26.469  29.896  1.00  0.00     0.031 C 
ATOM     31  C   UNL A   1      43.327  29.173  35.343  1.00  0.00     0.029 A 
ATOM     32  C   UNL A   1      43.045  28.821  34.031  1.00  0.00     0.049 A 
ATOM     33  H   UNL A   1      41.529  29.558  32.764  1.00  0.00     0.167 HD
ATOM     34  C   UNL A   1      43.378  27.560  31.913  1.00  0.00     0.074 A 
ATOM     35  C   UNL A   1      44.086  26.608  31.080  1.00  0.00     0.031 C 
ATOM     36  C   UNL A   1      43.723  27.864  33.189  1.00  0.00     0.034 A 
BRANCH  23  37
ATOM     37  C   UNL A   1      40.100  32.202  35.806  1.00  0.00     0.023 A 
ATOM     38  C   UNL A   1      39.290  31.690  36.840  1.00  0.00     0.031 A 
ATOM     39  C   UNL A   1      40.414  33.568  35.830  1.00  0.00     0.131 A 
ATOM     40  C   UNL A   1      38.696  32.565  37.760  1.00  0.00     0.055 A 
ATOM     41  C   UNL A   1      39.908  34.416  36.818  1.00  0.00     0.041 A 
ATOM     42  F   UNL A   1      41.166  34.113  34.862  1.00  0.00    -0.206 F 
ATOM     43  C   UNL A   1      39.018  33.922  37.772  1.00  0.00     0.022 A 
BRANCH  40  44
ATOM     44  S   UNL A   1      37.326  31.938  38.772  1.00  0.00     0.124 S 
ATOM     45  O   UNL A   1      36.309  32.968  38.562  1.00  0.00    -0.237 OA
ATOM     46  O   UNL A   1      37.050  30.641  38.165  1.00  0.00    -0.237 OA
ATOM     47  O   UNL A   1      37.888  31.893  40.120  1.00  0.00    -0.744 OA
ENDBRANCH  40  44
ENDBRANCH  23  37
BRANCH  24  48
ATOM     48  C   UNL A   1      41.694  26.666  27.615  1.00  0.00     0.023 A 
ATOM     49  C   UNL A   1      41.592  25.274  27.470  1.00  0.00     0.031 A 
ATOM     50  C   UNL A   1      42.229  27.400  26.543  1.00  0.00     0.131 A 
ATOM     51  C   UNL A   1      42.047  24.661  26.287  1.00  0.00     0.055 A 
ATOM     52  C   UNL A   1      42.644  26.794  25.356  1.00  0.00     0.041 A 
ATOM     53  F   UNL A   1      42.375  28.728  26.662  1.00  0.00    -0.206 F 
ATOM     54  C   UNL A   1      42.561  25.411  25.227  1.00  0.00     0.022 A 
BRANCH  51  55
ATOM     55  S   UNL A   1      42.033  22.847  26.178  1.00  0.00     0.124 S 
ATOM     56  O   UNL A   1      42.733  22.474  27.402  1.00  0.00    -0.237 OA
ATOM     57  O   UNL A   1      40.604  22.558  26.140  1.00  0.00    -0.237 OA
ATOM     58  O   UNL A   1      42.755  22.574  24.937  1.00  0.00    -0.744 OA
ENDBRANCH  51  55
ENDBRANCH  24  48
BRANCH  36  59
ATOM     59  C   UNL A   1      44.838  27.062  33.805  1.00  0.00     0.023 A 
ATOM     60  C   UNL A   1      44.631  25.791  34.363  1.00  0.00     0.031 A 
ATOM     61  C   UNL A   1      46.139  27.596  33.818  1.00  0.00     0.131 A 
ATOM     62  C   UNL A   1      45.710  25.110  34.946  1.00  0.00     0.055 A 
ATOM     63  C   UNL A   1      47.217  26.890  34.347  1.00  0.00     0.041 A 
ATOM     64  F   UNL A   1      46.383  28.812  33.303  1.00  0.00    -0.206 F 
ATOM     65  C   UNL A   1      47.003  25.641  34.924  1.00  0.00     0.022 A 
BRANCH  62  66
ATOM     66  S   UNL A   1      45.389  23.545  35.803  1.00  0.00     0.124 S 
ATOM     67  O   UNL A   1      46.191  22.606  35.027  1.00  0.00    -0.237 OA
ATOM     68  O   UNL A   1      45.865  23.825  37.154  1.00  0.00    -0.237 OA
ATOM     69  O   UNL A   1      43.942  23.378  35.679  1.00  0.00    -0.744 OA
ENDBRANCH  62  66
ENDBRANCH  36  59
ENDBRANCH  10  11
ENDBRANCH   3   5
ENDBRANCH   2   3
ENDBRANCH   1   2
BRANCH   1  70
ATOM     70  C   UNL A   1      32.380  31.392  27.150  1.00  0.00     0.274 C 
BRANCH  70  71
ATOM     71  O   UNL A   1      31.814  30.552  26.135  1.00  0.00    -0.462 OA
BRANCH  71  72
ATOM     72  C   UNL A   1      32.550  29.487  25.694  1.00  0.00     0.310 C 
ATOM     73  O   UNL A   1      33.714  29.273  26.003  1.00  0.00    -0.252 OA
BRANCH  72  74
ATOM     74  C   UNL A   1      31.700  28.548  24.840  1.00  0.00     0.114 C 
ATOM     75  C   UNL A   1      30.728  29.339  23.983  1.00  0.00     0.018 C 
ATOM     76  C   UNL A   1      32.540  27.676  23.899  1.00  0.00     0.117 C 
ATOM     77  C   UNL A   1      29.794  28.387  23.280  1.00  0.00     0.018 C 
ATOM     78  N   UNL A   1      31.684  26.824  22.962  1.00  0.00    -0.197 NA
ATOM     79  C   UNL A   1      30.594  27.591  22.289  1.00  0.00     0.102 C 
BRANCH  78  80
ATOM     80  S   UNL A   1      32.687  25.976  21.825  1.00  0.00     0.243 S 
ATOM     81  O   UNL A   1      31.860  25.664  20.672  1.00  0.00    -0.207 OA
ATOM     82  O   UNL A   1      33.901  26.741  21.674  1.00  0.00    -0.207 OA
BRANCH  80  83
ATOM     83  C   UNL A   1      33.090  24.430  22.618  1.00  0.00     0.083 A 
ATOM     84  C   UNL A   1      32.093  23.459  22.777  1.00  0.00     0.022 A 
ATOM     85  C   UNL A   1      34.402  24.154  23.002  1.00  0.00     0.037 A 
ATOM     86  C   UNL A   1      32.380  22.249  23.408  1.00  0.00     0.003 A 
ATOM     87  C   UNL A   1      34.689  22.918  23.586  1.00  0.00     0.019 A 
ATOM     88  C   UNL A   1      33.684  21.975  23.810  1.00  0.00     0.016 A 
ATOM     89  Br  UNL A   1      36.471  22.500  24.063  1.00  0.00    -0.051 Br
ENDBRANCH  80  83
ENDBRANCH  78  80
ENDBRANCH  72  74
ENDBRANCH  71  72
ENDBRANCH  70  71
ENDBRANCH   1  70
TORSDOF 16
ENDMDL
