MODEL 1
REMARK VINA RESULT:     -10.7      0.000      0.000
REMARK SMILES COc1ccc(Br)cc1S(=O)(=O)N(C)CC(=O)OCCOC(=O)c1ccc(-c2c3nc(c(-c4cc(S(=O)(=O)[O-])ccc4F)c4ccc([nH]4)c(-c4cc(S(=O)(=O)[O-])ccc4F)c4nc(c(-c5cc(S(=O)(=O)[O-])ccc5F)c5ccc2[nH]5)C=C4)C=C3)cc1
REMARK SMILES IDX 19 1 18 2 16 3 17 4 15 5 13 6 14 7 10 8 11 9 12 10 9 11 3 12
REMARK SMILES IDX 4 13 5 14 8 15 6 16 7 17 2 18 1 19 20 20 21 21 22 22 23 23
REMARK SMILES IDX 24 24 25 25 86 26 26 27 85 28 27 29 28 30 29 31 79 32 30 33
REMARK SMILES IDX 84 34 78 35 80 36 31 37 83 38 77 39 76 40 32 42 64 43 44 44
REMARK SMILES IDX 63 45 45 46 48 47 62 48 81 49 46 50 47 51 61 53 82 54 49 55
REMARK SMILES IDX 33 56 34 57 42 58 35 59 41 60 43 61 40 62 36 63 37 64 38 65
REMARK SMILES IDX 39 66 65 67 66 68 74 69 67 70 73 71 75 72 72 73 68 74 69 75
REMARK SMILES IDX 70 76 71 77 50 78 51 79 59 80 52 81 58 82 60 83 57 84 53 85
REMARK SMILES IDX 54 86 55 87 56 88
REMARK H PARENT 80 41 48 52
REMARK Flexibility Score: inf
ROOT
ATOM      1  C   UNL A   1      31.069  29.593  24.991  1.00  0.00     0.274 C 
ENDROOT
BRANCH   1   2
ATOM      2  O   UNL A   1      31.059  29.348  23.564  1.00  0.00    -0.461 OA
BRANCH   2   3
ATOM      3  C   UNL A   1      30.579  28.147  23.148  1.00  0.00     0.321 C 
ATOM      4  O   UNL A   1      29.981  27.990  22.085  1.00  0.00    -0.251 OA
BRANCH   3   5
ATOM      5  C   UNL A   1      30.722  27.027  24.158  1.00  0.00     0.224 C 
BRANCH   5   6
ATOM      6  N   UNL A   1      31.937  26.180  24.290  1.00  0.00    -0.190 NA
ATOM      7  C   UNL A   1      31.878  24.904  23.571  1.00  0.00     0.125 C 
BRANCH   6   8
ATOM      8  S   UNL A   1      32.658  26.141  25.828  1.00  0.00     0.247 S 
ATOM      9  O   UNL A   1      31.581  26.316  26.785  1.00  0.00    -0.207 OA
ATOM     10  O   UNL A   1      33.848  26.961  25.795  1.00  0.00    -0.207 OA
BRANCH   8  11
ATOM     11  C   UNL A   1      33.227  24.497  26.183  1.00  0.00     0.125 A 
ATOM     12  C   UNL A   1      32.531  23.547  26.928  1.00  0.00     0.138 A 
ATOM     13  C   UNL A   1      33.189  22.351  27.259  1.00  0.00     0.049 A 
ATOM     14  C   UNL A   1      34.513  22.120  26.865  1.00  0.00     0.019 A 
ATOM     15  C   UNL A   1      34.545  24.244  25.748  1.00  0.00     0.041 A 
ATOM     16  C   UNL A   1      35.183  23.065  26.099  1.00  0.00     0.019 A 
ATOM     17  Br  UNL A   1      36.970  22.765  25.570  1.00  0.00    -0.051 Br
BRANCH  12  18
ATOM     18  O   UNL A   1      31.225  23.766  27.251  1.00  0.00    -0.495 OA
ATOM     19  C   UNL A   1      30.274  23.007  26.513  1.00  0.00     0.278 C 
ENDBRANCH  12  18
ENDBRANCH   8  11
ENDBRANCH   6   8
ENDBRANCH   5   6
ENDBRANCH   3   5
ENDBRANCH   2   3
ENDBRANCH   1   2
BRANCH   1  20
ATOM     20  C   UNL A   1      32.434  30.090  25.490  1.00  0.00     0.275 C 
BRANCH  20  21
ATOM     21  O   UNL A   1      32.433  30.357  26.911  1.00  0.00    -0.458 OA
BRANCH  21  22
ATOM     22  C   UNL A   1      33.206  31.416  27.229  1.00  0.00     0.338 C 
ATOM     23  O   UNL A   1      32.857  32.578  27.182  1.00  0.00    -0.246 OA
BRANCH  22  24
ATOM     24  C   UNL A   1      34.527  31.085  27.747  1.00  0.00     0.060 A 
ATOM     25  C   UNL A   1      34.715  29.780  28.209  1.00  0.00     0.016 A 
ATOM     26  C   UNL A   1      35.456  32.090  28.019  1.00  0.00     0.016 A 
ATOM     27  C   UNL A   1      35.840  29.473  28.961  1.00  0.00     0.010 A 
ATOM     28  C   UNL A   1      36.601  31.772  28.754  1.00  0.00     0.010 A 
ATOM     29  C   UNL A   1      36.794  30.464  29.232  1.00  0.00    -0.014 A 
BRANCH  29  30
ATOM     30  C   UNL A   1      38.018  30.092  29.972  1.00  0.00     0.031 A 
ATOM     31  C   UNL A   1      39.036  29.170  29.371  1.00  0.00     0.074 A 
ATOM     32  C   UNL A   1      38.206  30.636  31.188  1.00  0.00     0.049 A 
ATOM     33  N   UNL A   1      40.133  28.695  29.905  1.00  0.00    -0.248 NA
ATOM     34  C   UNL A   1      38.787  28.718  27.996  1.00  0.00     0.031 C 
ATOM     35  C   UNL A   1      37.286  31.577  31.835  1.00  0.00     0.029 A 
ATOM     36  N   UNL A   1      39.224  30.491  32.091  1.00  0.00    -0.354 N 
ATOM     37  C   UNL A   1      40.700  27.872  28.938  1.00  0.00     0.074 A 
ATOM     38  C   UNL A   1      39.813  27.902  27.792  1.00  0.00     0.031 C 
ATOM     39  C   UNL A   1      37.792  31.940  33.021  1.00  0.00     0.029 A 
ATOM     40  C   UNL A   1      39.035  31.212  33.246  1.00  0.00     0.049 A 
ATOM     41  H   UNL A   1      40.014  29.927  31.928  1.00  0.00     0.167 HD
ATOM     42  C   UNL A   1      41.852  27.158  29.015  1.00  0.00     0.034 A 
ATOM     43  C   UNL A   1      39.767  31.255  34.374  1.00  0.00     0.034 A 
ATOM     44  C   UNL A   1      42.714  27.152  30.176  1.00  0.00     0.049 A 
ATOM     45  C   UNL A   1      41.019  30.428  34.445  1.00  0.00     0.074 A 
ATOM     46  C   UNL A   1      43.899  26.464  30.373  1.00  0.00     0.029 A 
ATOM     47  N   UNL A   1      42.478  27.868  31.346  1.00  0.00    -0.354 N 
ATOM     48  N   UNL A   1      41.528  29.623  33.539  1.00  0.00    -0.248 NA
ATOM     49  C   UNL A   1      41.796  30.516  35.684  1.00  0.00     0.031 C 
ATOM     50  C   UNL A   1      44.350  26.720  31.674  1.00  0.00     0.029 A 
ATOM     51  C   UNL A   1      43.482  27.620  32.273  1.00  0.00     0.049 A 
ATOM     52  H   UNL A   1      41.710  28.465  31.495  1.00  0.00     0.167 HD
ATOM     53  C   UNL A   1      42.692  29.113  34.100  1.00  0.00     0.074 A 
ATOM     54  C   UNL A   1      42.823  29.726  35.408  1.00  0.00     0.031 C 
ATOM     55  C   UNL A   1      43.575  28.220  33.584  1.00  0.00     0.034 A 
BRANCH  42  56
ATOM     56  C   UNL A   1      42.203  26.276  27.839  1.00  0.00     0.023 A 
ATOM     57  C   UNL A   1      41.771  24.941  27.746  1.00  0.00     0.031 A 
ATOM     58  C   UNL A   1      43.010  26.778  26.800  1.00  0.00     0.131 A 
ATOM     59  C   UNL A   1      42.196  24.138  26.673  1.00  0.00     0.055 A 
ATOM     60  C   UNL A   1      43.373  25.995  25.703  1.00  0.00     0.041 A 
ATOM     61  F   UNL A   1      43.471  28.038  26.842  1.00  0.00    -0.206 F 
ATOM     62  C   UNL A   1      42.976  24.664  25.641  1.00  0.00     0.022 A 
BRANCH  59  63
ATOM     63  S   UNL A   1      41.816  22.364  26.704  1.00  0.00     0.124 S 
ATOM     64  O   UNL A   1      42.261  21.943  25.378  1.00  0.00    -0.237 OA
ATOM     65  O   UNL A   1      42.616  21.890  27.828  1.00  0.00    -0.237 OA
ATOM     66  O   UNL A   1      40.370  22.325  26.910  1.00  0.00    -0.744 OA
ENDBRANCH  59  63
ENDBRANCH  42  56
BRANCH  43  67
ATOM     67  C   UNL A   1      39.305  32.070  35.530  1.00  0.00     0.023 A 
ATOM     68  C   UNL A   1      39.741  33.390  35.711  1.00  0.00     0.031 A 
ATOM     69  C   UNL A   1      38.417  31.529  36.478  1.00  0.00     0.131 A 
ATOM     70  C   UNL A   1      39.312  34.117  36.833  1.00  0.00     0.055 A 
ATOM     71  C   UNL A   1      37.955  32.272  37.564  1.00  0.00     0.041 A 
ATOM     72  F   UNL A   1      37.964  30.271  36.345  1.00  0.00    -0.206 F 
ATOM     73  C   UNL A   1      38.412  33.571  37.752  1.00  0.00     0.022 A 
BRANCH  70  74
ATOM     74  S   UNL A   1      40.002  35.771  37.110  1.00  0.00     0.124 S 
ATOM     75  O   UNL A   1      39.653  36.454  35.871  1.00  0.00    -0.237 OA
ATOM     76  O   UNL A   1      39.284  36.203  38.305  1.00  0.00    -0.237 OA
ATOM     77  O   UNL A   1      41.429  35.516  37.303  1.00  0.00    -0.744 OA
ENDBRANCH  70  74
ENDBRANCH  43  67
BRANCH  55  78
ATOM     78  C   UNL A   1      44.763  27.884  34.449  1.00  0.00     0.023 A 
ATOM     79  C   UNL A   1      44.729  26.813  35.360  1.00  0.00     0.031 A 
ATOM     80  C   UNL A   1      45.920  28.681  34.403  1.00  0.00     0.131 A 
ATOM     81  C   UNL A   1      45.805  26.608  36.235  1.00  0.00     0.055 A 
ATOM     82  C   UNL A   1      47.010  28.436  35.237  1.00  0.00     0.041 A 
ATOM     83  F   UNL A   1      46.002  29.718  33.554  1.00  0.00    -0.206 F 
ATOM     84  C   UNL A   1      46.951  27.406  36.172  1.00  0.00     0.022 A 
BRANCH  81  85
ATOM     85  S   UNL A   1      45.641  25.355  37.537  1.00  0.00     0.124 S 
ATOM     86  O   UNL A   1      45.505  26.178  38.735  1.00  0.00    -0.237 OA
ATOM     87  O   UNL A   1      44.444  24.631  37.122  1.00  0.00    -0.237 OA
ATOM     88  O   UNL A   1      46.887  24.597  37.444  1.00  0.00    -0.744 OA
ENDBRANCH  81  85
ENDBRANCH  55  78
ENDBRANCH  29  30
ENDBRANCH  22  24
ENDBRANCH  21  22
ENDBRANCH  20  21
ENDBRANCH   1  20
TORSDOF 18
ENDMDL
MODEL 2
REMARK VINA RESULT:     -10.6      5.233     10.260
REMARK SMILES COc1ccc(Br)cc1S(=O)(=O)N(C)CC(=O)OCCOC(=O)c1ccc(-c2c3nc(c(-c4cc(S(=O)(=O)[O-])ccc4F)c4ccc([nH]4)c(-c4cc(S(=O)(=O)[O-])ccc4F)c4nc(c(-c5cc(S(=O)(=O)[O-])ccc5F)c5ccc2[nH]5)C=C4)C=C3)cc1
REMARK SMILES IDX 19 1 18 2 16 3 17 4 15 5 13 6 14 7 10 8 11 9 12 10 9 11 3 12
REMARK SMILES IDX 4 13 5 14 8 15 6 16 7 17 2 18 1 19 20 20 21 21 22 22 23 23
REMARK SMILES IDX 24 24 25 25 86 26 26 27 85 28 27 29 28 30 29 31 79 32 30 33
REMARK SMILES IDX 84 34 78 35 80 36 31 37 83 38 77 39 76 40 32 42 64 43 44 44
REMARK SMILES IDX 63 45 45 46 48 47 62 48 81 49 46 50 47 51 61 53 82 54 49 55
REMARK SMILES IDX 33 56 34 57 42 58 35 59 41 60 43 61 40 62 36 63 37 64 38 65
REMARK SMILES IDX 39 66 65 67 66 68 74 69 67 70 73 71 75 72 72 73 68 74 69 75
REMARK SMILES IDX 70 76 71 77 50 78 51 79 59 80 52 81 58 82 60 83 57 84 53 85
REMARK SMILES IDX 54 86 55 87 56 88
REMARK H PARENT 80 41 48 52
REMARK Flexibility Score: inf
ROOT
ATOM      1  C   UNL A   1      36.657  22.231  23.581  1.00  0.00     0.274 C 
ENDROOT
BRANCH   1   2
ATOM      2  O   UNL A   1      35.273  22.518  23.895  1.00  0.00    -0.461 OA
BRANCH   2   3
ATOM      3  C   UNL A   1      34.950  23.818  24.125  1.00  0.00     0.321 C 
ATOM      4  O   UNL A   1      35.325  24.442  25.116  1.00  0.00    -0.251 OA
BRANCH   3   5
ATOM      5  C   UNL A   1      33.978  24.412  23.126  1.00  0.00     0.224 C 
BRANCH   5   6
ATOM      6  N   UNL A   1      32.962  25.442  23.470  1.00  0.00    -0.190 NA
ATOM      7  C   UNL A   1      31.785  24.933  24.178  1.00  0.00     0.125 C 
BRANCH   6   8
ATOM      8  S   UNL A   1      32.672  26.629  22.289  1.00  0.00     0.247 S 
ATOM      9  O   UNL A   1      31.640  26.093  21.421  1.00  0.00    -0.207 OA
ATOM     10  O   UNL A   1      33.945  27.124  21.818  1.00  0.00    -0.207 OA
BRANCH   8  11
ATOM     11  C   UNL A   1      31.866  28.027  23.030  1.00  0.00     0.125 A 
ATOM     12  C   UNL A   1      32.297  28.692  24.176  1.00  0.00     0.138 A 
ATOM     13  C   UNL A   1      31.459  29.673  24.730  1.00  0.00     0.049 A 
ATOM     14  C   UNL A   1      30.216  29.971  24.156  1.00  0.00     0.019 A 
ATOM     15  C   UNL A   1      30.635  28.359  22.427  1.00  0.00     0.041 A 
ATOM     16  C   UNL A   1      29.814  29.319  22.998  1.00  0.00     0.019 A 
ATOM     17  Br  UNL A   1      28.137  29.709  22.223  1.00  0.00    -0.051 Br
BRANCH  12  18
ATOM     18  O   UNL A   1      33.535  28.429  24.684  1.00  0.00    -0.495 OA
ATOM     19  C   UNL A   1      33.630  28.434  26.104  1.00  0.00     0.278 C 
ENDBRANCH  12  18
ENDBRANCH   8  11
ENDBRANCH   6   8
ENDBRANCH   5   6
ENDBRANCH   3   5
ENDBRANCH   2   3
ENDBRANCH   1   2
BRANCH   1  20
ATOM     20  C   UNL A   1      37.202  21.036  24.379  1.00  0.00     0.275 C 
BRANCH  20  21
ATOM     21  O   UNL A   1      37.440  21.367  25.766  1.00  0.00    -0.458 OA
BRANCH  21  22
ATOM     22  C   UNL A   1      38.741  21.240  26.102  1.00  0.00     0.338 C 
ATOM     23  O   UNL A   1      39.423  20.255  25.907  1.00  0.00    -0.246 OA
BRANCH  22  24
ATOM     24  C   UNL A   1      39.354  22.437  26.665  1.00  0.00     0.060 A 
ATOM     25  C   UNL A   1      38.831  23.666  26.256  1.00  0.00     0.016 A 
ATOM     26  C   UNL A   1      40.565  22.358  27.352  1.00  0.00     0.016 A 
ATOM     27  C   UNL A   1      39.530  24.833  26.525  1.00  0.00     0.010 A 
ATOM     28  C   UNL A   1      41.254  23.538  27.645  1.00  0.00     0.010 A 
ATOM     29  C   UNL A   1      40.741  24.779  27.228  1.00  0.00    -0.014 A 
BRANCH  29  30
ATOM     30  C   UNL A   1      41.428  26.043  27.566  1.00  0.00     0.031 A 
ATOM     31  C   UNL A   1      40.765  27.078  28.424  1.00  0.00     0.074 A 
ATOM     32  C   UNL A   1      42.680  26.220  27.107  1.00  0.00     0.049 A 
ATOM     33  N   UNL A   1      41.200  28.264  28.767  1.00  0.00    -0.248 NA
ATOM     34  C   UNL A   1      39.441  26.740  28.963  1.00  0.00     0.031 C 
ATOM     35  C   UNL A   1      43.420  25.246  26.299  1.00  0.00     0.029 A 
ATOM     36  N   UNL A   1      43.555  27.261  27.258  1.00  0.00    -0.354 N 
ATOM     37  C   UNL A   1      40.196  28.826  29.548  1.00  0.00     0.074 A 
ATOM     38  C   UNL A   1      39.123  27.853  29.612  1.00  0.00     0.031 C 
ATOM     39  C   UNL A   1      44.643  25.728  26.041  1.00  0.00     0.029 A 
ATOM     40  C   UNL A   1      44.752  27.066  26.610  1.00  0.00     0.049 A 
ATOM     41  H   UNL A   1      43.348  28.070  27.780  1.00  0.00     0.167 HD
ATOM     42  C   UNL A   1      40.180  30.045  30.145  1.00  0.00     0.034 A 
ATOM     43  C   UNL A   1      45.806  27.888  26.464  1.00  0.00     0.034 A 
ATOM     44  C   UNL A   1      41.270  30.992  30.060  1.00  0.00     0.049 A 
ATOM     45  C   UNL A   1      45.748  29.245  27.107  1.00  0.00     0.074 A 
ATOM     46  C   UNL A   1      41.365  32.257  30.616  1.00  0.00     0.029 A 
ATOM     47  N   UNL A   1      42.458  30.779  29.368  1.00  0.00    -0.354 N 
ATOM     48  N   UNL A   1      44.778  29.782  27.812  1.00  0.00    -0.248 NA
ATOM     49  C   UNL A   1      46.923  30.104  26.938  1.00  0.00     0.031 C 
ATOM     50  C   UNL A   1      42.581  32.826  30.216  1.00  0.00     0.029 A 
ATOM     51  C   UNL A   1      43.279  31.894  29.464  1.00  0.00     0.049 A 
ATOM     52  H   UNL A   1      42.684  29.954  28.880  1.00  0.00     0.167 HD
ATOM     53  C   UNL A   1      45.231  31.043  28.178  1.00  0.00     0.074 A 
ATOM     54  C   UNL A   1      46.573  31.171  27.640  1.00  0.00     0.031 C 
ATOM     55  C   UNL A   1      44.601  32.010  28.892  1.00  0.00     0.034 A 
BRANCH  42  56
ATOM     56  C   UNL A   1      38.920  30.443  30.880  1.00  0.00     0.023 A 
ATOM     57  C   UNL A   1      37.824  31.032  30.225  1.00  0.00     0.031 A 
ATOM     58  C   UNL A   1      38.828  30.251  32.271  1.00  0.00     0.131 A 
ATOM     59  C   UNL A   1      36.711  31.462  30.968  1.00  0.00     0.055 A 
ATOM     60  C   UNL A   1      37.691  30.618  32.994  1.00  0.00     0.041 A 
ATOM     61  F   UNL A   1      39.849  29.712  32.955  1.00  0.00    -0.206 F 
ATOM     62  C   UNL A   1      36.629  31.238  32.344  1.00  0.00     0.022 A 
BRANCH  59  63
ATOM     63  S   UNL A   1      35.420  32.426  30.133  1.00  0.00     0.124 S 
ATOM     64  O   UNL A   1      34.439  32.598  31.201  1.00  0.00    -0.237 OA
ATOM     65  O   UNL A   1      36.138  33.628  29.724  1.00  0.00    -0.237 OA
ATOM     66  O   UNL A   1      34.994  31.555  29.039  1.00  0.00    -0.744 OA
ENDBRANCH  59  63
ENDBRANCH  42  56
BRANCH  43  67
ATOM     67  C   UNL A   1      46.971  27.466  25.642  1.00  0.00     0.023 A 
ATOM     68  C   UNL A   1      47.101  27.864  24.303  1.00  0.00     0.031 A 
ATOM     69  C   UNL A   1      47.976  26.647  26.190  1.00  0.00     0.131 A 
ATOM     70  C   UNL A   1      48.196  27.417  23.547  1.00  0.00     0.055 A 
ATOM     71  C   UNL A   1      49.087  26.246  25.450  1.00  0.00     0.041 A 
ATOM     72  F   UNL A   1      47.901  26.245  27.470  1.00  0.00    -0.206 F 
ATOM     73  C   UNL A   1      49.196  26.623  24.115  1.00  0.00     0.022 A 
BRANCH  70  74
ATOM     74  S   UNL A   1      48.262  27.836  21.784  1.00  0.00     0.124 S 
ATOM     75  O   UNL A   1      46.901  28.292  21.533  1.00  0.00    -0.237 OA
ATOM     76  O   UNL A   1      49.299  28.862  21.755  1.00  0.00    -0.237 OA
ATOM     77  O   UNL A   1      48.624  26.571  21.147  1.00  0.00    -0.744 OA
ENDBRANCH  70  74
ENDBRANCH  43  67
BRANCH  55  78
ATOM     78  C   UNL A   1      45.384  33.274  29.137  1.00  0.00     0.023 A 
ATOM     79  C   UNL A   1      45.238  34.401  28.309  1.00  0.00     0.031 A 
ATOM     80  C   UNL A   1      46.330  33.331  30.175  1.00  0.00     0.131 A 
ATOM     81  C   UNL A   1      46.072  35.513  28.490  1.00  0.00     0.055 A 
ATOM     82  C   UNL A   1      47.118  34.463  30.386  1.00  0.00     0.041 A 
ATOM     83  F   UNL A   1      46.512  32.281  30.992  1.00  0.00    -0.206 F 
ATOM     84  C   UNL A   1      47.004  35.556  29.531  1.00  0.00     0.022 A 
BRANCH  81  85
ATOM     85  S   UNL A   1      46.004  36.860  27.275  1.00  0.00     0.124 S 
ATOM     86  O   UNL A   1      46.183  38.038  28.117  1.00  0.00    -0.237 OA
ATOM     87  O   UNL A   1      47.118  36.535  26.389  1.00  0.00    -0.237 OA
ATOM     88  O   UNL A   1      44.677  36.718  26.680  1.00  0.00    -0.744 OA
ENDBRANCH  81  85
ENDBRANCH  55  78
ENDBRANCH  29  30
ENDBRANCH  22  24
ENDBRANCH  21  22
ENDBRANCH  20  21
ENDBRANCH   1  20
TORSDOF 18
ENDMDL
MODEL 3
REMARK VINA RESULT:     -10.6      4.991      7.534
REMARK SMILES COc1ccc(Br)cc1S(=O)(=O)N(C)CC(=O)OCCOC(=O)c1ccc(-c2c3nc(c(-c4cc(S(=O)(=O)[O-])ccc4F)c4ccc([nH]4)c(-c4cc(S(=O)(=O)[O-])ccc4F)c4nc(c(-c5cc(S(=O)(=O)[O-])ccc5F)c5ccc2[nH]5)C=C4)C=C3)cc1
REMARK SMILES IDX 19 1 18 2 16 3 17 4 15 5 13 6 14 7 10 8 11 9 12 10 9 11 3 12
REMARK SMILES IDX 4 13 5 14 8 15 6 16 7 17 2 18 1 19 20 20 21 21 22 22 23 23
REMARK SMILES IDX 24 24 25 25 86 26 26 27 85 28 27 29 28 30 29 31 79 32 30 33
REMARK SMILES IDX 84 34 78 35 80 36 31 37 83 38 77 39 76 40 32 42 64 43 44 44
REMARK SMILES IDX 63 45 45 46 48 47 62 48 81 49 46 50 47 51 61 53 82 54 49 55
REMARK SMILES IDX 33 56 34 57 42 58 35 59 41 60 43 61 40 62 36 63 37 64 38 65
REMARK SMILES IDX 39 66 65 67 66 68 74 69 67 70 73 71 75 72 72 73 68 74 69 75
REMARK SMILES IDX 70 76 71 77 50 78 51 79 59 80 52 81 58 82 60 83 57 84 53 85
REMARK SMILES IDX 54 86 55 87 56 88
REMARK H PARENT 80 41 48 52
REMARK Flexibility Score: inf
ROOT
ATOM      1  C   UNL A   1      36.586  23.013  23.728  1.00  0.00     0.274 C 
ENDROOT
BRANCH   1   2
ATOM      2  O   UNL A   1      35.520  22.950  22.752  1.00  0.00    -0.461 OA
BRANCH   2   3
ATOM      3  C   UNL A   1      34.275  23.293  23.175  1.00  0.00     0.321 C 
ATOM      4  O   UNL A   1      33.252  22.730  22.790  1.00  0.00    -0.251 OA
BRANCH   3   5
ATOM      5  C   UNL A   1      34.227  24.516  24.067  1.00  0.00     0.224 C 
BRANCH   5   6
ATOM      6  N   UNL A   1      33.609  24.532  25.420  1.00  0.00    -0.190 NA
ATOM      7  C   UNL A   1      33.839  23.324  26.216  1.00  0.00     0.125 C 
BRANCH   6   8
ATOM      8  S   UNL A   1      32.057  25.215  25.524  1.00  0.00     0.247 S 
ATOM      9  O   UNL A   1      31.541  24.851  26.831  1.00  0.00    -0.207 OA
ATOM     10  O   UNL A   1      31.362  24.959  24.283  1.00  0.00    -0.207 OA
BRANCH   8  11
ATOM     11  C   UNL A   1      32.185  26.982  25.638  1.00  0.00     0.125 A 
ATOM     12  C   UNL A   1      31.369  27.894  24.972  1.00  0.00     0.138 A 
ATOM     13  C   UNL A   1      31.705  29.256  25.036  1.00  0.00     0.049 A 
ATOM     14  C   UNL A   1      32.835  29.691  25.739  1.00  0.00     0.019 A 
ATOM     15  C   UNL A   1      33.298  27.425  26.384  1.00  0.00     0.041 A 
ATOM     16  C   UNL A   1      33.622  28.773  26.421  1.00  0.00     0.019 A 
ATOM     17  Br  UNL A   1      35.152  29.348  27.365  1.00  0.00    -0.051 Br
BRANCH  12  18
ATOM     18  O   UNL A   1      30.241  27.457  24.342  1.00  0.00    -0.495 OA
ATOM     19  C   UNL A   1      29.890  28.158  23.155  1.00  0.00     0.278 C 
ENDBRANCH  12  18
ENDBRANCH   8  11
ENDBRANCH   6   8
ENDBRANCH   5   6
ENDBRANCH   3   5
ENDBRANCH   2   3
ENDBRANCH   1   2
BRANCH   1  20
ATOM     20  C   UNL A   1      36.944  21.631  24.295  1.00  0.00     0.275 C 
BRANCH  20  21
ATOM     21  O   UNL A   1      37.212  21.674  25.715  1.00  0.00    -0.458 OA
BRANCH  21  22
ATOM     22  C   UNL A   1      38.529  21.558  25.987  1.00  0.00     0.338 C 
ATOM     23  O   UNL A   1      39.209  20.580  25.752  1.00  0.00    -0.246 OA
BRANCH  22  24
ATOM     24  C   UNL A   1      39.158  22.756  26.527  1.00  0.00     0.060 A 
ATOM     25  C   UNL A   1      38.633  23.985  26.116  1.00  0.00     0.016 A 
ATOM     26  C   UNL A   1      40.381  22.678  27.192  1.00  0.00     0.016 A 
ATOM     27  C   UNL A   1      39.343  25.151  26.362  1.00  0.00     0.010 A 
ATOM     28  C   UNL A   1      41.081  23.857  27.462  1.00  0.00     0.010 A 
ATOM     29  C   UNL A   1      40.567  25.096  27.043  1.00  0.00    -0.014 A 
BRANCH  29  30
ATOM     30  C   UNL A   1      41.266  26.361  27.356  1.00  0.00     0.031 A 
ATOM     31  C   UNL A   1      42.637  26.641  26.818  1.00  0.00     0.074 A 
ATOM     32  C   UNL A   1      40.618  27.266  28.111  1.00  0.00     0.049 A 
ATOM     33  N   UNL A   1      43.414  27.669  27.043  1.00  0.00    -0.248 NA
ATOM     34  C   UNL A   1      43.211  25.634  25.916  1.00  0.00     0.031 C 
ATOM     35  C   UNL A   1      39.262  27.094  28.644  1.00  0.00     0.029 A 
ATOM     36  N   UNL A   1      40.995  28.505  28.553  1.00  0.00    -0.354 N 
ATOM     37  C   UNL A   1      44.580  27.428  26.325  1.00  0.00     0.074 A 
ATOM     38  C   UNL A   1      44.410  26.146  25.671  1.00  0.00     0.031 C 
ATOM     39  C   UNL A   1      38.916  28.195  29.324  1.00  0.00     0.029 A 
ATOM     40  C   UNL A   1      40.042  29.121  29.329  1.00  0.00     0.049 A 
ATOM     41  H   UNL A   1      41.863  28.914  28.335  1.00  0.00     0.167 HD
ATOM     42  C   UNL A   1      45.686  28.210  26.233  1.00  0.00     0.034 A 
ATOM     43  C   UNL A   1      40.085  30.287  29.997  1.00  0.00     0.034 A 
ATOM     44  C   UNL A   1      45.822  29.486  26.900  1.00  0.00     0.049 A 
ATOM     45  C   UNL A   1      41.335  31.117  29.905  1.00  0.00     0.074 A 
ATOM     46  C   UNL A   1      46.895  30.362  26.886  1.00  0.00     0.029 A 
ATOM     47  N   UNL A   1      44.850  30.070  27.707  1.00  0.00    -0.354 N 
ATOM     48  N   UNL A   1      42.447  30.862  29.254  1.00  0.00    -0.248 NA
ATOM     49  C   UNL A   1      41.335  32.388  30.634  1.00  0.00     0.031 C 
ATOM     50  C   UNL A   1      46.594  31.443  27.725  1.00  0.00     0.029 A 
ATOM     51  C   UNL A   1      45.307  31.279  28.213  1.00  0.00     0.049 A 
ATOM     52  H   UNL A   1      43.965  29.681  27.892  1.00  0.00     0.167 HD
ATOM     53  C   UNL A   1      43.279  31.949  29.490  1.00  0.00     0.074 A 
ATOM     54  C   UNL A   1      42.527  32.873  30.318  1.00  0.00     0.031 C 
ATOM     55  C   UNL A   1      44.549  32.169  29.064  1.00  0.00     0.034 A 
BRANCH  42  56
ATOM     56  C   UNL A   1      46.855  27.671  25.440  1.00  0.00     0.023 A 
ATOM     57  C   UNL A   1      47.090  28.041  24.104  1.00  0.00     0.031 A 
ATOM     58  C   UNL A   1      47.738  26.747  26.030  1.00  0.00     0.131 A 
ATOM     59  C   UNL A   1      48.141  27.446  23.385  1.00  0.00     0.055 A 
ATOM     60  C   UNL A   1      48.821  26.210  25.331  1.00  0.00     0.041 A 
ATOM     61  F   UNL A   1      47.554  26.339  27.295  1.00  0.00    -0.206 F 
ATOM     62  C   UNL A   1      49.020  26.550  23.997  1.00  0.00     0.022 A 
BRANCH  59  63
ATOM     63  S   UNL A   1      48.274  27.766  21.603  1.00  0.00     0.124 S 
ATOM     64  O   UNL A   1      49.300  28.805  21.564  1.00  0.00    -0.237 OA
ATOM     65  O   UNL A   1      48.662  26.462  21.077  1.00  0.00    -0.237 OA
ATOM     66  O   UNL A   1      46.932  28.211  21.233  1.00  0.00    -0.744 OA
ENDBRANCH  59  63
ENDBRANCH  42  56
BRANCH  43  67
ATOM     67  C   UNL A   1      38.933  30.706  30.839  1.00  0.00     0.023 A 
ATOM     68  C   UNL A   1      37.927  31.543  30.335  1.00  0.00     0.031 A 
ATOM     69  C   UNL A   1      38.826  30.272  32.174  1.00  0.00     0.131 A 
ATOM     70  C   UNL A   1      36.873  31.946  31.169  1.00  0.00     0.055 A 
ATOM     71  C   UNL A   1      37.751  30.635  32.985  1.00  0.00     0.041 A 
ATOM     72  F   UNL A   1      39.760  29.463  32.702  1.00  0.00    -0.206 F 
ATOM     73  C   UNL A   1      36.772  31.487  32.486  1.00  0.00     0.022 A 
BRANCH  70  74
ATOM     74  S   UNL A   1      35.666  33.137  30.528  1.00  0.00     0.124 S 
ATOM     75  O   UNL A   1      35.753  34.211  31.510  1.00  0.00    -0.237 OA
ATOM     76  O   UNL A   1      36.204  33.432  29.205  1.00  0.00    -0.237 OA
ATOM     77  O   UNL A   1      34.411  32.386  30.534  1.00  0.00    -0.744 OA
ENDBRANCH  70  74
ENDBRANCH  43  67
BRANCH  55  78
ATOM     78  C   UNL A   1      45.176  33.474  29.483  1.00  0.00     0.023 A 
ATOM     79  C   UNL A   1      45.030  34.640  28.710  1.00  0.00     0.031 A 
ATOM     80  C   UNL A   1      45.975  33.537  30.637  1.00  0.00     0.131 A 
ATOM     81  C   UNL A   1      45.729  35.802  29.065  1.00  0.00     0.055 A 
ATOM     82  C   UNL A   1      46.621  34.713  31.016  1.00  0.00     0.041 A 
ATOM     83  F   UNL A   1      46.150  32.451  31.408  1.00  0.00    -0.206 F 
ATOM     84  C   UNL A   1      46.515  35.851  30.219  1.00  0.00     0.022 A 
BRANCH  81  85
ATOM     85  S   UNL A   1      45.689  37.221  27.933  1.00  0.00     0.124 S 
ATOM     86  O   UNL A   1      44.777  36.755  26.894  1.00  0.00    -0.237 OA
ATOM     87  O   UNL A   1      45.186  38.289  28.792  1.00  0.00    -0.237 OA
ATOM     88  O   UNL A   1      47.082  37.366  27.516  1.00  0.00    -0.744 OA
ENDBRANCH  81  85
ENDBRANCH  55  78
ENDBRANCH  29  30
ENDBRANCH  22  24
ENDBRANCH  21  22
ENDBRANCH  20  21
ENDBRANCH   1  20
TORSDOF 18
ENDMDL
