MODEL 1
REMARK VINA RESULT:     -13.5      0.000      0.000
REMARK SMILES Cc1ccccc1/[NH+]=C1\S[C@@H](CC(=O)Nc2ccc(C(=O)OCCOC(=O)c3ccc(-c4c5nc(c(-c6cc(S(=O)(=O)[O-])ccc6F)c6ccc([nH]6)c(-c6cc(S(=O)(=O)[O-])ccc6F)c6nc(c(-c7cc(S(=O)(=O)[O-])ccc7F)c7ccc4[nH]7)C=C6)C=C5)cc3)cc2)C(=O)N1C
REMARK SMILES IDX 23 1 22 2 20 3 21 4 19 5 16 6 17 7 92 8 18 9 91 10 15 11
REMARK SMILES IDX 13 12 14 13 12 15 11 16 8 17 9 18 10 20 95 21 93 22 96 23
REMARK SMILES IDX 94 24 7 25 1 26 2 27 3 28 4 29 6 30 5 31 24 32 25 33 26 34
REMARK SMILES IDX 27 35 28 36 29 37 90 38 30 39 89 40 31 41 32 42 33 43 83 44
REMARK SMILES IDX 34 45 88 46 82 47 84 48 35 49 87 50 81 51 80 52 36 54 68 55
REMARK SMILES IDX 48 56 67 57 49 58 52 59 66 60 85 61 50 62 51 63 65 65 86 66
REMARK SMILES IDX 53 67 37 68 38 69 46 70 39 71 45 72 47 73 44 74 40 75 41 76
REMARK SMILES IDX 42 77 43 78 69 79 70 80 78 81 71 82 77 83 79 84 76 85 72 86
REMARK SMILES IDX 73 87 74 88 75 89 54 90 55 91 63 92 56 93 62 94 64 95 61 96
REMARK SMILES IDX 57 97 58 98 59 99 60 100
REMARK H PARENT 15 14 8 19 84 53 52 64
REMARK Flexibility Score: inf
ROOT
ATOM      1  C   UNL A   1      32.875  29.907  27.078  1.00  0.00     0.275 C 
ENDROOT
BRANCH   1   2
ATOM      2  O   UNL A   1      32.477  29.132  25.940  1.00  0.00    -0.458 OA
BRANCH   2   3
ATOM      3  C   UNL A   1      31.482  28.251  26.200  1.00  0.00     0.338 C 
ATOM      4  O   UNL A   1      31.153  27.811  27.291  1.00  0.00    -0.246 OA
BRANCH   3   5
ATOM      5  C   UNL A   1      30.888  27.735  24.958  1.00  0.00     0.060 A 
ATOM      6  C   UNL A   1      30.838  26.327  22.593  1.00  0.00     0.041 A 
ATOM      7  C   UNL A   1      31.182  27.679  22.577  1.00  0.00     0.027 A 
ATOM      8  C   UNL A   1      30.283  25.745  23.725  1.00  0.00     0.027 A 
ATOM      9  C   UNL A   1      31.228  28.387  23.775  1.00  0.00     0.018 A 
ATOM     10  C   UNL A   1      30.341  26.447  24.923  1.00  0.00     0.018 A 
BRANCH   6  11
ATOM     11  N   UNL A   1      31.395  25.501  21.609  1.00  0.00    -0.326 N 
ATOM     12  C   UNL A   1      32.763  25.390  21.425  1.00  0.00     0.226 C 
ATOM     13  O   UNL A   1      33.196  25.013  20.334  1.00  0.00    -0.275 OA
ATOM     14  H   UNL A   1      30.794  24.981  21.028  1.00  0.00     0.169 HD
BRANCH  12  15
ATOM     15  C   UNL A   1      33.712  25.688  22.584  1.00  0.00     0.128 C 
BRANCH  15  16
ATOM     16  C   UNL A   1      33.915  24.537  23.551  1.00  0.00     0.183 C 
ATOM     17  N   UNL A   1      33.017  21.455  25.245  1.00  0.00    -0.234 N 
ATOM     18  C   UNL A   1      32.816  22.575  24.653  1.00  0.00     0.319 C 
ATOM     19  H   UNL A   1      32.791  21.460  26.203  1.00  0.00     0.313 HD
ATOM     20  S   UNL A   1      32.935  23.080  23.007  1.00  0.00    -0.022 SA
ATOM     21  N   UNL A   1      32.632  23.692  25.408  1.00  0.00    -0.193 N 
ATOM     22  C   UNL A   1      33.456  24.716  24.998  1.00  0.00     0.324 C 
ATOM     23  C   UNL A   1      32.009  23.653  26.717  1.00  0.00     0.301 C 
ATOM     24  O   UNL A   1      33.945  25.548  25.757  1.00  0.00    -0.245 OA
BRANCH  17  25
ATOM     25  C   UNL A   1      33.499  20.227  24.777  1.00  0.00     0.128 A 
ATOM     26  C   UNL A   1      36.052  20.533  25.104  1.00  0.00     0.049 C 
ATOM     27  C   UNL A   1      34.824  19.739  24.775  1.00  0.00    -0.004 A 
ATOM     28  C   UNL A   1      35.062  18.382  24.468  1.00  0.00     0.008 A 
ATOM     29  C   UNL A   1      34.019  17.485  24.267  1.00  0.00     0.001 A 
ATOM     30  C   UNL A   1      32.466  19.295  24.552  1.00  0.00     0.052 A 
ATOM     31  C   UNL A   1      32.714  17.941  24.322  1.00  0.00     0.004 A 
ENDBRANCH  17  25
ENDBRANCH  15  16
ENDBRANCH  12  15
ENDBRANCH   6  11
ENDBRANCH   3   5
ENDBRANCH   2   3
ENDBRANCH   1   2
BRANCH   1  32
ATOM     32  C   UNL A   1      34.221  29.437  27.650  1.00  0.00     0.275 C 
BRANCH  32  33
ATOM     33  O   UNL A   1      35.299  30.404  27.761  1.00  0.00    -0.458 OA
BRANCH  33  34
ATOM     34  C   UNL A   1      35.957  30.728  28.918  1.00  0.00     0.338 C 
ATOM     35  O   UNL A   1      35.410  31.316  29.819  1.00  0.00    -0.246 OA
BRANCH  34  36
ATOM     36  C   UNL A   1      37.294  30.103  29.073  1.00  0.00     0.060 A 
ATOM     37  C   UNL A   1      37.408  29.033  29.967  1.00  0.00     0.016 A 
ATOM     38  C   UNL A   1      38.332  30.419  28.207  1.00  0.00     0.016 A 
ATOM     39  C   UNL A   1      38.477  28.154  29.864  1.00  0.00     0.010 A 
ATOM     40  C   UNL A   1      39.329  29.496  28.011  1.00  0.00     0.010 A 
ATOM     41  C   UNL A   1      39.401  28.373  28.844  1.00  0.00    -0.014 A 
BRANCH  41  42
ATOM     42  C   UNL A   1      40.691  27.712  28.824  1.00  0.00     0.031 A 
ATOM     43  C   UNL A   1      40.815  26.300  28.403  1.00  0.00     0.074 A 
ATOM     44  C   UNL A   1      41.676  28.545  29.237  1.00  0.00     0.049 A 
ATOM     45  N   UNL A   1      41.575  25.439  28.983  1.00  0.00    -0.248 NA
ATOM     46  C   UNL A   1      40.042  25.708  27.301  1.00  0.00     0.031 C 
ATOM     47  C   UNL A   1      43.112  28.368  29.299  1.00  0.00     0.029 A 
ATOM     48  N   UNL A   1      41.513  29.791  29.862  1.00  0.00    -0.354 N 
ATOM     49  C   UNL A   1      41.704  24.376  28.105  1.00  0.00     0.074 A 
ATOM     50  C   UNL A   1      40.601  24.494  27.185  1.00  0.00     0.031 C 
ATOM     51  C   UNL A   1      43.594  29.215  30.236  1.00  0.00     0.029 A 
ATOM     52  C   UNL A   1      42.446  29.845  30.882  1.00  0.00     0.049 A 
ATOM     53  H   UNL A   1      40.860  30.489  29.622  1.00  0.00     0.167 HD
ATOM     54  C   UNL A   1      42.880  23.689  28.063  1.00  0.00     0.034 A 
ATOM     55  C   UNL A   1      42.085  29.720  32.197  1.00  0.00     0.034 A 
ATOM     56  C   UNL A   1      43.838  24.316  28.961  1.00  0.00     0.049 A 
ATOM     57  C   UNL A   1      42.764  28.503  32.787  1.00  0.00     0.074 A 
ATOM     58  C   UNL A   1      44.805  25.278  28.717  1.00  0.00     0.029 A 
ATOM     59  N   UNL A   1      43.624  24.298  30.329  1.00  0.00    -0.354 N 
ATOM     60  N   UNL A   1      42.968  27.390  32.130  1.00  0.00    -0.248 NA
ATOM     61  C   UNL A   1      43.361  28.502  34.116  1.00  0.00     0.031 C 
ATOM     62  C   UNL A   1      45.137  25.878  29.954  1.00  0.00     0.029 A 
ATOM     63  C   UNL A   1      44.370  25.283  30.940  1.00  0.00     0.049 A 
ATOM     64  H   UNL A   1      43.024  23.673  30.796  1.00  0.00     0.167 HD
ATOM     65  C   UNL A   1      43.817  26.593  32.862  1.00  0.00     0.074 A 
ATOM     66  C   UNL A   1      44.007  27.325  34.105  1.00  0.00     0.031 C 
ATOM     67  C   UNL A   1      44.355  25.429  32.380  1.00  0.00     0.034 A 
BRANCH  54  68
ATOM     68  C   UNL A   1      43.311  22.750  26.965  1.00  0.00     0.023 A 
ATOM     69  C   UNL A   1      42.814  21.427  26.967  1.00  0.00     0.031 A 
ATOM     70  C   UNL A   1      44.166  23.080  25.901  1.00  0.00     0.131 A 
ATOM     71  C   UNL A   1      43.203  20.482  26.007  1.00  0.00     0.055 A 
ATOM     72  C   UNL A   1      44.566  22.133  24.940  1.00  0.00     0.041 A 
ATOM     73  F   UNL A   1      44.617  24.333  25.740  1.00  0.00    -0.206 F 
ATOM     74  C   UNL A   1      44.092  20.824  24.994  1.00  0.00     0.022 A 
BRANCH  71  75
ATOM     75  S   UNL A   1      42.525  18.802  26.123  1.00  0.00     0.124 S 
ATOM     76  O   UNL A   1      41.138  18.999  25.717  1.00  0.00    -0.237 OA
ATOM     77  O   UNL A   1      43.368  18.058  25.194  1.00  0.00    -0.237 OA
ATOM     78  O   UNL A   1      42.712  18.458  27.533  1.00  0.00    -0.744 OA
ENDBRANCH  71  75
ENDBRANCH  54  68
BRANCH  55  79
ATOM     79  C   UNL A   1      40.731  30.232  32.596  1.00  0.00     0.023 A 
ATOM     80  C   UNL A   1      40.452  31.599  32.369  1.00  0.00     0.031 A 
ATOM     81  C   UNL A   1      39.646  29.423  32.968  1.00  0.00     0.131 A 
ATOM     82  C   UNL A   1      39.134  32.078  32.327  1.00  0.00     0.055 A 
ATOM     83  C   UNL A   1      38.330  29.926  33.011  1.00  0.00     0.041 A 
ATOM     84  F   UNL A   1      39.814  28.117  33.214  1.00  0.00    -0.206 F 
ATOM     85  C   UNL A   1      38.063  31.249  32.651  1.00  0.00     0.022 A 
BRANCH  82  86
ATOM     86  S   UNL A   1      38.853  33.705  31.558  1.00  0.00     0.124 S 
ATOM     87  O   UNL A   1      40.213  34.198  31.378  1.00  0.00    -0.237 OA
ATOM     88  O   UNL A   1      38.134  33.346  30.338  1.00  0.00    -0.237 OA
ATOM     89  O   UNL A   1      38.047  34.418  32.542  1.00  0.00    -0.744 OA
ENDBRANCH  82  86
ENDBRANCH  55  79
BRANCH  67  90
ATOM     90  C   UNL A   1      45.060  24.366  33.191  1.00  0.00     0.023 A 
ATOM     91  C   UNL A   1      46.369  24.519  33.647  1.00  0.00     0.031 A 
ATOM     92  C   UNL A   1      44.403  23.178  33.610  1.00  0.00     0.131 A 
ATOM     93  C   UNL A   1      47.015  23.498  34.356  1.00  0.00     0.055 A 
ATOM     94  C   UNL A   1      45.010  22.214  34.417  1.00  0.00     0.041 A 
ATOM     95  F   UNL A   1      43.136  22.899  33.274  1.00  0.00    -0.206 F 
ATOM     96  C   UNL A   1      46.338  22.356  34.774  1.00  0.00     0.022 A 
BRANCH  93  97
ATOM     97  S   UNL A   1      48.793  23.672  34.616  1.00  0.00     0.124 S 
ATOM     98  O   UNL A   1      49.231  22.277  34.609  1.00  0.00    -0.237 OA
ATOM     99  O   UNL A   1      49.202  24.465  33.461  1.00  0.00    -0.237 OA
ATOM    100  O   UNL A   1      48.888  24.349  35.906  1.00  0.00    -0.744 OA
ENDBRANCH  93  97
ENDBRANCH  67  90
ENDBRANCH  41  42
ENDBRANCH  34  36
ENDBRANCH  33  34
ENDBRANCH  32  33
ENDBRANCH   1  32
TORSDOF 18
ENDMDL
MODEL 2
REMARK VINA RESULT:     -13.4      3.917     10.398
REMARK SMILES Cc1ccccc1/[NH+]=C1\S[C@@H](CC(=O)Nc2ccc(C(=O)OCCOC(=O)c3ccc(-c4c5nc(c(-c6cc(S(=O)(=O)[O-])ccc6F)c6ccc([nH]6)c(-c6cc(S(=O)(=O)[O-])ccc6F)c6nc(c(-c7cc(S(=O)(=O)[O-])ccc7F)c7ccc4[nH]7)C=C6)C=C5)cc3)cc2)C(=O)N1C
REMARK SMILES IDX 23 1 22 2 20 3 21 4 19 5 16 6 17 7 92 8 18 9 91 10 15 11
REMARK SMILES IDX 13 12 14 13 12 15 11 16 8 17 9 18 10 20 95 21 93 22 96 23
REMARK SMILES IDX 94 24 7 25 1 26 2 27 3 28 4 29 6 30 5 31 24 32 25 33 26 34
REMARK SMILES IDX 27 35 28 36 29 37 90 38 30 39 89 40 31 41 32 42 33 43 83 44
REMARK SMILES IDX 34 45 88 46 82 47 84 48 35 49 87 50 81 51 80 52 36 54 68 55
REMARK SMILES IDX 48 56 67 57 49 58 52 59 66 60 85 61 50 62 51 63 65 65 86 66
REMARK SMILES IDX 53 67 37 68 38 69 46 70 39 71 45 72 47 73 44 74 40 75 41 76
REMARK SMILES IDX 42 77 43 78 69 79 70 80 78 81 71 82 77 83 79 84 76 85 72 86
REMARK SMILES IDX 73 87 74 88 75 89 54 90 55 91 63 92 56 93 62 94 64 95 61 96
REMARK SMILES IDX 57 97 58 98 59 99 60 100
REMARK H PARENT 15 14 8 19 84 53 52 64
REMARK Flexibility Score: inf
ROOT
ATOM      1  C   UNL A   1      37.529  21.781  25.064  1.00  0.00     0.275 C 
ENDROOT
BRANCH   1   2
ATOM      2  O   UNL A   1      36.434  22.704  25.006  1.00  0.00    -0.458 OA
BRANCH   2   3
ATOM      3  C   UNL A   1      35.863  22.800  23.783  1.00  0.00     0.338 C 
ATOM      4  O   UNL A   1      36.367  23.253  22.766  1.00  0.00    -0.246 OA
BRANCH   3   5
ATOM      5  C   UNL A   1      34.445  22.412  23.823  1.00  0.00     0.060 A 
ATOM      6  C   UNL A   1      31.787  22.673  24.491  1.00  0.00     0.041 A 
ATOM      7  C   UNL A   1      32.634  21.942  25.324  1.00  0.00     0.027 A 
ATOM      8  C   UNL A   1      32.194  23.056  23.219  1.00  0.00     0.027 A 
ATOM      9  C   UNL A   1      33.983  21.826  24.998  1.00  0.00     0.018 A 
ATOM     10  C   UNL A   1      33.543  22.953  22.899  1.00  0.00     0.018 A 
BRANCH   6  11
ATOM     11  N   UNL A   1      30.697  23.325  25.079  1.00  0.00    -0.326 N 
ATOM     12  C   UNL A   1      30.856  24.331  26.018  1.00  0.00     0.226 C 
ATOM     13  O   UNL A   1      29.934  24.579  26.798  1.00  0.00    -0.275 OA
ATOM     14  H   UNL A   1      29.785  23.060  24.817  1.00  0.00     0.169 HD
BRANCH  12  15
ATOM     15  C   UNL A   1      32.145  25.149  26.043  1.00  0.00     0.128 C 
BRANCH  15  16
ATOM     16  C   UNL A   1      31.989  26.594  25.608  1.00  0.00     0.183 C 
ATOM     17  N   UNL A   1      31.269  29.275  23.269  1.00  0.00    -0.234 N 
ATOM     18  C   UNL A   1      31.665  28.114  23.644  1.00  0.00     0.319 C 
ATOM     19  H   UNL A   1      31.991  29.860  22.943  1.00  0.00     0.313 HD
ATOM     20  S   UNL A   1      30.835  26.699  24.181  1.00  0.00    -0.022 SA
ATOM     21  N   UNL A   1      32.994  27.910  23.856  1.00  0.00    -0.193 N 
ATOM     22  C   UNL A   1      33.222  27.330  25.084  1.00  0.00     0.324 C 
ATOM     23  C   UNL A   1      34.017  28.615  23.110  1.00  0.00     0.301 C 
ATOM     24  O   UNL A   1      34.210  27.559  25.776  1.00  0.00    -0.245 OA
BRANCH  17  25
ATOM     25  C   UNL A   1      29.999  29.862  23.239  1.00  0.00     0.128 A 
ATOM     26  C   UNL A   1      30.229  31.650  25.103  1.00  0.00     0.049 C 
ATOM     27  C   UNL A   1      29.519  30.972  23.969  1.00  0.00    -0.004 A 
ATOM     28  C   UNL A   1      28.277  31.545  23.622  1.00  0.00     0.008 A 
ATOM     29  C   UNL A   1      27.559  31.113  22.513  1.00  0.00     0.001 A 
ATOM     30  C   UNL A   1      29.237  29.439  22.132  1.00  0.00     0.052 A 
ATOM     31  C   UNL A   1      28.047  30.063  21.756  1.00  0.00     0.004 A 
ENDBRANCH  17  25
ENDBRANCH  15  16
ENDBRANCH  12  15
ENDBRANCH   6  11
ENDBRANCH   3   5
ENDBRANCH   2   3
ENDBRANCH   1   2
BRANCH   1  32
ATOM     32  C   UNL A   1      38.623  22.249  26.035  1.00  0.00     0.275 C 
BRANCH  32  33
ATOM     33  O   UNL A   1      38.738  23.671  26.312  1.00  0.00    -0.458 OA
BRANCH  33  34
ATOM     34  C   UNL A   1      39.872  24.304  26.745  1.00  0.00     0.338 C 
ATOM     35  O   UNL A   1      40.973  23.938  26.412  1.00  0.00    -0.246 OA
BRANCH  34  36
ATOM     36  C   UNL A   1      39.641  25.591  27.446  1.00  0.00     0.060 A 
ATOM     37  C   UNL A   1      39.092  25.537  28.732  1.00  0.00     0.016 A 
ATOM     38  C   UNL A   1      40.154  26.779  26.943  1.00  0.00     0.016 A 
ATOM     39  C   UNL A   1      39.230  26.618  29.591  1.00  0.00     0.010 A 
ATOM     40  C   UNL A   1      40.407  27.808  27.815  1.00  0.00     0.010 A 
ATOM     41  C   UNL A   1      39.937  27.726  29.131  1.00  0.00    -0.014 A 
BRANCH  41  42
ATOM     42  C   UNL A   1      39.891  29.004  29.815  1.00  0.00     0.031 A 
ATOM     43  C   UNL A   1      38.783  29.954  29.578  1.00  0.00     0.074 A 
ATOM     44  C   UNL A   1      40.960  29.162  30.631  1.00  0.00     0.049 A 
ATOM     45  N   UNL A   1      38.937  31.226  29.461  1.00  0.00    -0.248 NA
ATOM     46  C   UNL A   1      37.383  29.543  29.398  1.00  0.00     0.031 C 
ATOM     47  C   UNL A   1      41.299  30.213  31.569  1.00  0.00     0.029 A 
ATOM     48  N   UNL A   1      42.118  28.368  30.658  1.00  0.00    -0.354 N 
ATOM     49  C   UNL A   1      37.682  31.789  29.623  1.00  0.00     0.074 A 
ATOM     50  C   UNL A   1      36.743  30.723  29.385  1.00  0.00     0.031 C 
ATOM     51  C   UNL A   1      42.640  30.207  31.730  1.00  0.00     0.029 A 
ATOM     52  C   UNL A   1      43.187  29.237  30.786  1.00  0.00     0.049 A 
ATOM     53  H   UNL A   1      42.160  27.386  30.598  1.00  0.00     0.167 HD
ATOM     54  C   UNL A   1      37.574  33.006  30.226  1.00  0.00     0.034 A 
ATOM     55  C   UNL A   1      44.025  29.508  29.738  1.00  0.00     0.034 A 
ATOM     56  C   UNL A   1      38.889  33.445  30.669  1.00  0.00     0.049 A 
ATOM     57  C   UNL A   1      43.958  30.985  29.415  1.00  0.00     0.074 A 
ATOM     58  C   UNL A   1      39.524  33.295  31.891  1.00  0.00     0.029 A 
ATOM     59  N   UNL A   1      39.869  33.749  29.740  1.00  0.00    -0.354 N 
ATOM     60  N   UNL A   1      42.865  31.699  29.487  1.00  0.00    -0.248 NA
ATOM     61  C   UNL A   1      45.141  31.776  29.103  1.00  0.00     0.031 C 
ATOM     62  C   UNL A   1      40.912  33.463  31.678  1.00  0.00     0.029 A 
ATOM     63  C   UNL A   1      41.114  33.710  30.332  1.00  0.00     0.049 A 
ATOM     64  H   UNL A   1      39.701  33.960  28.793  1.00  0.00     0.167 HD
ATOM     65  C   UNL A   1      43.197  33.030  29.376  1.00  0.00     0.074 A 
ATOM     66  C   UNL A   1      44.627  33.017  29.109  1.00  0.00     0.031 C 
ATOM     67  C   UNL A   1      42.300  34.046  29.573  1.00  0.00     0.034 A 
BRANCH  54  68
ATOM     68  C   UNL A   1      36.305  33.602  30.781  1.00  0.00     0.023 A 
ATOM     69  C   UNL A   1      35.401  34.225  29.890  1.00  0.00     0.031 A 
ATOM     70  C   UNL A   1      35.916  33.580  32.130  1.00  0.00     0.131 A 
ATOM     71  C   UNL A   1      34.222  34.842  30.334  1.00  0.00     0.055 A 
ATOM     72  C   UNL A   1      34.739  34.206  32.581  1.00  0.00     0.041 A 
ATOM     73  F   UNL A   1      36.646  32.929  33.048  1.00  0.00    -0.206 F 
ATOM     74  C   UNL A   1      33.889  34.849  31.684  1.00  0.00     0.022 A 
BRANCH  71  75
ATOM     75  S   UNL A   1      33.148  35.638  29.105  1.00  0.00     0.124 S 
ATOM     76  O   UNL A   1      32.609  34.493  28.378  1.00  0.00    -0.237 OA
ATOM     77  O   UNL A   1      32.204  36.370  29.941  1.00  0.00    -0.237 OA
ATOM     78  O   UNL A   1      34.071  36.476  28.340  1.00  0.00    -0.744 OA
ENDBRANCH  71  75
ENDBRANCH  54  68
BRANCH  55  79
ATOM     79  C   UNL A   1      44.258  28.414  28.735  1.00  0.00     0.023 A 
ATOM     80  C   UNL A   1      44.592  27.132  29.227  1.00  0.00     0.031 A 
ATOM     81  C   UNL A   1      43.954  28.502  27.368  1.00  0.00     0.131 A 
ATOM     82  C   UNL A   1      44.438  25.983  28.435  1.00  0.00     0.055 A 
ATOM     83  C   UNL A   1      43.884  27.357  26.550  1.00  0.00     0.041 A 
ATOM     84  F   UNL A   1      43.635  29.678  26.808  1.00  0.00    -0.206 F 
ATOM     85  C   UNL A   1      44.088  26.085  27.092  1.00  0.00     0.022 A 
BRANCH  82  86
ATOM     86  S   UNL A   1      44.418  24.373  29.284  1.00  0.00     0.124 S 
ATOM     87  O   UNL A   1      45.310  23.576  28.453  1.00  0.00    -0.237 OA
ATOM     88  O   UNL A   1      44.918  24.721  30.613  1.00  0.00    -0.237 OA
ATOM     89  O   UNL A   1      43.013  23.985  29.256  1.00  0.00    -0.744 OA
ENDBRANCH  82  86
ENDBRANCH  55  79
BRANCH  67  90
ATOM     90  C   UNL A   1      42.499  35.499  29.206  1.00  0.00     0.023 A 
ATOM     91  C   UNL A   1      43.383  36.329  29.894  1.00  0.00     0.031 A 
ATOM     92  C   UNL A   1      41.857  36.087  28.083  1.00  0.00     0.131 A 
ATOM     93  C   UNL A   1      43.512  37.685  29.564  1.00  0.00     0.055 A 
ATOM     94  C   UNL A   1      42.078  37.407  27.683  1.00  0.00     0.041 A 
ATOM     95  F   UNL A   1      40.999  35.411  27.307  1.00  0.00    -0.206 F 
ATOM     96  C   UNL A   1      42.891  38.227  28.443  1.00  0.00     0.022 A 
BRANCH  93  97
ATOM     97  S   UNL A   1      44.434  38.728  30.713  1.00  0.00     0.124 S 
ATOM     98  O   UNL A   1      43.366  39.530  31.306  1.00  0.00    -0.237 OA
ATOM     99  O   UNL A   1      45.052  37.748  31.601  1.00  0.00    -0.237 OA
ATOM    100  O   UNL A   1      45.356  39.460  29.849  1.00  0.00    -0.744 OA
ENDBRANCH  93  97
ENDBRANCH  67  90
ENDBRANCH  41  42
ENDBRANCH  34  36
ENDBRANCH  33  34
ENDBRANCH  32  33
ENDBRANCH   1  32
TORSDOF 18
ENDMDL
MODEL 3
REMARK VINA RESULT:     -12.9      3.847     10.071
REMARK SMILES Cc1ccccc1/[NH+]=C1\S[C@@H](CC(=O)Nc2ccc(C(=O)OCCOC(=O)c3ccc(-c4c5nc(c(-c6cc(S(=O)(=O)[O-])ccc6F)c6ccc([nH]6)c(-c6cc(S(=O)(=O)[O-])ccc6F)c6nc(c(-c7cc(S(=O)(=O)[O-])ccc7F)c7ccc4[nH]7)C=C6)C=C5)cc3)cc2)C(=O)N1C
REMARK SMILES IDX 23 1 22 2 20 3 21 4 19 5 16 6 17 7 92 8 18 9 91 10 15 11
REMARK SMILES IDX 13 12 14 13 12 15 11 16 8 17 9 18 10 20 95 21 93 22 96 23
REMARK SMILES IDX 94 24 7 25 1 26 2 27 3 28 4 29 6 30 5 31 24 32 25 33 26 34
REMARK SMILES IDX 27 35 28 36 29 37 90 38 30 39 89 40 31 41 32 42 33 43 83 44
REMARK SMILES IDX 34 45 88 46 82 47 84 48 35 49 87 50 81 51 80 52 36 54 68 55
REMARK SMILES IDX 48 56 67 57 49 58 52 59 66 60 85 61 50 62 51 63 65 65 86 66
REMARK SMILES IDX 53 67 37 68 38 69 46 70 39 71 45 72 47 73 44 74 40 75 41 76
REMARK SMILES IDX 42 77 43 78 69 79 70 80 78 81 71 82 77 83 79 84 76 85 72 86
REMARK SMILES IDX 73 87 74 88 75 89 54 90 55 91 63 92 56 93 62 94 64 95 61 96
REMARK SMILES IDX 57 97 58 98 59 99 60 100
REMARK H PARENT 15 14 8 19 84 53 52 64
REMARK Flexibility Score: inf
ROOT
ATOM      1  C   UNL A   1      37.830  21.697  25.163  1.00  0.00     0.275 C 
ENDROOT
BRANCH   1   2
ATOM      2  O   UNL A   1      37.188  22.843  24.587  1.00  0.00    -0.458 OA
BRANCH   2   3
ATOM      3  C   UNL A   1      35.894  22.633  24.251  1.00  0.00     0.338 C 
ATOM      4  O   UNL A   1      35.360  22.884  23.181  1.00  0.00    -0.246 OA
BRANCH   3   5
ATOM      5  C   UNL A   1      35.109  22.176  25.406  1.00  0.00     0.060 A 
ATOM      6  C   UNL A   1      32.891  22.005  27.028  1.00  0.00     0.041 A 
ATOM      7  C   UNL A   1      33.871  22.957  27.307  1.00  0.00     0.027 A 
ATOM      8  C   UNL A   1      33.125  20.987  26.112  1.00  0.00     0.027 A 
ATOM      9  C   UNL A   1      34.984  23.058  26.476  1.00  0.00     0.018 A 
ATOM     10  C   UNL A   1      34.228  21.095  25.273  1.00  0.00     0.018 A 
BRANCH   6  11
ATOM     11  N   UNL A   1      31.571  22.302  27.388  1.00  0.00    -0.326 N 
ATOM     12  C   UNL A   1      30.799  23.211  26.683  1.00  0.00     0.226 C 
ATOM     13  O   UNL A   1      29.842  23.750  27.242  1.00  0.00    -0.275 OA
ATOM     14  H   UNL A   1      31.178  21.850  28.170  1.00  0.00     0.169 HD
BRANCH  12  15
ATOM     15  C   UNL A   1      31.113  23.496  25.216  1.00  0.00     0.128 C 
BRANCH  15  16
ATOM     16  C   UNL A   1      31.763  24.841  24.955  1.00  0.00     0.183 C 
ATOM     17  N   UNL A   1      31.832  28.448  24.550  1.00  0.00    -0.234 N 
ATOM     18  C   UNL A   1      31.332  27.268  24.507  1.00  0.00     0.319 C 
ATOM     19  H   UNL A   1      31.996  28.848  23.665  1.00  0.00     0.313 HD
ATOM     20  S   UNL A   1      30.763  26.181  25.721  1.00  0.00    -0.022 SA
ATOM     21  N   UNL A   1      31.371  26.580  23.333  1.00  0.00    -0.193 N 
ATOM     22  C   UNL A   1      31.890  25.317  23.508  1.00  0.00     0.324 C 
ATOM     23  C   UNL A   1      31.309  27.240  22.043  1.00  0.00     0.301 C 
ATOM     24  O   UNL A   1      32.569  24.734  22.668  1.00  0.00    -0.245 OA
BRANCH  17  25
ATOM     25  C   UNL A   1      32.188  29.272  25.624  1.00  0.00     0.128 A 
ATOM     26  C   UNL A   1      34.385  28.146  26.413  1.00  0.00     0.049 C 
ATOM     27  C   UNL A   1      33.351  29.231  26.423  1.00  0.00    -0.004 A 
ATOM     28  C   UNL A   1      33.620  30.297  27.308  1.00  0.00     0.008 A 
ATOM     29  C   UNL A   1      32.826  31.437  27.341  1.00  0.00     0.001 A 
ATOM     30  C   UNL A   1      31.395  30.435  25.694  1.00  0.00     0.052 A 
ATOM     31  C   UNL A   1      31.715  31.513  26.521  1.00  0.00     0.004 A 
ENDBRANCH  17  25
ENDBRANCH  15  16
ENDBRANCH  12  15
ENDBRANCH   6  11
ENDBRANCH   3   5
ENDBRANCH   2   3
ENDBRANCH   1   2
BRANCH   1  32
ATOM     32  C   UNL A   1      38.970  22.096  26.112  1.00  0.00     0.275 C 
BRANCH  32  33
ATOM     33  O   UNL A   1      39.597  23.394  25.931  1.00  0.00    -0.458 OA
BRANCH  33  34
ATOM     34  C   UNL A   1      40.563  23.928  26.741  1.00  0.00     0.338 C 
ATOM     35  O   UNL A   1      41.682  23.476  26.782  1.00  0.00    -0.246 OA
BRANCH  34  36
ATOM     36  C   UNL A   1      40.205  25.222  27.373  1.00  0.00     0.060 A 
ATOM     37  C   UNL A   1      39.288  25.194  28.429  1.00  0.00     0.016 A 
ATOM     38  C   UNL A   1      40.917  26.377  27.081  1.00  0.00     0.016 A 
ATOM     39  C   UNL A   1      39.221  26.258  29.318  1.00  0.00     0.010 A 
ATOM     40  C   UNL A   1      40.952  27.382  28.015  1.00  0.00     0.010 A 
ATOM     41  C   UNL A   1      40.099  27.322  29.124  1.00  0.00    -0.014 A 
BRANCH  41  42
ATOM     42  C   UNL A   1      39.922  28.595  29.795  1.00  0.00     0.031 A 
ATOM     43  C   UNL A   1      38.980  29.606  29.271  1.00  0.00     0.074 A 
ATOM     44  C   UNL A   1      40.717  28.688  30.887  1.00  0.00     0.049 A 
ATOM     45  N   UNL A   1      39.224  30.869  29.233  1.00  0.00    -0.248 NA
ATOM     46  C   UNL A   1      37.672  29.274  28.687  1.00  0.00     0.031 C 
ATOM     47  C   UNL A   1      40.824  29.712  31.906  1.00  0.00     0.029 A 
ATOM     48  N   UNL A   1      41.777  27.832  31.228  1.00  0.00    -0.354 N 
ATOM     49  C   UNL A   1      38.006  31.498  29.040  1.00  0.00     0.074 A 
ATOM     50  C   UNL A   1      37.123  30.487  28.516  1.00  0.00     0.031 C 
ATOM     51  C   UNL A   1      42.060  29.631  32.447  1.00  0.00     0.029 A 
ATOM     52  C   UNL A   1      42.806  28.639  31.678  1.00  0.00     0.049 A 
ATOM     53  H   UNL A   1      41.785  26.849  31.160  1.00  0.00     0.167 HD
ATOM     54  C   UNL A   1      37.790  32.716  29.614  1.00  0.00     0.034 A 
ATOM     55  C   UNL A   1      43.923  28.872  30.921  1.00  0.00     0.034 A 
ATOM     56  C   UNL A   1      38.942  33.078  30.426  1.00  0.00     0.049 A 
ATOM     57  C   UNL A   1      44.026  30.352  30.627  1.00  0.00     0.074 A 
ATOM     58  C   UNL A   1      39.189  32.884  31.776  1.00  0.00     0.029 A 
ATOM     59  N   UNL A   1      40.163  33.334  29.825  1.00  0.00    -0.354 N 
ATOM     60  N   UNL A   1      42.997  31.125  30.398  1.00  0.00    -0.248 NA
ATOM     61  C   UNL A   1      45.287  31.080  30.687  1.00  0.00     0.031 C 
ATOM     62  C   UNL A   1      40.586  32.977  31.975  1.00  0.00     0.029 A 
ATOM     63  C   UNL A   1      41.180  33.222  30.750  1.00  0.00     0.049 A 
ATOM     64  H   UNL A   1      40.286  33.562  28.875  1.00  0.00     0.167 HD
ATOM     65  C   UNL A   1      43.413  32.436  30.417  1.00  0.00     0.074 A 
ATOM     66  C   UNL A   1      44.857  32.347  30.573  1.00  0.00     0.031 C 
ATOM     67  C   UNL A   1      42.550  33.498  30.371  1.00  0.00     0.034 A 
BRANCH  54  68
ATOM     68  C   UNL A   1      36.447  33.376  29.793  1.00  0.00     0.023 A 
ATOM     69  C   UNL A   1      36.051  33.771  31.091  1.00  0.00     0.031 A 
ATOM     70  C   UNL A   1      35.536  33.661  28.763  1.00  0.00     0.131 A 
ATOM     71  C   UNL A   1      34.798  34.349  31.345  1.00  0.00     0.055 A 
ATOM     72  C   UNL A   1      34.275  34.232  29.015  1.00  0.00     0.041 A 
ATOM     73  F   UNL A   1      35.848  33.423  27.480  1.00  0.00    -0.206 F 
ATOM     74  C   UNL A   1      33.896  34.572  30.312  1.00  0.00     0.022 A 
BRANCH  71  75
ATOM     75  S   UNL A   1      34.382  34.790  33.057  1.00  0.00     0.124 S 
ATOM     76  O   UNL A   1      35.647  35.321  33.555  1.00  0.00    -0.237 OA
ATOM     77  O   UNL A   1      33.305  35.756  32.879  1.00  0.00    -0.237 OA
ATOM     78  O   UNL A   1      33.974  33.515  33.646  1.00  0.00    -0.744 OA
ENDBRANCH  71  75
ENDBRANCH  54  68
BRANCH  55  79
ATOM     79  C   UNL A   1      44.380  27.774  30.003  1.00  0.00     0.023 A 
ATOM     80  C   UNL A   1      44.224  27.974  28.613  1.00  0.00     0.031 A 
ATOM     81  C   UNL A   1      45.148  26.668  30.396  1.00  0.00     0.131 A 
ATOM     82  C   UNL A   1      44.957  27.223  27.680  1.00  0.00     0.055 A 
ATOM     83  C   UNL A   1      45.815  25.859  29.455  1.00  0.00     0.041 A 
ATOM     84  F   UNL A   1      45.342  26.392  31.694  1.00  0.00    -0.206 F 
ATOM     85  C   UNL A   1      45.754  26.158  28.092  1.00  0.00     0.022 A 
BRANCH  82  86
ATOM     86  S   UNL A   1      45.065  27.865  25.980  1.00  0.00     0.124 S 
ATOM     87  O   UNL A   1      46.168  28.811  26.078  1.00  0.00    -0.237 OA
ATOM     88  O   UNL A   1      45.327  26.650  25.210  1.00  0.00    -0.237 OA
ATOM     89  O   UNL A   1      43.750  28.449  25.747  1.00  0.00    -0.744 OA
ENDBRANCH  82  86
ENDBRANCH  55  79
BRANCH  67  90
ATOM     90  C   UNL A   1      42.919  34.941  30.110  1.00  0.00     0.023 A 
ATOM     91  C   UNL A   1      42.655  35.572  28.896  1.00  0.00     0.031 A 
ATOM     92  C   UNL A   1      43.485  35.768  31.118  1.00  0.00     0.131 A 
ATOM     93  C   UNL A   1      43.051  36.896  28.664  1.00  0.00     0.055 A 
ATOM     94  C   UNL A   1      43.770  37.121  30.923  1.00  0.00     0.041 A 
ATOM     95  F   UNL A   1      43.773  35.314  32.345  1.00  0.00    -0.206 F 
ATOM     96  C   UNL A   1      43.580  37.690  29.677  1.00  0.00     0.022 A 
BRANCH  93  97
ATOM     97  S   UNL A   1      42.948  37.502  26.966  1.00  0.00     0.124 S 
ATOM     98  O   UNL A   1      41.798  38.400  27.042  1.00  0.00    -0.237 OA
ATOM     99  O   UNL A   1      44.243  38.152  26.786  1.00  0.00    -0.237 OA
ATOM    100  O   UNL A   1      42.742  36.290  26.179  1.00  0.00    -0.744 OA
ENDBRANCH  93  97
ENDBRANCH  67  90
ENDBRANCH  41  42
ENDBRANCH  34  36
ENDBRANCH  33  34
ENDBRANCH  32  33
ENDBRANCH   1  32
TORSDOF 18
ENDMDL
