MODEL 1
REMARK VINA RESULT:     -10.3      0.000      0.000
REMARK SMILES O=C(CCCC[C@@H]1CCSS1)OCCOC(=O)c1ccc(-c2c3nc(c(-c4cc(S(=O)(=O)[O-])ccc4F)c4ccc([nH]4)c(-c4cc(S(=O)(=O)[O-])ccc4F)c4nc(c(-c5cc(S(=O)(=O)[O-])ccc5F)c5ccc2[nH]5)C=C4)C=C3)cc1
REMARK SMILES IDX 13 1 12 2 2 3 1 4 3 5 4 6 5 7 6 8 7 9 8 10 11 11 9 12 10 13
REMARK SMILES IDX 14 14 15 15 16 16 17 17 18 18 19 19 80 20 20 21 79 22 21 23
REMARK SMILES IDX 22 24 23 25 73 26 24 27 78 28 72 29 74 30 25 31 77 32 71 33
REMARK SMILES IDX 70 34 26 36 58 37 38 38 57 39 39 40 42 41 56 42 75 43 40 44
REMARK SMILES IDX 41 45 55 47 76 48 43 49 27 50 28 51 36 52 29 53 35 54 37 55
REMARK SMILES IDX 34 56 30 57 31 58 32 59 33 60 59 61 60 62 68 63 61 64 67 65
REMARK SMILES IDX 69 66 66 67 62 68 63 69 64 70 65 71 44 72 45 73 53 74 46 75
REMARK SMILES IDX 52 76 54 77 51 78 47 79 48 80 49 81 50 82
REMARK H PARENT 74 35 42 46
REMARK Flexibility Score: inf
ROOT
ATOM      1  C   UNL A   1      36.326  20.278  25.061  1.00  0.00     0.274 C 
ENDROOT
BRANCH   1   2
ATOM      2  O   UNL A   1      35.676  21.436  25.610  1.00  0.00    -0.462 OA
BRANCH   2   3
ATOM      3  C   UNL A   1      34.757  22.116  24.878  1.00  0.00     0.305 C 
ATOM      4  O   UNL A   1      35.031  22.525  23.753  1.00  0.00    -0.252 OA
BRANCH   3   5
ATOM      5  C   UNL A   1      33.450  22.464  25.558  1.00  0.00     0.123 C 
BRANCH   5   6
ATOM      6  C   UNL A   1      32.443  21.321  25.590  1.00  0.00     0.012 C 
BRANCH   6   7
ATOM      7  C   UNL A   1      32.044  20.733  24.231  1.00  0.00     0.002 C 
BRANCH   7   8
ATOM      8  C   UNL A   1      32.874  19.591  23.620  1.00  0.00     0.015 C 
BRANCH   8   9
ATOM      9  C   UNL A   1      32.683  18.136  24.083  1.00  0.00     0.059 C 
ATOM     10  C   UNL A   1      32.548  17.866  25.582  1.00  0.00     0.027 C 
ATOM     11  S   UNL A   1      34.025  17.081  23.445  1.00  0.00    -0.091 SA
ATOM     12  C   UNL A   1      32.646  16.368  25.860  1.00  0.00     0.083 C 
ATOM     13  S   UNL A   1      34.142  15.796  25.026  1.00  0.00    -0.094 SA
ENDBRANCH   8   9
ENDBRANCH   7   8
ENDBRANCH   6   7
ENDBRANCH   5   6
ENDBRANCH   3   5
ENDBRANCH   2   3
ENDBRANCH   1   2
BRANCH   1  14
ATOM     14  C   UNL A   1      37.819  20.488  24.787  1.00  0.00     0.275 C 
BRANCH  14  15
ATOM     15  O   UNL A   1      38.330  21.664  25.432  1.00  0.00    -0.458 OA
BRANCH  15  16
ATOM     16  C   UNL A   1      39.469  21.461  26.150  1.00  0.00     0.338 C 
ATOM     17  O   UNL A   1      40.153  20.456  26.131  1.00  0.00    -0.246 OA
BRANCH  16  18
ATOM     18  C   UNL A   1      39.864  22.701  26.861  1.00  0.00     0.060 A 
ATOM     19  C   UNL A   1      39.142  23.865  26.571  1.00  0.00     0.016 A 
ATOM     20  C   UNL A   1      40.928  22.750  27.766  1.00  0.00     0.016 A 
ATOM     21  C   UNL A   1      39.514  25.084  27.140  1.00  0.00     0.010 A 
ATOM     22  C   UNL A   1      41.292  23.971  28.350  1.00  0.00     0.010 A 
ATOM     23  C   UNL A   1      40.615  25.152  28.005  1.00  0.00    -0.014 A 
BRANCH  23  24
ATOM     24  C   UNL A   1      41.156  26.485  28.378  1.00  0.00     0.031 A 
ATOM     25  C   UNL A   1      42.577  26.819  28.001  1.00  0.00     0.074 A 
ATOM     26  C   UNL A   1      40.387  27.412  28.978  1.00  0.00     0.049 A 
ATOM     27  N   UNL A   1      43.229  27.947  28.124  1.00  0.00    -0.248 NA
ATOM     28  C   UNL A   1      43.364  25.730  27.406  1.00  0.00     0.031 C 
ATOM     29  C   UNL A   1      38.994  27.222  29.382  1.00  0.00     0.029 A 
ATOM     30  N   UNL A   1      40.669  28.706  29.341  1.00  0.00    -0.354 N 
ATOM     31  C   UNL A   1      44.497  27.709  27.605  1.00  0.00     0.074 A 
ATOM     32  C   UNL A   1      44.539  26.312  27.225  1.00  0.00     0.031 C 
ATOM     33  C   UNL A   1      38.541  28.364  29.929  1.00  0.00     0.029 A 
ATOM     34  C   UNL A   1      39.612  29.360  29.930  1.00  0.00     0.049 A 
ATOM     35  H   UNL A   1      41.547  29.126  29.194  1.00  0.00     0.167 HD
ATOM     36  C   UNL A   1      45.526  28.576  27.435  1.00  0.00     0.034 A 
ATOM     37  C   UNL A   1      39.521  30.617  30.411  1.00  0.00     0.034 A 
ATOM     38  C   UNL A   1      45.488  29.960  27.838  1.00  0.00     0.049 A 
ATOM     39  C   UNL A   1      40.710  31.542  30.292  1.00  0.00     0.074 A 
ATOM     40  C   UNL A   1      46.466  30.929  27.694  1.00  0.00     0.029 A 
ATOM     41  N   UNL A   1      44.420  30.569  28.484  1.00  0.00    -0.354 N 
ATOM     42  N   UNL A   1      41.886  31.320  29.749  1.00  0.00    -0.248 NA
ATOM     43  C   UNL A   1      40.550  32.897  30.839  1.00  0.00     0.031 C 
ATOM     44  C   UNL A   1      46.018  32.101  28.315  1.00  0.00     0.029 A 
ATOM     45  C   UNL A   1      44.730  31.888  28.781  1.00  0.00     0.049 A 
ATOM     46  H   UNL A   1      43.567  30.128  28.702  1.00  0.00     0.167 HD
ATOM     47  C   UNL A   1      42.587  32.519  29.855  1.00  0.00     0.074 A 
ATOM     48  C   UNL A   1      41.702  33.462  30.507  1.00  0.00     0.031 C 
ATOM     49  C   UNL A   1      43.845  32.819  29.440  1.00  0.00     0.034 A 
BRANCH  36  50
ATOM     50  C   UNL A   1      46.790  28.024  26.822  1.00  0.00     0.023 A 
ATOM     51  C   UNL A   1      47.055  28.144  25.444  1.00  0.00     0.031 A 
ATOM     52  C   UNL A   1      47.715  27.321  27.612  1.00  0.00     0.131 A 
ATOM     53  C   UNL A   1      48.169  27.499  24.889  1.00  0.00     0.055 A 
ATOM     54  C   UNL A   1      48.866  26.750  27.064  1.00  0.00     0.041 A 
ATOM     55  F   UNL A   1      47.506  27.155  28.927  1.00  0.00    -0.206 F 
ATOM     56  C   UNL A   1      49.090  26.824  25.692  1.00  0.00     0.022 A 
BRANCH  53  57
ATOM     57  S   UNL A   1      48.314  27.424  23.082  1.00  0.00     0.124 S 
ATOM     58  O   UNL A   1      48.294  25.983  22.843  1.00  0.00    -0.237 OA
ATOM     59  O   UNL A   1      47.137  28.162  22.639  1.00  0.00    -0.237 OA
ATOM     60  O   UNL A   1      49.596  28.074  22.813  1.00  0.00    -0.744 OA
ENDBRANCH  53  57
ENDBRANCH  36  50
BRANCH  37  61
ATOM     61  C   UNL A   1      38.267  31.090  31.065  1.00  0.00     0.023 A 
ATOM     62  C   UNL A   1      37.233  31.676  30.317  1.00  0.00     0.031 A 
ATOM     63  C   UNL A   1      38.122  31.031  32.462  1.00  0.00     0.131 A 
ATOM     64  C   UNL A   1      36.120  32.225  30.973  1.00  0.00     0.055 A 
ATOM     65  C   UNL A   1      36.990  31.536  33.106  1.00  0.00     0.041 A 
ATOM     66  F   UNL A   1      39.081  30.483  33.223  1.00  0.00    -0.206 F 
ATOM     67  C   UNL A   1      35.988  32.150  32.362  1.00  0.00     0.022 A 
BRANCH  64  68
ATOM     68  S   UNL A   1      34.885  33.120  29.992  1.00  0.00     0.124 S 
ATOM     69  O   UNL A   1      35.704  34.132  29.335  1.00  0.00    -0.237 OA
ATOM     70  O   UNL A   1      34.357  32.065  29.134  1.00  0.00    -0.237 OA
ATOM     71  O   UNL A   1      33.954  33.627  30.998  1.00  0.00    -0.744 OA
ENDBRANCH  64  68
ENDBRANCH  37  61
BRANCH  49  72
ATOM     72  C   UNL A   1      44.316  34.240  29.636  1.00  0.00     0.023 A 
ATOM     73  C   UNL A   1      44.043  35.251  28.698  1.00  0.00     0.031 A 
ATOM     74  C   UNL A   1      45.064  34.583  30.777  1.00  0.00     0.131 A 
ATOM     75  C   UNL A   1      44.560  36.543  28.890  1.00  0.00     0.055 A 
ATOM     76  C   UNL A   1      45.527  35.883  30.992  1.00  0.00     0.041 A 
ATOM     77  F   UNL A   1      45.355  33.659  31.707  1.00  0.00    -0.206 F 
ATOM     78  C   UNL A   1      45.287  36.868  30.038  1.00  0.00     0.022 A 
BRANCH  75  79
ATOM     79  S   UNL A   1      44.347  37.775  27.575  1.00  0.00     0.124 S 
ATOM     80  O   UNL A   1      44.112  38.997  28.337  1.00  0.00    -0.237 OA
ATOM     81  O   UNL A   1      45.621  37.701  26.868  1.00  0.00    -0.237 OA
ATOM     82  O   UNL A   1      43.193  37.281  26.825  1.00  0.00    -0.744 OA
ENDBRANCH  75  79
ENDBRANCH  49  72
ENDBRANCH  23  24
ENDBRANCH  16  18
ENDBRANCH  15  16
ENDBRANCH  14  15
ENDBRANCH   1  14
TORSDOF 18
ENDMDL
MODEL 2
REMARK VINA RESULT:     -10.1      1.230      7.975
REMARK SMILES O=C(CCCC[C@@H]1CCSS1)OCCOC(=O)c1ccc(-c2c3nc(c(-c4cc(S(=O)(=O)[O-])ccc4F)c4ccc([nH]4)c(-c4cc(S(=O)(=O)[O-])ccc4F)c4nc(c(-c5cc(S(=O)(=O)[O-])ccc5F)c5ccc2[nH]5)C=C4)C=C3)cc1
REMARK SMILES IDX 13 1 12 2 2 3 1 4 3 5 4 6 5 7 6 8 7 9 8 10 11 11 9 12 10 13
REMARK SMILES IDX 14 14 15 15 16 16 17 17 18 18 19 19 80 20 20 21 79 22 21 23
REMARK SMILES IDX 22 24 23 25 73 26 24 27 78 28 72 29 74 30 25 31 77 32 71 33
REMARK SMILES IDX 70 34 26 36 58 37 38 38 57 39 39 40 42 41 56 42 75 43 40 44
REMARK SMILES IDX 41 45 55 47 76 48 43 49 27 50 28 51 36 52 29 53 35 54 37 55
REMARK SMILES IDX 34 56 30 57 31 58 32 59 33 60 59 61 60 62 68 63 61 64 67 65
REMARK SMILES IDX 69 66 66 67 62 68 63 69 64 70 65 71 44 72 45 73 53 74 46 75
REMARK SMILES IDX 52 76 54 77 51 78 47 79 48 80 49 81 50 82
REMARK H PARENT 74 35 42 46
REMARK Flexibility Score: inf
ROOT
ATOM      1  C   UNL A   1      36.794  21.884  23.973  1.00  0.00     0.274 C 
ENDROOT
BRANCH   1   2
ATOM      2  O   UNL A   1      35.394  22.086  24.222  1.00  0.00    -0.462 OA
BRANCH   2   3
ATOM      3  C   UNL A   1      34.986  23.021  25.117  1.00  0.00     0.305 C 
ATOM      4  O   UNL A   1      35.696  23.986  25.382  1.00  0.00    -0.252 OA
BRANCH   3   5
ATOM      5  C   UNL A   1      33.698  22.747  25.866  1.00  0.00     0.123 C 
BRANCH   5   6
ATOM      6  C   UNL A   1      32.525  22.375  24.968  1.00  0.00     0.012 C 
BRANCH   6   7
ATOM      7  C   UNL A   1      32.096  20.903  24.992  1.00  0.00     0.002 C 
BRANCH   7   8
ATOM      8  C   UNL A   1      32.536  19.961  23.858  1.00  0.00     0.015 C 
BRANCH   8   9
ATOM      9  C   UNL A   1      33.365  18.699  24.153  1.00  0.00     0.059 C 
ATOM     10  C   UNL A   1      33.352  17.567  23.124  1.00  0.00     0.027 C 
ATOM     11  S   UNL A   1      32.896  17.990  25.766  1.00  0.00    -0.091 SA
ATOM     12  C   UNL A   1      33.993  16.312  23.711  1.00  0.00     0.083 C 
ATOM     13  S   UNL A   1      33.182  16.024  25.298  1.00  0.00    -0.094 SA
ENDBRANCH   8   9
ENDBRANCH   7   8
ENDBRANCH   6   7
ENDBRANCH   5   6
ENDBRANCH   3   5
ENDBRANCH   2   3
ENDBRANCH   1   2
BRANCH   1  14
ATOM     14  C   UNL A   1      37.396  20.723  24.771  1.00  0.00     0.275 C 
BRANCH  14  15
ATOM     15  O   UNL A   1      37.865  21.138  26.063  1.00  0.00    -0.458 OA
BRANCH  15  16
ATOM     16  C   UNL A   1      39.215  21.061  26.222  1.00  0.00     0.338 C 
ATOM     17  O   UNL A   1      39.915  20.115  25.917  1.00  0.00    -0.246 OA
BRANCH  16  18
ATOM     18  C   UNL A   1      39.760  22.360  26.685  1.00  0.00     0.060 A 
ATOM     19  C   UNL A   1      39.168  23.523  26.177  1.00  0.00     0.016 A 
ATOM     20  C   UNL A   1      40.839  22.459  27.568  1.00  0.00     0.016 A 
ATOM     21  C   UNL A   1      39.684  24.776  26.504  1.00  0.00     0.010 A 
ATOM     22  C   UNL A   1      41.349  23.719  27.909  1.00  0.00     0.010 A 
ATOM     23  C   UNL A   1      40.802  24.882  27.344  1.00  0.00    -0.014 A 
BRANCH  23  24
ATOM     24  C   UNL A   1      41.496  26.192  27.458  1.00  0.00     0.031 A 
ATOM     25  C   UNL A   1      40.816  27.306  28.211  1.00  0.00     0.074 A 
ATOM     26  C   UNL A   1      42.735  26.374  26.966  1.00  0.00     0.049 A 
ATOM     27  N   UNL A   1      41.266  28.492  28.531  1.00  0.00    -0.248 NA
ATOM     28  C   UNL A   1      39.441  27.042  28.660  1.00  0.00     0.031 C 
ATOM     29  C   UNL A   1      43.509  25.375  26.231  1.00  0.00     0.029 A 
ATOM     30  N   UNL A   1      43.565  27.468  27.023  1.00  0.00    -0.354 N 
ATOM     31  C   UNL A   1      40.238  29.109  29.236  1.00  0.00     0.074 A 
ATOM     32  C   UNL A   1      39.120  28.188  29.239  1.00  0.00     0.031 C 
ATOM     33  C   UNL A   1      44.707  25.899  25.914  1.00  0.00     0.029 A 
ATOM     34  C   UNL A   1      44.780  27.274  26.408  1.00  0.00     0.049 A 
ATOM     35  H   UNL A   1      43.313  28.311  27.463  1.00  0.00     0.167 HD
ATOM     36  C   UNL A   1      40.230  30.320  29.847  1.00  0.00     0.034 A 
ATOM     37  C   UNL A   1      45.828  28.111  26.262  1.00  0.00     0.034 A 
ATOM     38  C   UNL A   1      41.336  31.244  29.820  1.00  0.00     0.049 A 
ATOM     39  C   UNL A   1      45.764  29.490  26.875  1.00  0.00     0.074 A 
ATOM     40  C   UNL A   1      41.439  32.487  30.421  1.00  0.00     0.029 A 
ATOM     41  N   UNL A   1      42.527  31.036  29.136  1.00  0.00    -0.354 N 
ATOM     42  N   UNL A   1      44.806  30.041  27.586  1.00  0.00    -0.248 NA
ATOM     43  C   UNL A   1      46.935  30.356  26.678  1.00  0.00     0.031 C 
ATOM     44  C   UNL A   1      42.661  33.057  30.044  1.00  0.00     0.029 A 
ATOM     45  C   UNL A   1      43.353  32.141  29.268  1.00  0.00     0.049 A 
ATOM     46  H   UNL A   1      42.751  30.222  28.629  1.00  0.00     0.167 HD
ATOM     47  C   UNL A   1      45.278  31.300  27.951  1.00  0.00     0.074 A 
ATOM     48  C   UNL A   1      46.607  31.424  27.389  1.00  0.00     0.031 C 
ATOM     49  C   UNL A   1      44.674  32.261  28.695  1.00  0.00     0.034 A 
BRANCH  36  50
ATOM     50  C   UNL A   1      38.958  30.718  30.557  1.00  0.00     0.023 A 
ATOM     51  C   UNL A   1      37.888  31.321  29.870  1.00  0.00     0.031 A 
ATOM     52  C   UNL A   1      38.835  30.544  31.946  1.00  0.00     0.131 A 
ATOM     53  C   UNL A   1      36.781  31.802  30.584  1.00  0.00     0.055 A 
ATOM     54  C   UNL A   1      37.694  30.953  32.640  1.00  0.00     0.041 A 
ATOM     55  F   UNL A   1      39.831  29.995  32.659  1.00  0.00    -0.206 F 
ATOM     56  C   UNL A   1      36.666  31.601  31.961  1.00  0.00     0.022 A 
BRANCH  53  57
ATOM     57  S   UNL A   1      35.569  32.833  29.713  1.00  0.00     0.124 S 
ATOM     58  O   UNL A   1      34.409  32.737  30.595  1.00  0.00    -0.237 OA
ATOM     59  O   UNL A   1      36.233  34.131  29.668  1.00  0.00    -0.237 OA
ATOM     60  O   UNL A   1      35.416  32.165  28.421  1.00  0.00    -0.744 OA
ENDBRANCH  53  57
ENDBRANCH  36  50
BRANCH  37  61
ATOM     61  C   UNL A   1      47.035  27.688  25.495  1.00  0.00     0.023 A 
ATOM     62  C   UNL A   1      47.174  27.993  24.132  1.00  0.00     0.031 A 
ATOM     63  C   UNL A   1      48.032  26.904  26.103  1.00  0.00     0.131 A 
ATOM     64  C   UNL A   1      48.259  27.475  23.407  1.00  0.00     0.055 A 
ATOM     65  C   UNL A   1      49.134  26.431  25.388  1.00  0.00     0.041 A 
ATOM     66  F   UNL A   1      47.946  26.583  27.403  1.00  0.00    -0.206 F 
ATOM     67  C   UNL A   1      49.245  26.704  24.028  1.00  0.00     0.022 A 
BRANCH  64  68
ATOM     68  S   UNL A   1      48.319  27.749  21.614  1.00  0.00     0.124 S 
ATOM     69  O   UNL A   1      46.963  28.209  21.338  1.00  0.00    -0.237 OA
ATOM     70  O   UNL A   1      49.373  28.750  21.497  1.00  0.00    -0.237 OA
ATOM     71  O   UNL A   1      48.653  26.430  21.079  1.00  0.00    -0.744 OA
ENDBRANCH  64  68
ENDBRANCH  37  61
BRANCH  49  72
ATOM     72  C   UNL A   1      45.469  33.512  28.984  1.00  0.00     0.023 A 
ATOM     73  C   UNL A   1      45.439  34.628  28.130  1.00  0.00     0.031 A 
ATOM     74  C   UNL A   1      46.284  33.580  30.130  1.00  0.00     0.131 A 
ATOM     75  C   UNL A   1      46.248  35.743  28.404  1.00  0.00     0.055 A 
ATOM     76  C   UNL A   1      47.042  34.713  30.428  1.00  0.00     0.041 A 
ATOM     77  F   UNL A   1      46.353  32.545  30.982  1.00  0.00    -0.206 F 
ATOM     78  C   UNL A   1      47.037  35.798  29.556  1.00  0.00     0.022 A 
BRANCH  75  79
ATOM     79  S   UNL A   1      46.325  37.088  27.189  1.00  0.00     0.124 S 
ATOM     80  O   UNL A   1      47.316  37.980  27.784  1.00  0.00    -0.237 OA
ATOM     81  O   UNL A   1      46.743  36.391  25.977  1.00  0.00    -0.237 OA
ATOM     82  O   UNL A   1      44.959  37.608  27.164  1.00  0.00    -0.744 OA
ENDBRANCH  75  79
ENDBRANCH  49  72
ENDBRANCH  23  24
ENDBRANCH  16  18
ENDBRANCH  15  16
ENDBRANCH  14  15
ENDBRANCH   1  14
TORSDOF 18
ENDMDL
MODEL 3
REMARK VINA RESULT:     -10.1      3.862      5.395
REMARK SMILES O=C(CCCC[C@@H]1CCSS1)OCCOC(=O)c1ccc(-c2c3nc(c(-c4cc(S(=O)(=O)[O-])ccc4F)c4ccc([nH]4)c(-c4cc(S(=O)(=O)[O-])ccc4F)c4nc(c(-c5cc(S(=O)(=O)[O-])ccc5F)c5ccc2[nH]5)C=C4)C=C3)cc1
REMARK SMILES IDX 13 1 12 2 2 3 1 4 3 5 4 6 5 7 6 8 7 9 8 10 11 11 9 12 10 13
REMARK SMILES IDX 14 14 15 15 16 16 17 17 18 18 19 19 80 20 20 21 79 22 21 23
REMARK SMILES IDX 22 24 23 25 73 26 24 27 78 28 72 29 74 30 25 31 77 32 71 33
REMARK SMILES IDX 70 34 26 36 58 37 38 38 57 39 39 40 42 41 56 42 75 43 40 44
REMARK SMILES IDX 41 45 55 47 76 48 43 49 27 50 28 51 36 52 29 53 35 54 37 55
REMARK SMILES IDX 34 56 30 57 31 58 32 59 33 60 59 61 60 62 68 63 61 64 67 65
REMARK SMILES IDX 69 66 66 67 62 68 63 69 64 70 65 71 44 72 45 73 53 74 46 75
REMARK SMILES IDX 52 76 54 77 51 78 47 79 48 80 49 81 50 82
REMARK H PARENT 74 35 42 46
REMARK Flexibility Score: inf
ROOT
ATOM      1  C   UNL A   1      42.652  20.136  26.212  1.00  0.00     0.274 C 
ENDROOT
BRANCH   1   2
ATOM      2  O   UNL A   1      43.263  20.482  24.959  1.00  0.00    -0.462 OA
BRANCH   2   3
ATOM      3  C   UNL A   1      44.516  21.003  24.930  1.00  0.00     0.305 C 
ATOM      4  O   UNL A   1      45.423  20.489  25.578  1.00  0.00    -0.252 OA
BRANCH   3   5
ATOM      5  C   UNL A   1      44.705  22.308  24.185  1.00  0.00     0.123 C 
BRANCH   5   6
ATOM      6  C   UNL A   1      43.853  23.454  24.713  1.00  0.00     0.012 C 
BRANCH   6   7
ATOM      7  C   UNL A   1      43.943  23.725  26.220  1.00  0.00     0.002 C 
BRANCH   7   8
ATOM      8  C   UNL A   1      45.320  23.908  26.882  1.00  0.00     0.015 C 
BRANCH   8   9
ATOM      9  C   UNL A   1      45.464  23.947  28.413  1.00  0.00     0.059 C 
ATOM     10  C   UNL A   1      44.196  24.074  29.258  1.00  0.00     0.027 C 
ATOM     11  S   UNL A   1      46.603  25.281  28.913  1.00  0.00    -0.091 SA
ATOM     12  C   UNL A   1      44.556  24.374  30.711  1.00  0.00     0.083 C 
ATOM     13  S   UNL A   1      45.693  25.776  30.672  1.00  0.00    -0.094 SA
ENDBRANCH   8   9
ENDBRANCH   7   8
ENDBRANCH   6   7
ENDBRANCH   5   6
ENDBRANCH   3   5
ENDBRANCH   2   3
ENDBRANCH   1   2
BRANCH   1  14
ATOM     14  C   UNL A   1      41.181  20.554  26.311  1.00  0.00     0.275 C 
BRANCH  14  15
ATOM     15  O   UNL A   1      40.985  21.937  25.981  1.00  0.00    -0.458 OA
BRANCH  15  16
ATOM     16  C   UNL A   1      39.732  22.404  26.237  1.00  0.00     0.338 C 
ATOM     17  O   UNL A   1      38.701  21.766  26.141  1.00  0.00    -0.246 OA
BRANCH  16  18
ATOM     18  C   UNL A   1      39.792  23.773  26.803  1.00  0.00     0.060 A 
ATOM     19  C   UNL A   1      40.013  24.829  25.909  1.00  0.00     0.016 A 
ATOM     20  C   UNL A   1      39.669  24.035  28.170  1.00  0.00     0.016 A 
ATOM     21  C   UNL A   1      40.165  26.132  26.383  1.00  0.00     0.010 A 
ATOM     22  C   UNL A   1      39.806  25.346  28.646  1.00  0.00     0.010 A 
ATOM     23  C   UNL A   1      40.099  26.395  27.759  1.00  0.00    -0.014 A 
BRANCH  23  24
ATOM     24  C   UNL A   1      40.531  27.726  28.259  1.00  0.00     0.031 A 
ATOM     25  C   UNL A   1      41.990  28.094  28.164  1.00  0.00     0.074 A 
ATOM     26  C   UNL A   1      39.643  28.623  28.724  1.00  0.00     0.049 A 
ATOM     27  N   UNL A   1      42.582  29.230  28.435  1.00  0.00    -0.248 NA
ATOM     28  C   UNL A   1      42.899  27.036  27.703  1.00  0.00     0.031 C 
ATOM     29  C   UNL A   1      38.204  28.399  28.854  1.00  0.00     0.029 A 
ATOM     30  N   UNL A   1      39.823  29.912  29.165  1.00  0.00    -0.354 N 
ATOM     31  C   UNL A   1      43.930  29.028  28.159  1.00  0.00     0.074 A 
ATOM     32  C   UNL A   1      44.074  27.643  27.761  1.00  0.00     0.031 C 
ATOM     33  C   UNL A   1      37.630  29.517  29.332  1.00  0.00     0.029 A 
ATOM     34  C   UNL A   1      38.660  30.532  29.558  1.00  0.00     0.049 A 
ATOM     35  H   UNL A   1      40.703  30.350  29.196  1.00  0.00     0.167 HD
ATOM     36  C   UNL A   1      44.953  29.917  28.206  1.00  0.00     0.034 A 
ATOM     37  C   UNL A   1      38.453  31.773  30.043  1.00  0.00     0.034 A 
ATOM     38  C   UNL A   1      44.810  31.288  28.627  1.00  0.00     0.049 A 
ATOM     39  C   UNL A   1      39.622  32.721  30.173  1.00  0.00     0.074 A 
ATOM     40  C   UNL A   1      45.777  32.277  28.694  1.00  0.00     0.029 A 
ATOM     41  N   UNL A   1      43.627  31.861  29.075  1.00  0.00    -0.354 N 
ATOM     42  N   UNL A   1      40.884  32.534  29.856  1.00  0.00    -0.248 NA
ATOM     43  C   UNL A   1      39.333  34.057  30.712  1.00  0.00     0.031 C 
ATOM     44  C   UNL A   1      45.194  33.424  29.246  1.00  0.00     0.029 A 
ATOM     45  C   UNL A   1      43.847  33.176  29.456  1.00  0.00     0.049 A 
ATOM     46  H   UNL A   1      42.758  31.400  29.118  1.00  0.00     0.167 HD
ATOM     47  C   UNL A   1      41.526  33.742  30.122  1.00  0.00     0.074 A 
ATOM     48  C   UNL A   1      40.514  34.650  30.617  1.00  0.00     0.031 C 
ATOM     49  C   UNL A   1      42.833  34.074  29.958  1.00  0.00     0.034 A 
BRANCH  36  50
ATOM     50  C   UNL A   1      46.322  29.403  27.830  1.00  0.00     0.023 A 
ATOM     51  C   UNL A   1      46.632  29.031  26.509  1.00  0.00     0.031 A 
ATOM     52  C   UNL A   1      47.312  29.230  28.812  1.00  0.00     0.131 A 
ATOM     53  C   UNL A   1      47.866  28.429  26.223  1.00  0.00     0.055 A 
ATOM     54  C   UNL A   1      48.569  28.704  28.505  1.00  0.00     0.041 A 
ATOM     55  F   UNL A   1      47.067  29.546  30.094  1.00  0.00    -0.206 F 
ATOM     56  C   UNL A   1      48.846  28.285  27.208  1.00  0.00     0.022 A 
BRANCH  53  57
ATOM     57  S   UNL A   1      48.113  27.695  24.583  1.00  0.00     0.124 S 
ATOM     58  O   UNL A   1      47.887  26.278  24.856  1.00  0.00    -0.237 OA
ATOM     59  O   UNL A   1      47.094  28.362  23.781  1.00  0.00    -0.237 OA
ATOM     60  O   UNL A   1      49.494  28.045  24.254  1.00  0.00    -0.744 OA
ENDBRANCH  53  57
ENDBRANCH  36  50
BRANCH  37  61
ATOM     61  C   UNL A   1      37.088  32.207  30.460  1.00  0.00     0.023 A 
ATOM     62  C   UNL A   1      36.189  32.764  29.537  1.00  0.00     0.031 A 
ATOM     63  C   UNL A   1      36.695  32.138  31.808  1.00  0.00     0.131 A 
ATOM     64  C   UNL A   1      34.960  33.278  29.981  1.00  0.00     0.055 A 
ATOM     65  C   UNL A   1      35.452  32.607  32.237  1.00  0.00     0.041 A 
ATOM     66  F   UNL A   1      37.518  31.616  32.731  1.00  0.00    -0.206 F 
ATOM     67  C   UNL A   1      34.582  33.194  31.324  1.00  0.00     0.022 A 
BRANCH  64  68
ATOM     68  S   UNL A   1      33.896  34.140  28.792  1.00  0.00     0.124 S 
ATOM     69  O   UNL A   1      32.841  34.656  29.658  1.00  0.00    -0.237 OA
ATOM     70  O   UNL A   1      34.808  35.131  28.232  1.00  0.00    -0.237 OA
ATOM     71  O   UNL A   1      33.486  33.081  27.872  1.00  0.00    -0.744 OA
ENDBRANCH  64  68
ENDBRANCH  37  61
BRANCH  49  72
ATOM     72  C   UNL A   1      43.227  35.496  30.273  1.00  0.00     0.023 A 
ATOM     73  C   UNL A   1      43.192  36.512  29.301  1.00  0.00     0.031 A 
ATOM     74  C   UNL A   1      43.661  35.838  31.568  1.00  0.00     0.131 A 
ATOM     75  C   UNL A   1      43.632  37.806  29.623  1.00  0.00     0.055 A 
ATOM     76  C   UNL A   1      44.044  37.139  31.898  1.00  0.00     0.041 A 
ATOM     77  F   UNL A   1      43.716  34.910  32.536  1.00  0.00    -0.206 F 
ATOM     78  C   UNL A   1      44.044  38.129  30.919  1.00  0.00     0.022 A 
BRANCH  75  79
ATOM     79  S   UNL A   1      43.747  39.045  28.302  1.00  0.00     0.124 S 
ATOM     80  O   UNL A   1      43.270  38.299  27.142  1.00  0.00    -0.237 OA
ATOM     81  O   UNL A   1      42.865  40.101  28.787  1.00  0.00    -0.237 OA
ATOM     82  O   UNL A   1      45.168  39.389  28.276  1.00  0.00    -0.744 OA
ENDBRANCH  75  79
ENDBRANCH  49  72
ENDBRANCH  23  24
ENDBRANCH  16  18
ENDBRANCH  15  16
ENDBRANCH  14  15
ENDBRANCH   1  14
TORSDOF 18
ENDMDL
