MODEL 1
REMARK VINA RESULT:     -11.7      0.000      0.000
REMARK SMILES COc1cc([C@H]2CC(c3ccc(S(C)(=O)=O)cc3)=NN2c2ccc(C(=O)OCCOC(=O)c3ccc(-c4c5nc(c(-c6cc(S(=O)(=O)[O-])ccc6F)c6ccc([nH]6)c(-c6cc(S(=O)(=O)[O-])ccc6F)c6nc(c(-c7cc(S(=O)(=O)[O-])ccc7F)c7ccc4[nH]7)C=C6)C=C5)cc3)cc2)cc(OC)c1OC
REMARK SMILES IDX 28 1 27 2 25 3 26 4 24 5 21 6 22 7 97 8 23 9 96 10 20 11
REMARK SMILES IDX 6 12 7 13 8 14 19 15 5 16 3 17 4 18 102 19 99 20 98 21 2 22
REMARK SMILES IDX 1 23 103 24 104 25 100 26 101 27 9 28 10 29 18 30 11 31
REMARK SMILES IDX 17 32 12 33 13 34 14 35 15 36 16 37 29 38 30 39 31 40 32 41
REMARK SMILES IDX 33 42 34 43 95 44 35 45 94 46 36 47 37 48 38 49 88 50 39 51
REMARK SMILES IDX 93 52 87 53 89 54 40 55 92 56 86 57 85 58 41 60 73 61 53 62
REMARK SMILES IDX 72 63 54 64 57 65 71 66 90 67 55 68 56 69 70 71 91 72 58 73
REMARK SMILES IDX 42 74 43 75 51 76 44 77 50 78 52 79 49 80 45 81 46 82 47 83
REMARK SMILES IDX 48 84 74 85 75 86 83 87 76 88 82 89 84 90 81 91 77 92 78 93
REMARK SMILES IDX 79 94 80 95 59 96 60 97 68 98 61 99 67 100 69 101 66 102
REMARK SMILES IDX 62 103 63 104 64 105 65 106
REMARK H PARENT 89 59 57 70
REMARK Flexibility Score: inf
ROOT
ATOM      1  C   UNL A   1      36.313  31.026  28.247  1.00  0.00     0.275 C 
ENDROOT
BRANCH   1   2
ATOM      2  O   UNL A   1      35.307  29.994  28.206  1.00  0.00    -0.458 OA
BRANCH   2   3
ATOM      3  C   UNL A   1      34.123  30.360  27.657  1.00  0.00     0.338 C 
ATOM      4  O   UNL A   1      33.654  31.488  27.631  1.00  0.00    -0.246 OA
BRANCH   3   5
ATOM      5  C   UNL A   1      33.462  29.202  27.018  1.00  0.00     0.060 A 
ATOM      6  C   UNL A   1      32.192  26.882  26.065  1.00  0.00     0.060 A 
ATOM      7  C   UNL A   1      31.461  27.868  26.731  1.00  0.00     0.029 A 
ATOM      8  C   UNL A   1      33.555  27.105  25.821  1.00  0.00     0.029 A 
ATOM      9  C   UNL A   1      32.101  28.990  27.247  1.00  0.00     0.018 A 
ATOM     10  C   UNL A   1      34.189  28.270  26.276  1.00  0.00     0.018 A 
BRANCH   6  11
ATOM     11  N   UNL A   1      31.599  25.650  25.779  1.00  0.00    -0.257 N 
ATOM     12  C   UNL A   1      30.391  25.576  24.931  1.00  0.00     0.144 C 
ATOM     13  C   UNL A   1      30.490  24.166  24.323  1.00  0.00     0.091 C 
ATOM     14  C   UNL A   1      31.806  23.708  24.894  1.00  0.00     0.071 C 
ATOM     15  N   UNL A   1      32.401  24.552  25.676  1.00  0.00    -0.176 NA
BRANCH  12  16
ATOM     16  C   UNL A   1      30.272  26.722  23.927  1.00  0.00    -0.015 A 
ATOM     17  C   UNL A   1      28.889  28.449  22.870  1.00  0.00     0.164 A 
ATOM     18  C   UNL A   1      29.015  27.272  23.632  1.00  0.00     0.056 A 
ATOM     19  C   UNL A   1      30.022  29.124  22.382  1.00  0.00     0.203 A 
ATOM     20  C   UNL A   1      31.286  28.553  22.638  1.00  0.00     0.164 A 
ATOM     21  C   UNL A   1      31.394  27.370  23.396  1.00  0.00     0.056 A 
BRANCH  17  22
ATOM     22  O   UNL A   1      27.625  28.974  22.764  1.00  0.00    -0.493 OA
ATOM     23  C   UNL A   1      26.673  28.212  23.505  1.00  0.00     0.278 C 
ENDBRANCH  17  22
BRANCH  19  24
ATOM     24  O   UNL A   1      30.023  30.315  21.713  1.00  0.00    -0.490 OA
ATOM     25  C   UNL A   1      28.967  31.245  21.847  1.00  0.00     0.278 C 
ENDBRANCH  19  24
BRANCH  20  26
ATOM     26  O   UNL A   1      32.525  29.003  22.250  1.00  0.00    -0.493 OA
ATOM     27  C   UNL A   1      33.635  28.117  22.268  1.00  0.00     0.278 C 
ENDBRANCH  20  26
ENDBRANCH  12  16
BRANCH  14  28
ATOM     28  C   UNL A   1      32.325  22.346  24.652  1.00  0.00    -0.002 A 
ATOM     29  C   UNL A   1      32.999  21.701  25.699  1.00  0.00     0.011 A 
ATOM     30  C   UNL A   1      32.112  21.679  23.442  1.00  0.00     0.011 A 
ATOM     31  C   UNL A   1      33.409  20.374  25.563  1.00  0.00     0.021 A 
ATOM     32  C   UNL A   1      32.545  20.354  23.292  1.00  0.00     0.021 A 
ATOM     33  C   UNL A   1      33.176  19.704  24.359  1.00  0.00     0.067 A 
BRANCH  33  34
ATOM     34  S   UNL A   1      33.594  17.978  24.237  1.00  0.00     0.175 S 
ATOM     35  C   UNL A   1      32.711  17.195  25.559  1.00  0.00     0.163 C 
ATOM     36  O   UNL A   1      33.045  17.511  22.977  1.00  0.00    -0.224 OA
ATOM     37  O   UNL A   1      35.015  17.850  24.507  1.00  0.00    -0.224 OA
ENDBRANCH  33  34
ENDBRANCH  14  28
ENDBRANCH   6  11
ENDBRANCH   3   5
ENDBRANCH   2   3
ENDBRANCH   1   2
BRANCH   1  38
ATOM     38  C   UNL A   1      36.410  31.661  29.634  1.00  0.00     0.275 C 
BRANCH  38  39
ATOM     39  O   UNL A   1      36.278  30.660  30.659  1.00  0.00    -0.458 OA
BRANCH  39  40
ATOM     40  C   UNL A   1      36.665  31.048  31.896  1.00  0.00     0.338 C 
ATOM     41  O   UNL A   1      36.052  31.764  32.670  1.00  0.00    -0.246 OA
BRANCH  40  42
ATOM     42  C   UNL A   1      37.966  30.448  32.231  1.00  0.00     0.060 A 
ATOM     43  C   UNL A   1      39.121  31.177  31.974  1.00  0.00     0.016 A 
ATOM     44  C   UNL A   1      38.058  29.117  32.623  1.00  0.00     0.016 A 
ATOM     45  C   UNL A   1      40.360  30.545  31.956  1.00  0.00     0.010 A 
ATOM     46  C   UNL A   1      39.322  28.522  32.752  1.00  0.00     0.010 A 
ATOM     47  C   UNL A   1      40.489  29.213  32.374  1.00  0.00    -0.014 A 
BRANCH  47  48
ATOM     48  C   UNL A   1      41.830  28.551  32.400  1.00  0.00     0.031 A 
ATOM     49  C   UNL A   1      42.675  28.587  33.651  1.00  0.00     0.074 A 
ATOM     50  C   UNL A   1      42.298  27.910  31.307  1.00  0.00     0.049 A 
ATOM     51  N   UNL A   1      43.933  28.259  33.815  1.00  0.00    -0.248 NA
ATOM     52  C   UNL A   1      42.023  29.075  34.876  1.00  0.00     0.031 C 
ATOM     53  C   UNL A   1      41.572  27.746  30.044  1.00  0.00     0.029 A 
ATOM     54  N   UNL A   1      43.493  27.270  31.078  1.00  0.00    -0.354 N 
ATOM     55  C   UNL A   1      44.238  28.558  35.141  1.00  0.00     0.074 A 
ATOM     56  C   UNL A   1      43.036  29.107  35.731  1.00  0.00     0.031 C 
ATOM     57  C   UNL A   1      42.313  27.019  29.196  1.00  0.00     0.029 A 
ATOM     58  C   UNL A   1      43.614  26.768  29.802  1.00  0.00     0.049 A 
ATOM     59  H   UNL A   1      44.197  27.182  31.761  1.00  0.00     0.167 HD
ATOM     60  C   UNL A   1      45.413  28.389  35.800  1.00  0.00     0.034 A 
ATOM     61  C   UNL A   1      44.666  26.222  29.159  1.00  0.00     0.034 A 
ATOM     62  C   UNL A   1      46.590  27.796  35.205  1.00  0.00     0.049 A 
ATOM     63  C   UNL A   1      45.976  26.103  29.888  1.00  0.00     0.074 A 
ATOM     64  C   UNL A   1      47.824  27.557  35.787  1.00  0.00     0.029 A 
ATOM     65  N   UNL A   1      46.679  27.344  33.894  1.00  0.00    -0.354 N 
ATOM     66  N   UNL A   1      46.268  26.446  31.122  1.00  0.00    -0.248 NA
ATOM     67  C   UNL A   1      47.102  25.537  29.136  1.00  0.00     0.031 C 
ATOM     68  C   UNL A   1      48.676  27.028  34.812  1.00  0.00     0.029 A 
ATOM     69  C   UNL A   1      47.954  26.858  33.642  1.00  0.00     0.049 A 
ATOM     70  H   UNL A   1      45.945  27.366  33.239  1.00  0.00     0.167 HD
ATOM     71  C   UNL A   1      47.608  26.118  31.297  1.00  0.00     0.074 A 
ATOM     72  C   UNL A   1      48.059  25.532  30.052  1.00  0.00     0.031 C 
ATOM     73  C   UNL A   1      48.396  26.287  32.390  1.00  0.00     0.034 A 
BRANCH  60  74
ATOM     74  C   UNL A   1      45.505  28.908  37.218  1.00  0.00     0.023 A 
ATOM     75  C   UNL A   1      45.392  28.065  38.338  1.00  0.00     0.031 A 
ATOM     76  C   UNL A   1      45.694  30.283  37.451  1.00  0.00     0.131 A 
ATOM     77  C   UNL A   1      45.398  28.612  39.631  1.00  0.00     0.055 A 
ATOM     78  C   UNL A   1      45.780  30.811  38.741  1.00  0.00     0.041 A 
ATOM     79  F   UNL A   1      45.791  31.143  36.424  1.00  0.00    -0.206 F 
ATOM     80  C   UNL A   1      45.616  29.976  39.841  1.00  0.00     0.022 A 
BRANCH  77  81
ATOM     81  S   UNL A   1      44.979  27.537  41.033  1.00  0.00     0.124 S 
ATOM     82  O   UNL A   1      46.301  27.221  41.568  1.00  0.00    -0.237 OA
ATOM     83  O   UNL A   1      44.149  28.404  41.861  1.00  0.00    -0.237 OA
ATOM     84  O   UNL A   1      44.282  26.415  40.410  1.00  0.00    -0.744 OA
ENDBRANCH  77  81
ENDBRANCH  60  74
BRANCH  61  85
ATOM     85  C   UNL A   1      44.548  25.824  27.725  1.00  0.00     0.023 A 
ATOM     86  C   UNL A   1      44.244  24.503  27.359  1.00  0.00     0.031 A 
ATOM     87  C   UNL A   1      44.770  26.758  26.694  1.00  0.00     0.131 A 
ATOM     88  C   UNL A   1      44.206  24.146  26.001  1.00  0.00     0.055 A 
ATOM     89  C   UNL A   1      44.668  26.411  25.346  1.00  0.00     0.041 A 
ATOM     90  F   UNL A   1      45.071  28.033  26.985  1.00  0.00    -0.206 F 
ATOM     91  C   UNL A   1      44.396  25.094  24.994  1.00  0.00     0.022 A 
BRANCH  88  92
ATOM     92  S   UNL A   1      43.989  22.397  25.570  1.00  0.00     0.124 S 
ATOM     93  O   UNL A   1      43.403  22.490  24.237  1.00  0.00    -0.237 OA
ATOM     94  O   UNL A   1      45.358  21.897  25.636  1.00  0.00    -0.237 OA
ATOM     95  O   UNL A   1      43.093  21.900  26.612  1.00  0.00    -0.744 OA
ENDBRANCH  88  92
ENDBRANCH  61  85
BRANCH  73  96
ATOM     96  C   UNL A   1      49.814  25.783  32.292  1.00  0.00     0.023 A 
ATOM     97  C   UNL A   1      50.161  24.469  32.651  1.00  0.00     0.031 A 
ATOM     98  C   UNL A   1      50.838  26.641  31.852  1.00  0.00     0.131 A 
ATOM     99  C   UNL A   1      51.504  24.068  32.620  1.00  0.00     0.055 A 
ATOM    100  C   UNL A   1      52.164  26.217  31.764  1.00  0.00     0.041 A 
ATOM    101  F   UNL A   1      50.565  27.908  31.501  1.00  0.00    -0.206 F 
ATOM    102  C   UNL A   1      52.506  24.928  32.162  1.00  0.00     0.022 A 
BRANCH  99 103
ATOM    103  S   UNL A   1      51.943  22.436  33.278  1.00  0.00     0.124 S 
ATOM    104  O   UNL A   1      53.353  22.611  33.608  1.00  0.00    -0.237 OA
ATOM    105  O   UNL A   1      51.035  22.302  34.413  1.00  0.00    -0.237 OA
ATOM    106  O   UNL A   1      51.675  21.532  32.161  1.00  0.00    -0.744 OA
ENDBRANCH  99 103
ENDBRANCH  73  96
ENDBRANCH  47  48
ENDBRANCH  40  42
ENDBRANCH  39  40
ENDBRANCH  38  39
ENDBRANCH   1  38
TORSDOF 21
ENDMDL
MODEL 2
REMARK VINA RESULT:     -11.4      6.633     10.603
REMARK SMILES COc1cc([C@H]2CC(c3ccc(S(C)(=O)=O)cc3)=NN2c2ccc(C(=O)OCCOC(=O)c3ccc(-c4c5nc(c(-c6cc(S(=O)(=O)[O-])ccc6F)c6ccc([nH]6)c(-c6cc(S(=O)(=O)[O-])ccc6F)c6nc(c(-c7cc(S(=O)(=O)[O-])ccc7F)c7ccc4[nH]7)C=C6)C=C5)cc3)cc2)cc(OC)c1OC
REMARK SMILES IDX 28 1 27 2 25 3 26 4 24 5 21 6 22 7 97 8 23 9 96 10 20 11
REMARK SMILES IDX 6 12 7 13 8 14 19 15 5 16 3 17 4 18 102 19 99 20 98 21 2 22
REMARK SMILES IDX 1 23 103 24 104 25 100 26 101 27 9 28 10 29 18 30 11 31
REMARK SMILES IDX 17 32 12 33 13 34 14 35 15 36 16 37 29 38 30 39 31 40 32 41
REMARK SMILES IDX 33 42 34 43 95 44 35 45 94 46 36 47 37 48 38 49 88 50 39 51
REMARK SMILES IDX 93 52 87 53 89 54 40 55 92 56 86 57 85 58 41 60 73 61 53 62
REMARK SMILES IDX 72 63 54 64 57 65 71 66 90 67 55 68 56 69 70 71 91 72 58 73
REMARK SMILES IDX 42 74 43 75 51 76 44 77 50 78 52 79 49 80 45 81 46 82 47 83
REMARK SMILES IDX 48 84 74 85 75 86 83 87 76 88 82 89 84 90 81 91 77 92 78 93
REMARK SMILES IDX 79 94 80 95 59 96 60 97 68 98 61 99 67 100 69 101 66 102
REMARK SMILES IDX 62 103 63 104 64 105 65 106
REMARK H PARENT 89 59 57 70
REMARK Flexibility Score: inf
ROOT
ATOM      1  C   UNL A   1      39.927  24.074  27.600  1.00  0.00     0.275 C 
ENDROOT
BRANCH   1   2
ATOM      2  O   UNL A   1      38.925  24.175  26.569  1.00  0.00    -0.458 OA
BRANCH   2   3
ATOM      3  C   UNL A   1      38.524  22.996  26.033  1.00  0.00     0.338 C 
ATOM      4  O   UNL A   1      39.133  21.938  26.072  1.00  0.00    -0.246 OA
BRANCH   3   5
ATOM      5  C   UNL A   1      37.185  23.128  25.419  1.00  0.00     0.060 A 
ATOM      6  C   UNL A   1      34.759  23.564  24.067  1.00  0.00     0.060 A 
ATOM      7  C   UNL A   1      35.741  22.739  23.515  1.00  0.00     0.029 A 
ATOM      8  C   UNL A   1      34.980  24.114  25.338  1.00  0.00     0.029 A 
ATOM      9  C   UNL A   1      36.960  22.566  24.162  1.00  0.00     0.018 A 
ATOM     10  C   UNL A   1      36.179  23.882  26.027  1.00  0.00     0.018 A 
BRANCH   6  11
ATOM     11  N   UNL A   1      33.652  23.937  23.301  1.00  0.00    -0.257 N 
ATOM     12  C   UNL A   1      32.682  22.922  22.837  1.00  0.00     0.144 C 
ATOM     13  C   UNL A   1      31.385  23.737  22.691  1.00  0.00     0.091 C 
ATOM     14  C   UNL A   1      31.845  25.085  23.178  1.00  0.00     0.071 C 
ATOM     15  N   UNL A   1      33.091  25.160  23.524  1.00  0.00    -0.176 NA
BRANCH  12  16
ATOM     16  C   UNL A   1      32.595  21.695  23.743  1.00  0.00    -0.015 A 
ATOM     17  C   UNL A   1      32.400  19.261  23.962  1.00  0.00     0.164 A 
ATOM     18  C   UNL A   1      32.295  20.437  23.197  1.00  0.00     0.056 A 
ATOM     19  C   UNL A   1      32.820  19.300  25.304  1.00  0.00     0.203 A 
ATOM     20  C   UNL A   1      33.080  20.565  25.871  1.00  0.00     0.164 A 
ATOM     21  C   UNL A   1      32.963  21.734  25.093  1.00  0.00     0.056 A 
BRANCH  17  22
ATOM     22  O   UNL A   1      32.221  18.077  23.288  1.00  0.00    -0.493 OA
ATOM     23  C   UNL A   1      32.276  18.262  21.875  1.00  0.00     0.278 C 
ENDBRANCH  17  22
BRANCH  19  24
ATOM     24  O   UNL A   1      33.042  18.221  26.109  1.00  0.00    -0.490 OA
ATOM     25  C   UNL A   1      33.567  17.009  25.603  1.00  0.00     0.278 C 
ENDBRANCH  19  24
BRANCH  20  26
ATOM     26  O   UNL A   1      33.473  20.865  27.153  1.00  0.00    -0.493 OA
ATOM     27  C   UNL A   1      33.131  22.122  27.720  1.00  0.00     0.278 C 
ENDBRANCH  20  26
ENDBRANCH  12  16
BRANCH  14  28
ATOM     28  C   UNL A   1      30.951  26.262  23.164  1.00  0.00    -0.002 A 
ATOM     29  C   UNL A   1      31.393  27.417  22.503  1.00  0.00     0.011 A 
ATOM     30  C   UNL A   1      29.676  26.228  23.736  1.00  0.00     0.011 A 
ATOM     31  C   UNL A   1      30.545  28.516  22.361  1.00  0.00     0.021 A 
ATOM     32  C   UNL A   1      28.830  27.338  23.617  1.00  0.00     0.021 A 
ATOM     33  C   UNL A   1      29.263  28.470  22.916  1.00  0.00     0.067 A 
BRANCH  33  34
ATOM     34  S   UNL A   1      28.148  29.827  22.627  1.00  0.00     0.175 S 
ATOM     35  C   UNL A   1      28.869  31.206  23.477  1.00  0.00     0.163 C 
ATOM     36  O   UNL A   1      28.188  30.094  21.200  1.00  0.00    -0.224 OA
ATOM     37  O   UNL A   1      26.890  29.507  23.275  1.00  0.00    -0.224 OA
ENDBRANCH  33  34
ENDBRANCH  14  28
ENDBRANCH   6  11
ENDBRANCH   3   5
ENDBRANCH   2   3
ENDBRANCH   1   2
BRANCH   1  38
ATOM     38  C   UNL A   1      40.671  25.395  27.791  1.00  0.00     0.275 C 
BRANCH  38  39
ATOM     39  O   UNL A   1      41.949  25.356  27.130  1.00  0.00    -0.458 OA
BRANCH  39  40
ATOM     40  C   UNL A   1      42.111  26.260  26.137  1.00  0.00     0.338 C 
ATOM     41  O   UNL A   1      41.890  26.098  24.949  1.00  0.00    -0.246 OA
BRANCH  40  42
ATOM     42  C   UNL A   1      42.582  27.540  26.689  1.00  0.00     0.060 A 
ATOM     43  C   UNL A   1      43.645  27.528  27.584  1.00  0.00     0.016 A 
ATOM     44  C   UNL A   1      41.871  28.716  26.471  1.00  0.00     0.016 A 
ATOM     45  C   UNL A   1      43.907  28.640  28.378  1.00  0.00     0.010 A 
ATOM     46  C   UNL A   1      42.237  29.880  27.162  1.00  0.00     0.010 A 
ATOM     47  C   UNL A   1      43.229  29.848  28.161  1.00  0.00    -0.014 A 
BRANCH  47  48
ATOM     48  C   UNL A   1      43.547  31.057  28.983  1.00  0.00     0.031 A 
ATOM     49  C   UNL A   1      42.768  31.352  30.241  1.00  0.00     0.074 A 
ATOM     50  C   UNL A   1      44.537  31.896  28.609  1.00  0.00     0.049 A 
ATOM     51  N   UNL A   1      42.746  32.439  30.972  1.00  0.00    -0.248 NA
ATOM     52  C   UNL A   1      41.879  30.287  30.734  1.00  0.00     0.031 C 
ATOM     53  C   UNL A   1      45.411  31.713  27.446  1.00  0.00     0.029 A 
ATOM     54  N   UNL A   1      44.983  33.071  29.166  1.00  0.00    -0.354 N 
ATOM     55  C   UNL A   1      41.802  32.213  31.970  1.00  0.00     0.074 A 
ATOM     56  C   UNL A   1      41.262  30.890  31.740  1.00  0.00     0.031 C 
ATOM     57  C   UNL A   1      46.309  32.708  27.403  1.00  0.00     0.029 A 
ATOM     58  C   UNL A   1      46.003  33.665  28.458  1.00  0.00     0.049 A 
ATOM     59  H   UNL A   1      44.607  33.453  29.992  1.00  0.00     0.167 HD
ATOM     60  C   UNL A   1      41.422  33.036  32.981  1.00  0.00     0.034 A 
ATOM     61  C   UNL A   1      46.592  34.871  28.592  1.00  0.00     0.034 A 
ATOM     62  C   UNL A   1      42.006  34.337  33.220  1.00  0.00     0.049 A 
ATOM     63  C   UNL A   1      46.112  35.792  29.680  1.00  0.00     0.074 A 
ATOM     64  C   UNL A   1      41.713  35.243  34.226  1.00  0.00     0.029 A 
ATOM     65  N   UNL A   1      43.005  34.917  32.447  1.00  0.00    -0.354 N 
ATOM     66  N   UNL A   1      45.175  35.591  30.578  1.00  0.00    -0.248 NA
ATOM     67  C   UNL A   1      46.757  37.108  29.764  1.00  0.00     0.031 C 
ATOM     68  C   UNL A   1      42.482  36.393  34.021  1.00  0.00     0.029 A 
ATOM     69  C   UNL A   1      43.316  36.178  32.936  1.00  0.00     0.049 A 
ATOM     70  H   UNL A   1      43.430  34.495  31.667  1.00  0.00     0.167 HD
ATOM     71  C   UNL A   1      45.134  36.751  31.346  1.00  0.00     0.074 A 
ATOM     72  C   UNL A   1      46.153  37.635  30.819  1.00  0.00     0.031 C 
ATOM     73  C   UNL A   1      44.326  37.056  32.393  1.00  0.00     0.034 A 
BRANCH  60  74
ATOM     74  C   UNL A   1      40.281  32.584  33.866  1.00  0.00     0.023 A 
ATOM     75  C   UNL A   1      38.971  33.074  33.717  1.00  0.00     0.031 A 
ATOM     76  C   UNL A   1      40.518  31.652  34.894  1.00  0.00     0.131 A 
ATOM     77  C   UNL A   1      37.970  32.686  34.621  1.00  0.00     0.055 A 
ATOM     78  C   UNL A   1      39.499  31.208  35.740  1.00  0.00     0.041 A 
ATOM     79  F   UNL A   1      41.750  31.160  35.100  1.00  0.00    -0.206 F 
ATOM     80  C   UNL A   1      38.219  31.737  35.616  1.00  0.00     0.022 A 
BRANCH  77  81
ATOM     81  S   UNL A   1      36.369  33.540  34.567  1.00  0.00     0.124 S 
ATOM     82  O   UNL A   1      36.729  34.800  33.922  1.00  0.00    -0.237 OA
ATOM     83  O   UNL A   1      35.550  32.631  33.775  1.00  0.00    -0.237 OA
ATOM     84  O   UNL A   1      35.993  33.654  35.974  1.00  0.00    -0.744 OA
ENDBRANCH  77  81
ENDBRANCH  60  74
BRANCH  61  85
ATOM     85  C   UNL A   1      47.641  35.309  27.624  1.00  0.00     0.023 A 
ATOM     86  C   UNL A   1      48.999  35.038  27.850  1.00  0.00     0.031 A 
ATOM     87  C   UNL A   1      47.299  36.036  26.467  1.00  0.00     0.131 A 
ATOM     88  C   UNL A   1      49.967  35.521  26.954  1.00  0.00     0.055 A 
ATOM     89  C   UNL A   1      48.260  36.459  25.548  1.00  0.00     0.041 A 
ATOM     90  F   UNL A   1      46.016  36.330  26.203  1.00  0.00    -0.206 F 
ATOM     91  C   UNL A   1      49.605  36.212  25.796  1.00  0.00     0.022 A 
BRANCH  88  92
ATOM     92  S   UNL A   1      51.719  35.309  27.372  1.00  0.00     0.124 S 
ATOM     93  O   UNL A   1      52.233  36.663  27.199  1.00  0.00    -0.237 OA
ATOM     94  O   UNL A   1      51.647  34.819  28.744  1.00  0.00    -0.237 OA
ATOM     95  O   UNL A   1      52.186  34.334  26.388  1.00  0.00    -0.744 OA
ENDBRANCH  88  92
ENDBRANCH  61  85
BRANCH  73  96
ATOM     96  C   UNL A   1      44.553  38.390  33.061  1.00  0.00     0.023 A 
ATOM     97  C   UNL A   1      43.779  39.520  32.743  1.00  0.00     0.031 A 
ATOM     98  C   UNL A   1      45.576  38.535  34.015  1.00  0.00     0.131 A 
ATOM     99  C   UNL A   1      44.078  40.758  33.331  1.00  0.00     0.055 A 
ATOM    100  C   UNL A   1      45.827  39.755  34.643  1.00  0.00     0.041 A 
ATOM    101  F   UNL A   1      46.349  37.490  34.353  1.00  0.00    -0.206 F 
ATOM    102  C   UNL A   1      45.085  40.879  34.291  1.00  0.00     0.022 A 
BRANCH  99 103
ATOM    103  S   UNL A   1      43.195  42.233  32.753  1.00  0.00     0.124 S 
ATOM    104  O   UNL A   1      41.827  41.739  32.631  1.00  0.00    -0.237 OA
ATOM    105  O   UNL A   1      43.435  43.185  33.832  1.00  0.00    -0.237 OA
ATOM    106  O   UNL A   1      43.853  42.553  31.487  1.00  0.00    -0.744 OA
ENDBRANCH  99 103
ENDBRANCH  73  96
ENDBRANCH  47  48
ENDBRANCH  40  42
ENDBRANCH  39  40
ENDBRANCH  38  39
ENDBRANCH   1  38
TORSDOF 21
ENDMDL
MODEL 3
REMARK VINA RESULT:     -11.4      5.244      8.969
REMARK SMILES COc1cc([C@H]2CC(c3ccc(S(C)(=O)=O)cc3)=NN2c2ccc(C(=O)OCCOC(=O)c3ccc(-c4c5nc(c(-c6cc(S(=O)(=O)[O-])ccc6F)c6ccc([nH]6)c(-c6cc(S(=O)(=O)[O-])ccc6F)c6nc(c(-c7cc(S(=O)(=O)[O-])ccc7F)c7ccc4[nH]7)C=C6)C=C5)cc3)cc2)cc(OC)c1OC
REMARK SMILES IDX 28 1 27 2 25 3 26 4 24 5 21 6 22 7 97 8 23 9 96 10 20 11
REMARK SMILES IDX 6 12 7 13 8 14 19 15 5 16 3 17 4 18 102 19 99 20 98 21 2 22
REMARK SMILES IDX 1 23 103 24 104 25 100 26 101 27 9 28 10 29 18 30 11 31
REMARK SMILES IDX 17 32 12 33 13 34 14 35 15 36 16 37 29 38 30 39 31 40 32 41
REMARK SMILES IDX 33 42 34 43 95 44 35 45 94 46 36 47 37 48 38 49 88 50 39 51
REMARK SMILES IDX 93 52 87 53 89 54 40 55 92 56 86 57 85 58 41 60 73 61 53 62
REMARK SMILES IDX 72 63 54 64 57 65 71 66 90 67 55 68 56 69 70 71 91 72 58 73
REMARK SMILES IDX 42 74 43 75 51 76 44 77 50 78 52 79 49 80 45 81 46 82 47 83
REMARK SMILES IDX 48 84 74 85 75 86 83 87 76 88 82 89 84 90 81 91 77 92 78 93
REMARK SMILES IDX 79 94 80 95 59 96 60 97 68 98 61 99 67 100 69 101 66 102
REMARK SMILES IDX 62 103 63 104 64 105 65 106
REMARK H PARENT 89 59 57 70
REMARK Flexibility Score: inf
ROOT
ATOM      1  C   UNL A   1      39.569  24.519  27.522  1.00  0.00     0.275 C 
ENDROOT
BRANCH   1   2
ATOM      2  O   UNL A   1      39.023  24.351  26.198  1.00  0.00    -0.458 OA
BRANCH   2   3
ATOM      3  C   UNL A   1      38.485  23.134  25.943  1.00  0.00     0.338 C 
ATOM      4  O   UNL A   1      38.985  22.050  26.207  1.00  0.00    -0.246 OA
BRANCH   3   5
ATOM      5  C   UNL A   1      37.144  23.271  25.335  1.00  0.00     0.060 A 
ATOM      6  C   UNL A   1      34.715  23.714  23.991  1.00  0.00     0.060 A 
ATOM      7  C   UNL A   1      35.686  22.873  23.443  1.00  0.00     0.029 A 
ATOM      8  C   UNL A   1      34.948  24.275  25.254  1.00  0.00     0.029 A 
ATOM      9  C   UNL A   1      36.907  22.697  24.085  1.00  0.00     0.018 A 
ATOM     10  C   UNL A   1      36.148  24.041  25.939  1.00  0.00     0.018 A 
BRANCH   6  11
ATOM     11  N   UNL A   1      33.608  24.087  23.226  1.00  0.00    -0.257 N 
ATOM     12  C   UNL A   1      32.644  23.072  22.750  1.00  0.00     0.144 C 
ATOM     13  C   UNL A   1      31.343  23.881  22.609  1.00  0.00     0.091 C 
ATOM     14  C   UNL A   1      31.795  25.227  23.110  1.00  0.00     0.071 C 
ATOM     15  N   UNL A   1      33.040  25.305  23.459  1.00  0.00    -0.176 NA
BRANCH  12  16
ATOM     16  C   UNL A   1      32.562  21.836  23.644  1.00  0.00    -0.015 A 
ATOM     17  C   UNL A   1      32.677  19.397  23.864  1.00  0.00     0.164 A 
ATOM     18  C   UNL A   1      32.553  20.554  23.073  1.00  0.00     0.056 A 
ATOM     19  C   UNL A   1      32.824  19.482  25.261  1.00  0.00     0.203 A 
ATOM     20  C   UNL A   1      32.790  20.766  25.845  1.00  0.00     0.164 A 
ATOM     21  C   UNL A   1      32.658  21.913  25.038  1.00  0.00     0.056 A 
BRANCH  17  22
ATOM     22  O   UNL A   1      32.798  18.207  23.190  1.00  0.00    -0.493 OA
ATOM     23  C   UNL A   1      32.129  18.244  21.930  1.00  0.00     0.278 C 
ENDBRANCH  17  22
BRANCH  19  24
ATOM     24  O   UNL A   1      33.041  18.437  26.113  1.00  0.00    -0.490 OA
ATOM     25  C   UNL A   1      32.790  17.100  25.729  1.00  0.00     0.278 C 
ENDBRANCH  19  24
BRANCH  20  26
ATOM     26  O   UNL A   1      32.886  21.105  27.173  1.00  0.00    -0.493 OA
ATOM     27  C   UNL A   1      34.070  21.719  27.660  1.00  0.00     0.278 C 
ENDBRANCH  20  26
ENDBRANCH  12  16
BRANCH  14  28
ATOM     28  C   UNL A   1      30.894  26.399  23.105  1.00  0.00    -0.002 A 
ATOM     29  C   UNL A   1      31.339  27.568  22.472  1.00  0.00     0.011 A 
ATOM     30  C   UNL A   1      29.612  26.347  23.659  1.00  0.00     0.011 A 
ATOM     31  C   UNL A   1      30.487  28.666  22.338  1.00  0.00     0.021 A 
ATOM     32  C   UNL A   1      28.762  27.455  23.549  1.00  0.00     0.021 A 
ATOM     33  C   UNL A   1      29.198  28.603  22.875  1.00  0.00     0.067 A 
BRANCH  33  34
ATOM     34  S   UNL A   1      28.079  29.959  22.596  1.00  0.00     0.175 S 
ATOM     35  C   UNL A   1      28.847  31.357  23.369  1.00  0.00     0.163 C 
ATOM     36  O   UNL A   1      28.055  30.182  21.161  1.00  0.00    -0.224 OA
ATOM     37  O   UNL A   1      26.850  29.668  23.310  1.00  0.00    -0.224 OA
ENDBRANCH  33  34
ENDBRANCH  14  28
ENDBRANCH   6  11
ENDBRANCH   3   5
ENDBRANCH   2   3
ENDBRANCH   1   2
BRANCH   1  38
ATOM     38  C   UNL A   1      40.863  25.333  27.497  1.00  0.00     0.275 C 
BRANCH  38  39
ATOM     39  O   UNL A   1      41.284  25.572  26.142  1.00  0.00    -0.458 OA
BRANCH  39  40
ATOM     40  C   UNL A   1      41.977  26.717  25.948  1.00  0.00     0.338 C 
ATOM     41  O   UNL A   1      41.535  27.797  25.595  1.00  0.00    -0.246 OA
BRANCH  40  42
ATOM     42  C   UNL A   1      43.400  26.506  26.260  1.00  0.00     0.060 A 
ATOM     43  C   UNL A   1      44.100  27.523  26.896  1.00  0.00     0.016 A 
ATOM     44  C   UNL A   1      44.080  25.396  25.771  1.00  0.00     0.016 A 
ATOM     45  C   UNL A   1      45.491  27.516  26.912  1.00  0.00     0.010 A 
ATOM     46  C   UNL A   1      45.472  25.318  25.925  1.00  0.00     0.010 A 
ATOM     47  C   UNL A   1      46.204  26.399  26.455  1.00  0.00    -0.014 A 
BRANCH  47  48
ATOM     48  C   UNL A   1      47.698  26.371  26.519  1.00  0.00     0.031 A 
ATOM     49  C   UNL A   1      48.402  26.107  27.828  1.00  0.00     0.074 A 
ATOM     50  C   UNL A   1      48.434  26.579  25.405  1.00  0.00     0.049 A 
ATOM     51  N   UNL A   1      49.668  26.244  28.135  1.00  0.00    -0.248 NA
ATOM     52  C   UNL A   1      47.565  25.644  28.947  1.00  0.00     0.031 C 
ATOM     53  C   UNL A   1      47.894  26.795  24.059  1.00  0.00     0.029 A 
ATOM     54  N   UNL A   1      49.795  26.641  25.221  1.00  0.00    -0.354 N 
ATOM     55  C   UNL A   1      49.769  25.945  29.491  1.00  0.00     0.074 A 
ATOM     56  C   UNL A   1      48.432  25.634  29.950  1.00  0.00     0.031 C 
ATOM     57  C   UNL A   1      48.906  26.919  23.189  1.00  0.00     0.029 A 
ATOM     58  C   UNL A   1      50.164  26.916  23.924  1.00  0.00     0.049 A 
ATOM     59  H   UNL A   1      50.444  26.503  25.949  1.00  0.00     0.167 HD
ATOM     60  C   UNL A   1      50.877  25.934  30.277  1.00  0.00     0.034 A 
ATOM     61  C   UNL A   1      51.367  27.199  23.384  1.00  0.00     0.034 A 
ATOM     62  C   UNL A   1      52.210  26.204  29.790  1.00  0.00     0.049 A 
ATOM     63  C   UNL A   1      52.570  27.244  24.285  1.00  0.00     0.074 A 
ATOM     64  C   UNL A   1      53.404  26.198  30.492  1.00  0.00     0.029 A 
ATOM     65  N   UNL A   1      52.530  26.524  28.476  1.00  0.00    -0.354 N 
ATOM     66  N   UNL A   1      52.643  27.020  25.577  1.00  0.00    -0.248 NA
ATOM     67  C   UNL A   1      53.852  27.592  23.660  1.00  0.00     0.031 C 
ATOM     68  C   UNL A   1      54.430  26.581  29.623  1.00  0.00     0.029 A 
ATOM     69  C   UNL A   1      53.894  26.747  28.356  1.00  0.00     0.049 A 
ATOM     70  H   UNL A   1      51.882  26.584  27.737  1.00  0.00     0.167 HD
ATOM     71  C   UNL A   1      53.983  27.182  25.913  1.00  0.00     0.074 A 
ATOM     72  C   UNL A   1      54.683  27.501  24.686  1.00  0.00     0.031 C 
ATOM     73  C   UNL A   1      54.580  27.078  27.128  1.00  0.00     0.034 A 
BRANCH  60  74
ATOM     74  C   UNL A   1      50.686  25.683  31.757  1.00  0.00     0.023 A 
ATOM     75  C   UNL A   1      50.892  24.419  32.340  1.00  0.00     0.031 A 
ATOM     76  C   UNL A   1      50.273  26.732  32.600  1.00  0.00     0.131 A 
ATOM     77  C   UNL A   1      50.617  24.222  33.702  1.00  0.00     0.055 A 
ATOM     78  C   UNL A   1      50.079  26.548  33.970  1.00  0.00     0.041 A 
ATOM     79  F   UNL A   1      50.042  27.957  32.102  1.00  0.00    -0.206 F 
ATOM     80  C   UNL A   1      50.236  25.283  34.527  1.00  0.00     0.022 A 
BRANCH  77  81
ATOM     81  S   UNL A   1      50.631  22.528  34.357  1.00  0.00     0.124 S 
ATOM     82  O   UNL A   1      49.686  22.633  35.466  1.00  0.00    -0.237 OA
ATOM     83  O   UNL A   1      50.186  21.742  33.213  1.00  0.00    -0.237 OA
ATOM     84  O   UNL A   1      52.023  22.324  34.751  1.00  0.00    -0.744 OA
ENDBRANCH  77  81
ENDBRANCH  60  74
BRANCH  61  85
ATOM     85  C   UNL A   1      51.480  27.543  21.936  1.00  0.00     0.023 A 
ATOM     86  C   UNL A   1      51.589  26.544  20.956  1.00  0.00     0.031 A 
ATOM     87  C   UNL A   1      51.514  28.886  21.512  1.00  0.00     0.131 A 
ATOM     88  C   UNL A   1      51.761  26.902  19.609  1.00  0.00     0.055 A 
ATOM     89  C   UNL A   1      51.621  29.235  20.165  1.00  0.00     0.041 A 
ATOM     90  F   UNL A   1      51.421  29.884  22.405  1.00  0.00    -0.206 F 
ATOM     91  C   UNL A   1      51.758  28.239  19.206  1.00  0.00     0.022 A 
BRANCH  88  92
ATOM     92  S   UNL A   1      52.077  25.591  18.396  1.00  0.00     0.124 S 
ATOM     93  O   UNL A   1      51.296  26.048  17.253  1.00  0.00    -0.237 OA
ATOM     94  O   UNL A   1      53.528  25.656  18.251  1.00  0.00    -0.237 OA
ATOM     95  O   UNL A   1      51.572  24.389  19.057  1.00  0.00    -0.744 OA
ENDBRANCH  88  92
ENDBRANCH  61  85
BRANCH  73  96
ATOM     96  C   UNL A   1      56.076  27.266  27.170  1.00  0.00     0.023 A 
ATOM     97  C   UNL A   1      56.964  26.188  27.007  1.00  0.00     0.031 A 
ATOM     98  C   UNL A   1      56.620  28.542  27.399  1.00  0.00     0.131 A 
ATOM     99  C   UNL A   1      58.345  26.395  27.132  1.00  0.00     0.055 A 
ATOM    100  C   UNL A   1      57.998  28.753  27.461  1.00  0.00     0.041 A 
ATOM    101  F   UNL A   1      55.819  29.607  27.567  1.00  0.00    -0.206 F 
ATOM    102  C   UNL A   1      58.869  27.674  27.341  1.00  0.00     0.022 A 
BRANCH  99 103
ATOM    103  S   UNL A   1      59.448  24.956  27.116  1.00  0.00     0.124 S 
ATOM    104  O   UNL A   1      60.118  25.102  25.828  1.00  0.00    -0.237 OA
ATOM    105  O   UNL A   1      60.278  25.184  28.295  1.00  0.00    -0.237 OA
ATOM    106  O   UNL A   1      58.533  23.820  27.213  1.00  0.00    -0.744 OA
ENDBRANCH  99 103
ENDBRANCH  73  96
ENDBRANCH  47  48
ENDBRANCH  40  42
ENDBRANCH  39  40
ENDBRANCH  38  39
ENDBRANCH   1  38
TORSDOF 21
ENDMDL
