MODEL 1
REMARK VINA RESULT:     -11.5      0.000      0.000
REMARK SMILES Cc1ccc(O)c(C(=O)NCc2ccc(C(=O)OCCOC(=O)c3ccc(-c4c5nc(c(-c6cc(S(=O)(=O)[O-])ccc6F)c6ccc([nH]6)c(-c6cc(S(=O)(=O)[O-])ccc6F)c6nc(c(-c7cc(S(=O)(=O)[O-])ccc7F)c7ccc4[nH]7)C=C6)C=C5)cc3)o2)c1
REMARK SMILES IDX 19 1 18 2 16 3 17 4 15 5 12 6 13 7 87 8 14 9 11 10 10 11
REMARK SMILES IDX 8 12 9 13 7 15 1 16 2 17 3 18 88 19 4 20 5 21 6 22 20 24
REMARK SMILES IDX 21 25 22 26 23 27 24 28 25 29 86 30 26 31 85 32 27 33 28 34
REMARK SMILES IDX 29 35 79 36 30 37 84 38 78 39 80 40 31 41 83 42 77 43 76 44
REMARK SMILES IDX 32 46 64 47 44 48 63 49 45 50 48 51 62 52 81 53 46 54 47 55
REMARK SMILES IDX 61 57 82 58 49 59 33 60 34 61 42 62 35 63 41 64 43 65 40 66
REMARK SMILES IDX 36 67 37 68 38 69 39 70 65 71 66 72 74 73 67 74 73 75 75 76
REMARK SMILES IDX 72 77 68 78 69 79 70 80 71 81 50 82 51 83 59 84 52 85 58 86
REMARK SMILES IDX 60 87 57 88 53 89 54 90 55 91 56 92
REMARK H PARENT 10 14 6 23 80 45 48 56
REMARK Flexibility Score: inf
ROOT
ATOM      1  C   UNL A   1      36.734  22.390  23.565  1.00  0.00     0.275 C 
ENDROOT
BRANCH   1   2
ATOM      2  O   UNL A   1      35.984  23.452  24.184  1.00  0.00    -0.456 OA
BRANCH   2   3
ATOM      3  C   UNL A   1      34.818  23.799  23.562  1.00  0.00     0.374 C 
ATOM      4  O   UNL A   1      34.457  23.359  22.476  1.00  0.00    -0.242 OA
BRANCH   3   5
ATOM      5  C   UNL A   1      34.040  24.659  24.422  1.00  0.00     0.211 A 
ATOM      6  C   UNL A   1      32.113  25.455  25.153  1.00  0.00     0.124 A 
ATOM      7  C   UNL A   1      33.060  25.785  26.103  1.00  0.00     0.048 A 
ATOM      8  O   UNL A   1      32.728  24.872  24.086  1.00  0.00    -0.452 OA
ATOM      9  C   UNL A   1      34.296  25.268  25.637  1.00  0.00     0.058 A 
BRANCH   6  10
ATOM     10  C   UNL A   1      30.623  25.480  25.114  1.00  0.00     0.191 C 
BRANCH  10  11
ATOM     11  N   UNL A   1      30.140  24.671  26.217  1.00  0.00    -0.345 N 
ATOM     12  C   UNL A   1      30.434  23.428  26.700  1.00  0.00     0.255 C 
ATOM     13  O   UNL A   1      29.788  23.051  27.682  1.00  0.00    -0.269 OA
ATOM     14  H   UNL A   1      29.437  25.124  26.737  1.00  0.00     0.164 HD
BRANCH  12  15
ATOM     15  C   UNL A   1      31.469  22.501  26.157  1.00  0.00     0.081 A 
ATOM     16  C   UNL A   1      32.310  20.407  23.075  1.00  0.00     0.044 C 
ATOM     17  C   UNL A   1      32.408  21.033  24.435  1.00  0.00    -0.050 A 
ATOM     18  C   UNL A   1      33.503  20.758  25.256  1.00  0.00     0.007 A 
ATOM     19  C   UNL A   1      31.387  21.876  24.907  1.00  0.00     0.021 A 
ATOM     20  C   UNL A   1      33.585  21.331  26.521  1.00  0.00     0.047 A 
ATOM     21  C   UNL A   1      32.581  22.192  26.965  1.00  0.00     0.128 A 
BRANCH  21  22
ATOM     22  O   UNL A   1      32.766  22.683  28.232  1.00  0.00    -0.507 OA
ATOM     23  H   UNL A   1      33.179  23.515  28.356  1.00  0.00     0.293 HD
ENDBRANCH  21  22
ENDBRANCH  12  15
ENDBRANCH  10  11
ENDBRANCH   6  10
ENDBRANCH   3   5
ENDBRANCH   2   3
ENDBRANCH   1   2
BRANCH   1  24
ATOM     24  C   UNL A   1      37.012  21.251  24.554  1.00  0.00     0.275 C 
BRANCH  24  25
ATOM     25  O   UNL A   1      37.470  21.736  25.832  1.00  0.00    -0.458 OA
BRANCH  25  26
ATOM     26  C   UNL A   1      38.775  21.490  26.107  1.00  0.00     0.338 C 
ATOM     27  O   UNL A   1      39.391  20.470  25.848  1.00  0.00    -0.246 OA
BRANCH  26  28
ATOM     28  C   UNL A   1      39.417  22.704  26.645  1.00  0.00     0.060 A 
ATOM     29  C   UNL A   1      39.010  23.930  26.121  1.00  0.00     0.016 A 
ATOM     30  C   UNL A   1      40.448  22.652  27.585  1.00  0.00     0.016 A 
ATOM     31  C   UNL A   1      39.619  25.113  26.525  1.00  0.00     0.010 A 
ATOM     32  C   UNL A   1      41.066  23.844  27.993  1.00  0.00     0.010 A 
ATOM     33  C   UNL A   1      40.659  25.081  27.461  1.00  0.00    -0.014 A 
BRANCH  33  34
ATOM     34  C   UNL A   1      41.340  26.350  27.823  1.00  0.00     0.031 A 
ATOM     35  C   UNL A   1      40.604  27.395  28.614  1.00  0.00     0.074 A 
ATOM     36  C   UNL A   1      42.635  26.535  27.498  1.00  0.00     0.049 A 
ATOM     37  N   UNL A   1      41.004  28.580  28.994  1.00  0.00    -0.248 NA
ATOM     38  C   UNL A   1      39.237  27.055  29.032  1.00  0.00     0.031 C 
ATOM     39  C   UNL A   1      43.470  25.566  26.787  1.00  0.00     0.029 A 
ATOM     40  N   UNL A   1      43.475  27.594  27.731  1.00  0.00    -0.354 N 
ATOM     41  C   UNL A   1      39.934  29.140  29.684  1.00  0.00     0.074 A 
ATOM     42  C   UNL A   1      38.861  28.167  29.647  1.00  0.00     0.031 C 
ATOM     43  C   UNL A   1      44.706  26.074  26.648  1.00  0.00     0.029 A 
ATOM     44  C   UNL A   1      44.738  27.418  27.214  1.00  0.00     0.049 A 
ATOM     45  H   UNL A   1      43.200  28.402  28.221  1.00  0.00     0.167 HD
ATOM     46  C   UNL A   1      39.855  30.350  30.290  1.00  0.00     0.034 A 
ATOM     47  C   UNL A   1      45.792  28.258  27.176  1.00  0.00     0.034 A 
ATOM     48  C   UNL A   1      40.934  31.308  30.321  1.00  0.00     0.049 A 
ATOM     49  C   UNL A   1      45.657  29.628  27.791  1.00  0.00     0.074 A 
ATOM     50  C   UNL A   1      40.962  32.563  30.906  1.00  0.00     0.029 A 
ATOM     51  N   UNL A   1      42.181  31.121  29.735  1.00  0.00    -0.354 N 
ATOM     52  N   UNL A   1      44.626  30.158  28.409  1.00  0.00    -0.248 NA
ATOM     53  C   UNL A   1      46.825  30.513  27.701  1.00  0.00     0.031 C 
ATOM     54  C   UNL A   1      42.199  33.155  30.625  1.00  0.00     0.029 A 
ATOM     55  C   UNL A   1      42.971  32.246  29.919  1.00  0.00     0.049 A 
ATOM     56  H   UNL A   1      42.462  30.307  29.257  1.00  0.00     0.167 HD
ATOM     57  C   UNL A   1      45.030  31.432  28.794  1.00  0.00     0.074 A 
ATOM     58  C   UNL A   1      46.402  31.585  28.355  1.00  0.00     0.031 C 
ATOM     59  C   UNL A   1      44.330  32.390  29.455  1.00  0.00     0.034 A 
BRANCH  46  60
ATOM     60  C   UNL A   1      38.531  30.726  30.910  1.00  0.00     0.023 A 
ATOM     61  C   UNL A   1      37.511  31.350  30.171  1.00  0.00     0.031 A 
ATOM     62  C   UNL A   1      38.304  30.491  32.279  1.00  0.00     0.131 A 
ATOM     63  C   UNL A   1      36.341  31.778  30.818  1.00  0.00     0.055 A 
ATOM     64  C   UNL A   1      37.108  30.854  32.900  1.00  0.00     0.041 A 
ATOM     65  F   UNL A   1      39.250  29.919  33.039  1.00  0.00    -0.206 F 
ATOM     66  C   UNL A   1      36.123  31.515  32.173  1.00  0.00     0.022 A 
BRANCH  63  67
ATOM     67  S   UNL A   1      35.163  32.807  29.898  1.00  0.00     0.124 S 
ATOM     68  O   UNL A   1      34.672  31.865  28.896  1.00  0.00    -0.237 OA
ATOM     69  O   UNL A   1      34.213  33.198  30.932  1.00  0.00    -0.237 OA
ATOM     70  O   UNL A   1      35.991  33.890  29.371  1.00  0.00    -0.744 OA
ENDBRANCH  63  67
ENDBRANCH  46  60
BRANCH  47  71
ATOM     71  C   UNL A   1      47.049  27.858  26.483  1.00  0.00     0.023 A 
ATOM     72  C   UNL A   1      47.189  27.990  25.093  1.00  0.00     0.031 A 
ATOM     73  C   UNL A   1      48.117  27.295  27.205  1.00  0.00     0.131 A 
ATOM     74  C   UNL A   1      48.358  27.534  24.463  1.00  0.00     0.055 A 
ATOM     75  C   UNL A   1      49.296  26.887  26.580  1.00  0.00     0.041 A 
ATOM     76  F   UNL A   1      48.032  27.146  28.537  1.00  0.00    -0.206 F 
ATOM     77  C   UNL A   1      49.416  26.995  25.198  1.00  0.00     0.022 A 
BRANCH  74  78
ATOM     78  S   UNL A   1      48.452  27.593  22.653  1.00  0.00     0.124 S 
ATOM     79  O   UNL A   1      48.479  26.176  22.308  1.00  0.00    -0.237 OA
ATOM     80  O   UNL A   1      47.231  28.314  22.308  1.00  0.00    -0.237 OA
ATOM     81  O   UNL A   1      49.694  28.321  22.400  1.00  0.00    -0.744 OA
ENDBRANCH  74  78
ENDBRANCH  47  71
BRANCH  59  82
ATOM     82  C   UNL A   1      45.062  33.670  29.767  1.00  0.00     0.023 A 
ATOM     83  C   UNL A   1      45.030  34.770  28.891  1.00  0.00     0.031 A 
ATOM     84  C   UNL A   1      45.819  33.782  30.946  1.00  0.00     0.131 A 
ATOM     85  C   UNL A   1      45.782  35.918  29.185  1.00  0.00     0.055 A 
ATOM     86  C   UNL A   1      46.525  34.945  31.257  1.00  0.00     0.041 A 
ATOM     87  F   UNL A   1      45.885  32.761  31.815  1.00  0.00    -0.206 F 
ATOM     88  C   UNL A   1      46.520  36.017  30.368  1.00  0.00     0.022 A 
BRANCH  85  89
ATOM     89  S   UNL A   1      45.850  37.254  27.959  1.00  0.00     0.124 S 
ATOM     90  O   UNL A   1      46.980  38.046  28.434  1.00  0.00    -0.237 OA
ATOM     91  O   UNL A   1      46.060  36.525  26.714  1.00  0.00    -0.237 OA
ATOM     92  O   UNL A   1      44.544  37.901  28.084  1.00  0.00    -0.744 OA
ENDBRANCH  85  89
ENDBRANCH  59  82
ENDBRANCH  33  34
ENDBRANCH  26  28
ENDBRANCH  25  26
ENDBRANCH  24  25
ENDBRANCH   1  24
TORSDOF 18
ENDMDL
MODEL 2
REMARK VINA RESULT:     -11.4      3.817      9.991
REMARK SMILES Cc1ccc(O)c(C(=O)NCc2ccc(C(=O)OCCOC(=O)c3ccc(-c4c5nc(c(-c6cc(S(=O)(=O)[O-])ccc6F)c6ccc([nH]6)c(-c6cc(S(=O)(=O)[O-])ccc6F)c6nc(c(-c7cc(S(=O)(=O)[O-])ccc7F)c7ccc4[nH]7)C=C6)C=C5)cc3)o2)c1
REMARK SMILES IDX 19 1 18 2 16 3 17 4 15 5 12 6 13 7 87 8 14 9 11 10 10 11
REMARK SMILES IDX 8 12 9 13 7 15 1 16 2 17 3 18 88 19 4 20 5 21 6 22 20 24
REMARK SMILES IDX 21 25 22 26 23 27 24 28 25 29 86 30 26 31 85 32 27 33 28 34
REMARK SMILES IDX 29 35 79 36 30 37 84 38 78 39 80 40 31 41 83 42 77 43 76 44
REMARK SMILES IDX 32 46 64 47 44 48 63 49 45 50 48 51 62 52 81 53 46 54 47 55
REMARK SMILES IDX 61 57 82 58 49 59 33 60 34 61 42 62 35 63 41 64 43 65 40 66
REMARK SMILES IDX 36 67 37 68 38 69 39 70 65 71 66 72 74 73 67 74 73 75 75 76
REMARK SMILES IDX 72 77 68 78 69 79 70 80 71 81 50 82 51 83 59 84 52 85 58 86
REMARK SMILES IDX 60 87 57 88 53 89 54 90 55 91 56 92
REMARK H PARENT 10 14 6 23 80 45 48 56
REMARK Flexibility Score: inf
ROOT
ATOM      1  C   UNL A   1      41.182  19.771  26.265  1.00  0.00     0.275 C 
ENDROOT
BRANCH   1   2
ATOM      2  O   UNL A   1      42.170  19.324  25.319  1.00  0.00    -0.456 OA
BRANCH   2   3
ATOM      3  C   UNL A   1      43.189  18.570  25.831  1.00  0.00     0.374 C 
ATOM      4  O   UNL A   1      43.028  17.578  26.533  1.00  0.00    -0.242 OA
BRANCH   3   5
ATOM      5  C   UNL A   1      44.455  19.050  25.330  1.00  0.00     0.211 A 
ATOM      6  C   UNL A   1      45.775  20.662  24.595  1.00  0.00     0.124 A 
ATOM      7  C   UNL A   1      46.598  19.607  24.939  1.00  0.00     0.048 A 
ATOM      8  O   UNL A   1      44.473  20.282  24.728  1.00  0.00    -0.452 OA
ATOM      9  C   UNL A   1      45.751  18.575  25.417  1.00  0.00     0.058 A 
BRANCH   6  10
ATOM     10  C   UNL A   1      46.005  22.096  24.258  1.00  0.00     0.191 C 
BRANCH  10  11
ATOM     11  N   UNL A   1      44.729  22.779  24.350  1.00  0.00    -0.345 N 
ATOM     12  C   UNL A   1      44.107  23.533  25.305  1.00  0.00     0.255 C 
ATOM     13  O   UNL A   1      42.980  23.953  25.026  1.00  0.00    -0.269 OA
ATOM     14  H   UNL A   1      44.186  22.675  23.536  1.00  0.00     0.164 HD
BRANCH  12  15
ATOM     15  C   UNL A   1      44.673  23.902  26.634  1.00  0.00     0.081 A 
ATOM     16  C   UNL A   1      44.092  23.439  30.381  1.00  0.00     0.044 C 
ATOM     17  C   UNL A   1      44.700  23.883  29.084  1.00  0.00    -0.050 A 
ATOM     18  C   UNL A   1      45.848  24.678  29.085  1.00  0.00     0.007 A 
ATOM     19  C   UNL A   1      44.107  23.530  27.860  1.00  0.00     0.021 A 
ATOM     20  C   UNL A   1      46.403  25.098  27.880  1.00  0.00     0.047 A 
ATOM     21  C   UNL A   1      45.823  24.714  26.671  1.00  0.00     0.128 A 
BRANCH  21  22
ATOM     22  O   UNL A   1      46.452  25.200  25.553  1.00  0.00    -0.507 OA
ATOM     23  H   UNL A   1      47.046  24.655  25.076  1.00  0.00     0.293 HD
ENDBRANCH  21  22
ENDBRANCH  12  15
ENDBRANCH  10  11
ENDBRANCH   6  10
ENDBRANCH   3   5
ENDBRANCH   2   3
ENDBRANCH   1   2
BRANCH   1  24
ATOM     24  C   UNL A   1      40.960  21.286  26.169  1.00  0.00     0.275 C 
BRANCH  24  25
ATOM     25  O   UNL A   1      39.839  21.725  26.962  1.00  0.00    -0.458 OA
BRANCH  25  26
ATOM     26  C   UNL A   1      39.045  22.652  26.372  1.00  0.00     0.338 C 
ATOM     27  O   UNL A   1      38.141  22.438  25.583  1.00  0.00    -0.246 OA
BRANCH  26  28
ATOM     28  C   UNL A   1      39.325  23.988  26.931  1.00  0.00     0.060 A 
ATOM     29  C   UNL A   1      39.946  24.915  26.094  1.00  0.00     0.016 A 
ATOM     30  C   UNL A   1      39.062  24.314  28.262  1.00  0.00     0.016 A 
ATOM     31  C   UNL A   1      40.307  26.171  26.569  1.00  0.00     0.010 A 
ATOM     32  C   UNL A   1      39.428  25.580  28.744  1.00  0.00     0.010 A 
ATOM     33  C   UNL A   1      40.058  26.514  27.902  1.00  0.00    -0.014 A 
BRANCH  33  34
ATOM     34  C   UNL A   1      40.517  27.834  28.404  1.00  0.00     0.031 A 
ATOM     35  C   UNL A   1      41.986  28.146  28.452  1.00  0.00     0.074 A 
ATOM     36  C   UNL A   1      39.614  28.771  28.753  1.00  0.00     0.049 A 
ATOM     37  N   UNL A   1      42.591  29.219  28.892  1.00  0.00    -0.248 NA
ATOM     38  C   UNL A   1      42.892  27.111  27.935  1.00  0.00     0.031 C 
ATOM     39  C   UNL A   1      38.161  28.606  28.688  1.00  0.00     0.029 A 
ATOM     40  N   UNL A   1      39.784  30.049  29.222  1.00  0.00    -0.354 N 
ATOM     41  C   UNL A   1      43.951  28.986  28.722  1.00  0.00     0.074 A 
ATOM     42  C   UNL A   1      44.079  27.657  28.157  1.00  0.00     0.031 C 
ATOM     43  C   UNL A   1      37.573  29.743  29.095  1.00  0.00     0.029 A 
ATOM     44  C   UNL A   1      38.602  30.697  29.495  1.00  0.00     0.049 A 
ATOM     45  H   UNL A   1      40.669  30.463  29.351  1.00  0.00     0.167 HD
ATOM     46  C   UNL A   1      44.995  29.803  29.008  1.00  0.00     0.034 A 
ATOM     47  C   UNL A   1      38.375  31.912  30.035  1.00  0.00     0.034 A 
ATOM     48  C   UNL A   1      44.852  31.127  29.568  1.00  0.00     0.049 A 
ATOM     49  C   UNL A   1      39.552  32.774  30.415  1.00  0.00     0.074 A 
ATOM     50  C   UNL A   1      45.840  32.039  29.897  1.00  0.00     0.029 A 
ATOM     51  N   UNL A   1      43.641  31.728  29.888  1.00  0.00    -0.354 N 
ATOM     52  N   UNL A   1      40.835  32.525  30.281  1.00  0.00    -0.248 NA
ATOM     53  C   UNL A   1      39.250  34.077  31.021  1.00  0.00     0.031 C 
ATOM     54  C   UNL A   1      45.232  33.163  30.468  1.00  0.00     0.029 A 
ATOM     55  C   UNL A   1      43.859  32.983  30.437  1.00  0.00     0.049 A 
ATOM     56  H   UNL A   1      42.755  31.321  29.747  1.00  0.00     0.167 HD
ATOM     57  C   UNL A   1      41.491  33.650  30.772  1.00  0.00     0.074 A 
ATOM     58  C   UNL A   1      40.463  34.582  31.189  1.00  0.00     0.031 C 
ATOM     59  C   UNL A   1      42.824  33.892  30.868  1.00  0.00     0.034 A 
BRANCH  46  60
ATOM     60  C   UNL A   1      46.383  29.256  28.781  1.00  0.00     0.023 A 
ATOM     61  C   UNL A   1      46.924  29.105  27.492  1.00  0.00     0.031 A 
ATOM     62  C   UNL A   1      47.162  28.838  29.876  1.00  0.00     0.131 A 
ATOM     63  C   UNL A   1      48.175  28.489  27.328  1.00  0.00     0.055 A 
ATOM     64  C   UNL A   1      48.436  28.294  29.709  1.00  0.00     0.041 A 
ATOM     65  F   UNL A   1      46.688  28.937  31.128  1.00  0.00    -0.206 F 
ATOM     66  C   UNL A   1      48.945  28.103  28.428  1.00  0.00     0.022 A 
BRANCH  63  67
ATOM     67  S   UNL A   1      48.727  28.074  25.650  1.00  0.00     0.124 S 
ATOM     68  O   UNL A   1      49.948  28.868  25.538  1.00  0.00    -0.237 OA
ATOM     69  O   UNL A   1      48.906  26.629  25.726  1.00  0.00    -0.237 OA
ATOM     70  O   UNL A   1      47.623  28.521  24.804  1.00  0.00    -0.744 OA
ENDBRANCH  63  67
ENDBRANCH  46  60
BRANCH  47  71
ATOM     71  C   UNL A   1      36.982  32.367  30.305  1.00  0.00     0.023 A 
ATOM     72  C   UNL A   1      36.146  32.812  29.269  1.00  0.00     0.031 A 
ATOM     73  C   UNL A   1      36.482  32.401  31.619  1.00  0.00     0.131 A 
ATOM     74  C   UNL A   1      34.865  33.302  29.569  1.00  0.00     0.055 A 
ATOM     75  C   UNL A   1      35.191  32.845  31.907  1.00  0.00     0.041 A 
ATOM     76  F   UNL A   1      37.243  31.987  32.646  1.00  0.00    -0.206 F 
ATOM     77  C   UNL A   1      34.378  33.311  30.878  1.00  0.00     0.022 A 
BRANCH  74  78
ATOM     78  S   UNL A   1      33.862  33.995  28.226  1.00  0.00     0.124 S 
ATOM     79  O   UNL A   1      32.920  34.835  28.959  1.00  0.00    -0.237 OA
ATOM     80  O   UNL A   1      34.863  34.699  27.430  1.00  0.00    -0.237 OA
ATOM     81  O   UNL A   1      33.282  32.814  27.589  1.00  0.00    -0.744 OA
ENDBRANCH  74  78
ENDBRANCH  47  71
BRANCH  59  82
ATOM     82  C   UNL A   1      43.231  35.236  31.415  1.00  0.00     0.023 A 
ATOM     83  C   UNL A   1      43.539  36.315  30.567  1.00  0.00     0.031 A 
ATOM     84  C   UNL A   1      43.335  35.432  32.803  1.00  0.00     0.131 A 
ATOM     85  C   UNL A   1      43.982  37.528  31.115  1.00  0.00     0.055 A 
ATOM     86  C   UNL A   1      43.728  36.657  33.344  1.00  0.00     0.041 A 
ATOM     87  F   UNL A   1      43.055  34.434  33.656  1.00  0.00    -0.206 F 
ATOM     88  C   UNL A   1      44.067  37.710  32.498  1.00  0.00     0.022 A 
BRANCH  85  89
ATOM     89  S   UNL A   1      44.525  38.846  29.992  1.00  0.00     0.124 S 
ATOM     90  O   UNL A   1      44.287  38.248  28.682  1.00  0.00    -0.237 OA
ATOM     91  O   UNL A   1      43.647  39.951  30.358  1.00  0.00    -0.237 OA
ATOM     92  O   UNL A   1      45.933  39.035  30.340  1.00  0.00    -0.744 OA
ENDBRANCH  85  89
ENDBRANCH  59  82
ENDBRANCH  33  34
ENDBRANCH  26  28
ENDBRANCH  25  26
ENDBRANCH  24  25
ENDBRANCH   1  24
TORSDOF 18
ENDMDL
MODEL 3
REMARK VINA RESULT:     -11.3      1.373      2.795
REMARK SMILES Cc1ccc(O)c(C(=O)NCc2ccc(C(=O)OCCOC(=O)c3ccc(-c4c5nc(c(-c6cc(S(=O)(=O)[O-])ccc6F)c6ccc([nH]6)c(-c6cc(S(=O)(=O)[O-])ccc6F)c6nc(c(-c7cc(S(=O)(=O)[O-])ccc7F)c7ccc4[nH]7)C=C6)C=C5)cc3)o2)c1
REMARK SMILES IDX 19 1 18 2 16 3 17 4 15 5 12 6 13 7 87 8 14 9 11 10 10 11
REMARK SMILES IDX 8 12 9 13 7 15 1 16 2 17 3 18 88 19 4 20 5 21 6 22 20 24
REMARK SMILES IDX 21 25 22 26 23 27 24 28 25 29 86 30 26 31 85 32 27 33 28 34
REMARK SMILES IDX 29 35 79 36 30 37 84 38 78 39 80 40 31 41 83 42 77 43 76 44
REMARK SMILES IDX 32 46 64 47 44 48 63 49 45 50 48 51 62 52 81 53 46 54 47 55
REMARK SMILES IDX 61 57 82 58 49 59 33 60 34 61 42 62 35 63 41 64 43 65 40 66
REMARK SMILES IDX 36 67 37 68 38 69 39 70 65 71 66 72 74 73 67 74 73 75 75 76
REMARK SMILES IDX 72 77 68 78 69 79 70 80 71 81 50 82 51 83 59 84 52 85 58 86
REMARK SMILES IDX 60 87 57 88 53 89 54 90 55 91 56 92
REMARK H PARENT 10 14 6 23 80 45 48 56
REMARK Flexibility Score: inf
ROOT
ATOM      1  C   UNL A   1      35.276  20.626  25.095  1.00  0.00     0.275 C 
ENDROOT
BRANCH   1   2
ATOM      2  O   UNL A   1      35.014  21.937  25.628  1.00  0.00    -0.456 OA
BRANCH   2   3
ATOM      3  C   UNL A   1      34.026  22.012  26.569  1.00  0.00     0.374 C 
ATOM      4  O   UNL A   1      34.035  21.397  27.629  1.00  0.00    -0.242 OA
BRANCH   3   5
ATOM      5  C   UNL A   1      33.047  22.998  26.176  1.00  0.00     0.211 A 
ATOM      6  C   UNL A   1      31.661  23.888  24.704  1.00  0.00     0.124 A 
ATOM      7  C   UNL A   1      31.292  24.383  25.940  1.00  0.00     0.048 A 
ATOM      8  O   UNL A   1      32.791  23.139  24.837  1.00  0.00    -0.452 OA
ATOM      9  C   UNL A   1      32.177  23.806  26.886  1.00  0.00     0.058 A 
BRANCH   6  10
ATOM     10  C   UNL A   1      31.035  23.892  23.350  1.00  0.00     0.191 C 
BRANCH  10  11
ATOM     11  N   UNL A   1      32.026  24.378  22.410  1.00  0.00    -0.345 N 
ATOM     12  C   UNL A   1      32.695  25.556  22.238  1.00  0.00     0.255 C 
ATOM     13  O   UNL A   1      33.481  25.610  21.287  1.00  0.00    -0.269 OA
ATOM     14  H   UNL A   1      32.274  23.700  21.739  1.00  0.00     0.164 HD
BRANCH  12  15
ATOM     15  C   UNL A   1      32.570  26.766  23.100  1.00  0.00     0.081 A 
ATOM     16  C   UNL A   1      34.013  28.373  26.252  1.00  0.00     0.044 C 
ATOM     17  C   UNL A   1      33.175  28.154  25.027  1.00  0.00    -0.050 A 
ATOM     18  C   UNL A   1      32.226  29.107  24.648  1.00  0.00     0.007 A 
ATOM     19  C   UNL A   1      33.314  26.980  24.267  1.00  0.00     0.021 A 
ATOM     20  C   UNL A   1      31.443  28.895  23.518  1.00  0.00     0.047 A 
ATOM     21  C   UNL A   1      31.614  27.740  22.754  1.00  0.00     0.128 A 
BRANCH  21  22
ATOM     22  O   UNL A   1      30.775  27.639  21.673  1.00  0.00    -0.507 OA
ATOM     23  H   UNL A   1      29.986  27.139  21.738  1.00  0.00     0.293 HD
ENDBRANCH  21  22
ENDBRANCH  12  15
ENDBRANCH  10  11
ENDBRANCH   6  10
ENDBRANCH   3   5
ENDBRANCH   2   3
ENDBRANCH   1   2
BRANCH   1  24
ATOM     24  C   UNL A   1      36.782  20.351  24.996  1.00  0.00     0.275 C 
BRANCH  24  25
ATOM     25  O   UNL A   1      37.572  21.473  25.441  1.00  0.00    -0.458 OA
BRANCH  25  26
ATOM     26  C   UNL A   1      38.777  21.152  25.971  1.00  0.00     0.338 C 
ATOM     27  O   UNL A   1      39.316  20.059  25.942  1.00  0.00    -0.246 OA
BRANCH  26  28
ATOM     28  C   UNL A   1      39.446  22.364  26.480  1.00  0.00     0.060 A 
ATOM     29  C   UNL A   1      38.967  23.596  26.032  1.00  0.00     0.016 A 
ATOM     30  C   UNL A   1      40.563  22.310  27.314  1.00  0.00     0.016 A 
ATOM     31  C   UNL A   1      39.589  24.780  26.410  1.00  0.00     0.010 A 
ATOM     32  C   UNL A   1      41.195  23.504  27.695  1.00  0.00     0.010 A 
ATOM     33  C   UNL A   1      40.715  24.746  27.240  1.00  0.00    -0.014 A 
BRANCH  33  34
ATOM     34  C   UNL A   1      41.404  26.019  27.572  1.00  0.00     0.031 A 
ATOM     35  C   UNL A   1      40.699  27.058  28.397  1.00  0.00     0.074 A 
ATOM     36  C   UNL A   1      42.680  26.212  27.187  1.00  0.00     0.049 A 
ATOM     37  N   UNL A   1      41.108  28.246  28.760  1.00  0.00    -0.248 NA
ATOM     38  C   UNL A   1      39.355  26.708  28.878  1.00  0.00     0.031 C 
ATOM     39  C   UNL A   1      43.488  25.250  26.436  1.00  0.00     0.029 A 
ATOM     40  N   UNL A   1      43.524  27.277  27.381  1.00  0.00    -0.354 N 
ATOM     41  C   UNL A   1      40.067  28.797  29.499  1.00  0.00     0.074 A 
ATOM     42  C   UNL A   1      39.000  27.817  29.512  1.00  0.00     0.031 C 
ATOM     43  C   UNL A   1      44.713  25.766  26.241  1.00  0.00     0.029 A 
ATOM     44  C   UNL A   1      44.762  27.110  26.806  1.00  0.00     0.049 A 
ATOM     45  H   UNL A   1      43.267  28.083  27.884  1.00  0.00     0.167 HD
ATOM     46  C   UNL A   1      40.008  30.007  30.110  1.00  0.00     0.034 A 
ATOM     47  C   UNL A   1      45.808  27.958  26.720  1.00  0.00     0.034 A 
ATOM     48  C   UNL A   1      41.082  30.972  30.091  1.00  0.00     0.049 A 
ATOM     49  C   UNL A   1      45.692  29.326  27.342  1.00  0.00     0.074 A 
ATOM     50  C   UNL A   1      41.129  32.227  30.676  1.00  0.00     0.029 A 
ATOM     51  N   UNL A   1      42.301  30.794  29.447  1.00  0.00    -0.354 N 
ATOM     52  N   UNL A   1      44.687  29.848  28.008  1.00  0.00    -0.248 NA
ATOM     53  C   UNL A   1      46.849  30.218  27.199  1.00  0.00     0.031 C 
ATOM     54  C   UNL A   1      42.347  32.827  30.338  1.00  0.00     0.029 A 
ATOM     55  C   UNL A   1      43.091  31.924  29.596  1.00  0.00     0.049 A 
ATOM     56  H   UNL A   1      42.565  29.982  28.956  1.00  0.00     0.167 HD
ATOM     57  C   UNL A   1      45.101  31.125  28.375  1.00  0.00     0.074 A 
ATOM     58  C   UNL A   1      46.450  31.287  27.873  1.00  0.00     0.031 C 
ATOM     59  C   UNL A   1      44.426  32.077  29.069  1.00  0.00     0.034 A 
BRANCH  46  60
ATOM     60  C   UNL A   1      38.712  30.373  30.791  1.00  0.00     0.023 A 
ATOM     61  C   UNL A   1      37.666  31.017  30.108  1.00  0.00     0.031 A 
ATOM     62  C   UNL A   1      38.540  30.109  32.163  1.00  0.00     0.131 A 
ATOM     63  C   UNL A   1      36.525  31.434  30.812  1.00  0.00     0.055 A 
ATOM     64  C   UNL A   1      37.372  30.462  32.840  1.00  0.00     0.041 A 
ATOM     65  F   UNL A   1      39.514  29.518  32.872  1.00  0.00    -0.206 F 
ATOM     66  C   UNL A   1      36.361  31.142  32.168  1.00  0.00     0.022 A 
BRANCH  63  67
ATOM     67  S   UNL A   1      35.315  32.487  29.963  1.00  0.00     0.124 S 
ATOM     68  O   UNL A   1      34.827  31.590  28.919  1.00  0.00    -0.237 OA
ATOM     69  O   UNL A   1      34.373  32.805  31.029  1.00  0.00    -0.237 OA
ATOM     70  O   UNL A   1      36.115  33.611  29.483  1.00  0.00    -0.744 OA
ENDBRANCH  63  67
ENDBRANCH  46  60
BRANCH  47  71
ATOM     71  C   UNL A   1      47.034  27.566  25.968  1.00  0.00     0.023 A 
ATOM     72  C   UNL A   1      47.175  27.854  24.602  1.00  0.00     0.031 A 
ATOM     73  C   UNL A   1      48.068  26.856  26.605  1.00  0.00     0.131 A 
ATOM     74  C   UNL A   1      48.310  27.405  23.908  1.00  0.00     0.055 A 
ATOM     75  C   UNL A   1      49.216  26.453  25.922  1.00  0.00     0.041 A 
ATOM     76  F   UNL A   1      47.980  26.554  27.911  1.00  0.00    -0.206 F 
ATOM     77  C   UNL A   1      49.336  26.718  24.561  1.00  0.00     0.022 A 
BRANCH  74  78
ATOM     78  S   UNL A   1      48.398  27.675  22.117  1.00  0.00     0.124 S 
ATOM     79  O   UNL A   1      48.621  26.321  21.621  1.00  0.00    -0.237 OA
ATOM     80  O   UNL A   1      47.090  28.255  21.831  1.00  0.00    -0.237 OA
ATOM     81  O   UNL A   1      49.529  28.589  21.965  1.00  0.00    -0.744 OA
ENDBRANCH  74  78
ENDBRANCH  47  71
BRANCH  59  82
ATOM     82  C   UNL A   1      45.163  33.363  29.348  1.00  0.00     0.023 A 
ATOM     83  C   UNL A   1      45.210  34.405  28.405  1.00  0.00     0.031 A 
ATOM     84  C   UNL A   1      45.846  33.536  30.565  1.00  0.00     0.131 A 
ATOM     85  C   UNL A   1      45.966  35.556  28.675  1.00  0.00     0.055 A 
ATOM     86  C   UNL A   1      46.555  34.704  30.848  1.00  0.00     0.041 A 
ATOM     87  F   UNL A   1      45.835  32.571  31.497  1.00  0.00    -0.206 F 
ATOM     88  C   UNL A   1      46.628  35.717  29.896  1.00  0.00     0.022 A 
BRANCH  85  89
ATOM     89  S   UNL A   1      46.140  36.811  27.376  1.00  0.00     0.124 S 
ATOM     90  O   UNL A   1      46.118  35.999  26.164  1.00  0.00    -0.237 OA
ATOM     91  O   UNL A   1      44.973  37.656  27.600  1.00  0.00    -0.237 OA
ATOM     92  O   UNL A   1      47.425  37.440  27.677  1.00  0.00    -0.744 OA
ENDBRANCH  85  89
ENDBRANCH  59  82
ENDBRANCH  33  34
ENDBRANCH  26  28
ENDBRANCH  25  26
ENDBRANCH  24  25
ENDBRANCH   1  24
TORSDOF 18
ENDMDL
