MODEL 1
REMARK VINA RESULT:     -12.4      0.000      0.000
REMARK SMILES CC(C)(C)N(CC(=O)OCCOC(=O)c1ccc(-c2c3nc(c(-c4cc(S(=O)(=O)[O-])ccc4F)c4ccc([nH]4)c(-c4cc(S(=O)(=O)[O-])ccc4F)c4nc(c(-c5cc(S(=O)(=O)[O-])ccc5F)c5ccc2[nH]5)C=C4)C=C3)cc1)C(=O)Nc1ccc([N+](=O)[O-])cc1
REMARK SMILES IDX 10 1 9 2 7 3 8 4 6 5 5 6 2 7 1 8 3 9 4 10 78 11 79 12 80 13
REMARK SMILES IDX 81 15 82 16 89 17 83 18 88 19 84 20 85 21 86 22 87 23 11 24
REMARK SMILES IDX 12 25 13 26 14 27 15 28 16 29 77 30 17 31 76 32 18 33 19 34
REMARK SMILES IDX 20 35 70 36 21 37 75 38 69 39 71 40 22 41 74 42 68 43 67 44
REMARK SMILES IDX 23 46 55 47 35 48 54 49 36 50 39 51 53 52 72 53 37 54 38 55
REMARK SMILES IDX 52 57 73 58 40 59 24 60 25 61 33 62 26 63 32 64 34 65 31 66
REMARK SMILES IDX 27 67 28 68 29 69 30 70 56 71 57 72 65 73 58 74 64 75 66 76
REMARK SMILES IDX 63 77 59 78 60 79 61 80 62 81 41 82 42 83 50 84 43 85 49 86
REMARK SMILES IDX 51 87 48 88 44 89 45 90 46 91 47 92
REMARK H PARENT 80 14 71 45 39 56
REMARK Flexibility Score: inf
ROOT
ATOM      1  C   UNL A   1      31.956  27.763  25.601  1.00  0.00     0.274 C 
ENDROOT
BRANCH   1   2
ATOM      2  O   UNL A   1      31.908  26.512  26.380  1.00  0.00    -0.461 OA
BRANCH   2   3
ATOM      3  C   UNL A   1      30.895  25.617  26.084  1.00  0.00     0.325 C 
ATOM      4  O   UNL A   1      29.725  25.958  25.927  1.00  0.00    -0.250 OA
BRANCH   3   5
ATOM      5  C   UNL A   1      31.427  24.206  25.605  1.00  0.00     0.244 C 
BRANCH   5   6
ATOM      6  N   UNL A   1      32.642  24.151  24.775  1.00  0.00    -0.309 N 
BRANCH   6   7
ATOM      7  C   UNL A   1      32.397  24.453  23.303  1.00  0.00     0.037 C 
ATOM      8  C   UNL A   1      32.903  25.857  22.843  1.00  0.00     0.034 C 
ATOM      9  C   UNL A   1      30.889  24.432  23.002  1.00  0.00     0.034 C 
ATOM     10  C   UNL A   1      33.174  23.465  22.397  1.00  0.00     0.034 C 
ENDBRANCH   6   7
BRANCH   6  11
ATOM     11  C   UNL A   1      33.951  23.851  25.160  1.00  0.00     0.322 C 
ATOM     12  O   UNL A   1      34.756  24.766  25.387  1.00  0.00    -0.248 OA
ATOM     13  N   UNL A   1      34.480  22.627  25.439  1.00  0.00    -0.308 N 
ATOM     14  H   UNL A   1      35.264  22.712  26.029  1.00  0.00     0.171 HD
BRANCH  13  15
ATOM     15  C   UNL A   1      34.236  21.287  25.134  1.00  0.00     0.043 A 
ATOM     16  C   UNL A   1      32.591  20.556  24.997  1.00  0.00     0.033 A 
ATOM     17  C   UNL A   1      35.562  20.177  24.953  1.00  0.00     0.033 A 
ATOM     18  C   UNL A   1      32.480  18.571  24.599  1.00  0.00     0.088 A 
ATOM     19  C   UNL A   1      35.477  18.446  24.595  1.00  0.00     0.088 A 
ATOM     20  C   UNL A   1      33.980  17.637  24.414  1.00  0.00     0.269 A 
BRANCH  20  21
ATOM     21  N   UNL A   1      33.975  16.292  23.897  1.00  0.00     0.062 N 
ATOM     22  O   UNL A   1      34.290  16.134  22.717  1.00  0.00    -0.258 OA
ATOM     23  O   UNL A   1      33.675  15.393  24.694  1.00  0.00    -0.258 OA
ENDBRANCH  20  21
ENDBRANCH  13  15
ENDBRANCH   6  11
ENDBRANCH   5   6
ENDBRANCH   3   5
ENDBRANCH   2   3
ENDBRANCH   1   2
BRANCH   1  24
ATOM     24  C   UNL A   1      31.722  29.026  26.496  1.00  0.00     0.275 C 
BRANCH  24  25
ATOM     25  O   UNL A   1      32.534  30.148  26.035  1.00  0.00    -0.458 OA
BRANCH  25  26
ATOM     26  C   UNL A   1      32.618  31.242  26.852  1.00  0.00     0.338 C 
ATOM     27  O   UNL A   1      31.650  31.964  27.068  1.00  0.00    -0.246 OA
BRANCH  26  28
ATOM     28  C   UNL A   1      34.026  31.516  27.628  1.00  0.00     0.060 A 
ATOM     29  C   UNL A   1      35.384  33.008  27.895  1.00  0.00     0.016 A 
ATOM     30  C   UNL A   1      34.616  29.833  27.937  1.00  0.00     0.016 A 
ATOM     31  C   UNL A   1      37.057  32.607  28.371  1.00  0.00     0.010 A 
ATOM     32  C   UNL A   1      36.284  29.597  28.441  1.00  0.00     0.010 A 
ATOM     33  C   UNL A   1      37.444  30.932  28.664  1.00  0.00    -0.014 A 
BRANCH  33  34
ATOM     34  C   UNL A   1      38.673  30.617  29.426  1.00  0.00     0.031 A 
ATOM     35  C   UNL A   1      39.599  29.585  28.878  1.00  0.00     0.074 A 
ATOM     36  C   UNL A   1      38.809  31.131  30.666  1.00  0.00     0.049 A 
ATOM     37  N   UNL A   1      40.552  28.929  29.476  1.00  0.00    -0.248 NA
ATOM     38  C   UNL A   1      39.396  29.217  27.469  1.00  0.00     0.031 C 
ATOM     39  C   UNL A   1      37.940  32.142  31.283  1.00  0.00     0.029 A 
ATOM     40  N   UNL A   1      39.699  30.835  31.668  1.00  0.00    -0.354 N 
ATOM     41  C   UNL A   1      41.055  28.053  28.522  1.00  0.00     0.074 A 
ATOM     42  C   UNL A   1      40.257  28.221  27.328  1.00  0.00     0.031 C 
ATOM     43  C   UNL A   1      38.309  32.353  32.551  1.00  0.00     0.029 A 
ATOM     44  C   UNL A   1      39.403  31.455  32.865  1.00  0.00     0.049 A 
ATOM     45  H   UNL A   1      40.472  30.238  31.545  1.00  0.00     0.167 HD
ATOM     46  C   UNL A   1      42.101  27.200  28.647  1.00  0.00     0.034 A 
ATOM     47  C   UNL A   1      39.923  31.286  34.095  1.00  0.00     0.034 A 
ATOM     48  C   UNL A   1      42.839  27.062  29.878  1.00  0.00     0.049 A 
ATOM     49  C   UNL A   1      41.041  30.295  34.229  1.00  0.00     0.074 A 
ATOM     50  C   UNL A   1      43.924  26.253  30.156  1.00  0.00     0.029 A 
ATOM     51  N   UNL A   1      42.545  27.755  31.053  1.00  0.00    -0.354 N 
ATOM     52  N   UNL A   1      41.530  29.486  33.315  1.00  0.00    -0.248 NA
ATOM     53  C   UNL A   1      41.697  30.208  35.534  1.00  0.00     0.031 C 
ATOM     54  C   UNL A   1      44.241  26.406  31.510  1.00  0.00     0.029 A 
ATOM     55  C   UNL A   1      43.415  27.377  32.059  1.00  0.00     0.049 A 
ATOM     56  H   UNL A   1      41.823  28.416  31.150  1.00  0.00     0.167 HD
ATOM     57  C   UNL A   1      42.595  28.834  33.920  1.00  0.00     0.074 A 
ATOM     58  C   UNL A   1      42.663  29.337  35.281  1.00  0.00     0.031 C 
ATOM     59  C   UNL A   1      43.449  27.920  33.399  1.00  0.00     0.034 A 
BRANCH  46  60
ATOM     60  C   UNL A   1      42.447  26.351  27.447  1.00  0.00     0.023 A 
ATOM     61  C   UNL A   1      41.937  25.049  27.296  1.00  0.00     0.031 A 
ATOM     62  C   UNL A   1      43.360  26.809  26.481  1.00  0.00     0.131 A 
ATOM     63  C   UNL A   1      42.419  24.217  26.275  1.00  0.00     0.055 A 
ATOM     64  C   UNL A   1      43.765  26.009  25.410  1.00  0.00     0.041 A 
ATOM     65  F   UNL A   1      43.904  28.033  26.580  1.00  0.00    -0.206 F 
ATOM     66  C   UNL A   1      43.311  24.697  25.313  1.00  0.00     0.022 A 
BRANCH  63  67
ATOM     67  S   UNL A   1      42.007  22.451  26.332  1.00  0.00     0.124 S 
ATOM     68  O   UNL A   1      42.632  21.966  25.104  1.00  0.00    -0.237 OA
ATOM     69  O   UNL A   1      42.631  22.022  27.578  1.00  0.00    -0.237 OA
ATOM     70  O   UNL A   1      40.547  22.439  26.328  1.00  0.00    -0.744 OA
ENDBRANCH  63  67
ENDBRANCH  46  60
BRANCH  47  71
ATOM     71  C   UNL A   1      39.405  32.069  35.253  1.00  0.00     0.023 A 
ATOM     72  C   UNL A   1      39.824  33.390  35.470  1.00  0.00     0.031 A 
ATOM     73  C   UNL A   1      38.469  31.523  36.152  1.00  0.00     0.131 A 
ATOM     74  C   UNL A   1      39.342  34.109  36.576  1.00  0.00     0.055 A 
ATOM     75  C   UNL A   1      37.952  32.259  37.222  1.00  0.00     0.041 A 
ATOM     76  F   UNL A   1      38.021  30.269  35.986  1.00  0.00    -0.206 F 
ATOM     77  C   UNL A   1      38.399  33.558  37.447  1.00  0.00     0.022 A 
BRANCH  74  78
ATOM     78  S   UNL A   1      40.032  35.754  36.905  1.00  0.00     0.124 S 
ATOM     79  O   UNL A   1      41.455  35.461  37.026  1.00  0.00    -0.237 OA
ATOM     80  O   UNL A   1      39.627  36.493  35.714  1.00  0.00    -0.237 OA
ATOM     81  O   UNL A   1      39.371  36.160  38.143  1.00  0.00    -0.744 OA
ENDBRANCH  74  78
ENDBRANCH  47  71
BRANCH  59  82
ATOM     82  C   UNL A   1      44.580  27.477  34.283  1.00  0.00     0.023 A 
ATOM     83  C   UNL A   1      44.510  26.303  35.047  1.00  0.00     0.031 A 
ATOM     84  C   UNL A   1      45.759  28.243  34.334  1.00  0.00     0.131 A 
ATOM     85  C   UNL A   1      45.590  25.946  35.864  1.00  0.00     0.055 A 
ATOM     86  C   UNL A   1      46.854  27.847  35.097  1.00  0.00     0.041 A 
ATOM     87  F   UNL A   1      45.866  29.378  33.625  1.00  0.00    -0.206 F 
ATOM     88  C   UNL A   1      46.770  26.696  35.874  1.00  0.00     0.022 A 
BRANCH  85  89
ATOM     89  S   UNL A   1      45.404  24.523  36.969  1.00  0.00     0.124 S 
ATOM     90  O   UNL A   1      46.760  23.981  36.994  1.00  0.00    -0.237 OA
ATOM     91  O   UNL A   1      44.944  25.144  38.207  1.00  0.00    -0.237 OA
ATOM     92  O   UNL A   1      44.416  23.688  36.289  1.00  0.00    -0.744 OA
ENDBRANCH  85  89
ENDBRANCH  59  82
ENDBRANCH  33  34
ENDBRANCH  26  28
ENDBRANCH  25  26
ENDBRANCH  24  25
ENDBRANCH   1  24
TORSDOF 19
ENDMDL
MODEL 2
REMARK VINA RESULT:     -12.0      2.195      4.365
REMARK SMILES CC(C)(C)N(CC(=O)OCCOC(=O)c1ccc(-c2c3nc(c(-c4cc(S(=O)(=O)[O-])ccc4F)c4ccc([nH]4)c(-c4cc(S(=O)(=O)[O-])ccc4F)c4nc(c(-c5cc(S(=O)(=O)[O-])ccc5F)c5ccc2[nH]5)C=C4)C=C3)cc1)C(=O)Nc1ccc([N+](=O)[O-])cc1
REMARK SMILES IDX 10 1 9 2 7 3 8 4 6 5 5 6 2 7 1 8 3 9 4 10 78 11 79 12 80 13
REMARK SMILES IDX 81 15 82 16 89 17 83 18 88 19 84 20 85 21 86 22 87 23 11 24
REMARK SMILES IDX 12 25 13 26 14 27 15 28 16 29 77 30 17 31 76 32 18 33 19 34
REMARK SMILES IDX 20 35 70 36 21 37 75 38 69 39 71 40 22 41 74 42 68 43 67 44
REMARK SMILES IDX 23 46 55 47 35 48 54 49 36 50 39 51 53 52 72 53 37 54 38 55
REMARK SMILES IDX 52 57 73 58 40 59 24 60 25 61 33 62 26 63 32 64 34 65 31 66
REMARK SMILES IDX 27 67 28 68 29 69 30 70 56 71 57 72 65 73 58 74 64 75 66 76
REMARK SMILES IDX 63 77 59 78 60 79 61 80 62 81 41 82 42 83 50 84 43 85 49 86
REMARK SMILES IDX 51 87 48 88 44 89 45 90 46 91 47 92
REMARK H PARENT 80 14 71 45 39 56
REMARK Flexibility Score: inf
ROOT
ATOM      1  C   UNL A   1      31.648  28.391  27.137  1.00  0.00     0.274 C 
ENDROOT
BRANCH   1   2
ATOM      2  O   UNL A   1      31.663  27.002  26.642  1.00  0.00    -0.461 OA
BRANCH   2   3
ATOM      3  C   UNL A   1      32.877  26.492  26.215  1.00  0.00     0.325 C 
ATOM      4  O   UNL A   1      33.880  27.186  26.065  1.00  0.00    -0.250 OA
BRANCH   3   5
ATOM      5  C   UNL A   1      32.957  24.914  26.299  1.00  0.00     0.244 C 
BRANCH   5   6
ATOM      6  N   UNL A   1      32.621  24.123  25.104  1.00  0.00    -0.309 N 
BRANCH   6   7
ATOM      7  C   UNL A   1      33.826  23.763  24.245  1.00  0.00     0.037 C 
ATOM      8  C   UNL A   1      33.864  22.270  23.787  1.00  0.00     0.034 C 
ATOM      9  C   UNL A   1      35.126  23.992  25.034  1.00  0.00     0.034 C 
ATOM     10  C   UNL A   1      33.817  24.557  22.915  1.00  0.00     0.034 C 
ENDBRANCH   6   7
BRANCH   6  11
ATOM     11  C   UNL A   1      31.368  23.687  24.667  1.00  0.00     0.322 C 
ATOM     12  O   UNL A   1      31.084  22.481  24.702  1.00  0.00    -0.248 OA
ATOM     13  N   UNL A   1      30.307  24.449  24.278  1.00  0.00    -0.308 N 
ATOM     14  H   UNL A   1      29.463  23.951  24.384  1.00  0.00     0.171 HD
BRANCH  13  15
ATOM     15  C   UNL A   1      30.066  25.728  23.774  1.00  0.00     0.043 A 
ATOM     16  C   UNL A   1      31.324  26.781  23.021  1.00  0.00     0.033 A 
ATOM     17  C   UNL A   1      28.491  26.447  23.938  1.00  0.00     0.033 A 
ATOM     18  C   UNL A   1      30.753  28.628  22.410  1.00  0.00     0.088 A 
ATOM     19  C   UNL A   1      27.980  28.053  23.398  1.00  0.00     0.088 A 
ATOM     20  C   UNL A   1      29.067  29.139  22.645  1.00  0.00     0.269 A 
BRANCH  20  21
ATOM     21  N   UNL A   1      28.544  30.328  22.023  1.00  0.00     0.062 N 
ATOM     22  O   UNL A   1      28.559  31.369  22.681  1.00  0.00    -0.258 OA
ATOM     23  O   UNL A   1      28.141  30.213  20.858  1.00  0.00    -0.258 OA
ENDBRANCH  20  21
ENDBRANCH  13  15
ENDBRANCH   6  11
ENDBRANCH   5   6
ENDBRANCH   3   5
ENDBRANCH   2   3
ENDBRANCH   1   2
BRANCH   1  24
ATOM     24  C   UNL A   1      31.460  29.429  25.980  1.00  0.00     0.275 C 
BRANCH  24  25
ATOM     25  O   UNL A   1      32.598  30.340  25.908  1.00  0.00    -0.458 OA
BRANCH  25  26
ATOM     26  C   UNL A   1      32.647  31.360  26.818  1.00  0.00     0.338 C 
ATOM     27  O   UNL A   1      31.653  32.021  27.103  1.00  0.00    -0.246 OA
BRANCH  26  28
ATOM     28  C   UNL A   1      34.049  31.619  27.608  1.00  0.00     0.060 A 
ATOM     29  C   UNL A   1      35.414  33.101  27.899  1.00  0.00     0.016 A 
ATOM     30  C   UNL A   1      34.628  29.931  27.907  1.00  0.00     0.016 A 
ATOM     31  C   UNL A   1      37.080  32.688  28.384  1.00  0.00     0.010 A 
ATOM     32  C   UNL A   1      36.291  29.682  28.422  1.00  0.00     0.010 A 
ATOM     33  C   UNL A   1      37.457  31.009  28.666  1.00  0.00    -0.014 A 
BRANCH  33  34
ATOM     34  C   UNL A   1      38.677  30.680  29.435  1.00  0.00     0.031 A 
ATOM     35  C   UNL A   1      39.596  29.638  28.892  1.00  0.00     0.074 A 
ATOM     36  C   UNL A   1      38.811  31.192  30.676  1.00  0.00     0.049 A 
ATOM     37  N   UNL A   1      40.538  28.972  29.495  1.00  0.00    -0.248 NA
ATOM     38  C   UNL A   1      39.396  29.272  27.482  1.00  0.00     0.031 C 
ATOM     39  C   UNL A   1      37.950  32.212  31.288  1.00  0.00     0.029 A 
ATOM     40  N   UNL A   1      39.692  30.887  31.683  1.00  0.00    -0.354 N 
ATOM     41  C   UNL A   1      41.037  28.091  28.545  1.00  0.00     0.074 A 
ATOM     42  C   UNL A   1      40.248  28.268  27.345  1.00  0.00     0.031 C 
ATOM     43  C   UNL A   1      38.314  32.419  32.558  1.00  0.00     0.029 A 
ATOM     44  C   UNL A   1      39.396  31.509  32.878  1.00  0.00     0.049 A 
ATOM     45  H   UNL A   1      40.460  30.282  31.564  1.00  0.00     0.167 HD
ATOM     46  C   UNL A   1      42.073  27.227  28.675  1.00  0.00     0.034 A 
ATOM     47  C   UNL A   1      39.907  31.334  34.111  1.00  0.00     0.034 A 
ATOM     48  C   UNL A   1      42.802  27.080  29.911  1.00  0.00     0.049 A 
ATOM     49  C   UNL A   1      41.014  30.332  34.251  1.00  0.00     0.074 A 
ATOM     50  C   UNL A   1      43.877  26.260  30.195  1.00  0.00     0.029 A 
ATOM     51  N   UNL A   1      42.509  27.776  31.084  1.00  0.00    -0.354 N 
ATOM     52  N   UNL A   1      41.499  29.518  33.340  1.00  0.00    -0.248 NA
ATOM     53  C   UNL A   1      41.661  30.237  35.561  1.00  0.00     0.031 C 
ATOM     54  C   UNL A   1      44.188  26.410  31.551  1.00  0.00     0.029 A 
ATOM     55  C   UNL A   1      43.369  27.389  32.095  1.00  0.00     0.049 A 
ATOM     56  H   UNL A   1      41.793  28.445  31.177  1.00  0.00     0.167 HD
ATOM     57  C   UNL A   1      42.553  28.854  33.951  1.00  0.00     0.074 A 
ATOM     58  C   UNL A   1      42.619  29.356  35.312  1.00  0.00     0.031 C 
ATOM     59  C   UNL A   1      43.401  27.931  33.435  1.00  0.00     0.034 A 
BRANCH  46  60
ATOM     60  C   UNL A   1      42.417  26.375  27.477  1.00  0.00     0.023 A 
ATOM     61  C   UNL A   1      41.921  25.066  27.339  1.00  0.00     0.031 A 
ATOM     62  C   UNL A   1      43.315  26.837  26.499  1.00  0.00     0.131 A 
ATOM     63  C   UNL A   1      42.402  24.233  26.318  1.00  0.00     0.055 A 
ATOM     64  C   UNL A   1      43.718  26.035  25.429  1.00  0.00     0.041 A 
ATOM     65  F   UNL A   1      43.846  28.068  26.585  1.00  0.00    -0.206 F 
ATOM     66  C   UNL A   1      43.279  24.717  25.345  1.00  0.00     0.022 A 
BRANCH  63  67
ATOM     67  S   UNL A   1      42.011  22.463  26.391  1.00  0.00     0.124 S 
ATOM     68  O   UNL A   1      40.557  22.480  26.247  1.00  0.00    -0.237 OA
ATOM     69  O   UNL A   1      42.756  21.928  25.258  1.00  0.00    -0.237 OA
ATOM     70  O   UNL A   1      42.496  22.057  27.707  1.00  0.00    -0.744 OA
ENDBRANCH  63  67
ENDBRANCH  46  60
BRANCH  47  71
ATOM     71  C   UNL A   1      39.391  32.123  35.267  1.00  0.00     0.023 A 
ATOM     72  C   UNL A   1      39.832  33.435  35.493  1.00  0.00     0.031 A 
ATOM     73  C   UNL A   1      38.435  31.591  36.154  1.00  0.00     0.131 A 
ATOM     74  C   UNL A   1      39.351  34.159  36.597  1.00  0.00     0.055 A 
ATOM     75  C   UNL A   1      37.920  32.333  37.220  1.00  0.00     0.041 A 
ATOM     76  F   UNL A   1      37.966  30.346  35.978  1.00  0.00    -0.206 F 
ATOM     77  C   UNL A   1      38.388  33.622  37.455  1.00  0.00     0.022 A 
BRANCH  74  78
ATOM     78  S   UNL A   1      40.067  35.789  36.939  1.00  0.00     0.124 S 
ATOM     79  O   UNL A   1      39.705  36.531  35.737  1.00  0.00    -0.237 OA
ATOM     80  O   UNL A   1      39.372  36.172  38.163  1.00  0.00    -0.237 OA
ATOM     81  O   UNL A   1      41.493  35.510  37.095  1.00  0.00    -0.744 OA
ENDBRANCH  74  78
ENDBRANCH  47  71
BRANCH  59  82
ATOM     82  C   UNL A   1      44.523  27.476  34.326  1.00  0.00     0.023 A 
ATOM     83  C   UNL A   1      45.749  28.154  34.379  1.00  0.00     0.031 A 
ATOM     84  C   UNL A   1      44.336  26.355  35.154  1.00  0.00     0.131 A 
ATOM     85  C   UNL A   1      46.764  27.677  35.219  1.00  0.00     0.055 A 
ATOM     86  C   UNL A   1      45.325  25.927  36.035  1.00  0.00     0.041 A 
ATOM     87  F   UNL A   1      43.180  25.673  35.130  1.00  0.00    -0.206 F 
ATOM     88  C   UNL A   1      46.551  26.585  36.065  1.00  0.00     0.022 A 
BRANCH  85  89
ATOM     89  S   UNL A   1      48.394  28.464  35.138  1.00  0.00     0.124 S 
ATOM     90  O   UNL A   1      48.046  29.882  35.178  1.00  0.00    -0.237 OA
ATOM     91  O   UNL A   1      49.057  27.937  36.326  1.00  0.00    -0.237 OA
ATOM     92  O   UNL A   1      48.938  27.995  33.865  1.00  0.00    -0.744 OA
ENDBRANCH  85  89
ENDBRANCH  59  82
ENDBRANCH  33  34
ENDBRANCH  26  28
ENDBRANCH  25  26
ENDBRANCH  24  25
ENDBRANCH   1  24
TORSDOF 19
ENDMDL
MODEL 3
REMARK VINA RESULT:     -11.5      4.856     10.430
REMARK SMILES CC(C)(C)N(CC(=O)OCCOC(=O)c1ccc(-c2c3nc(c(-c4cc(S(=O)(=O)[O-])ccc4F)c4ccc([nH]4)c(-c4cc(S(=O)(=O)[O-])ccc4F)c4nc(c(-c5cc(S(=O)(=O)[O-])ccc5F)c5ccc2[nH]5)C=C4)C=C3)cc1)C(=O)Nc1ccc([N+](=O)[O-])cc1
REMARK SMILES IDX 10 1 9 2 7 3 8 4 6 5 5 6 2 7 1 8 3 9 4 10 78 11 79 12 80 13
REMARK SMILES IDX 81 15 82 16 89 17 83 18 88 19 84 20 85 21 86 22 87 23 11 24
REMARK SMILES IDX 12 25 13 26 14 27 15 28 16 29 77 30 17 31 76 32 18 33 19 34
REMARK SMILES IDX 20 35 70 36 21 37 75 38 69 39 71 40 22 41 74 42 68 43 67 44
REMARK SMILES IDX 23 46 55 47 35 48 54 49 36 50 39 51 53 52 72 53 37 54 38 55
REMARK SMILES IDX 52 57 73 58 40 59 24 60 25 61 33 62 26 63 32 64 34 65 31 66
REMARK SMILES IDX 27 67 28 68 29 69 30 70 56 71 57 72 65 73 58 74 64 75 66 76
REMARK SMILES IDX 63 77 59 78 60 79 61 80 62 81 41 82 42 83 50 84 43 85 49 86
REMARK SMILES IDX 51 87 48 88 44 89 45 90 46 91 47 92
REMARK H PARENT 80 14 71 45 39 56
REMARK Flexibility Score: inf
ROOT
ATOM      1  C   UNL A   1      34.808  21.035  24.698  1.00  0.00     0.274 C 
ENDROOT
BRANCH   1   2
ATOM      2  O   UNL A   1      34.296  21.106  26.079  1.00  0.00    -0.461 OA
BRANCH   2   3
ATOM      3  C   UNL A   1      33.879  22.342  26.541  1.00  0.00     0.325 C 
ATOM      4  O   UNL A   1      33.979  22.686  27.716  1.00  0.00    -0.250 OA
BRANCH   3   5
ATOM      5  C   UNL A   1      33.618  23.387  25.383  1.00  0.00     0.244 C 
BRANCH   5   6
ATOM      6  N   UNL A   1      32.292  23.420  24.742  1.00  0.00    -0.309 N 
BRANCH   6   7
ATOM      7  C   UNL A   1      32.339  23.295  23.226  1.00  0.00     0.037 C 
ATOM      8  C   UNL A   1      31.372  24.264  22.472  1.00  0.00     0.034 C 
ATOM      9  C   UNL A   1      31.927  21.876  22.797  1.00  0.00     0.034 C 
ATOM     10  C   UNL A   1      33.739  23.673  22.679  1.00  0.00     0.034 C 
ENDBRANCH   6   7
BRANCH   6  11
ATOM     11  C   UNL A   1      31.036  23.561  25.337  1.00  0.00     0.322 C 
ATOM     12  O   UNL A   1      30.498  22.589  25.887  1.00  0.00    -0.248 OA
ATOM     13  N   UNL A   1      30.313  24.704  25.502  1.00  0.00    -0.308 N 
ATOM     14  H   UNL A   1      29.680  24.611  26.251  1.00  0.00     0.171 HD
BRANCH  13  15
ATOM     15  C   UNL A   1      30.208  25.969  24.921  1.00  0.00     0.043 A 
ATOM     16  C   UNL A   1      31.441  27.276  25.093  1.00  0.00     0.033 A 
ATOM     17  C   UNL A   1      28.775  26.406  24.038  1.00  0.00     0.033 A 
ATOM     18  C   UNL A   1      31.048  29.055  24.204  1.00  0.00     0.088 A 
ATOM     19  C   UNL A   1      28.427  27.951  23.249  1.00  0.00     0.088 A 
ATOM     20  C   UNL A   1      29.524  29.263  23.314  1.00  0.00     0.269 A 
BRANCH  20  21
ATOM     21  N   UNL A   1      29.294  30.405  22.466  1.00  0.00     0.062 N 
ATOM     22  O   UNL A   1      28.951  31.457  23.007  1.00  0.00    -0.258 OA
ATOM     23  O   UNL A   1      29.485  30.243  21.253  1.00  0.00    -0.258 OA
ENDBRANCH  20  21
ENDBRANCH  13  15
ENDBRANCH   6  11
ENDBRANCH   5   6
ENDBRANCH   3   5
ENDBRANCH   2   3
ENDBRANCH   1   2
BRANCH   1  24
ATOM     24  C   UNL A   1      36.239  21.656  24.566  1.00  0.00     0.275 C 
BRANCH  24  25
ATOM     25  O   UNL A   1      37.008  21.456  25.790  1.00  0.00    -0.458 OA
BRANCH  25  26
ATOM     26  C   UNL A   1      38.311  21.062  25.659  1.00  0.00     0.338 C 
ATOM     27  O   UNL A   1      38.631  20.109  24.955  1.00  0.00    -0.246 OA
BRANCH  26  28
ATOM     28  C   UNL A   1      39.462  21.959  26.385  1.00  0.00     0.060 A 
ATOM     29  C   UNL A   1      40.881  21.783  27.834  1.00  0.00     0.016 A 
ATOM     30  C   UNL A   1      38.930  23.643  25.988  1.00  0.00     0.016 A 
ATOM     31  C   UNL A   1      41.496  23.244  28.653  1.00  0.00     0.010 A 
ATOM     32  C   UNL A   1      39.658  24.989  26.853  1.00  0.00     0.010 A 
ATOM     33  C   UNL A   1      40.899  24.793  28.118  1.00  0.00    -0.014 A 
BRANCH  33  34
ATOM     34  C   UNL A   1      41.662  26.006  28.487  1.00  0.00     0.031 A 
ATOM     35  C   UNL A   1      40.928  27.135  29.128  1.00  0.00     0.074 A 
ATOM     36  C   UNL A   1      42.937  26.118  28.059  1.00  0.00     0.049 A 
ATOM     37  N   UNL A   1      41.284  28.380  29.266  1.00  0.00    -0.248 NA
ATOM     38  C   UNL A   1      39.591  26.821  29.652  1.00  0.00     0.031 C 
ATOM     39  C   UNL A   1      43.728  25.063  27.414  1.00  0.00     0.029 A 
ATOM     40  N   UNL A   1      43.788  27.194  28.045  1.00  0.00    -0.354 N 
ATOM     41  C   UNL A   1      40.207  29.008  29.878  1.00  0.00     0.074 A 
ATOM     42  C   UNL A   1      39.164  28.017  30.026  1.00  0.00     0.031 C 
ATOM     43  C   UNL A   1      44.917  25.544  27.038  1.00  0.00     0.029 A 
ATOM     44  C   UNL A   1      44.961  26.956  27.359  1.00  0.00     0.049 A 
ATOM     45  H   UNL A   1      43.582  28.052  28.482  1.00  0.00     0.167 HD
ATOM     46  C   UNL A   1      40.121  30.297  30.287  1.00  0.00     0.034 A 
ATOM     47  C   UNL A   1      45.946  27.794  26.984  1.00  0.00     0.034 A 
ATOM     48  C   UNL A   1      41.191  31.243  30.085  1.00  0.00     0.049 A 
ATOM     49  C   UNL A   1      45.808  29.231  27.393  1.00  0.00     0.074 A 
ATOM     50  C   UNL A   1      41.257  32.573  30.451  1.00  0.00     0.029 A 
ATOM     51  N   UNL A   1      42.390  30.946  29.438  1.00  0.00    -0.354 N 
ATOM     52  N   UNL A   1      44.796  29.814  27.997  1.00  0.00    -0.248 NA
ATOM     53  C   UNL A   1      46.938  30.114  27.105  1.00  0.00     0.031 C 
ATOM     54  C   UNL A   1      42.462  33.095  29.968  1.00  0.00     0.029 A 
ATOM     55  C   UNL A   1      43.191  32.071  29.379  1.00  0.00     0.049 A 
ATOM     56  H   UNL A   1      42.631  30.063  29.076  1.00  0.00     0.167 HD
ATOM     57  C   UNL A   1      45.194  31.126  28.215  1.00  0.00     0.074 A 
ATOM     58  C   UNL A   1      46.532  31.245  27.665  1.00  0.00     0.031 C 
ATOM     59  C   UNL A   1      44.527  32.134  28.829  1.00  0.00     0.034 A 
BRANCH  46  60
ATOM     60  C   UNL A   1      38.826  30.732  30.934  1.00  0.00     0.023 A 
ATOM     61  C   UNL A   1      37.810  31.360  30.193  1.00  0.00     0.031 A 
ATOM     62  C   UNL A   1      38.633  30.595  32.320  1.00  0.00     0.131 A 
ATOM     63  C   UNL A   1      36.703  31.920  30.848  1.00  0.00     0.055 A 
ATOM     64  C   UNL A   1      37.483  31.069  32.954  1.00  0.00     0.041 A 
ATOM     65  F   UNL A   1      39.575  30.027  33.089  1.00  0.00    -0.206 F 
ATOM     66  C   UNL A   1      36.518  31.756  32.222  1.00  0.00     0.022 A 
BRANCH  63  67
ATOM     67  S   UNL A   1      35.608  33.020  29.908  1.00  0.00     0.124 S 
ATOM     68  O   UNL A   1      35.046  33.849  30.972  1.00  0.00    -0.237 OA
ATOM     69  O   UNL A   1      36.535  33.689  29.003  1.00  0.00    -0.237 OA
ATOM     70  O   UNL A   1      34.663  32.106  29.273  1.00  0.00    -0.744 OA
ENDBRANCH  63  67
ENDBRANCH  46  60
BRANCH  47  71
ATOM     71  C   UNL A   1      47.119  27.292  26.212  1.00  0.00     0.023 A 
ATOM     72  C   UNL A   1      48.174  26.633  26.858  1.00  0.00     0.031 A 
ATOM     73  C   UNL A   1      47.198  27.442  24.813  1.00  0.00     0.131 A 
ATOM     74  C   UNL A   1      49.281  26.183  26.120  1.00  0.00     0.055 A 
ATOM     75  C   UNL A   1      48.276  26.946  24.076  1.00  0.00     0.041 A 
ATOM     76  F   UNL A   1      46.210  28.052  24.139  1.00  0.00    -0.206 F 
ATOM     77  C   UNL A   1      49.334  26.322  24.731  1.00  0.00     0.022 A 
BRANCH  74  78
ATOM     78  S   UNL A   1      50.690  25.479  27.017  1.00  0.00     0.124 S 
ATOM     79  O   UNL A   1      51.630  25.215  25.935  1.00  0.00    -0.237 OA
ATOM     80  O   UNL A   1      51.043  26.567  27.923  1.00  0.00    -0.237 OA
ATOM     81  O   UNL A   1      50.128  24.293  27.660  1.00  0.00    -0.744 OA
ENDBRANCH  74  78
ENDBRANCH  47  71
BRANCH  59  82
ATOM     82  C   UNL A   1      45.278  33.423  29.011  1.00  0.00     0.023 A 
ATOM     83  C   UNL A   1      45.271  34.430  28.034  1.00  0.00     0.031 A 
ATOM     84  C   UNL A   1      45.990  33.646  30.203  1.00  0.00     0.131 A 
ATOM     85  C   UNL A   1      45.999  35.606  28.252  1.00  0.00     0.055 A 
ATOM     86  C   UNL A   1      46.657  34.845  30.440  1.00  0.00     0.041 A 
ATOM     87  F   UNL A   1      46.029  32.706  31.161  1.00  0.00    -0.206 F 
ATOM     88  C   UNL A   1      46.671  35.830  29.458  1.00  0.00     0.022 A 
BRANCH  85  89
ATOM     89  S   UNL A   1      46.116  36.812  26.906  1.00  0.00     0.124 S 
ATOM     90  O   UNL A   1      44.790  37.422  26.931  1.00  0.00    -0.237 OA
ATOM     91  O   UNL A   1      47.217  37.665  27.342  1.00  0.00    -0.237 OA
ATOM     92  O   UNL A   1      46.398  35.988  25.732  1.00  0.00    -0.744 OA
ENDBRANCH  85  89
ENDBRANCH  59  82
ENDBRANCH  33  34
ENDBRANCH  26  28
ENDBRANCH  25  26
ENDBRANCH  24  25
ENDBRANCH   1  24
TORSDOF 19
ENDMDL
