MODEL 1
REMARK VINA RESULT:     -12.1      0.000      0.000
REMARK SMILES COc1ccc(S(=O)(=O)N2C[C@H](C)C[C@H](C)C2)cc1C(=O)OCCOC(=O)c1ccc(-c2c3nc(c(-c4cc(S(=O)(=O)[O-])ccc4F)c4ccc([nH]4)c(-c4cc(S(=O)(=O)[O-])ccc4F)c4nc(c(-c5cc(S(=O)(=O)[O-])ccc5F)c5ccc2[nH]5)C=C4)C=C3)cc1
REMARK SMILES IDX 24 1 23 2 22 3 20 4 21 5 19 6 3 7 4 8 5 9 18 10 6 11 2 12
REMARK SMILES IDX 1 13 7 14 8 15 9 16 10 17 11 18 17 19 12 20 15 21 13 22
REMARK SMILES IDX 14 23 16 24 25 25 26 26 27 27 28 28 29 29 90 30 30 31 89 32
REMARK SMILES IDX 31 33 32 34 33 35 83 36 34 37 88 38 82 39 84 40 35 41 87 42
REMARK SMILES IDX 81 43 80 44 36 46 68 47 48 48 67 49 49 50 52 51 66 52 85 53
REMARK SMILES IDX 50 54 51 55 65 57 86 58 53 59 37 60 38 61 46 62 39 63 45 64
REMARK SMILES IDX 47 65 44 66 40 67 41 68 42 69 43 70 69 71 70 72 78 73 71 74
REMARK SMILES IDX 77 75 79 76 76 77 72 78 73 79 74 80 75 81 54 82 55 83 63 84
REMARK SMILES IDX 56 85 62 86 64 87 61 88 57 89 58 90 59 91 60 92
REMARK H PARENT 84 45 52 56
REMARK Flexibility Score: inf
ROOT
ATOM      1  C   UNL A   1      37.413  20.794  24.827  1.00  0.00     0.275 C 
ENDROOT
BRANCH   1   2
ATOM      2  C   UNL A   1      35.925  20.787  25.190  1.00  0.00     0.275 C 
BRANCH   2   3
ATOM      3  O   UNL A   1      35.489  22.058  25.732  1.00  0.00    -0.458 OA
BRANCH   3   4
ATOM      4  C   UNL A   1      34.389  22.006  26.518  1.00  0.00     0.342 C 
ATOM      5  O   UNL A   1      34.305  21.442  27.601  1.00  0.00    -0.246 OA
BRANCH   4   6
ATOM      6  C   UNL A   1      33.229  22.745  25.962  1.00  0.00     0.103 A 
ATOM      7  C   UNL A   1      32.041  22.181  25.519  1.00  0.00     0.133 A 
ATOM      8  C   UNL A   1      30.978  23.028  25.170  1.00  0.00     0.049 A 
ATOM      9  C   UNL A   1      31.072  24.422  25.333  1.00  0.00     0.025 A 
ATOM     10  C   UNL A   1      33.307  24.140  26.080  1.00  0.00     0.041 A 
ATOM     11  C   UNL A   1      32.250  25.002  25.809  1.00  0.00     0.083 A 
BRANCH   7  12
ATOM     12  O   UNL A   1      31.831  20.838  25.378  1.00  0.00    -0.496 OA
ATOM     13  C   UNL A   1      32.339  20.343  24.138  1.00  0.00     0.278 C 
ENDBRANCH   7  12
BRANCH  11  14
ATOM     14  S   UNL A   1      32.220  26.796  26.056  1.00  0.00     0.243 S 
ATOM     15  O   UNL A   1      30.985  27.044  26.750  1.00  0.00    -0.207 OA
ATOM     16  O   UNL A   1      33.501  27.081  26.694  1.00  0.00    -0.207 OA
BRANCH  14  17
ATOM     17  N   UNL A   1      32.193  27.691  24.623  1.00  0.00    -0.197 NA
ATOM     18  C   UNL A   1      33.016  27.342  23.443  1.00  0.00     0.105 C 
ATOM     19  C   UNL A   1      31.011  28.508  24.269  1.00  0.00     0.105 C 
ATOM     20  C   UNL A   1      32.211  26.408  22.552  1.00  0.00     0.001 C 
ATOM     21  C   UNL A   1      30.052  27.577  23.565  1.00  0.00     0.001 C 
ATOM     22  C   UNL A   1      32.879  26.065  21.222  1.00  0.00     0.009 C 
ATOM     23  C   UNL A   1      30.775  26.953  22.340  1.00  0.00     0.009 C 
ATOM     24  C   UNL A   1      28.730  28.211  23.191  1.00  0.00     0.009 C 
ENDBRANCH  14  17
ENDBRANCH  11  14
ENDBRANCH   4   6
ENDBRANCH   3   4
ENDBRANCH   2   3
ENDBRANCH   1   2
BRANCH   1  25
ATOM     25  O   UNL A   1      38.062  21.918  25.452  1.00  0.00    -0.458 OA
BRANCH  25  26
ATOM     26  C   UNL A   1      39.243  21.684  26.084  1.00  0.00     0.338 C 
ATOM     27  O   UNL A   1      39.936  20.687  25.956  1.00  0.00    -0.246 OA
BRANCH  26  28
ATOM     28  C   UNL A   1      39.616  22.857  26.930  1.00  0.00     0.060 A 
ATOM     29  C   UNL A   1      38.931  24.053  26.814  1.00  0.00     0.016 A 
ATOM     30  C   UNL A   1      40.730  22.826  27.775  1.00  0.00     0.016 A 
ATOM     31  C   UNL A   1      39.476  25.225  27.357  1.00  0.00     0.010 A 
ATOM     32  C   UNL A   1      41.198  24.006  28.409  1.00  0.00     0.010 A 
ATOM     33  C   UNL A   1      40.656  25.272  28.121  1.00  0.00    -0.014 A 
BRANCH  33  34
ATOM     34  C   UNL A   1      41.373  26.591  28.466  1.00  0.00     0.031 A 
ATOM     35  C   UNL A   1      40.666  27.701  29.273  1.00  0.00     0.074 A 
ATOM     36  C   UNL A   1      42.693  26.820  28.229  1.00  0.00     0.049 A 
ATOM     37  N   UNL A   1      41.011  28.961  29.440  1.00  0.00    -0.248 NA
ATOM     38  C   UNL A   1      39.439  27.353  30.010  1.00  0.00     0.031 C 
ATOM     39  C   UNL A   1      43.651  25.892  27.623  1.00  0.00     0.029 A 
ATOM     40  N   UNL A   1      43.486  27.928  28.500  1.00  0.00    -0.354 N 
ATOM     41  C   UNL A   1      40.025  29.547  30.240  1.00  0.00     0.074 A 
ATOM     42  C   UNL A   1      39.086  28.501  30.564  1.00  0.00     0.031 C 
ATOM     43  C   UNL A   1      44.888  26.399  27.687  1.00  0.00     0.029 A 
ATOM     44  C   UNL A   1      44.790  27.798  28.065  1.00  0.00     0.049 A 
ATOM     45  H   UNL A   1      43.148  28.731  28.959  1.00  0.00     0.167 HD
ATOM     46  C   UNL A   1      39.880  30.835  30.648  1.00  0.00     0.034 A 
ATOM     47  C   UNL A   1      45.776  28.691  27.823  1.00  0.00     0.034 A 
ATOM     48  C   UNL A   1      40.812  31.895  30.351  1.00  0.00     0.049 A 
ATOM     49  C   UNL A   1      45.516  30.155  28.040  1.00  0.00     0.074 A 
ATOM     50  C   UNL A   1      40.711  33.245  30.647  1.00  0.00     0.029 A 
ATOM     51  N   UNL A   1      42.020  31.726  29.695  1.00  0.00    -0.354 N 
ATOM     52  N   UNL A   1      44.471  30.733  28.578  1.00  0.00    -0.248 NA
ATOM     53  C   UNL A   1      46.546  31.089  27.561  1.00  0.00     0.031 C 
ATOM     54  C   UNL A   1      41.820  33.902  30.102  1.00  0.00     0.029 A 
ATOM     55  C   UNL A   1      42.652  32.951  29.539  1.00  0.00     0.049 A 
ATOM     56  H   UNL A   1      42.379  30.863  29.387  1.00  0.00     0.167 HD
ATOM     57  C   UNL A   1      44.719  32.101  28.500  1.00  0.00     0.074 A 
ATOM     58  C   UNL A   1      46.019  32.260  27.886  1.00  0.00     0.031 C 
ATOM     59  C   UNL A   1      43.931  33.128  28.900  1.00  0.00     0.034 A 
BRANCH  46  60
ATOM     60  C   UNL A   1      38.591  31.211  31.347  1.00  0.00     0.023 A 
ATOM     61  C   UNL A   1      37.460  31.698  30.669  1.00  0.00     0.031 A 
ATOM     62  C   UNL A   1      38.509  31.071  32.747  1.00  0.00     0.131 A 
ATOM     63  C   UNL A   1      36.314  32.064  31.398  1.00  0.00     0.055 A 
ATOM     64  C   UNL A   1      37.345  31.372  33.456  1.00  0.00     0.041 A 
ATOM     65  F   UNL A   1      39.566  30.636  33.450  1.00  0.00    -0.206 F 
ATOM     66  C   UNL A   1      36.241  31.882  32.782  1.00  0.00     0.022 A 
BRANCH  63  67
ATOM     67  S   UNL A   1      34.955  32.906  30.536  1.00  0.00     0.124 S 
ATOM     68  O   UNL A   1      34.019  33.152  31.629  1.00  0.00    -0.237 OA
ATOM     69  O   UNL A   1      35.617  34.079  29.979  1.00  0.00    -0.237 OA
ATOM     70  O   UNL A   1      34.508  31.917  29.555  1.00  0.00    -0.744 OA
ENDBRANCH  63  67
ENDBRANCH  46  60
BRANCH  47  71
ATOM     71  C   UNL A   1      47.024  28.252  27.116  1.00  0.00     0.023 A 
ATOM     72  C   UNL A   1      47.096  28.152  25.719  1.00  0.00     0.031 A 
ATOM     73  C   UNL A   1      48.163  27.871  27.858  1.00  0.00     0.131 A 
ATOM     74  C   UNL A   1      48.275  27.681  25.114  1.00  0.00     0.055 A 
ATOM     75  C   UNL A   1      49.355  27.483  27.251  1.00  0.00     0.041 A 
ATOM     76  F   UNL A   1      48.143  27.904  29.201  1.00  0.00    -0.206 F 
ATOM     77  C   UNL A   1      49.413  27.378  25.868  1.00  0.00     0.022 A 
BRANCH  74  78
ATOM     78  S   UNL A   1      48.285  27.380  23.325  1.00  0.00     0.124 S 
ATOM     79  O   UNL A   1      47.084  28.088  22.900  1.00  0.00    -0.237 OA
ATOM     80  O   UNL A   1      49.557  27.973  22.925  1.00  0.00    -0.237 OA
ATOM     81  O   UNL A   1      48.220  25.924  23.224  1.00  0.00    -0.744 OA
ENDBRANCH  74  78
ENDBRANCH  47  71
BRANCH  59  82
ATOM     82  C   UNL A   1      44.471  34.521  28.715  1.00  0.00     0.023 A 
ATOM     83  C   UNL A   1      45.281  35.130  29.689  1.00  0.00     0.031 A 
ATOM     84  C   UNL A   1      44.145  35.262  27.566  1.00  0.00     0.131 A 
ATOM     85  C   UNL A   1      45.694  36.460  29.520  1.00  0.00     0.055 A 
ATOM     86  C   UNL A   1      44.604  36.565  27.377  1.00  0.00     0.041 A 
ATOM     87  F   UNL A   1      43.369  34.729  26.607  1.00  0.00    -0.206 F 
ATOM     88  C   UNL A   1      45.374  37.176  28.364  1.00  0.00     0.022 A 
BRANCH  85  89
ATOM     89  S   UNL A   1      46.588  37.273  30.874  1.00  0.00     0.124 S 
ATOM     90  O   UNL A   1      45.837  36.825  32.042  1.00  0.00    -0.237 OA
ATOM     91  O   UNL A   1      47.934  36.728  30.733  1.00  0.00    -0.237 OA
ATOM     92  O   UNL A   1      46.460  38.695  30.563  1.00  0.00    -0.744 OA
ENDBRANCH  85  89
ENDBRANCH  59  82
ENDBRANCH  33  34
ENDBRANCH  26  28
ENDBRANCH  25  26
ENDBRANCH   1  25
TORSDOF 17
ENDMDL
MODEL 2
REMARK VINA RESULT:     -12.1      4.491      9.860
REMARK SMILES COc1ccc(S(=O)(=O)N2C[C@H](C)C[C@H](C)C2)cc1C(=O)OCCOC(=O)c1ccc(-c2c3nc(c(-c4cc(S(=O)(=O)[O-])ccc4F)c4ccc([nH]4)c(-c4cc(S(=O)(=O)[O-])ccc4F)c4nc(c(-c5cc(S(=O)(=O)[O-])ccc5F)c5ccc2[nH]5)C=C4)C=C3)cc1
REMARK SMILES IDX 24 1 23 2 22 3 20 4 21 5 19 6 3 7 4 8 5 9 18 10 6 11 2 12
REMARK SMILES IDX 1 13 7 14 8 15 9 16 10 17 11 18 17 19 12 20 15 21 13 22
REMARK SMILES IDX 14 23 16 24 25 25 26 26 27 27 28 28 29 29 90 30 30 31 89 32
REMARK SMILES IDX 31 33 32 34 33 35 83 36 34 37 88 38 82 39 84 40 35 41 87 42
REMARK SMILES IDX 81 43 80 44 36 46 68 47 48 48 67 49 49 50 52 51 66 52 85 53
REMARK SMILES IDX 50 54 51 55 65 57 86 58 53 59 37 60 38 61 46 62 39 63 45 64
REMARK SMILES IDX 47 65 44 66 40 67 41 68 42 69 43 70 69 71 70 72 78 73 71 74
REMARK SMILES IDX 77 75 79 76 76 77 72 78 73 79 74 80 75 81 54 82 55 83 63 84
REMARK SMILES IDX 56 85 62 86 64 87 61 88 57 89 58 90 59 91 60 92
REMARK H PARENT 84 45 52 56
REMARK Flexibility Score: inf
ROOT
ATOM      1  C   UNL A   1      31.526  30.093  25.676  1.00  0.00     0.275 C 
ENDROOT
BRANCH   1   2
ATOM      2  C   UNL A   1      31.366  28.646  25.198  1.00  0.00     0.275 C 
BRANCH   2   3
ATOM      3  O   UNL A   1      32.511  27.828  25.541  1.00  0.00    -0.458 OA
BRANCH   3   4
ATOM      4  C   UNL A   1      33.426  27.668  24.558  1.00  0.00     0.342 C 
ATOM      5  O   UNL A   1      34.223  28.513  24.173  1.00  0.00    -0.246 OA
BRANCH   4   6
ATOM      6  C   UNL A   1      33.419  26.311  23.958  1.00  0.00     0.103 A 
ATOM      7  C   UNL A   1      32.673  25.912  22.858  1.00  0.00     0.133 A 
ATOM      8  C   UNL A   1      32.899  24.637  22.314  1.00  0.00     0.049 A 
ATOM      9  C   UNL A   1      33.911  23.799  22.815  1.00  0.00     0.025 A 
ATOM     10  C   UNL A   1      34.396  25.439  24.459  1.00  0.00     0.041 A 
ATOM     11  C   UNL A   1      34.692  24.201  23.901  1.00  0.00     0.083 A 
BRANCH   7  12
ATOM     12  O   UNL A   1      31.706  26.672  22.265  1.00  0.00    -0.496 OA
ATOM     13  C   UNL A   1      30.407  26.394  22.790  1.00  0.00     0.278 C 
ENDBRANCH   7  12
BRANCH  11  14
ATOM     14  S   UNL A   1      36.017  23.072  24.400  1.00  0.00     0.243 S 
ATOM     15  O   UNL A   1      36.459  22.469  23.171  1.00  0.00    -0.207 OA
ATOM     16  O   UNL A   1      36.917  23.915  25.179  1.00  0.00    -0.207 OA
BRANCH  14  17
ATOM     17  N   UNL A   1      35.516  21.831  25.432  1.00  0.00    -0.197 NA
ATOM     18  C   UNL A   1      35.014  22.079  26.801  1.00  0.00     0.105 C 
ATOM     19  C   UNL A   1      35.050  20.538  24.882  1.00  0.00     0.105 C 
ATOM     20  C   UNL A   1      33.505  22.262  26.737  1.00  0.00     0.001 C 
ATOM     21  C   UNL A   1      33.581  20.715  24.578  1.00  0.00     0.001 C 
ATOM     22  C   UNL A   1      32.821  22.393  28.096  1.00  0.00     0.009 C 
ATOM     23  C   UNL A   1      32.853  21.144  25.881  1.00  0.00     0.009 C 
ATOM     24  C   UNL A   1      32.931  19.517  23.924  1.00  0.00     0.009 C 
ENDBRANCH  14  17
ENDBRANCH  11  14
ENDBRANCH   4   6
ENDBRANCH   3   4
ENDBRANCH   2   3
ENDBRANCH   1   2
BRANCH   1  25
ATOM     25  O   UNL A   1      32.281  30.120  26.902  1.00  0.00    -0.458 OA
BRANCH  25  26
ATOM     26  C   UNL A   1      32.903  31.286  27.226  1.00  0.00     0.338 C 
ATOM     27  O   UNL A   1      32.366  32.377  27.328  1.00  0.00    -0.246 OA
BRANCH  26  28
ATOM     28  C   UNL A   1      34.350  31.039  27.499  1.00  0.00     0.060 A 
ATOM     29  C   UNL A   1      34.836  29.747  27.599  1.00  0.00     0.016 A 
ATOM     30  C   UNL A   1      35.233  32.088  27.776  1.00  0.00     0.016 A 
ATOM     31  C   UNL A   1      36.098  29.518  28.166  1.00  0.00     0.010 A 
ATOM     32  C   UNL A   1      36.549  31.831  28.240  1.00  0.00     0.010 A 
ATOM     33  C   UNL A   1      36.984  30.534  28.569  1.00  0.00    -0.014 A 
BRANCH  33  34
ATOM     34  C   UNL A   1      38.228  30.258  29.432  1.00  0.00     0.031 A 
ATOM     35  C   UNL A   1      39.400  29.403  28.902  1.00  0.00     0.074 A 
ATOM     36  C   UNL A   1      38.461  30.850  30.636  1.00  0.00     0.049 A 
ATOM     37  N   UNL A   1      40.402  28.859  29.561  1.00  0.00    -0.248 NA
ATOM     38  C   UNL A   1      39.478  29.151  27.453  1.00  0.00     0.031 C 
ATOM     39  C   UNL A   1      37.607  31.825  31.316  1.00  0.00     0.029 A 
ATOM     40  N   UNL A   1      39.531  30.731  31.513  1.00  0.00    -0.354 N 
ATOM     41  C   UNL A   1      41.175  28.170  28.622  1.00  0.00     0.074 A 
ATOM     42  C   UNL A   1      40.557  28.393  27.339  1.00  0.00     0.031 C 
ATOM     43  C   UNL A   1      38.224  32.301  32.402  1.00  0.00     0.029 A 
ATOM     44  C   UNL A   1      39.384  31.470  32.671  1.00  0.00     0.049 A 
ATOM     45  H   UNL A   1      40.321  30.174  31.327  1.00  0.00     0.167 HD
ATOM     46  C   UNL A   1      42.277  27.393  28.796  1.00  0.00     0.034 A 
ATOM     47  C   UNL A   1      39.974  31.409  33.886  1.00  0.00     0.034 A 
ATOM     48  C   UNL A   1      42.923  27.167  30.066  1.00  0.00     0.049 A 
ATOM     49  C   UNL A   1      41.024  30.367  34.146  1.00  0.00     0.074 A 
ATOM     50  C   UNL A   1      43.990  26.332  30.357  1.00  0.00     0.029 A 
ATOM     51  N   UNL A   1      42.568  27.780  31.256  1.00  0.00    -0.354 N 
ATOM     52  N   UNL A   1      41.588  29.540  33.301  1.00  0.00    -0.248 NA
ATOM     53  C   UNL A   1      41.474  30.212  35.537  1.00  0.00     0.031 C 
ATOM     54  C   UNL A   1      44.229  26.383  31.735  1.00  0.00     0.029 A 
ATOM     55  C   UNL A   1      43.366  27.311  32.289  1.00  0.00     0.049 A 
ATOM     56  H   UNL A   1      41.856  28.452  31.353  1.00  0.00     0.167 HD
ATOM     57  C   UNL A   1      42.459  28.764  34.061  1.00  0.00     0.074 A 
ATOM     58  C   UNL A   1      42.363  29.236  35.425  1.00  0.00     0.031 C 
ATOM     59  C   UNL A   1      43.259  27.748  33.657  1.00  0.00     0.034 A 
BRANCH  46  60
ATOM     60  C   UNL A   1      42.781  26.609  27.603  1.00  0.00     0.023 A 
ATOM     61  C   UNL A   1      42.385  25.290  27.325  1.00  0.00     0.031 A 
ATOM     62  C   UNL A   1      43.694  27.221  26.722  1.00  0.00     0.131 A 
ATOM     63  C   UNL A   1      42.932  24.617  26.218  1.00  0.00     0.055 A 
ATOM     64  C   UNL A   1      44.181  26.571  25.587  1.00  0.00     0.041 A 
ATOM     65  F   UNL A   1      44.128  28.471  26.952  1.00  0.00    -0.206 F 
ATOM     66  C   UNL A   1      43.807  25.256  25.336  1.00  0.00     0.022 A 
BRANCH  63  67
ATOM     67  S   UNL A   1      42.590  22.845  26.009  1.00  0.00     0.124 S 
ATOM     68  O   UNL A   1      43.452  22.255  27.029  1.00  0.00    -0.237 OA
ATOM     69  O   UNL A   1      41.155  22.772  26.257  1.00  0.00    -0.237 OA
ATOM     70  O   UNL A   1      42.999  22.578  24.630  1.00  0.00    -0.744 OA
ENDBRANCH  63  67
ENDBRANCH  46  60
BRANCH  47  71
ATOM     71  C   UNL A   1      39.415  32.206  35.028  1.00  0.00     0.023 A 
ATOM     72  C   UNL A   1      39.882  33.492  35.340  1.00  0.00     0.031 A 
ATOM     73  C   UNL A   1      38.423  31.650  35.864  1.00  0.00     0.131 A 
ATOM     74  C   UNL A   1      39.359  34.170  36.456  1.00  0.00     0.055 A 
ATOM     75  C   UNL A   1      37.852  32.358  36.918  1.00  0.00     0.041 A 
ATOM     76  F   UNL A   1      37.966  30.406  35.642  1.00  0.00    -0.206 F 
ATOM     77  C   UNL A   1      38.326  33.626  37.225  1.00  0.00     0.022 A 
BRANCH  74  78
ATOM     78  S   UNL A   1      40.105  35.747  36.954  1.00  0.00     0.124 S 
ATOM     79  O   UNL A   1      41.511  35.382  37.080  1.00  0.00    -0.237 OA
ATOM     80  O   UNL A   1      39.763  36.613  35.830  1.00  0.00    -0.237 OA
ATOM     81  O   UNL A   1      39.427  36.063  38.209  1.00  0.00    -0.744 OA
ENDBRANCH  74  78
ENDBRANCH  47  71
BRANCH  59  82
ATOM     82  C   UNL A   1      44.125  27.098  34.703  1.00  0.00     0.023 A 
ATOM     83  C   UNL A   1      45.393  27.610  35.029  1.00  0.00     0.031 A 
ATOM     84  C   UNL A   1      43.692  25.932  35.359  1.00  0.00     0.131 A 
ATOM     85  C   UNL A   1      46.205  26.928  35.947  1.00  0.00     0.055 A 
ATOM     86  C   UNL A   1      44.481  25.289  36.312  1.00  0.00     0.041 A 
ATOM     87  F   UNL A   1      42.491  25.398  35.081  1.00  0.00    -0.206 F 
ATOM     88  C   UNL A   1      45.752  25.779  36.601  1.00  0.00     0.022 A 
BRANCH  85  89
ATOM     89  S   UNL A   1      47.901  27.515  36.213  1.00  0.00     0.124 S 
ATOM     90  O   UNL A   1      48.274  26.816  37.439  1.00  0.00    -0.237 OA
ATOM     91  O   UNL A   1      48.579  27.077  34.998  1.00  0.00    -0.237 OA
ATOM     92  O   UNL A   1      47.746  28.962  36.348  1.00  0.00    -0.744 OA
ENDBRANCH  85  89
ENDBRANCH  59  82
ENDBRANCH  33  34
ENDBRANCH  26  28
ENDBRANCH  25  26
ENDBRANCH   1  25
TORSDOF 17
ENDMDL
MODEL 3
REMARK VINA RESULT:     -12.1      4.506      9.793
REMARK SMILES COc1ccc(S(=O)(=O)N2C[C@H](C)C[C@H](C)C2)cc1C(=O)OCCOC(=O)c1ccc(-c2c3nc(c(-c4cc(S(=O)(=O)[O-])ccc4F)c4ccc([nH]4)c(-c4cc(S(=O)(=O)[O-])ccc4F)c4nc(c(-c5cc(S(=O)(=O)[O-])ccc5F)c5ccc2[nH]5)C=C4)C=C3)cc1
REMARK SMILES IDX 24 1 23 2 22 3 20 4 21 5 19 6 3 7 4 8 5 9 18 10 6 11 2 12
REMARK SMILES IDX 1 13 7 14 8 15 9 16 10 17 11 18 17 19 12 20 15 21 13 22
REMARK SMILES IDX 14 23 16 24 25 25 26 26 27 27 28 28 29 29 90 30 30 31 89 32
REMARK SMILES IDX 31 33 32 34 33 35 83 36 34 37 88 38 82 39 84 40 35 41 87 42
REMARK SMILES IDX 81 43 80 44 36 46 68 47 48 48 67 49 49 50 52 51 66 52 85 53
REMARK SMILES IDX 50 54 51 55 65 57 86 58 53 59 37 60 38 61 46 62 39 63 45 64
REMARK SMILES IDX 47 65 44 66 40 67 41 68 42 69 43 70 69 71 70 72 78 73 71 74
REMARK SMILES IDX 77 75 79 76 76 77 72 78 73 79 74 80 75 81 54 82 55 83 63 84
REMARK SMILES IDX 56 85 62 86 64 87 61 88 57 89 58 90 59 91 60 92
REMARK H PARENT 84 45 52 56
REMARK Flexibility Score: inf
ROOT
ATOM      1  C   UNL A   1      31.668  30.202  25.666  1.00  0.00     0.275 C 
ENDROOT
BRANCH   1   2
ATOM      2  C   UNL A   1      31.579  28.871  24.913  1.00  0.00     0.275 C 
BRANCH   2   3
ATOM      3  O   UNL A   1      32.775  28.069  25.077  1.00  0.00    -0.458 OA
BRANCH   3   4
ATOM      4  C   UNL A   1      33.295  27.564  23.935  1.00  0.00     0.342 C 
ATOM      5  O   UNL A   1      34.049  28.149  23.168  1.00  0.00    -0.246 OA
BRANCH   4   6
ATOM      6  C   UNL A   1      32.892  26.161  23.670  1.00  0.00     0.103 A 
ATOM      7  C   UNL A   1      33.022  25.492  22.461  1.00  0.00     0.133 A 
ATOM      8  C   UNL A   1      32.741  24.117  22.415  1.00  0.00     0.049 A 
ATOM      9  C   UNL A   1      32.407  23.402  23.579  1.00  0.00     0.025 A 
ATOM     10  C   UNL A   1      32.521  25.429  24.806  1.00  0.00     0.041 A 
ATOM     11  C   UNL A   1      32.304  24.056  24.809  1.00  0.00     0.083 A 
BRANCH   7  12
ATOM     12  O   UNL A   1      33.392  26.084  21.287  1.00  0.00    -0.496 OA
ATOM     13  C   UNL A   1      32.649  25.584  20.175  1.00  0.00     0.278 C 
ENDBRANCH   7  12
BRANCH  11  14
ATOM     14  S   UNL A   1      31.951  23.014  26.247  1.00  0.00     0.243 S 
ATOM     15  O   UNL A   1      31.644  23.945  27.300  1.00  0.00    -0.207 OA
ATOM     16  O   UNL A   1      30.940  22.081  25.762  1.00  0.00    -0.207 OA
BRANCH  14  17
ATOM     17  N   UNL A   1      33.259  22.074  26.758  1.00  0.00    -0.197 NA
ATOM     18  C   UNL A   1      33.420  20.652  26.381  1.00  0.00     0.105 C 
ATOM     19  C   UNL A   1      34.541  22.709  27.135  1.00  0.00     0.105 C 
ATOM     20  C   UNL A   1      34.226  20.581  25.092  1.00  0.00     0.001 C 
ATOM     21  C   UNL A   1      35.319  22.881  25.851  1.00  0.00     0.001 C 
ATOM     22  C   UNL A   1      34.592  19.167  24.647  1.00  0.00     0.009 C 
ATOM     23  C   UNL A   1      35.480  21.490  25.179  1.00  0.00     0.009 C 
ATOM     24  C   UNL A   1      36.641  23.597  26.014  1.00  0.00     0.009 C 
ENDBRANCH  14  17
ENDBRANCH  11  14
ENDBRANCH   4   6
ENDBRANCH   3   4
ENDBRANCH   2   3
ENDBRANCH   1   2
BRANCH   1  25
ATOM     25  O   UNL A   1      32.596  30.081  26.760  1.00  0.00    -0.458 OA
BRANCH  25  26
ATOM     26  C   UNL A   1      33.176  31.225  27.216  1.00  0.00     0.338 C 
ATOM     27  O   UNL A   1      32.603  32.284  27.418  1.00  0.00    -0.246 OA
BRANCH  26  28
ATOM     28  C   UNL A   1      34.624  30.993  27.496  1.00  0.00     0.060 A 
ATOM     29  C   UNL A   1      35.136  29.708  27.529  1.00  0.00     0.016 A 
ATOM     30  C   UNL A   1      35.480  32.042  27.843  1.00  0.00     0.016 A 
ATOM     31  C   UNL A   1      36.395  29.473  28.101  1.00  0.00     0.010 A 
ATOM     32  C   UNL A   1      36.796  31.787  28.311  1.00  0.00     0.010 A 
ATOM     33  C   UNL A   1      37.253  30.482  28.573  1.00  0.00    -0.014 A 
BRANCH  33  34
ATOM     34  C   UNL A   1      38.492  30.184  29.437  1.00  0.00     0.031 A 
ATOM     35  C   UNL A   1      39.640  29.293  28.914  1.00  0.00     0.074 A 
ATOM     36  C   UNL A   1      38.743  30.783  30.633  1.00  0.00     0.049 A 
ATOM     37  N   UNL A   1      40.630  28.731  29.578  1.00  0.00    -0.248 NA
ATOM     38  C   UNL A   1      39.709  29.023  27.468  1.00  0.00     0.031 C 
ATOM     39  C   UNL A   1      37.915  31.788  31.304  1.00  0.00     0.029 A 
ATOM     40  N   UNL A   1      39.812  30.647  31.510  1.00  0.00    -0.354 N 
ATOM     41  C   UNL A   1      41.382  28.011  28.645  1.00  0.00     0.074 A 
ATOM     42  C   UNL A   1      40.767  28.236  27.360  1.00  0.00     0.031 C 
ATOM     43  C   UNL A   1      38.547  32.260  32.384  1.00  0.00     0.029 A 
ATOM     44  C   UNL A   1      39.685  31.402  32.660  1.00  0.00     0.049 A 
ATOM     45  H   UNL A   1      40.586  30.066  31.329  1.00  0.00     0.167 HD
ATOM     46  C   UNL A   1      42.464  27.208  28.826  1.00  0.00     0.034 A 
ATOM     47  C   UNL A   1      40.277  31.339  33.875  1.00  0.00     0.034 A 
ATOM     48  C   UNL A   1      43.106  26.979  30.096  1.00  0.00     0.049 A 
ATOM     49  C   UNL A   1      41.300  30.273  34.145  1.00  0.00     0.074 A 
ATOM     50  C   UNL A   1      44.152  26.120  30.395  1.00  0.00     0.029 A 
ATOM     51  N   UNL A   1      42.770  27.615  31.280  1.00  0.00    -0.354 N 
ATOM     52  N   UNL A   1      41.840  29.422  33.307  1.00  0.00    -0.248 NA
ATOM     53  C   UNL A   1      41.749  30.122  35.536  1.00  0.00     0.031 C 
ATOM     54  C   UNL A   1      44.395  26.180  31.773  1.00  0.00     0.029 A 
ATOM     55  C   UNL A   1      43.557  27.136  32.317  1.00  0.00     0.049 A 
ATOM     56  H   UNL A   1      42.076  28.306  31.371  1.00  0.00     0.167 HD
ATOM     57  C   UNL A   1      42.692  28.633  34.075  1.00  0.00     0.074 A 
ATOM     58  C   UNL A   1      42.612  29.122  35.434  1.00  0.00     0.031 C 
ATOM     59  C   UNL A   1      43.465  27.591  33.681  1.00  0.00     0.034 A 
BRANCH  46  60
ATOM     60  C   UNL A   1      42.945  26.398  27.641  1.00  0.00     0.023 A 
ATOM     61  C   UNL A   1      42.453  25.119  27.331  1.00  0.00     0.031 A 
ATOM     62  C   UNL A   1      43.936  26.943  26.800  1.00  0.00     0.131 A 
ATOM     63  C   UNL A   1      42.983  24.415  26.235  1.00  0.00     0.055 A 
ATOM     64  C   UNL A   1      44.409  26.267  25.675  1.00  0.00     0.041 A 
ATOM     65  F   UNL A   1      44.462  28.150  27.063  1.00  0.00    -0.206 F 
ATOM     66  C   UNL A   1      43.939  24.989  25.393  1.00  0.00     0.022 A 
BRANCH  63  67
ATOM     67  S   UNL A   1      42.505  22.680  25.990  1.00  0.00     0.124 S 
ATOM     68  O   UNL A   1      42.946  22.443  24.618  1.00  0.00    -0.237 OA
ATOM     69  O   UNL A   1      43.258  21.997  27.035  1.00  0.00    -0.237 OA
ATOM     70  O   UNL A   1      41.054  22.695  26.175  1.00  0.00    -0.744 OA
ENDBRANCH  63  67
ENDBRANCH  46  60
BRANCH  47  71
ATOM     71  C   UNL A   1      39.741  32.163  35.009  1.00  0.00     0.023 A 
ATOM     72  C   UNL A   1      40.226  33.449  35.292  1.00  0.00     0.031 A 
ATOM     73  C   UNL A   1      38.753  31.633  35.866  1.00  0.00     0.131 A 
ATOM     74  C   UNL A   1      39.724  34.153  36.401  1.00  0.00     0.055 A 
ATOM     75  C   UNL A   1      38.203  32.367  36.914  1.00  0.00     0.041 A 
ATOM     76  F   UNL A   1      38.279  30.392  35.673  1.00  0.00    -0.206 F 
ATOM     77  C   UNL A   1      38.695  33.634  37.192  1.00  0.00     0.022 A 
BRANCH  74  78
ATOM     78  S   UNL A   1      40.495  35.730  36.861  1.00  0.00     0.124 S 
ATOM     79  O   UNL A   1      39.738  36.676  36.049  1.00  0.00    -0.237 OA
ATOM     80  O   UNL A   1      40.251  35.778  38.299  1.00  0.00    -0.237 OA
ATOM     81  O   UNL A   1      41.892  35.553  36.474  1.00  0.00    -0.744 OA
ENDBRANCH  74  78
ENDBRANCH  47  71
BRANCH  59  82
ATOM     82  C   UNL A   1      44.316  26.931  34.733  1.00  0.00     0.023 A 
ATOM     83  C   UNL A   1      45.597  27.413  35.050  1.00  0.00     0.031 A 
ATOM     84  C   UNL A   1      43.854  25.785  35.403  1.00  0.00     0.131 A 
ATOM     85  C   UNL A   1      46.394  26.721  35.974  1.00  0.00     0.055 A 
ATOM     86  C   UNL A   1      44.628  25.132  36.361  1.00  0.00     0.041 A 
ATOM     87  F   UNL A   1      42.638  25.279  35.133  1.00  0.00    -0.206 F 
ATOM     88  C   UNL A   1      45.912  25.592  36.642  1.00  0.00     0.022 A 
BRANCH  85  89
ATOM     89  S   UNL A   1      48.105  27.266  36.230  1.00  0.00     0.124 S 
ATOM     90  O   UNL A   1      47.988  28.712  36.073  1.00  0.00    -0.237 OA
ATOM     91  O   UNL A   1      48.388  26.791  37.580  1.00  0.00    -0.237 OA
ATOM     92  O   UNL A   1      48.844  26.585  35.168  1.00  0.00    -0.744 OA
ENDBRANCH  85  89
ENDBRANCH  59  82
ENDBRANCH  33  34
ENDBRANCH  26  28
ENDBRANCH  25  26
ENDBRANCH   1  25
TORSDOF 17
ENDMDL
