MODEL 1
REMARK VINA RESULT:     -12.7      0.000      0.000
REMARK SMILES C[C@@H](C(=O)OCCOC(=O)c1ccc(-c2c3nc(c(-c4cc(S(=O)(=O)[O-])ccc4F)c4ccc([nH]4)c(-c4cc(S(=O)(=O)[O-])ccc4F)c4nc(c(-c5cc(S(=O)(=O)[O-])ccc5F)c5ccc2[nH]5)C=C4)C=C3)cc1)c1ccc2c(c1)[nH]c1ccc(Cl)cc12
REMARK SMILES IDX 7 1 6 2 5 3 3 4 4 5 2 6 1 7 74 8 75 9 79 10 76 11 78 12
REMARK SMILES IDX 77 13 80 14 87 15 81 16 86 18 82 19 84 20 83 21 85 22 8 23
REMARK SMILES IDX 9 24 10 25 11 26 12 27 73 28 13 29 72 30 14 31 15 32 16 33
REMARK SMILES IDX 66 34 17 35 71 36 65 37 67 38 18 39 70 40 64 41 63 42 19 44
REMARK SMILES IDX 51 45 31 46 50 47 32 48 35 49 49 50 68 51 33 52 34 53 48 55
REMARK SMILES IDX 69 56 36 57 20 58 21 59 29 60 22 61 28 62 30 63 27 64 23 65
REMARK SMILES IDX 24 66 25 67 26 68 52 69 53 70 61 71 54 72 60 73 62 74 59 75
REMARK SMILES IDX 55 76 56 77 57 78 58 79 37 80 38 81 46 82 39 83 45 84 47 85
REMARK SMILES IDX 44 86 40 87 41 88 42 89 43 90
REMARK H PARENT 80 17 67 43 35 54
REMARK Flexibility Score: inf
ROOT
ATOM      1  C   UNL A   1      35.891  20.886  25.407  1.00  0.00     0.275 C 
ENDROOT
BRANCH   1   2
ATOM      2  C   UNL A   1      35.023  21.926  26.111  1.00  0.00     0.274 C 
BRANCH   2   3
ATOM      3  O   UNL A   1      34.784  23.064  25.260  1.00  0.00    -0.462 OA
BRANCH   3   4
ATOM      4  C   UNL A   1      33.681  22.969  24.461  1.00  0.00     0.313 C 
ATOM      5  O   UNL A   1      33.747  22.603  23.291  1.00  0.00    -0.252 OA
BRANCH   4   6
ATOM      6  C   UNL A   1      32.390  23.470  25.153  1.00  0.00     0.126 C 
ATOM      7  C   UNL A   1      31.388  22.324  25.363  1.00  0.00     0.025 C 
BRANCH   6   8
ATOM      8  C   UNL A   1      31.793  24.699  24.441  1.00  0.00    -0.032 A 
ATOM      9  C   UNL A   1      32.570  25.768  23.966  1.00  0.00     0.005 A 
ATOM     10  C   UNL A   1      30.393  24.779  24.301  1.00  0.00     0.031 A 
ATOM     11  C   UNL A   1      31.983  26.934  23.443  1.00  0.00     0.011 A 
ATOM     12  C   UNL A   1      29.824  25.982  23.873  1.00  0.00     0.047 A 
ATOM     13  C   UNL A   1      30.582  27.065  23.441  1.00  0.00     0.007 A 
ATOM     14  N   UNL A   1      28.506  26.367  23.836  1.00  0.00    -0.355 N 
ATOM     15  C   UNL A   1      29.672  28.126  23.127  1.00  0.00     0.009 A 
ATOM     16  C   UNL A   1      28.385  27.665  23.409  1.00  0.00     0.047 A 
ATOM     17  H   UNL A   1      27.749  25.787  24.081  1.00  0.00     0.167 HD
ATOM     18  C   UNL A   1      29.827  29.451  22.670  1.00  0.00     0.031 A 
ATOM     19  C   UNL A   1      27.241  28.455  23.259  1.00  0.00     0.028 A 
ATOM     20  C   UNL A   1      28.688  30.244  22.492  1.00  0.00     0.041 A 
ATOM     21  C   UNL A   1      27.418  29.751  22.772  1.00  0.00     0.022 A 
ATOM     22  Cl  UNL A   1      28.865  31.855  21.911  1.00  0.00    -0.084 Cl
ENDBRANCH   6   8
ENDBRANCH   4   6
ENDBRANCH   3   4
ENDBRANCH   2   3
ENDBRANCH   1   2
BRANCH   1  23
ATOM     23  O   UNL A   1      37.084  21.490  24.877  1.00  0.00    -0.458 OA
BRANCH  23  24
ATOM     24  C   UNL A   1      38.236  21.154  25.499  1.00  0.00     0.338 C 
ATOM     25  O   UNL A   1      38.719  20.033  25.601  1.00  0.00    -0.246 OA
BRANCH  24  26
ATOM     26  C   UNL A   1      38.856  22.347  26.095  1.00  0.00     0.060 A 
ATOM     27  C   UNL A   1      38.292  23.601  25.884  1.00  0.00     0.016 A 
ATOM     28  C   UNL A   1      40.075  22.231  26.767  1.00  0.00     0.016 A 
ATOM     29  C   UNL A   1      38.985  24.746  26.276  1.00  0.00     0.010 A 
ATOM     30  C   UNL A   1      40.733  23.382  27.222  1.00  0.00     0.010 A 
ATOM     31  C   UNL A   1      40.215  24.657  26.942  1.00  0.00    -0.014 A 
BRANCH  31  32
ATOM     32  C   UNL A   1      40.977  25.902  27.259  1.00  0.00     0.031 A 
ATOM     33  C   UNL A   1      40.433  26.881  28.271  1.00  0.00     0.074 A 
ATOM     34  C   UNL A   1      42.180  26.130  26.694  1.00  0.00     0.049 A 
ATOM     35  N   UNL A   1      40.896  28.051  28.629  1.00  0.00    -0.248 NA
ATOM     36  C   UNL A   1      39.192  26.495  28.960  1.00  0.00     0.031 C 
ATOM     37  C   UNL A   1      42.846  25.231  25.752  1.00  0.00     0.029 A 
ATOM     38  N   UNL A   1      43.079  27.155  26.860  1.00  0.00    -0.354 N 
ATOM     39  C   UNL A   1      39.960  28.580  29.513  1.00  0.00     0.074 A 
ATOM     40  C   UNL A   1      38.917  27.587  29.658  1.00  0.00     0.031 C 
ATOM     41  C   UNL A   1      44.083  25.692  25.504  1.00  0.00     0.029 A 
ATOM     42  C   UNL A   1      44.273  26.961  26.198  1.00  0.00     0.049 A 
ATOM     43  H   UNL A   1      42.889  27.955  27.403  1.00  0.00     0.167 HD
ATOM     44  C   UNL A   1      39.963  29.793  30.123  1.00  0.00     0.034 A 
ATOM     45  C   UNL A   1      45.390  27.716  26.165  1.00  0.00     0.034 A 
ATOM     46  C   UNL A   1      41.043  30.744  30.015  1.00  0.00     0.049 A 
ATOM     47  C   UNL A   1      45.393  29.029  26.909  1.00  0.00     0.074 A 
ATOM     48  C   UNL A   1      41.137  32.014  30.560  1.00  0.00     0.029 A 
ATOM     49  N   UNL A   1      42.232  30.521  29.330  1.00  0.00    -0.354 N 
ATOM     50  N   UNL A   1      44.461  29.554  27.671  1.00  0.00    -0.248 NA
ATOM     51  C   UNL A   1      46.596  29.862  26.769  1.00  0.00     0.031 C 
ATOM     52  C   UNL A   1      42.354  32.579  30.160  1.00  0.00     0.029 A 
ATOM     53  C   UNL A   1      43.050  31.637  29.418  1.00  0.00     0.049 A 
ATOM     54  H   UNL A   1      42.459  29.692  28.852  1.00  0.00     0.167 HD
ATOM     55  C   UNL A   1      44.968  30.777  28.100  1.00  0.00     0.074 A 
ATOM     56  C   UNL A   1      46.306  30.887  27.557  1.00  0.00     0.031 C 
ATOM     57  C   UNL A   1      44.374  31.739  28.850  1.00  0.00     0.034 A 
BRANCH  44  58
ATOM     58  C   UNL A   1      38.706  30.199  30.858  1.00  0.00     0.023 A 
ATOM     59  C   UNL A   1      37.642  30.874  30.235  1.00  0.00     0.031 A 
ATOM     60  C   UNL A   1      38.604  29.941  32.238  1.00  0.00     0.131 A 
ATOM     61  C   UNL A   1      36.560  31.330  31.006  1.00  0.00     0.055 A 
ATOM     62  C   UNL A   1      37.490  30.330  32.984  1.00  0.00     0.041 A 
ATOM     63  F   UNL A   1      39.598  29.322  32.893  1.00  0.00    -0.206 F 
ATOM     64  C   UNL A   1      36.466  31.043  32.370  1.00  0.00     0.022 A 
BRANCH  61  65
ATOM     65  S   UNL A   1      35.344  32.434  30.234  1.00  0.00     0.124 S 
ATOM     66  O   UNL A   1      36.154  33.618  29.954  1.00  0.00    -0.237 OA
ATOM     67  O   UNL A   1      34.911  31.666  29.074  1.00  0.00    -0.237 OA
ATOM     68  O   UNL A   1      34.334  32.615  31.276  1.00  0.00    -0.744 OA
ENDBRANCH  61  65
ENDBRANCH  44  58
BRANCH  45  69
ATOM     69  C   UNL A   1      46.610  27.256  25.432  1.00  0.00     0.023 A 
ATOM     70  C   UNL A   1      46.905  27.771  24.158  1.00  0.00     0.031 A 
ATOM     71  C   UNL A   1      47.490  26.299  25.964  1.00  0.00     0.131 A 
ATOM     72  C   UNL A   1      48.042  27.333  23.462  1.00  0.00     0.055 A 
ATOM     73  C   UNL A   1      48.644  25.896  25.286  1.00  0.00     0.041 A 
ATOM     74  F   UNL A   1      47.256  25.752  27.168  1.00  0.00    -0.206 F 
ATOM     75  C   UNL A   1      48.922  26.410  24.023  1.00  0.00     0.022 A 
BRANCH  72  76
ATOM     76  S   UNL A   1      48.330  27.967  21.787  1.00  0.00     0.124 S 
ATOM     77  O   UNL A   1      49.652  28.567  21.915  1.00  0.00    -0.237 OA
ATOM     78  O   UNL A   1      48.249  26.744  20.994  1.00  0.00    -0.237 OA
ATOM     79  O   UNL A   1      47.231  28.910  21.588  1.00  0.00    -0.744 OA
ENDBRANCH  72  76
ENDBRANCH  45  69
BRANCH  57  80
ATOM     80  C   UNL A   1      45.171  32.995  29.102  1.00  0.00     0.023 A 
ATOM     81  C   UNL A   1      45.121  34.078  28.205  1.00  0.00     0.031 A 
ATOM     82  C   UNL A   1      46.000  33.107  30.231  1.00  0.00     0.131 A 
ATOM     83  C   UNL A   1      45.934  35.201  28.418  1.00  0.00     0.055 A 
ATOM     84  C   UNL A   1      46.764  34.252  30.467  1.00  0.00     0.041 A 
ATOM     85  F   UNL A   1      46.082  32.106  31.121  1.00  0.00    -0.206 F 
ATOM     86  C   UNL A   1      46.744  35.301  29.551  1.00  0.00     0.022 A 
BRANCH  83  87
ATOM     87  S   UNL A   1      45.978  36.495  27.148  1.00  0.00     0.124 S 
ATOM     88  O   UNL A   1      46.493  35.770  25.991  1.00  0.00    -0.237 OA
ATOM     89  O   UNL A   1      44.580  36.908  27.071  1.00  0.00    -0.237 OA
ATOM     90  O   UNL A   1      46.887  37.494  27.707  1.00  0.00    -0.744 OA
ENDBRANCH  83  87
ENDBRANCH  57  80
ENDBRANCH  31  32
ENDBRANCH  24  26
ENDBRANCH  23  24
ENDBRANCH   1  23
TORSDOF 15
ENDMDL
MODEL 2
REMARK VINA RESULT:     -12.6      2.035      7.943
REMARK SMILES C[C@@H](C(=O)OCCOC(=O)c1ccc(-c2c3nc(c(-c4cc(S(=O)(=O)[O-])ccc4F)c4ccc([nH]4)c(-c4cc(S(=O)(=O)[O-])ccc4F)c4nc(c(-c5cc(S(=O)(=O)[O-])ccc5F)c5ccc2[nH]5)C=C4)C=C3)cc1)c1ccc2c(c1)[nH]c1ccc(Cl)cc12
REMARK SMILES IDX 7 1 6 2 5 3 3 4 4 5 2 6 1 7 74 8 75 9 79 10 76 11 78 12
REMARK SMILES IDX 77 13 80 14 87 15 81 16 86 18 82 19 84 20 83 21 85 22 8 23
REMARK SMILES IDX 9 24 10 25 11 26 12 27 73 28 13 29 72 30 14 31 15 32 16 33
REMARK SMILES IDX 66 34 17 35 71 36 65 37 67 38 18 39 70 40 64 41 63 42 19 44
REMARK SMILES IDX 51 45 31 46 50 47 32 48 35 49 49 50 68 51 33 52 34 53 48 55
REMARK SMILES IDX 69 56 36 57 20 58 21 59 29 60 22 61 28 62 30 63 27 64 23 65
REMARK SMILES IDX 24 66 25 67 26 68 52 69 53 70 61 71 54 72 60 73 62 74 59 75
REMARK SMILES IDX 55 76 56 77 57 78 58 79 37 80 38 81 46 82 39 83 45 84 47 85
REMARK SMILES IDX 44 86 40 87 41 88 42 89 43 90
REMARK H PARENT 80 17 67 43 35 54
REMARK Flexibility Score: inf
ROOT
ATOM      1  C   UNL A   1      37.692  20.156  24.574  1.00  0.00     0.275 C 
ENDROOT
BRANCH   1   2
ATOM      2  C   UNL A   1      36.484  19.290  24.920  1.00  0.00     0.274 C 
BRANCH   2   3
ATOM      3  O   UNL A   1      35.272  20.069  24.934  1.00  0.00    -0.462 OA
BRANCH   3   4
ATOM      4  C   UNL A   1      34.146  19.396  24.555  1.00  0.00     0.313 C 
ATOM      5  O   UNL A   1      34.155  18.200  24.281  1.00  0.00    -0.252 OA
BRANCH   4   6
ATOM      6  C   UNL A   1      32.912  20.321  24.412  1.00  0.00     0.126 C 
ATOM      7  C   UNL A   1      32.217  20.118  23.057  1.00  0.00     0.025 C 
BRANCH   6   8
ATOM      8  C   UNL A   1      33.253  21.790  24.725  1.00  0.00    -0.032 A 
ATOM      9  C   UNL A   1      33.279  22.315  26.027  1.00  0.00     0.005 A 
ATOM     10  C   UNL A   1      33.505  22.665  23.649  1.00  0.00     0.031 A 
ATOM     11  C   UNL A   1      33.460  23.689  26.268  1.00  0.00     0.011 A 
ATOM     12  C   UNL A   1      33.583  24.038  23.898  1.00  0.00     0.047 A 
ATOM     13  C   UNL A   1      33.566  24.576  25.180  1.00  0.00     0.007 A 
ATOM     14  N   UNL A   1      33.633  25.090  23.017  1.00  0.00    -0.355 N 
ATOM     15  C   UNL A   1      33.619  26.001  25.047  1.00  0.00     0.009 A 
ATOM     16  C   UNL A   1      33.633  26.290  23.682  1.00  0.00     0.047 A 
ATOM     17  H   UNL A   1      33.664  24.995  22.037  1.00  0.00     0.167 HD
ATOM     18  C   UNL A   1      33.610  27.075  25.962  1.00  0.00     0.031 A 
ATOM     19  C   UNL A   1      33.641  27.593  23.177  1.00  0.00     0.028 A 
ATOM     20  C   UNL A   1      33.643  28.384  25.470  1.00  0.00     0.041 A 
ATOM     21  C   UNL A   1      33.668  28.638  24.102  1.00  0.00     0.022 A 
ATOM     22  Cl  UNL A   1      33.658  29.701  26.578  1.00  0.00    -0.084 Cl
ENDBRANCH   6   8
ENDBRANCH   4   6
ENDBRANCH   3   4
ENDBRANCH   2   3
ENDBRANCH   1   2
BRANCH   1  23
ATOM     23  O   UNL A   1      38.026  21.027  25.669  1.00  0.00    -0.458 OA
BRANCH  23  24
ATOM     24  C   UNL A   1      39.305  20.958  26.102  1.00  0.00     0.338 C 
ATOM     25  O   UNL A   1      40.036  19.974  26.087  1.00  0.00    -0.246 OA
BRANCH  24  26
ATOM     26  C   UNL A   1      39.726  22.256  26.649  1.00  0.00     0.060 A 
ATOM     27  C   UNL A   1      39.119  23.426  26.204  1.00  0.00     0.016 A 
ATOM     28  C   UNL A   1      40.816  22.319  27.521  1.00  0.00     0.016 A 
ATOM     29  C   UNL A   1      39.651  24.662  26.569  1.00  0.00     0.010 A 
ATOM     30  C   UNL A   1      41.302  23.565  27.941  1.00  0.00     0.010 A 
ATOM     31  C   UNL A   1      40.751  24.753  27.434  1.00  0.00    -0.014 A 
BRANCH  31  32
ATOM     32  C   UNL A   1      41.356  26.087  27.725  1.00  0.00     0.031 A 
ATOM     33  C   UNL A   1      42.625  26.508  27.024  1.00  0.00     0.074 A 
ATOM     34  C   UNL A   1      40.743  26.948  28.563  1.00  0.00     0.049 A 
ATOM     35  N   UNL A   1      43.351  27.584  27.192  1.00  0.00    -0.248 NA
ATOM     36  C   UNL A   1      43.155  25.584  26.009  1.00  0.00     0.031 C 
ATOM     37  C   UNL A   1      39.479  26.689  29.252  1.00  0.00     0.029 A 
ATOM     38  N   UNL A   1      41.067  28.227  28.943  1.00  0.00    -0.354 N 
ATOM     39  C   UNL A   1      44.466  27.425  26.374  1.00  0.00     0.074 A 
ATOM     40  C   UNL A   1      44.304  26.160  25.690  1.00  0.00     0.031 C 
ATOM     41  C   UNL A   1      39.087  27.805  29.885  1.00  0.00     0.029 A 
ATOM     42  C   UNL A   1      40.107  28.836  29.724  1.00  0.00     0.049 A 
ATOM     43  H   UNL A   1      41.908  28.670  28.683  1.00  0.00     0.167 HD
ATOM     44  C   UNL A   1      45.536  28.249  26.233  1.00  0.00     0.034 A 
ATOM     45  C   UNL A   1      40.056  30.082  30.239  1.00  0.00     0.034 A 
ATOM     46  C   UNL A   1      45.649  29.536  26.876  1.00  0.00     0.049 A 
ATOM     47  C   UNL A   1      41.229  31.004  30.009  1.00  0.00     0.074 A 
ATOM     48  C   UNL A   1      46.700  30.437  26.833  1.00  0.00     0.029 A 
ATOM     49  N   UNL A   1      44.666  30.118  27.666  1.00  0.00    -0.354 N 
ATOM     50  N   UNL A   1      42.318  30.802  29.303  1.00  0.00    -0.248 NA
ATOM     51  C   UNL A   1      41.171  32.317  30.665  1.00  0.00     0.031 C 
ATOM     52  C   UNL A   1      46.376  31.535  27.638  1.00  0.00     0.029 A 
ATOM     53  C   UNL A   1      45.095  31.350  28.135  1.00  0.00     0.049 A 
ATOM     54  H   UNL A   1      43.791  29.714  27.865  1.00  0.00     0.167 HD
ATOM     55  C   UNL A   1      43.072  31.964  29.432  1.00  0.00     0.074 A 
ATOM     56  C   UNL A   1      42.291  32.881  30.236  1.00  0.00     0.031 C 
ATOM     57  C   UNL A   1      44.312  32.242  28.956  1.00  0.00     0.034 A 
BRANCH  44  58
ATOM     58  C   UNL A   1      46.714  27.722  25.446  1.00  0.00     0.023 A 
ATOM     59  C   UNL A   1      46.984  28.113  24.123  1.00  0.00     0.031 A 
ATOM     60  C   UNL A   1      47.557  26.759  26.032  1.00  0.00     0.131 A 
ATOM     61  C   UNL A   1      48.023  27.491  23.411  1.00  0.00     0.055 A 
ATOM     62  C   UNL A   1      48.635  26.200  25.344  1.00  0.00     0.041 A 
ATOM     63  F   UNL A   1      47.334  26.328  27.284  1.00  0.00    -0.206 F 
ATOM     64  C   UNL A   1      48.863  26.554  24.019  1.00  0.00     0.022 A 
BRANCH  61  65
ATOM     65  S   UNL A   1      48.172  27.809  21.630  1.00  0.00     0.124 S 
ATOM     66  O   UNL A   1      49.235  28.811  21.596  1.00  0.00    -0.237 OA
ATOM     67  O   UNL A   1      48.515  26.495  21.102  1.00  0.00    -0.237 OA
ATOM     68  O   UNL A   1      46.848  28.306  21.258  1.00  0.00    -0.744 OA
ENDBRANCH  61  65
ENDBRANCH  44  58
BRANCH  45  69
ATOM     69  C   UNL A   1      38.857  30.553  30.997  1.00  0.00     0.023 A 
ATOM     70  C   UNL A   1      37.791  31.172  30.321  1.00  0.00     0.031 A 
ATOM     71  C   UNL A   1      38.747  30.415  32.392  1.00  0.00     0.131 A 
ATOM     72  C   UNL A   1      36.669  31.627  31.031  1.00  0.00     0.055 A 
ATOM     73  C   UNL A   1      37.610  30.831  33.089  1.00  0.00     0.041 A 
ATOM     74  F   UNL A   1      39.738  29.851  33.101  1.00  0.00    -0.206 F 
ATOM     75  C   UNL A   1      36.564  31.447  32.409  1.00  0.00     0.022 A 
BRANCH  72  76
ATOM     76  S   UNL A   1      35.362  32.493  30.121  1.00  0.00     0.124 S 
ATOM     77  O   UNL A   1      34.338  32.658  31.146  1.00  0.00    -0.237 OA
ATOM     78  O   UNL A   1      36.055  33.707  29.699  1.00  0.00    -0.237 OA
ATOM     79  O   UNL A   1      35.025  31.565  29.044  1.00  0.00    -0.744 OA
ENDBRANCH  72  76
ENDBRANCH  45  69
BRANCH  57  80
ATOM     80  C   UNL A   1      44.894  33.587  29.318  1.00  0.00     0.023 A 
ATOM     81  C   UNL A   1      44.722  34.701  28.476  1.00  0.00     0.031 A 
ATOM     82  C   UNL A   1      45.638  33.756  30.497  1.00  0.00     0.131 A 
ATOM     83  C   UNL A   1      45.340  35.920  28.792  1.00  0.00     0.055 A 
ATOM     84  C   UNL A   1      46.204  34.987  30.835  1.00  0.00     0.041 A 
ATOM     85  F   UNL A   1      45.829  32.727  31.338  1.00  0.00    -0.206 F 
ATOM     86  C   UNL A   1      46.068  36.074  29.975  1.00  0.00     0.022 A 
BRANCH  83  87
ATOM     87  S   UNL A   1      45.247  37.279  27.596  1.00  0.00     0.124 S 
ATOM     88  O   UNL A   1      45.608  38.432  28.414  1.00  0.00    -0.237 OA
ATOM     89  O   UNL A   1      46.228  36.879  26.590  1.00  0.00    -0.237 OA
ATOM     90  O   UNL A   1      43.856  37.248  27.147  1.00  0.00    -0.744 OA
ENDBRANCH  83  87
ENDBRANCH  57  80
ENDBRANCH  31  32
ENDBRANCH  24  26
ENDBRANCH  23  24
ENDBRANCH   1  23
TORSDOF 15
ENDMDL
MODEL 3
REMARK VINA RESULT:     -12.5      1.490      2.086
REMARK SMILES C[C@@H](C(=O)OCCOC(=O)c1ccc(-c2c3nc(c(-c4cc(S(=O)(=O)[O-])ccc4F)c4ccc([nH]4)c(-c4cc(S(=O)(=O)[O-])ccc4F)c4nc(c(-c5cc(S(=O)(=O)[O-])ccc5F)c5ccc2[nH]5)C=C4)C=C3)cc1)c1ccc2c(c1)[nH]c1ccc(Cl)cc12
REMARK SMILES IDX 7 1 6 2 5 3 3 4 4 5 2 6 1 7 74 8 75 9 79 10 76 11 78 12
REMARK SMILES IDX 77 13 80 14 87 15 81 16 86 18 82 19 84 20 83 21 85 22 8 23
REMARK SMILES IDX 9 24 10 25 11 26 12 27 73 28 13 29 72 30 14 31 15 32 16 33
REMARK SMILES IDX 66 34 17 35 71 36 65 37 67 38 18 39 70 40 64 41 63 42 19 44
REMARK SMILES IDX 51 45 31 46 50 47 32 48 35 49 49 50 68 51 33 52 34 53 48 55
REMARK SMILES IDX 69 56 36 57 20 58 21 59 29 60 22 61 28 62 30 63 27 64 23 65
REMARK SMILES IDX 24 66 25 67 26 68 52 69 53 70 61 71 54 72 60 73 62 74 59 75
REMARK SMILES IDX 55 76 56 77 57 78 58 79 37 80 38 81 46 82 39 83 45 84 47 85
REMARK SMILES IDX 44 86 40 87 41 88 42 89 43 90
REMARK H PARENT 80 17 67 43 35 54
REMARK Flexibility Score: inf
ROOT
ATOM      1  C   UNL A   1      36.327  20.476  25.020  1.00  0.00     0.275 C 
ENDROOT
BRANCH   1   2
ATOM      2  C   UNL A   1      35.062  21.138  25.561  1.00  0.00     0.274 C 
BRANCH   2   3
ATOM      3  O   UNL A   1      34.242  21.645  24.490  1.00  0.00    -0.462 OA
BRANCH   3   4
ATOM      4  C   UNL A   1      32.897  21.497  24.669  1.00  0.00     0.313 C 
ATOM      5  O   UNL A   1      32.423  20.632  25.398  1.00  0.00    -0.252 OA
BRANCH   4   6
ATOM      6  C   UNL A   1      32.063  22.453  23.781  1.00  0.00     0.126 C 
ATOM      7  C   UNL A   1      32.593  22.482  22.340  1.00  0.00     0.025 C 
BRANCH   6   8
ATOM      8  C   UNL A   1      31.912  23.847  24.419  1.00  0.00    -0.032 A 
ATOM      9  C   UNL A   1      30.773  24.652  24.253  1.00  0.00     0.005 A 
ATOM     10  C   UNL A   1      32.989  24.363  25.169  1.00  0.00     0.031 A 
ATOM     11  C   UNL A   1      30.724  25.973  24.735  1.00  0.00     0.011 A 
ATOM     12  C   UNL A   1      32.963  25.707  25.553  1.00  0.00     0.047 A 
ATOM     13  C   UNL A   1      31.859  26.528  25.355  1.00  0.00     0.007 A 
ATOM     14  N   UNL A   1      33.950  26.480  26.113  1.00  0.00    -0.355 N 
ATOM     15  C   UNL A   1      32.207  27.835  25.828  1.00  0.00     0.009 A 
ATOM     16  C   UNL A   1      33.530  27.776  26.271  1.00  0.00     0.047 A 
ATOM     17  H   UNL A   1      34.841  26.147  26.368  1.00  0.00     0.167 HD
ATOM     18  C   UNL A   1      31.535  29.073  25.879  1.00  0.00     0.031 A 
ATOM     19  C   UNL A   1      34.220  28.887  26.765  1.00  0.00     0.028 A 
ATOM     20  C   UNL A   1      32.206  30.188  26.394  1.00  0.00     0.041 A 
ATOM     21  C   UNL A   1      33.521  30.093  26.838  1.00  0.00     0.022 A 
ATOM     22  Cl  UNL A   1      31.386  31.699  26.485  1.00  0.00    -0.084 Cl
ENDBRANCH   6   8
ENDBRANCH   4   6
ENDBRANCH   3   4
ENDBRANCH   2   3
ENDBRANCH   1   2
BRANCH   1  23
ATOM     23  O   UNL A   1      37.401  21.428  24.923  1.00  0.00    -0.458 OA
BRANCH  23  24
ATOM     24  C   UNL A   1      38.522  21.116  25.611  1.00  0.00     0.338 C 
ATOM     25  O   UNL A   1      39.001  20.000  25.773  1.00  0.00    -0.246 OA
BRANCH  24  26
ATOM     26  C   UNL A   1      39.112  22.329  26.196  1.00  0.00     0.060 A 
ATOM     27  C   UNL A   1      38.534  23.570  25.948  1.00  0.00     0.016 A 
ATOM     28  C   UNL A   1      40.318  22.244  26.896  1.00  0.00     0.016 A 
ATOM     29  C   UNL A   1      39.202  24.733  26.332  1.00  0.00     0.010 A 
ATOM     30  C   UNL A   1      40.949  23.414  27.342  1.00  0.00     0.010 A 
ATOM     31  C   UNL A   1      40.419  24.676  27.025  1.00  0.00    -0.014 A 
BRANCH  31  32
ATOM     32  C   UNL A   1      41.155  25.938  27.334  1.00  0.00     0.031 A 
ATOM     33  C   UNL A   1      40.593  26.910  28.341  1.00  0.00     0.074 A 
ATOM     34  C   UNL A   1      42.353  26.186  26.765  1.00  0.00     0.049 A 
ATOM     35  N   UNL A   1      41.033  28.093  28.691  1.00  0.00    -0.248 NA
ATOM     36  C   UNL A   1      39.362  26.504  29.035  1.00  0.00     0.031 C 
ATOM     37  C   UNL A   1      43.036  25.296  25.827  1.00  0.00     0.029 A 
ATOM     38  N   UNL A   1      43.231  27.231  26.924  1.00  0.00    -0.354 N 
ATOM     39  C   UNL A   1      40.089  28.607  29.575  1.00  0.00     0.074 A 
ATOM     40  C   UNL A   1      39.066  27.594  29.727  1.00  0.00     0.031 C 
ATOM     41  C   UNL A   1      44.262  25.780  25.574  1.00  0.00     0.029 A 
ATOM     42  C   UNL A   1      44.427  27.057  26.261  1.00  0.00     0.049 A 
ATOM     43  H   UNL A   1      43.026  28.030  27.462  1.00  0.00     0.167 HD
ATOM     44  C   UNL A   1      40.067  29.823  30.177  1.00  0.00     0.034 A 
ATOM     45  C   UNL A   1      45.529  27.835  26.221  1.00  0.00     0.034 A 
ATOM     46  C   UNL A   1      41.127  30.796  30.062  1.00  0.00     0.049 A 
ATOM     47  C   UNL A   1      45.506  29.152  26.957  1.00  0.00     0.074 A 
ATOM     48  C   UNL A   1      41.197  32.070  30.599  1.00  0.00     0.029 A 
ATOM     49  N   UNL A   1      42.319  30.593  29.376  1.00  0.00    -0.354 N 
ATOM     50  N   UNL A   1      44.565  29.662  27.718  1.00  0.00    -0.248 NA
ATOM     51  C   UNL A   1      46.691  30.009  26.810  1.00  0.00     0.031 C 
ATOM     52  C   UNL A   1      42.401  32.657  30.193  1.00  0.00     0.029 A 
ATOM     53  C   UNL A   1      43.115  31.726  29.455  1.00  0.00     0.049 A 
ATOM     54  H   UNL A   1      42.563  29.766  28.902  1.00  0.00     0.167 HD
ATOM     55  C   UNL A   1      45.048  30.898  28.139  1.00  0.00     0.074 A 
ATOM     56  C   UNL A   1      46.382  31.031  27.593  1.00  0.00     0.031 C 
ATOM     57  C   UNL A   1      44.435  31.852  28.885  1.00  0.00     0.034 A 
BRANCH  44  58
ATOM     58  C   UNL A   1      38.804  30.208  30.913  1.00  0.00     0.023 A 
ATOM     59  C   UNL A   1      37.772  30.954  30.318  1.00  0.00     0.031 A 
ATOM     60  C   UNL A   1      38.663  29.853  32.268  1.00  0.00     0.131 A 
ATOM     61  C   UNL A   1      36.683  31.382  31.096  1.00  0.00     0.055 A 
ATOM     62  C   UNL A   1      37.541  30.216  33.015  1.00  0.00     0.041 A 
ATOM     63  F   UNL A   1      39.626  29.162  32.896  1.00  0.00    -0.206 F 
ATOM     64  C   UNL A   1      36.550  30.999  32.433  1.00  0.00     0.022 A 
BRANCH  61  65
ATOM     65  S   UNL A   1      35.513  32.570  30.381  1.00  0.00     0.124 S 
ATOM     66  O   UNL A   1      34.366  32.433  31.276  1.00  0.00    -0.237 OA
ATOM     67  O   UNL A   1      36.246  33.827  30.469  1.00  0.00    -0.237 OA
ATOM     68  O   UNL A   1      35.298  32.068  29.025  1.00  0.00    -0.744 OA
ENDBRANCH  61  65
ENDBRANCH  44  58
BRANCH  45  69
ATOM     69  C   UNL A   1      46.756  27.396  25.488  1.00  0.00     0.023 A 
ATOM     70  C   UNL A   1      46.945  27.759  24.143  1.00  0.00     0.031 A 
ATOM     71  C   UNL A   1      47.749  26.605  26.091  1.00  0.00     0.131 A 
ATOM     72  C   UNL A   1      48.090  27.340  23.449  1.00  0.00     0.055 A 
ATOM     73  C   UNL A   1      48.908  26.224  25.409  1.00  0.00     0.041 A 
ATOM     74  F   UNL A   1      47.621  26.206  27.367  1.00  0.00    -0.206 F 
ATOM     75  C   UNL A   1      49.080  26.586  24.077  1.00  0.00     0.022 A 
BRANCH  72  76
ATOM     76  S   UNL A   1      48.242  27.766  21.693  1.00  0.00     0.124 S 
ATOM     77  O   UNL A   1      46.967  28.421  21.430  1.00  0.00    -0.237 OA
ATOM     78  O   UNL A   1      49.421  28.627  21.703  1.00  0.00    -0.237 OA
ATOM     79  O   UNL A   1      48.425  26.469  21.044  1.00  0.00    -0.744 OA
ENDBRANCH  72  76
ENDBRANCH  45  69
BRANCH  57  80
ATOM     80  C   UNL A   1      45.207  33.125  29.128  1.00  0.00     0.023 A 
ATOM     81  C   UNL A   1      45.055  34.239  28.281  1.00  0.00     0.031 A 
ATOM     82  C   UNL A   1      46.113  33.225  30.197  1.00  0.00     0.131 A 
ATOM     83  C   UNL A   1      45.844  35.381  28.478  1.00  0.00     0.055 A 
ATOM     84  C   UNL A   1      46.854  34.386  30.422  1.00  0.00     0.041 A 
ATOM     85  F   UNL A   1      46.294  32.194  31.038  1.00  0.00    -0.206 F 
ATOM     86  C   UNL A   1      46.732  35.468  29.553  1.00  0.00     0.022 A 
BRANCH  83  87
ATOM     87  S   UNL A   1      45.751  36.723  27.262  1.00  0.00     0.124 S 
ATOM     88  O   UNL A   1      46.680  36.266  26.233  1.00  0.00    -0.237 OA
ATOM     89  O   UNL A   1      44.339  36.716  26.894  1.00  0.00    -0.237 OA
ATOM     90  O   UNL A   1      46.188  37.898  28.012  1.00  0.00    -0.744 OA
ENDBRANCH  83  87
ENDBRANCH  57  80
ENDBRANCH  31  32
ENDBRANCH  24  26
ENDBRANCH  23  24
ENDBRANCH   1  23
TORSDOF 15
ENDMDL
