MODEL 1
REMARK VINA RESULT:     -13.2      0.000      0.000
REMARK SMILES O=C(OCCOC(=O)c1cccc(N2NC(=O)[C@H]3CC=CC[C@H]3C2=O)c1)c1ccc(-c2c3nc(c(-c4cc(S(=O)(=O)[O-])ccc4F)c4ccc([nH]4)c(-c4cc(S(=O)(=O)[O-])ccc4F)c4nc(c(-c5cc(S(=O)(=O)[O-])ccc5F)c5ccc2[nH]5)C=C4)C=C3)cc1
REMARK SMILES IDX 4 1 3 2 2 3 1 4 27 5 28 6 89 7 29 8 88 9 30 10 31 11 32 12
REMARK SMILES IDX 82 13 33 14 87 15 81 16 83 17 34 18 86 19 80 20 79 21 35 23
REMARK SMILES IDX 67 24 47 25 66 26 48 27 51 28 65 29 84 30 49 31 50 32 64 34
REMARK SMILES IDX 85 35 52 36 36 37 37 38 45 39 38 40 44 41 46 42 43 43 39 44
REMARK SMILES IDX 40 45 41 46 42 47 68 48 69 49 77 50 70 51 76 52 78 53 75 54
REMARK SMILES IDX 71 55 72 56 73 57 74 58 53 59 54 60 62 61 55 62 61 63 63 64
REMARK SMILES IDX 60 65 56 66 57 67 58 68 59 69 5 70 6 71 7 72 8 73 9 74 10 75
REMARK SMILES IDX 26 76 11 77 13 78 12 79 14 80 15 81 24 82 16 83 23 85 25 86
REMARK SMILES IDX 17 87 18 88 22 89 19 90 21 91 20 92
REMARK H PARENT 83 22 51 33 15 84
REMARK Flexibility Score: inf
ROOT
ATOM      1  C   UNL A   1      31.318  32.278  26.851  1.00  0.00     0.275 C 
ENDROOT
BRANCH   1   2
ATOM      2  O   UNL A   1      32.182  33.424  26.966  1.00  0.00    -0.458 OA
BRANCH   2   3
ATOM      3  C   UNL A   1      33.014  33.800  27.966  1.00  0.00     0.338 C 
ATOM      4  O   UNL A   1      32.827  34.899  28.490  1.00  0.00    -0.246 OA
BRANCH   3   5
ATOM      5  C   UNL A   1      34.232  33.031  28.382  1.00  0.00     0.060 A 
ATOM      6  C   UNL A   1      34.255  31.718  28.855  1.00  0.00     0.016 A 
ATOM      7  C   UNL A   1      35.461  33.716  28.302  1.00  0.00     0.016 A 
ATOM      8  C   UNL A   1      35.458  31.092  29.193  1.00  0.00     0.010 A 
ATOM      9  C   UNL A   1      36.672  33.091  28.621  1.00  0.00     0.010 A 
ATOM     10  C   UNL A   1      36.671  31.776  29.093  1.00  0.00    -0.014 A 
BRANCH  10  11
ATOM     11  C   UNL A   1      37.880  31.174  29.702  1.00  0.00     0.031 A 
ATOM     12  C   UNL A   1      38.222  31.570  31.115  1.00  0.00     0.074 A 
ATOM     13  C   UNL A   1      38.579  30.221  29.058  1.00  0.00     0.049 A 
ATOM     14  N   UNL A   1      39.152  31.106  31.908  1.00  0.00    -0.248 NA
ATOM     15  C   UNL A   1      37.378  32.613  31.726  1.00  0.00     0.031 C 
ATOM     16  C   UNL A   1      38.291  29.705  27.717  1.00  0.00     0.029 A 
ATOM     17  N   UNL A   1      39.675  29.503  29.456  1.00  0.00    -0.354 N 
ATOM     18  C   UNL A   1      38.977  31.767  33.119  1.00  0.00     0.074 A 
ATOM     19  C   UNL A   1      37.905  32.719  32.934  1.00  0.00     0.031 C 
ATOM     20  C   UNL A   1      39.211  28.776  27.393  1.00  0.00     0.029 A 
ATOM     21  C   UNL A   1      40.148  28.635  28.500  1.00  0.00     0.049 A 
ATOM     22  H   UNL A   1      40.088  29.601  30.344  1.00  0.00     0.167 HD
ATOM     23  C   UNL A   1      39.630  31.574  34.291  1.00  0.00     0.034 A 
ATOM     24  C   UNL A   1      41.225  27.830  28.531  1.00  0.00     0.034 A 
ATOM     25  C   UNL A   1      40.731  30.656  34.440  1.00  0.00     0.049 A 
ATOM     26  C   UNL A   1      42.046  27.769  29.791  1.00  0.00     0.074 A 
ATOM     27  C   UNL A   1      41.479  30.372  35.568  1.00  0.00     0.029 A 
ATOM     28  N   UNL A   1      41.261  29.891  33.408  1.00  0.00    -0.354 N 
ATOM     29  N   UNL A   1      41.878  28.407  30.923  1.00  0.00    -0.248 NA
ATOM     30  C   UNL A   1      43.187  26.846  29.771  1.00  0.00     0.031 C 
ATOM     31  C   UNL A   1      42.501  29.488  35.201  1.00  0.00     0.029 A 
ATOM     32  C   UNL A   1      42.345  29.162  33.864  1.00  0.00     0.049 A 
ATOM     33  H   UNL A   1      40.914  29.872  32.486  1.00  0.00     0.167 HD
ATOM     34  C   UNL A   1      42.876  27.934  31.768  1.00  0.00     0.074 A 
ATOM     35  C   UNL A   1      43.644  26.968  31.005  1.00  0.00     0.031 C 
ATOM     36  C   UNL A   1      43.119  28.241  33.067  1.00  0.00     0.034 A 
BRANCH  23  37
ATOM     37  C   UNL A   1      39.187  32.410  35.468  1.00  0.00     0.023 A 
ATOM     38  C   UNL A   1      39.592  33.751  35.612  1.00  0.00     0.031 A 
ATOM     39  C   UNL A   1      38.407  31.846  36.491  1.00  0.00     0.131 A 
ATOM     40  C   UNL A   1      39.286  34.454  36.787  1.00  0.00     0.055 A 
ATOM     41  C   UNL A   1      38.040  32.576  37.623  1.00  0.00     0.041 A 
ATOM     42  F   UNL A   1      38.012  30.565  36.422  1.00  0.00    -0.206 F 
ATOM     43  C   UNL A   1      38.493  33.882  37.785  1.00  0.00     0.022 A 
BRANCH  40  44
ATOM     44  S   UNL A   1      40.064  36.070  37.061  1.00  0.00     0.124 S 
ATOM     45  O   UNL A   1      41.440  35.689  37.373  1.00  0.00    -0.237 OA
ATOM     46  O   UNL A   1      39.862  36.740  35.782  1.00  0.00    -0.237 OA
ATOM     47  O   UNL A   1      39.311  36.629  38.182  1.00  0.00    -0.744 OA
ENDBRANCH  40  44
ENDBRANCH  23  37
BRANCH  24  48
ATOM     48  C   UNL A   1      41.671  27.048  27.349  1.00  0.00     0.023 A 
ATOM     49  C   UNL A   1      41.524  25.655  27.287  1.00  0.00     0.031 A 
ATOM     50  C   UNL A   1      42.438  27.685  26.360  1.00  0.00     0.131 A 
ATOM     51  C   UNL A   1      42.169  24.938  26.265  1.00  0.00     0.055 A 
ATOM     52  C   UNL A   1      43.054  26.969  25.335  1.00  0.00     0.041 A 
ATOM     53  F   UNL A   1      42.641  29.008  26.412  1.00  0.00    -0.206 F 
ATOM     54  C   UNL A   1      42.919  25.587  25.280  1.00  0.00     0.022 A 
BRANCH  51  55
ATOM     55  S   UNL A   1      42.097  23.125  26.276  1.00  0.00     0.124 S 
ATOM     56  O   UNL A   1      40.665  22.890  26.421  1.00  0.00    -0.237 OA
ATOM     57  O   UNL A   1      42.676  22.783  24.981  1.00  0.00    -0.237 OA
ATOM     58  O   UNL A   1      42.914  22.764  27.433  1.00  0.00    -0.744 OA
ENDBRANCH  51  55
ENDBRANCH  24  48
BRANCH  36  59
ATOM     59  C   UNL A   1      44.231  27.474  33.731  1.00  0.00     0.023 A 
ATOM     60  C   UNL A   1      44.016  26.212  34.307  1.00  0.00     0.031 A 
ATOM     61  C   UNL A   1      45.505  28.056  33.851  1.00  0.00     0.131 A 
ATOM     62  C   UNL A   1      45.040  25.604  35.045  1.00  0.00     0.055 A 
ATOM     63  C   UNL A   1      46.541  27.414  34.526  1.00  0.00     0.041 A 
ATOM     64  F   UNL A   1      45.756  29.267  33.328  1.00  0.00    -0.206 F 
ATOM     65  C   UNL A   1      46.306  26.188  35.144  1.00  0.00     0.022 A 
BRANCH  62  66
ATOM     66  S   UNL A   1      44.655  24.102  35.986  1.00  0.00     0.124 S 
ATOM     67  O   UNL A   1      45.747  23.215  35.596  1.00  0.00    -0.237 OA
ATOM     68  O   UNL A   1      44.686  24.581  37.364  1.00  0.00    -0.237 OA
ATOM     69  O   UNL A   1      43.335  23.717  35.493  1.00  0.00    -0.744 OA
ENDBRANCH  62  66
ENDBRANCH  36  59
ENDBRANCH  10  11
ENDBRANCH   3   5
ENDBRANCH   2   3
ENDBRANCH   1   2
BRANCH   1  70
ATOM     70  C   UNL A   1      32.020  30.986  26.426  1.00  0.00     0.275 C 
BRANCH  70  71
ATOM     71  O   UNL A   1      31.390  30.337  25.314  1.00  0.00    -0.458 OA
BRANCH  71  72
ATOM     72  C   UNL A   1      32.118  29.334  24.750  1.00  0.00     0.338 C 
ATOM     73  O   UNL A   1      33.323  29.279  24.639  1.00  0.00    -0.246 OA
BRANCH  72  74
ATOM     74  C   UNL A   1      31.218  28.213  24.414  1.00  0.00     0.062 A 
ATOM     75  C   UNL A   1      29.977  28.529  23.852  1.00  0.00     0.016 A 
ATOM     76  C   UNL A   1      31.580  26.880  24.637  1.00  0.00     0.044 A 
ATOM     77  C   UNL A   1      29.129  27.508  23.435  1.00  0.00     0.003 A 
ATOM     78  C   UNL A   1      30.707  25.847  24.257  1.00  0.00     0.067 A 
ATOM     79  C   UNL A   1      29.500  26.176  23.621  1.00  0.00     0.028 A 
BRANCH  78  80
ATOM     80  N   UNL A   1      30.981  24.493  24.628  1.00  0.00    -0.221 N 
ATOM     81  N   UNL A   1      31.740  23.767  23.707  1.00  0.00    -0.260 N 
ATOM     82  C   UNL A   1      30.736  24.011  25.916  1.00  0.00     0.249 C 
ATOM     83  C   UNL A   1      32.369  22.592  23.981  1.00  0.00     0.243 C 
ATOM     84  H   UNL A   1      31.826  24.131  22.796  1.00  0.00     0.192 HD
ATOM     85  C   UNL A   1      31.415  22.711  26.314  1.00  0.00     0.097 C 
ATOM     86  O   UNL A   1      30.087  24.632  26.762  1.00  0.00    -0.272 OA
ATOM     87  O   UNL A   1      33.239  22.192  23.212  1.00  0.00    -0.273 OA
ATOM     88  C   UNL A   1      31.839  21.810  25.155  1.00  0.00     0.097 C 
ATOM     89  C   UNL A   1      32.550  23.109  27.270  1.00  0.00     0.041 C 
ATOM     90  C   UNL A   1      32.803  20.679  25.557  1.00  0.00     0.041 C 
ATOM     91  C   UNL A   1      33.601  22.071  27.473  1.00  0.00    -0.030 C 
ATOM     92  C   UNL A   1      33.711  20.980  26.709  1.00  0.00    -0.030 C 
ENDBRANCH  78  80
ENDBRANCH  72  74
ENDBRANCH  71  72
ENDBRANCH  70  71
ENDBRANCH   1  70
TORSDOF 15
ENDMDL
MODEL 2
REMARK VINA RESULT:     -12.7      1.875      2.294
REMARK SMILES O=C(OCCOC(=O)c1cccc(N2NC(=O)[C@H]3CC=CC[C@H]3C2=O)c1)c1ccc(-c2c3nc(c(-c4cc(S(=O)(=O)[O-])ccc4F)c4ccc([nH]4)c(-c4cc(S(=O)(=O)[O-])ccc4F)c4nc(c(-c5cc(S(=O)(=O)[O-])ccc5F)c5ccc2[nH]5)C=C4)C=C3)cc1
REMARK SMILES IDX 4 1 3 2 2 3 1 4 27 5 28 6 89 7 29 8 88 9 30 10 31 11 32 12
REMARK SMILES IDX 82 13 33 14 87 15 81 16 83 17 34 18 86 19 80 20 79 21 35 23
REMARK SMILES IDX 67 24 47 25 66 26 48 27 51 28 65 29 84 30 49 31 50 32 64 34
REMARK SMILES IDX 85 35 52 36 36 37 37 38 45 39 38 40 44 41 46 42 43 43 39 44
REMARK SMILES IDX 40 45 41 46 42 47 68 48 69 49 77 50 70 51 76 52 78 53 75 54
REMARK SMILES IDX 71 55 72 56 73 57 74 58 53 59 54 60 62 61 55 62 61 63 63 64
REMARK SMILES IDX 60 65 56 66 57 67 58 68 59 69 5 70 6 71 7 72 8 73 9 74 10 75
REMARK SMILES IDX 26 76 11 77 13 78 12 79 14 80 15 81 24 82 16 83 23 85 25 86
REMARK SMILES IDX 17 87 18 88 22 89 19 90 21 91 20 92
REMARK H PARENT 83 22 51 33 15 84
REMARK Flexibility Score: inf
ROOT
ATOM      1  C   UNL A   1      32.017  32.841  26.681  1.00  0.00     0.275 C 
ENDROOT
BRANCH   1   2
ATOM      2  O   UNL A   1      32.217  33.737  27.789  1.00  0.00    -0.458 OA
BRANCH   2   3
ATOM      3  C   UNL A   1      33.360  34.209  28.342  1.00  0.00     0.338 C 
ATOM      4  O   UNL A   1      33.505  35.430  28.414  1.00  0.00    -0.246 OA
BRANCH   3   5
ATOM      5  C   UNL A   1      34.520  33.347  28.743  1.00  0.00     0.060 A 
ATOM      6  C   UNL A   1      34.451  32.163  29.477  1.00  0.00     0.016 A 
ATOM      7  C   UNL A   1      35.797  33.798  28.351  1.00  0.00     0.016 A 
ATOM      8  C   UNL A   1      35.602  31.427  29.773  1.00  0.00     0.010 A 
ATOM      9  C   UNL A   1      36.952  33.059  28.629  1.00  0.00     0.010 A 
ATOM     10  C   UNL A   1      36.860  31.876  29.365  1.00  0.00    -0.014 A 
BRANCH  10  11
ATOM     11  C   UNL A   1      38.064  31.214  29.918  1.00  0.00     0.031 A 
ATOM     12  C   UNL A   1      38.486  31.585  31.316  1.00  0.00     0.074 A 
ATOM     13  C   UNL A   1      38.689  30.233  29.241  1.00  0.00     0.049 A 
ATOM     14  N   UNL A   1      39.427  31.074  32.066  1.00  0.00    -0.248 NA
ATOM     15  C   UNL A   1      37.720  32.662  31.968  1.00  0.00     0.031 C 
ATOM     16  C   UNL A   1      38.320  29.740  27.912  1.00  0.00     0.029 A 
ATOM     17  N   UNL A   1      39.768  29.463  29.587  1.00  0.00    -0.354 N 
ATOM     18  C   UNL A   1      39.337  31.735  33.287  1.00  0.00     0.074 A 
ATOM     19  C   UNL A   1      38.303  32.737  33.152  1.00  0.00     0.031 C 
ATOM     20  C   UNL A   1      39.180  28.771  27.544  1.00  0.00     0.029 A 
ATOM     21  C   UNL A   1      40.157  28.579  28.608  1.00  0.00     0.049 A 
ATOM     22  H   UNL A   1      40.223  29.536  30.457  1.00  0.00     0.167 HD
ATOM     23  C   UNL A   1      40.030  31.505  34.428  1.00  0.00     0.034 A 
ATOM     24  C   UNL A   1      41.196  27.725  28.588  1.00  0.00     0.034 A 
ATOM     25  C   UNL A   1      41.093  30.536  34.524  1.00  0.00     0.049 A 
ATOM     26  C   UNL A   1      42.067  27.618  29.811  1.00  0.00     0.074 A 
ATOM     27  C   UNL A   1      41.875  30.210  35.617  1.00  0.00     0.029 A 
ATOM     28  N   UNL A   1      41.540  29.753  33.467  1.00  0.00    -0.354 N 
ATOM     29  N   UNL A   1      41.979  28.257  30.952  1.00  0.00    -0.248 NA
ATOM     30  C   UNL A   1      43.162  26.644  29.736  1.00  0.00     0.031 C 
ATOM     31  C   UNL A   1      42.838  29.281  35.202  1.00  0.00     0.029 A 
ATOM     32  C   UNL A   1      42.608  28.971  33.872  1.00  0.00     0.049 A 
ATOM     33  H   UNL A   1      41.154  29.755  32.561  1.00  0.00     0.167 HD
ATOM     34  C   UNL A   1      42.989  27.733  31.750  1.00  0.00     0.074 A 
ATOM     35  C   UNL A   1      43.677  26.737  30.951  1.00  0.00     0.031 C 
ATOM     36  C   UNL A   1      43.303  28.020  33.039  1.00  0.00     0.034 A 
BRANCH  23  37
ATOM     37  C   UNL A   1      39.678  32.353  35.626  1.00  0.00     0.023 A 
ATOM     38  C   UNL A   1      38.854  31.863  36.658  1.00  0.00     0.031 A 
ATOM     39  C   UNL A   1      40.114  33.686  35.710  1.00  0.00     0.131 A 
ATOM     40  C   UNL A   1      38.427  32.723  37.682  1.00  0.00     0.055 A 
ATOM     41  C   UNL A   1      39.748  34.513  36.773  1.00  0.00     0.041 A 
ATOM     42  F   UNL A   1      40.881  34.215  34.745  1.00  0.00    -0.206 F 
ATOM     43  C   UNL A   1      38.886  34.040  37.758  1.00  0.00     0.022 A 
BRANCH  40  44
ATOM     44  S   UNL A   1      37.144  32.142  38.826  1.00  0.00     0.124 S 
ATOM     45  O   UNL A   1      37.092  30.715  38.514  1.00  0.00    -0.237 OA
ATOM     46  O   UNL A   1      37.699  32.490  40.128  1.00  0.00    -0.237 OA
ATOM     47  O   UNL A   1      35.960  32.902  38.430  1.00  0.00    -0.744 OA
ENDBRANCH  40  44
ENDBRANCH  23  37
BRANCH  24  48
ATOM     48  C   UNL A   1      41.552  26.931  27.384  1.00  0.00     0.023 A 
ATOM     49  C   UNL A   1      41.398  25.538  27.347  1.00  0.00     0.031 A 
ATOM     50  C   UNL A   1      42.246  27.556  26.336  1.00  0.00     0.131 A 
ATOM     51  C   UNL A   1      41.966  24.809  26.288  1.00  0.00     0.055 A 
ATOM     52  C   UNL A   1      42.786  26.829  25.275  1.00  0.00     0.041 A 
ATOM     53  F   UNL A   1      42.456  28.879  26.360  1.00  0.00    -0.206 F 
ATOM     54  C   UNL A   1      42.643  25.447  25.244  1.00  0.00     0.022 A 
BRANCH  51  55
ATOM     55  S   UNL A   1      41.891  22.997  26.322  1.00  0.00     0.124 S 
ATOM     56  O   UNL A   1      40.452  22.764  26.371  1.00  0.00    -0.237 OA
ATOM     57  O   UNL A   1      42.558  22.635  25.075  1.00  0.00    -0.237 OA
ATOM     58  O   UNL A   1      42.626  22.654  27.538  1.00  0.00    -0.744 OA
ENDBRANCH  51  55
ENDBRANCH  24  48
BRANCH  36  59
ATOM     59  C   UNL A   1      44.406  27.199  33.650  1.00  0.00     0.023 A 
ATOM     60  C   UNL A   1      44.136  26.043  34.400  1.00  0.00     0.031 A 
ATOM     61  C   UNL A   1      45.740  27.628  33.538  1.00  0.00     0.131 A 
ATOM     62  C   UNL A   1      45.180  25.396  35.076  1.00  0.00     0.055 A 
ATOM     63  C   UNL A   1      46.783  26.940  34.155  1.00  0.00     0.041 A 
ATOM     64  F   UNL A   1      46.047  28.735  32.843  1.00  0.00    -0.206 F 
ATOM     65  C   UNL A   1      46.504  25.827  34.944  1.00  0.00     0.022 A 
BRANCH  62  66
ATOM     66  S   UNL A   1      44.768  24.065  36.235  1.00  0.00     0.124 S 
ATOM     67  O   UNL A   1      43.882  24.747  37.174  1.00  0.00    -0.237 OA
ATOM     68  O   UNL A   1      44.137  23.078  35.365  1.00  0.00    -0.237 OA
ATOM     69  O   UNL A   1      46.065  23.671  36.780  1.00  0.00    -0.744 OA
ENDBRANCH  62  66
ENDBRANCH  36  59
ENDBRANCH  10  11
ENDBRANCH   3   5
ENDBRANCH   2   3
ENDBRANCH   1   2
BRANCH   1  70
ATOM     70  C   UNL A   1      31.813  31.375  27.070  1.00  0.00     0.275 C 
BRANCH  70  71
ATOM     71  O   UNL A   1      32.561  30.462  26.257  1.00  0.00    -0.458 OA
BRANCH  71  72
ATOM     72  C   UNL A   1      32.181  29.159  26.363  1.00  0.00     0.338 C 
ATOM     73  O   UNL A   1      31.482  28.668  27.222  1.00  0.00    -0.246 OA
BRANCH  72  74
ATOM     74  C   UNL A   1      32.629  28.426  25.161  1.00  0.00     0.062 A 
ATOM     75  C   UNL A   1      32.392  29.020  23.918  1.00  0.00     0.016 A 
ATOM     76  C   UNL A   1      33.273  27.187  25.247  1.00  0.00     0.044 A 
ATOM     77  C   UNL A   1      32.873  28.414  22.762  1.00  0.00     0.003 A 
ATOM     78  C   UNL A   1      33.722  26.551  24.078  1.00  0.00     0.067 A 
ATOM     79  C   UNL A   1      33.549  27.196  22.843  1.00  0.00     0.028 A 
BRANCH  78  80
ATOM     80  N   UNL A   1      34.228  25.214  24.128  1.00  0.00    -0.221 N 
ATOM     81  N   UNL A   1      34.622  24.776  25.394  1.00  0.00    -0.260 N 
ATOM     82  C   UNL A   1      34.098  24.329  23.055  1.00  0.00     0.249 C 
ATOM     83  C   UNL A   1      34.835  23.474  25.728  1.00  0.00     0.243 C 
ATOM     84  H   UNL A   1      34.754  25.455  26.094  1.00  0.00     0.192 HD
ATOM     85  C   UNL A   1      34.301  22.851  23.342  1.00  0.00     0.097 C 
ATOM     86  O   UNL A   1      33.734  24.677  21.928  1.00  0.00    -0.272 OA
ATOM     87  O   UNL A   1      34.886  23.168  26.917  1.00  0.00    -0.273 OA
ATOM     88  C   UNL A   1      35.125  22.531  24.589  1.00  0.00     0.097 C 
ATOM     89  C   UNL A   1      32.898  22.225  23.318  1.00  0.00     0.041 C 
ATOM     90  C   UNL A   1      35.041  21.062  25.040  1.00  0.00     0.041 C 
ATOM     91  C   UNL A   1      32.791  20.885  23.965  1.00  0.00    -0.030 C 
ATOM     92  C   UNL A   1      33.753  20.363  24.732  1.00  0.00    -0.030 C 
ENDBRANCH  78  80
ENDBRANCH  72  74
ENDBRANCH  71  72
ENDBRANCH  70  71
ENDBRANCH   1  70
TORSDOF 15
ENDMDL
MODEL 3
REMARK VINA RESULT:     -12.6      2.532      9.423
REMARK SMILES O=C(OCCOC(=O)c1cccc(N2NC(=O)[C@H]3CC=CC[C@H]3C2=O)c1)c1ccc(-c2c3nc(c(-c4cc(S(=O)(=O)[O-])ccc4F)c4ccc([nH]4)c(-c4cc(S(=O)(=O)[O-])ccc4F)c4nc(c(-c5cc(S(=O)(=O)[O-])ccc5F)c5ccc2[nH]5)C=C4)C=C3)cc1
REMARK SMILES IDX 4 1 3 2 2 3 1 4 27 5 28 6 89 7 29 8 88 9 30 10 31 11 32 12
REMARK SMILES IDX 82 13 33 14 87 15 81 16 83 17 34 18 86 19 80 20 79 21 35 23
REMARK SMILES IDX 67 24 47 25 66 26 48 27 51 28 65 29 84 30 49 31 50 32 64 34
REMARK SMILES IDX 85 35 52 36 36 37 37 38 45 39 38 40 44 41 46 42 43 43 39 44
REMARK SMILES IDX 40 45 41 46 42 47 68 48 69 49 77 50 70 51 76 52 78 53 75 54
REMARK SMILES IDX 71 55 72 56 73 57 74 58 53 59 54 60 62 61 55 62 61 63 63 64
REMARK SMILES IDX 60 65 56 66 57 67 58 68 59 69 5 70 6 71 7 72 8 73 9 74 10 75
REMARK SMILES IDX 26 76 11 77 13 78 12 79 14 80 15 81 24 82 16 83 23 85 25 86
REMARK SMILES IDX 17 87 18 88 22 89 19 90 21 91 20 92
REMARK H PARENT 83 22 51 33 15 84
REMARK Flexibility Score: inf
ROOT
ATOM      1  C   UNL A   1      43.935  21.973  25.715  1.00  0.00     0.275 C 
ENDROOT
BRANCH   1   2
ATOM      2  O   UNL A   1      43.277  23.172  25.266  1.00  0.00    -0.458 OA
BRANCH   2   3
ATOM      3  C   UNL A   1      43.662  24.468  25.348  1.00  0.00     0.338 C 
ATOM      4  O   UNL A   1      44.588  24.842  24.628  1.00  0.00    -0.246 OA
BRANCH   3   5
ATOM      5  C   UNL A   1      43.128  25.443  26.355  1.00  0.00     0.060 A 
ATOM      6  C   UNL A   1      43.283  26.829  26.322  1.00  0.00     0.016 A 
ATOM      7  C   UNL A   1      42.421  24.891  27.443  1.00  0.00     0.016 A 
ATOM      8  C   UNL A   1      42.719  27.643  27.308  1.00  0.00     0.010 A 
ATOM      9  C   UNL A   1      41.838  25.701  28.425  1.00  0.00     0.010 A 
ATOM     10  C   UNL A   1      42.006  27.087  28.372  1.00  0.00    -0.014 A 
BRANCH  10  11
ATOM     11  C   UNL A   1      41.654  27.951  29.522  1.00  0.00     0.031 A 
ATOM     12  C   UNL A   1      40.425  28.814  29.397  1.00  0.00     0.074 A 
ATOM     13  C   UNL A   1      42.339  27.880  30.678  1.00  0.00     0.049 A 
ATOM     14  N   UNL A   1      39.842  29.568  30.292  1.00  0.00    -0.248 NA
ATOM     15  C   UNL A   1      39.745  28.801  28.090  1.00  0.00     0.031 C 
ATOM     16  C   UNL A   1      43.498  27.022  30.937  1.00  0.00     0.029 A 
ATOM     17  N   UNL A   1      42.149  28.538  31.864  1.00  0.00    -0.354 N 
ATOM     18  C   UNL A   1      38.708  30.081  29.671  1.00  0.00     0.074 A 
ATOM     19  C   UNL A   1      38.727  29.618  28.301  1.00  0.00     0.031 C 
ATOM     20  C   UNL A   1      43.934  27.233  32.193  1.00  0.00     0.029 A 
ATOM     21  C   UNL A   1      43.087  28.237  32.823  1.00  0.00     0.049 A 
ATOM     22  H   UNL A   1      41.408  29.169  32.017  1.00  0.00     0.167 HD
ATOM     23  C   UNL A   1      37.722  30.843  30.203  1.00  0.00     0.034 A 
ATOM     24  C   UNL A   1      43.236  28.736  34.064  1.00  0.00     0.034 A 
ATOM     25  C   UNL A   1      37.750  31.337  31.557  1.00  0.00     0.049 A 
ATOM     26  C   UNL A   1      42.222  29.725  34.571  1.00  0.00     0.074 A 
ATOM     27  C   UNL A   1      36.819  32.120  32.215  1.00  0.00     0.029 A 
ATOM     28  N   UNL A   1      38.788  31.114  32.453  1.00  0.00    -0.354 N 
ATOM     29  N   UNL A   1      41.163  30.212  33.970  1.00  0.00    -0.248 NA
ATOM     30  C   UNL A   1      42.421  30.205  35.944  1.00  0.00     0.031 C 
ATOM     31  C   UNL A   1      37.327  32.426  33.484  1.00  0.00     0.029 A 
ATOM     32  C   UNL A   1      38.537  31.771  33.645  1.00  0.00     0.049 A 
ATOM     33  H   UNL A   1      39.586  30.568  32.267  1.00  0.00     0.167 HD
ATOM     34  C   UNL A   1      40.546  31.030  34.909  1.00  0.00     0.074 A 
ATOM     35  C   UNL A   1      41.362  30.978  36.107  1.00  0.00     0.031 C 
ATOM     36  C   UNL A   1      39.392  31.737  34.807  1.00  0.00     0.034 A 
BRANCH  23  37
ATOM     37  C   UNL A   1      36.574  31.212  29.294  1.00  0.00     0.023 A 
ATOM     38  C   UNL A   1      35.710  30.234  28.766  1.00  0.00     0.031 A 
ATOM     39  C   UNL A   1      36.380  32.545  28.896  1.00  0.00     0.131 A 
ATOM     40  C   UNL A   1      34.747  30.592  27.810  1.00  0.00     0.055 A 
ATOM     41  C   UNL A   1      35.369  32.905  28.003  1.00  0.00     0.041 A 
ATOM     42  F   UNL A   1      37.187  33.518  29.347  1.00  0.00    -0.206 F 
ATOM     43  C   UNL A   1      34.556  31.925  27.441  1.00  0.00     0.022 A 
BRANCH  40  44
ATOM     44  S   UNL A   1      33.852  29.273  26.942  1.00  0.00     0.124 S 
ATOM     45  O   UNL A   1      32.985  28.756  28.000  1.00  0.00    -0.237 OA
ATOM     46  O   UNL A   1      33.183  29.998  25.868  1.00  0.00    -0.237 OA
ATOM     47  O   UNL A   1      34.911  28.361  26.514  1.00  0.00    -0.744 OA
ENDBRANCH  40  44
ENDBRANCH  23  37
BRANCH  24  48
ATOM     48  C   UNL A   1      44.395  28.394  34.928  1.00  0.00     0.023 A 
ATOM     49  C   UNL A   1      44.289  27.464  35.972  1.00  0.00     0.031 A 
ATOM     50  C   UNL A   1      45.566  29.162  34.832  1.00  0.00     0.131 A 
ATOM     51  C   UNL A   1      45.335  27.351  36.904  1.00  0.00     0.055 A 
ATOM     52  C   UNL A   1      46.611  29.027  35.746  1.00  0.00     0.041 A 
ATOM     53  F   UNL A   1      45.685  30.095  33.877  1.00  0.00    -0.206 F 
ATOM     54  C   UNL A   1      46.501  28.113  36.787  1.00  0.00     0.022 A 
BRANCH  51  55
ATOM     55  S   UNL A   1      45.130  26.254  38.334  1.00  0.00     0.124 S 
ATOM     56  O   UNL A   1      43.690  26.327  38.555  1.00  0.00    -0.237 OA
ATOM     57  O   UNL A   1      45.638  24.984  37.827  1.00  0.00    -0.237 OA
ATOM     58  O   UNL A   1      45.956  26.885  39.361  1.00  0.00    -0.744 OA
ENDBRANCH  51  55
ENDBRANCH  24  48
BRANCH  36  59
ATOM     59  C   UNL A   1      38.944  32.455  36.051  1.00  0.00     0.023 A 
ATOM     60  C   UNL A   1      39.354  33.767  36.336  1.00  0.00     0.031 A 
ATOM     61  C   UNL A   1      38.154  31.781  36.999  1.00  0.00     0.131 A 
ATOM     62  C   UNL A   1      39.037  34.339  37.575  1.00  0.00     0.055 A 
ATOM     63  C   UNL A   1      37.782  32.381  38.200  1.00  0.00     0.041 A 
ATOM     64  F   UNL A   1      37.747  30.521  36.779  1.00  0.00    -0.206 F 
ATOM     65  C   UNL A   1      38.239  33.662  38.502  1.00  0.00     0.022 A 
BRANCH  62  66
ATOM     66  S   UNL A   1      39.792  35.928  38.015  1.00  0.00     0.124 S 
ATOM     67  O   UNL A   1      38.902  36.402  39.070  1.00  0.00    -0.237 OA
ATOM     68  O   UNL A   1      41.130  35.531  38.439  1.00  0.00    -0.237 OA
ATOM     69  O   UNL A   1      39.738  36.690  36.769  1.00  0.00    -0.744 OA
ENDBRANCH  62  66
ENDBRANCH  36  59
ENDBRANCH  10  11
ENDBRANCH   3   5
ENDBRANCH   2   3
ENDBRANCH   1   2
BRANCH   1  70
ATOM     70  C   UNL A   1      42.992  20.826  26.089  1.00  0.00     0.275 C 
BRANCH  70  71
ATOM     71  O   UNL A   1      41.636  21.050  25.678  1.00  0.00    -0.458 OA
BRANCH  71  72
ATOM     72  C   UNL A   1      40.709  20.890  26.662  1.00  0.00     0.338 C 
ATOM     73  O   UNL A   1      40.780  20.156  27.623  1.00  0.00    -0.246 OA
BRANCH  72  74
ATOM     74  C   UNL A   1      39.628  21.879  26.472  1.00  0.00     0.062 A 
ATOM     75  C   UNL A   1      39.771  23.119  27.102  1.00  0.00     0.016 A 
ATOM     76  C   UNL A   1      38.502  21.604  25.688  1.00  0.00     0.044 A 
ATOM     77  C   UNL A   1      38.826  24.116  26.884  1.00  0.00     0.003 A 
ATOM     78  C   UNL A   1      37.524  22.595  25.500  1.00  0.00     0.067 A 
ATOM     79  C   UNL A   1      37.719  23.861  26.073  1.00  0.00     0.028 A 
BRANCH  78  80
ATOM     80  N   UNL A   1      36.291  22.281  24.847  1.00  0.00    -0.221 N 
ATOM     81  N   UNL A   1      35.326  21.679  25.659  1.00  0.00    -0.260 N 
ATOM     82  C   UNL A   1      35.977  22.768  23.577  1.00  0.00     0.249 C 
ATOM     83  C   UNL A   1      34.006  21.580  25.344  1.00  0.00     0.243 C 
ATOM     84  H   UNL A   1      35.621  21.301  26.518  1.00  0.00     0.192 HD
ATOM     85  C   UNL A   1      34.520  22.714  23.150  1.00  0.00     0.097 C 
ATOM     86  O   UNL A   1      36.797  23.323  22.840  1.00  0.00    -0.272 OA
ATOM     87  O   UNL A   1      33.203  21.308  26.234  1.00  0.00    -0.273 OA
ATOM     88  C   UNL A   1      33.659  21.685  23.881  1.00  0.00     0.097 C 
ATOM     89  C   UNL A   1      34.006  24.159  23.231  1.00  0.00     0.041 C 
ATOM     90  C   UNL A   1      32.145  21.869  23.676  1.00  0.00     0.041 C 
ATOM     91  C   UNL A   1      32.521  24.304  23.256  1.00  0.00    -0.030 C 
ATOM     92  C   UNL A   1      31.688  23.277  23.450  1.00  0.00    -0.030 C 
ENDBRANCH  78  80
ENDBRANCH  72  74
ENDBRANCH  71  72
ENDBRANCH  70  71
ENDBRANCH   1  70
TORSDOF 15
ENDMDL
