MODEL 1
REMARK VINA RESULT:     -10.9      0.000      0.000
REMARK SMILES CC(C)C[C@H](NC(=O)[C@H](Cc1ccccc1)NC(=O)CNC(=O)CNC(=O)OCc1ccccc1)C(=O)OCCOC(=O)c1ccc(-c2c3nc(c(-c4cc(S(=O)(=O)[O-])ccc4F)c4ccc([nH]4)c(-c4cc(S(=O)(=O)[O-])ccc4F)c4nc(c(-c5cc(S(=O)(=O)[O-])ccc5F)c5ccc2[nH]5)C=C4)C=C3)cc1
REMARK SMILES IDX 5 1 4 2 2 3 1 4 3 5 36 6 37 7 38 8 39 9 40 10 41 11 42 12
REMARK SMILES IDX 43 13 44 14 45 15 106 16 46 17 105 18 47 19 48 20 49 21
REMARK SMILES IDX 99 22 50 23 104 24 98 25 100 26 51 27 103 28 97 29 96 30
REMARK SMILES IDX 52 32 84 33 64 34 83 35 65 36 68 37 82 38 101 39 66 40 67 41
REMARK SMILES IDX 81 43 102 44 69 45 53 46 54 47 62 48 55 49 61 50 63 51 60 52
REMARK SMILES IDX 56 53 57 54 58 55 59 56 85 57 86 58 94 59 87 60 93 61 95 62
REMARK SMILES IDX 92 63 88 64 89 65 90 66 91 67 70 68 71 69 79 70 72 71 78 72
REMARK SMILES IDX 80 73 77 74 73 75 74 76 75 77 76 78 6 79 7 80 8 82 9 83
REMARK SMILES IDX 17 84 18 85 19 87 20 88 21 89 22 90 23 92 24 93 25 94 26 95
REMARK SMILES IDX 27 97 28 98 29 99 30 100 31 101 35 102 32 103 34 104 33 105
REMARK SMILES IDX 10 106 11 107 12 108 16 109 13 110 15 111 14 112
REMARK H PARENT 100 31 68 42 6 81 17 86 21 91 25 96
REMARK Flexibility Score: inf
ROOT
ATOM      1  C   UNL A   1      33.137  21.039  24.964  1.00  0.00     0.192 C 
ENDROOT
BRANCH   1   2
ATOM      2  C   UNL A   1      32.945  19.657  25.658  1.00  0.00     0.040 C 
BRANCH   2   3
ATOM      3  C   UNL A   1      33.162  18.447  24.703  1.00  0.00    -0.015 C 
ATOM      4  C   UNL A   1      34.634  18.109  24.464  1.00  0.00     0.007 C 
ATOM      5  C   UNL A   1      32.440  17.207  25.237  1.00  0.00     0.007 C 
ENDBRANCH   2   3
ENDBRANCH   1   2
BRANCH   1   6
ATOM      6  C   UNL A   1      34.376  21.829  25.593  1.00  0.00     0.328 C 
ATOM      7  O   UNL A   1      34.640  21.846  26.789  1.00  0.00    -0.250 OA
BRANCH   6   8
ATOM      8  O   UNL A   1      35.026  22.626  24.691  1.00  0.00    -0.461 OA
BRANCH   8   9
ATOM      9  C   UNL A   1      36.247  22.145  24.022  1.00  0.00     0.274 C 
BRANCH   9  10
ATOM     10  C   UNL A   1      37.056  21.127  24.906  1.00  0.00     0.275 C 
BRANCH  10  11
ATOM     11  O   UNL A   1      37.816  21.850  25.910  1.00  0.00    -0.458 OA
BRANCH  11  12
ATOM     12  C   UNL A   1      39.128  21.554  26.171  1.00  0.00     0.338 C 
ATOM     13  O   UNL A   1      39.746  20.609  25.716  1.00  0.00    -0.246 OA
BRANCH  12  14
ATOM     14  C   UNL A   1      39.735  22.686  26.962  1.00  0.00     0.060 A 
ATOM     15  C   UNL A   1      39.277  23.960  26.698  1.00  0.00     0.016 A 
ATOM     16  C   UNL A   1      40.864  22.576  27.786  1.00  0.00     0.016 A 
ATOM     17  C   UNL A   1      40.080  25.059  26.966  1.00  0.00     0.010 A 
ATOM     18  C   UNL A   1      41.521  23.746  28.278  1.00  0.00     0.010 A 
ATOM     19  C   UNL A   1      41.165  25.034  27.832  1.00  0.00    -0.014 A 
BRANCH  19  20
ATOM     20  C   UNL A   1      41.852  26.347  28.173  1.00  0.00     0.031 A 
ATOM     21  C   UNL A   1      43.201  26.697  27.585  1.00  0.00     0.074 A 
ATOM     22  C   UNL A   1      41.268  27.308  28.942  1.00  0.00     0.049 A 
ATOM     23  N   UNL A   1      44.107  27.533  28.031  1.00  0.00    -0.248 NA
ATOM     24  C   UNL A   1      43.587  26.011  26.345  1.00  0.00     0.031 C 
ATOM     25  C   UNL A   1      39.924  27.255  29.535  1.00  0.00     0.029 A 
ATOM     26  N   UNL A   1      41.714  28.555  29.342  1.00  0.00    -0.354 N 
ATOM     27  C   UNL A   1      45.213  27.390  27.197  1.00  0.00     0.074 A 
ATOM     28  C   UNL A   1      44.844  26.410  26.194  1.00  0.00     0.031 C 
ATOM     29  C   UNL A   1      39.605  28.439  30.066  1.00  0.00     0.029 A 
ATOM     30  C   UNL A   1      40.808  29.244  30.125  1.00  0.00     0.049 A 
ATOM     31  H   UNL A   1      42.594  28.917  29.091  1.00  0.00     0.167 HD
ATOM     32  C   UNL A   1      46.424  28.000  27.287  1.00  0.00     0.034 A 
ATOM     33  C   UNL A   1      40.930  30.319  30.932  1.00  0.00     0.034 A 
ATOM     34  C   UNL A   1      46.729  29.041  28.245  1.00  0.00     0.049 A 
ATOM     35  C   UNL A   1      42.290  30.936  31.085  1.00  0.00     0.074 A 
ATOM     36  C   UNL A   1      47.938  29.666  28.502  1.00  0.00     0.029 A 
ATOM     37  N   UNL A   1      45.795  29.646  29.080  1.00  0.00    -0.354 N 
ATOM     38  N   UNL A   1      43.412  30.615  30.483  1.00  0.00    -0.248 NA
ATOM     39  C   UNL A   1      42.412  32.028  32.057  1.00  0.00     0.031 C 
ATOM     40  C   UNL A   1      47.743  30.616  29.514  1.00  0.00     0.029 A 
ATOM     41  C   UNL A   1      46.400  30.633  29.845  1.00  0.00     0.049 A 
ATOM     42  H   UNL A   1      44.841  29.408  29.122  1.00  0.00     0.167 HD
ATOM     43  C   UNL A   1      44.376  31.460  31.017  1.00  0.00     0.074 A 
ATOM     44  C   UNL A   1      43.694  32.339  31.946  1.00  0.00     0.031 C 
ATOM     45  C   UNL A   1      45.712  31.492  30.778  1.00  0.00     0.034 A 
BRANCH  32  46
ATOM     46  C   UNL A   1      47.534  27.477  26.401  1.00  0.00     0.023 A 
ATOM     47  C   UNL A   1      47.688  27.871  25.062  1.00  0.00     0.031 A 
ATOM     48  C   UNL A   1      48.427  26.512  26.906  1.00  0.00     0.131 A 
ATOM     49  C   UNL A   1      48.654  27.243  24.255  1.00  0.00     0.055 A 
ATOM     50  C   UNL A   1      49.439  25.954  26.124  1.00  0.00     0.041 A 
ATOM     51  F   UNL A   1      48.320  26.079  28.173  1.00  0.00    -0.206 F 
ATOM     52  C   UNL A   1      49.545  26.306  24.782  1.00  0.00     0.022 A 
BRANCH  49  53
ATOM     53  S   UNL A   1      48.625  27.551  22.467  1.00  0.00     0.124 S 
ATOM     54  O   UNL A   1      49.834  28.352  22.289  1.00  0.00    -0.237 OA
ATOM     55  O   UNL A   1      48.664  26.202  21.914  1.00  0.00    -0.237 OA
ATOM     56  O   UNL A   1      47.372  28.274  22.263  1.00  0.00    -0.744 OA
ENDBRANCH  49  53
ENDBRANCH  32  46
BRANCH  33  57
ATOM     57  C   UNL A   1      39.793  30.758  31.807  1.00  0.00     0.023 A 
ATOM     58  C   UNL A   1      38.935  31.801  31.428  1.00  0.00     0.031 A 
ATOM     59  C   UNL A   1      39.583  30.170  33.072  1.00  0.00     0.131 A 
ATOM     60  C   UNL A   1      37.934  32.242  32.313  1.00  0.00     0.055 A 
ATOM     61  C   UNL A   1      38.538  30.555  33.911  1.00  0.00     0.041 A 
ATOM     62  F   UNL A   1      40.384  29.182  33.507  1.00  0.00    -0.206 F 
ATOM     63  C   UNL A   1      37.713  31.609  33.539  1.00  0.00     0.022 A 
BRANCH  60  64
ATOM     64  S   UNL A   1      36.990  33.732  31.889  1.00  0.00     0.124 S 
ATOM     65  O   UNL A   1      35.642  33.196  31.737  1.00  0.00    -0.237 OA
ATOM     66  O   UNL A   1      37.216  34.575  33.058  1.00  0.00    -0.237 OA
ATOM     67  O   UNL A   1      37.621  34.196  30.656  1.00  0.00    -0.744 OA
ENDBRANCH  60  64
ENDBRANCH  33  57
BRANCH  45  68
ATOM     68  C   UNL A   1      46.492  32.550  31.515  1.00  0.00     0.023 A 
ATOM     69  C   UNL A   1      46.656  33.843  30.986  1.00  0.00     0.031 A 
ATOM     70  C   UNL A   1      47.141  32.238  32.720  1.00  0.00     0.131 A 
ATOM     71  C   UNL A   1      47.516  34.752  31.620  1.00  0.00     0.055 A 
ATOM     72  C   UNL A   1      47.944  33.168  33.382  1.00  0.00     0.041 A 
ATOM     73  F   UNL A   1      47.024  31.016  33.264  1.00  0.00    -0.206 F 
ATOM     74  C   UNL A   1      48.149  34.427  32.823  1.00  0.00     0.022 A 
BRANCH  71  75
ATOM     75  S   UNL A   1      47.895  36.316  30.785  1.00  0.00     0.124 S 
ATOM     76  O   UNL A   1      48.994  35.932  29.905  1.00  0.00    -0.237 OA
ATOM     77  O   UNL A   1      46.632  36.632  30.126  1.00  0.00    -0.237 OA
ATOM     78  O   UNL A   1      48.262  37.210  31.882  1.00  0.00    -0.744 OA
ENDBRANCH  71  75
ENDBRANCH  45  68
ENDBRANCH  19  20
ENDBRANCH  12  14
ENDBRANCH  11  12
ENDBRANCH  10  11
ENDBRANCH   9  10
ENDBRANCH   8   9
ENDBRANCH   6   8
ENDBRANCH   1   6
BRANCH   1  79
ATOM     79  N   UNL A   1      32.957  20.889  23.491  1.00  0.00    -0.341 N 
ATOM     80  C   UNL A   1      32.371  21.693  22.545  1.00  0.00     0.243 C 
ATOM     81  H   UNL A   1      33.329  20.053  23.128  1.00  0.00     0.164 HD
ATOM     82  O   UNL A   1      31.835  21.155  21.574  1.00  0.00    -0.273 OA
BRANCH  80  83
ATOM     83  C   UNL A   1      32.486  23.212  22.632  1.00  0.00     0.175 C 
BRANCH  83  84
ATOM     84  N   UNL A   1      32.998  23.833  21.387  1.00  0.00    -0.342 N 
ATOM     85  C   UNL A   1      32.858  25.127  20.940  1.00  0.00     0.240 C 
ATOM     86  H   UNL A   1      33.512  23.235  20.796  1.00  0.00     0.164 HD
ATOM     87  O   UNL A   1      32.864  25.339  19.724  1.00  0.00    -0.273 OA
BRANCH  85  88
ATOM     88  C   UNL A   1      32.667  26.301  21.918  1.00  0.00     0.216 C 
BRANCH  88  89
ATOM     89  N   UNL A   1      31.476  27.133  21.743  1.00  0.00    -0.346 N 
ATOM     90  C   UNL A   1      30.941  28.150  22.485  1.00  0.00     0.239 C 
ATOM     91  H   UNL A   1      30.958  26.919  20.933  1.00  0.00     0.164 HD
ATOM     92  O   UNL A   1      30.093  28.858  21.926  1.00  0.00    -0.273 OA
BRANCH  90  93
ATOM     93  C   UNL A   1      31.303  28.457  23.956  1.00  0.00     0.219 C 
BRANCH  93  94
ATOM     94  N   UNL A   1      31.090  29.813  24.367  1.00  0.00    -0.312 N 
ATOM     95  C   UNL A   1      31.655  30.485  25.397  1.00  0.00     0.407 C 
ATOM     96  H   UNL A   1      30.446  30.325  23.826  1.00  0.00     0.167 HD
ATOM     97  O   UNL A   1      31.053  31.417  25.906  1.00  0.00    -0.225 OA
BRANCH  95  98
ATOM     98  O   UNL A   1      32.880  30.044  25.752  1.00  0.00    -0.445 OA
BRANCH  98  99
ATOM     99  C   UNL A   1      33.092  30.089  27.174  1.00  0.00     0.270 C 
BRANCH  99 100
ATOM    100  C   UNL A   1      34.512  30.455  27.562  1.00  0.00    -0.011 A 
ATOM    101  C   UNL A   1      34.867  31.782  27.835  1.00  0.00     0.007 A 
ATOM    102  C   UNL A   1      35.470  29.445  27.741  1.00  0.00     0.007 A 
ATOM    103  C   UNL A   1      36.150  32.089  28.293  1.00  0.00     0.000 A 
ATOM    104  C   UNL A   1      36.752  29.754  28.195  1.00  0.00     0.000 A 
ATOM    105  C   UNL A   1      37.091  31.076  28.471  1.00  0.00     0.000 A 
ENDBRANCH  99 100
ENDBRANCH  98  99
ENDBRANCH  95  98
ENDBRANCH  93  94
ENDBRANCH  90  93
ENDBRANCH  88  89
ENDBRANCH  85  88
ENDBRANCH  83  84
BRANCH  83 106
ATOM    106  C   UNL A   1      31.153  23.821  23.133  1.00  0.00     0.070 C 
BRANCH 106 107
ATOM    107  C   UNL A   1      31.292  24.602  24.431  1.00  0.00    -0.045 A 
ATOM    108  C   UNL A   1      30.170  25.190  25.023  1.00  0.00     0.004 A 
ATOM    109  C   UNL A   1      32.518  24.817  25.058  1.00  0.00     0.004 A 
ATOM    110  C   UNL A   1      30.243  26.021  26.146  1.00  0.00     0.000 A 
ATOM    111  C   UNL A   1      32.601  25.619  26.210  1.00  0.00     0.000 A 
ATOM    112  C   UNL A   1      31.469  26.232  26.748  1.00  0.00     0.000 A 
ENDBRANCH 106 107
ENDBRANCH  83 106
ENDBRANCH  80  83
ENDBRANCH   1  79
TORSDOF 28
ENDMDL
MODEL 2
REMARK VINA RESULT:      -9.9      4.255      6.850
REMARK SMILES CC(C)C[C@H](NC(=O)[C@H](Cc1ccccc1)NC(=O)CNC(=O)CNC(=O)OCc1ccccc1)C(=O)OCCOC(=O)c1ccc(-c2c3nc(c(-c4cc(S(=O)(=O)[O-])ccc4F)c4ccc([nH]4)c(-c4cc(S(=O)(=O)[O-])ccc4F)c4nc(c(-c5cc(S(=O)(=O)[O-])ccc5F)c5ccc2[nH]5)C=C4)C=C3)cc1
REMARK SMILES IDX 5 1 4 2 2 3 1 4 3 5 36 6 37 7 38 8 39 9 40 10 41 11 42 12
REMARK SMILES IDX 43 13 44 14 45 15 106 16 46 17 105 18 47 19 48 20 49 21
REMARK SMILES IDX 99 22 50 23 104 24 98 25 100 26 51 27 103 28 97 29 96 30
REMARK SMILES IDX 52 32 84 33 64 34 83 35 65 36 68 37 82 38 101 39 66 40 67 41
REMARK SMILES IDX 81 43 102 44 69 45 53 46 54 47 62 48 55 49 61 50 63 51 60 52
REMARK SMILES IDX 56 53 57 54 58 55 59 56 85 57 86 58 94 59 87 60 93 61 95 62
REMARK SMILES IDX 92 63 88 64 89 65 90 66 91 67 70 68 71 69 79 70 72 71 78 72
REMARK SMILES IDX 80 73 77 74 73 75 74 76 75 77 76 78 6 79 7 80 8 82 9 83
REMARK SMILES IDX 17 84 18 85 19 87 20 88 21 89 22 90 23 92 24 93 25 94 26 95
REMARK SMILES IDX 27 97 28 98 29 99 30 100 31 101 35 102 32 103 34 104 33 105
REMARK SMILES IDX 10 106 11 107 12 108 16 109 13 110 15 111 14 112
REMARK H PARENT 100 31 68 42 6 81 17 86 21 91 25 96
REMARK Flexibility Score: inf
ROOT
ATOM      1  C   UNL A   1      31.312  25.615  25.124  1.00  0.00     0.192 C 
ENDROOT
BRANCH   1   2
ATOM      2  C   UNL A   1      31.314  24.614  26.318  1.00  0.00     0.040 C 
BRANCH   2   3
ATOM      3  C   UNL A   1      30.630  23.255  25.989  1.00  0.00    -0.015 C 
ATOM      4  C   UNL A   1      31.617  22.110  25.757  1.00  0.00     0.007 C 
ATOM      5  C   UNL A   1      29.656  22.862  27.104  1.00  0.00     0.007 C 
ENDBRANCH   2   3
ENDBRANCH   1   2
BRANCH   1   6
ATOM      6  C   UNL A   1      32.754  25.695  24.441  1.00  0.00     0.328 C 
ATOM      7  O   UNL A   1      33.259  24.782  23.799  1.00  0.00    -0.250 OA
BRANCH   6   8
ATOM      8  O   UNL A   1      33.452  26.824  24.776  1.00  0.00    -0.461 OA
BRANCH   8   9
ATOM      9  C   UNL A   1      33.906  27.030  26.162  1.00  0.00     0.274 C 
BRANCH   9  10
ATOM     10  C   UNL A   1      33.065  28.124  26.915  1.00  0.00     0.275 C 
BRANCH  10  11
ATOM     11  O   UNL A   1      33.905  28.802  27.886  1.00  0.00    -0.458 OA
BRANCH  11  12
ATOM     12  C   UNL A   1      34.632  29.915  27.555  1.00  0.00     0.338 C 
ATOM     13  O   UNL A   1      34.232  30.852  26.890  1.00  0.00    -0.246 OA
BRANCH  12  14
ATOM     14  C   UNL A   1      35.943  29.880  28.301  1.00  0.00     0.060 A 
ATOM     15  C   UNL A   1      37.099  29.852  27.548  1.00  0.00     0.016 A 
ATOM     16  C   UNL A   1      36.078  29.663  29.679  1.00  0.00     0.016 A 
ATOM     17  C   UNL A   1      38.265  29.320  28.081  1.00  0.00     0.010 A 
ATOM     18  C   UNL A   1      37.359  29.380  30.248  1.00  0.00     0.010 A 
ATOM     19  C   UNL A   1      38.490  29.152  29.441  1.00  0.00    -0.014 A 
BRANCH  19  20
ATOM     20  C   UNL A   1      39.875  28.725  29.900  1.00  0.00     0.031 A 
ATOM     21  C   UNL A   1      40.653  27.665  29.151  1.00  0.00     0.074 A 
ATOM     22  C   UNL A   1      40.524  29.321  30.939  1.00  0.00     0.049 A 
ATOM     23  N   UNL A   1      41.627  26.898  29.576  1.00  0.00    -0.248 NA
ATOM     24  C   UNL A   1      40.281  27.429  27.750  1.00  0.00     0.031 C 
ATOM     25  C   UNL A   1      40.030  30.442  31.750  1.00  0.00     0.029 A 
ATOM     26  N   UNL A   1      41.774  29.093  31.487  1.00  0.00    -0.354 N 
ATOM     27  C   UNL A   1      41.905  26.012  28.538  1.00  0.00     0.074 A 
ATOM     28  C   UNL A   1      41.018  26.368  27.448  1.00  0.00     0.031 C 
ATOM     29  C   UNL A   1      40.997  30.893  32.556  1.00  0.00     0.029 A 
ATOM     30  C   UNL A   1      42.076  29.927  32.546  1.00  0.00     0.049 A 
ATOM     31  H   UNL A   1      42.390  28.401  31.153  1.00  0.00     0.167 HD
ATOM     32  C   UNL A   1      42.797  24.986  28.520  1.00  0.00     0.034 A 
ATOM     33  C   UNL A   1      43.017  29.871  33.512  1.00  0.00     0.034 A 
ATOM     34  C   UNL A   1      43.731  24.715  29.591  1.00  0.00     0.049 A 
ATOM     35  C   UNL A   1      43.945  28.691  33.528  1.00  0.00     0.074 A 
ATOM     36  C   UNL A   1      44.612  23.656  29.736  1.00  0.00     0.029 A 
ATOM     37  N   UNL A   1      43.939  25.544  30.688  1.00  0.00    -0.354 N 
ATOM     38  N   UNL A   1      44.025  27.696  32.676  1.00  0.00    -0.248 NA
ATOM     39  C   UNL A   1      44.879  28.602  34.656  1.00  0.00     0.031 C 
ATOM     40  C   UNL A   1      45.320  23.824  30.934  1.00  0.00     0.029 A 
ATOM     41  C   UNL A   1      44.930  25.022  31.507  1.00  0.00     0.049 A 
ATOM     42  H   UNL A   1      43.451  26.382  30.860  1.00  0.00     0.167 HD
ATOM     43  C   UNL A   1      45.010  26.854  33.176  1.00  0.00     0.074 A 
ATOM     44  C   UNL A   1      45.532  27.487  34.371  1.00  0.00     0.031 C 
ATOM     45  C   UNL A   1      45.431  25.654  32.703  1.00  0.00     0.034 A 
BRANCH  32  46
ATOM     46  C   UNL A   1      42.722  24.021  27.356  1.00  0.00     0.023 A 
ATOM     47  C   UNL A   1      41.814  22.951  27.313  1.00  0.00     0.031 A 
ATOM     48  C   UNL A   1      43.630  24.152  26.287  1.00  0.00     0.131 A 
ATOM     49  C   UNL A   1      41.890  22.010  26.270  1.00  0.00     0.055 A 
ATOM     50  C   UNL A   1      43.645  23.263  25.210  1.00  0.00     0.041 A 
ATOM     51  F   UNL A   1      44.536  25.143  26.279  1.00  0.00    -0.206 F 
ATOM     52  C   UNL A   1      42.782  22.173  25.207  1.00  0.00     0.022 A 
BRANCH  49  53
ATOM     53  S   UNL A   1      40.917  20.485  26.403  1.00  0.00     0.124 S 
ATOM     54  O   UNL A   1      39.615  20.925  25.907  1.00  0.00    -0.237 OA
ATOM     55  O   UNL A   1      41.652  19.565  25.542  1.00  0.00    -0.237 OA
ATOM     56  O   UNL A   1      40.959  20.173  27.830  1.00  0.00    -0.744 OA
ENDBRANCH  49  53
ENDBRANCH  32  46
BRANCH  33  57
ATOM     57  C   UNL A   1      43.006  30.845  34.654  1.00  0.00     0.023 A 
ATOM     58  C   UNL A   1      43.727  32.047  34.601  1.00  0.00     0.031 A 
ATOM     59  C   UNL A   1      42.312  30.555  35.848  1.00  0.00     0.131 A 
ATOM     60  C   UNL A   1      43.762  32.894  35.723  1.00  0.00     0.055 A 
ATOM     61  C   UNL A   1      42.283  31.437  36.928  1.00  0.00     0.041 A 
ATOM     62  F   UNL A   1      41.622  29.409  35.975  1.00  0.00    -0.206 F 
ATOM     63  C   UNL A   1      43.025  32.610  36.875  1.00  0.00     0.022 A 
BRANCH  60  64
ATOM     64  S   UNL A   1      44.878  34.324  35.702  1.00  0.00     0.124 S 
ATOM     65  O   UNL A   1      46.184  33.681  35.609  1.00  0.00    -0.237 OA
ATOM     66  O   UNL A   1      44.429  35.041  34.513  1.00  0.00    -0.237 OA
ATOM     67  O   UNL A   1      44.600  34.992  36.972  1.00  0.00    -0.744 OA
ENDBRANCH  60  64
ENDBRANCH  33  57
BRANCH  45  68
ATOM     68  C   UNL A   1      46.541  24.989  33.476  1.00  0.00     0.023 A 
ATOM     69  C   UNL A   1      47.888  25.139  33.100  1.00  0.00     0.031 A 
ATOM     70  C   UNL A   1      46.241  24.135  34.549  1.00  0.00     0.131 A 
ATOM     71  C   UNL A   1      48.879  24.383  33.744  1.00  0.00     0.055 A 
ATOM     72  C   UNL A   1      47.239  23.435  35.229  1.00  0.00     0.041 A 
ATOM     73  F   UNL A   1      44.970  23.951  34.942  1.00  0.00    -0.206 F 
ATOM     74  C   UNL A   1      48.564  23.543  34.815  1.00  0.00     0.022 A 
BRANCH  71  75
ATOM     75  S   UNL A   1      50.565  24.415  33.078  1.00  0.00     0.124 S 
ATOM     76  O   UNL A   1      50.326  24.310  31.642  1.00  0.00    -0.237 OA
ATOM     77  O   UNL A   1      51.062  25.703  33.549  1.00  0.00    -0.237 OA
ATOM     78  O   UNL A   1      51.197  23.246  33.688  1.00  0.00    -0.744 OA
ENDBRANCH  71  75
ENDBRANCH  45  68
ENDBRANCH  19  20
ENDBRANCH  12  14
ENDBRANCH  11  12
ENDBRANCH  10  11
ENDBRANCH   9  10
ENDBRANCH   8   9
ENDBRANCH   6   8
ENDBRANCH   1   6
BRANCH   1  79
ATOM     79  N   UNL A   1      30.064  25.440  24.326  1.00  0.00    -0.341 N 
ATOM     80  C   UNL A   1      29.056  26.307  23.984  1.00  0.00     0.243 C 
ATOM     81  H   UNL A   1      29.939  24.527  23.977  1.00  0.00     0.164 HD
ATOM     82  O   UNL A   1      27.917  25.853  23.849  1.00  0.00    -0.273 OA
BRANCH  80  83
ATOM     83  C   UNL A   1      29.358  27.768  23.663  1.00  0.00     0.175 C 
BRANCH  83  84
ATOM     84  N   UNL A   1      30.775  28.008  23.302  1.00  0.00    -0.342 N 
ATOM     85  C   UNL A   1      31.603  29.042  23.677  1.00  0.00     0.240 C 
ATOM     86  H   UNL A   1      31.182  27.333  22.712  1.00  0.00     0.164 HD
ATOM     87  O   UNL A   1      32.515  29.376  22.916  1.00  0.00    -0.273 OA
BRANCH  85  88
ATOM     88  C   UNL A   1      31.398  29.799  25.002  1.00  0.00     0.216 C 
BRANCH  88  89
ATOM     89  N   UNL A   1      30.730  31.100  24.934  1.00  0.00    -0.346 N 
ATOM     90  C   UNL A   1      30.929  32.277  25.602  1.00  0.00     0.239 C 
ATOM     91  H   UNL A   1      29.995  31.134  24.280  1.00  0.00     0.164 HD
ATOM     92  O   UNL A   1      30.403  33.286  25.115  1.00  0.00    -0.273 OA
BRANCH  90  93
ATOM     93  C   UNL A   1      31.734  32.425  26.913  1.00  0.00     0.219 C 
BRANCH  93  94
ATOM     94  N   UNL A   1      31.985  33.774  27.325  1.00  0.00    -0.312 N 
ATOM     95  C   UNL A   1      32.898  34.232  28.214  1.00  0.00     0.407 C 
ATOM     96  H   UNL A   1      31.417  34.461  26.906  1.00  0.00     0.167 HD
ATOM     97  O   UNL A   1      32.685  35.278  28.806  1.00  0.00    -0.225 OA
BRANCH  95  98
ATOM     98  O   UNL A   1      33.998  33.461  28.339  1.00  0.00    -0.445 OA
BRANCH  98  99
ATOM     99  C   UNL A   1      34.388  33.273  29.710  1.00  0.00     0.270 C 
BRANCH  99 100
ATOM    100  C   UNL A   1      35.888  33.332  29.926  1.00  0.00    -0.011 A 
ATOM    101  C   UNL A   1      36.436  33.231  31.211  1.00  0.00     0.007 A 
ATOM    102  C   UNL A   1      36.751  33.397  28.822  1.00  0.00     0.007 A 
ATOM    103  C   UNL A   1      37.821  33.180  31.385  1.00  0.00     0.000 A 
ATOM    104  C   UNL A   1      38.134  33.349  28.998  1.00  0.00     0.000 A 
ATOM    105  C   UNL A   1      38.668  33.241  30.279  1.00  0.00     0.000 A 
ENDBRANCH  99 100
ENDBRANCH  98  99
ENDBRANCH  95  98
ENDBRANCH  93  94
ENDBRANCH  90  93
ENDBRANCH  88  89
ENDBRANCH  85  88
ENDBRANCH  83  84
BRANCH  83 106
ATOM    106  C   UNL A   1      28.346  28.306  22.621  1.00  0.00     0.070 C 
BRANCH 106 107
ATOM    107  C   UNL A   1      28.328  29.823  22.518  1.00  0.00    -0.045 A 
ATOM    108  C   UNL A   1      27.751  30.591  23.533  1.00  0.00     0.004 A 
ATOM    109  C   UNL A   1      28.823  30.513  21.413  1.00  0.00     0.004 A 
ATOM    110  C   UNL A   1      27.591  31.979  23.448  1.00  0.00     0.000 A 
ATOM    111  C   UNL A   1      28.704  31.912  21.330  1.00  0.00     0.000 A 
ATOM    112  C   UNL A   1      28.077  32.645  22.339  1.00  0.00     0.000 A 
ENDBRANCH 106 107
ENDBRANCH  83 106
ENDBRANCH  80  83
ENDBRANCH   1  79
TORSDOF 28
ENDMDL
MODEL 3
REMARK VINA RESULT:      -9.4      3.671      8.443
REMARK SMILES CC(C)C[C@H](NC(=O)[C@H](Cc1ccccc1)NC(=O)CNC(=O)CNC(=O)OCc1ccccc1)C(=O)OCCOC(=O)c1ccc(-c2c3nc(c(-c4cc(S(=O)(=O)[O-])ccc4F)c4ccc([nH]4)c(-c4cc(S(=O)(=O)[O-])ccc4F)c4nc(c(-c5cc(S(=O)(=O)[O-])ccc5F)c5ccc2[nH]5)C=C4)C=C3)cc1
REMARK SMILES IDX 5 1 4 2 2 3 1 4 3 5 36 6 37 7 38 8 39 9 40 10 41 11 42 12
REMARK SMILES IDX 43 13 44 14 45 15 106 16 46 17 105 18 47 19 48 20 49 21
REMARK SMILES IDX 99 22 50 23 104 24 98 25 100 26 51 27 103 28 97 29 96 30
REMARK SMILES IDX 52 32 84 33 64 34 83 35 65 36 68 37 82 38 101 39 66 40 67 41
REMARK SMILES IDX 81 43 102 44 69 45 53 46 54 47 62 48 55 49 61 50 63 51 60 52
REMARK SMILES IDX 56 53 57 54 58 55 59 56 85 57 86 58 94 59 87 60 93 61 95 62
REMARK SMILES IDX 92 63 88 64 89 65 90 66 91 67 70 68 71 69 79 70 72 71 78 72
REMARK SMILES IDX 80 73 77 74 73 75 74 76 75 77 76 78 6 79 7 80 8 82 9 83
REMARK SMILES IDX 17 84 18 85 19 87 20 88 21 89 22 90 23 92 24 93 25 94 26 95
REMARK SMILES IDX 27 97 28 98 29 99 30 100 31 101 35 102 32 103 34 104 33 105
REMARK SMILES IDX 10 106 11 107 12 108 16 109 13 110 15 111 14 112
REMARK H PARENT 100 31 68 42 6 81 17 86 21 91 25 96
REMARK Flexibility Score: inf
ROOT
ATOM      1  C   UNL A   1      31.323  25.817  25.326  1.00  0.00     0.192 C 
ENDROOT
BRANCH   1   2
ATOM      2  C   UNL A   1      31.218  24.988  26.641  1.00  0.00     0.040 C 
BRANCH   2   3
ATOM      3  C   UNL A   1      31.036  23.461  26.399  1.00  0.00    -0.015 C 
ATOM      4  C   UNL A   1      32.199  22.612  26.915  1.00  0.00     0.007 C 
ATOM      5  C   UNL A   1      29.732  22.969  27.035  1.00  0.00     0.007 C 
ENDBRANCH   2   3
ENDBRANCH   1   2
BRANCH   1   6
ATOM      6  C   UNL A   1      32.809  25.778  24.741  1.00  0.00     0.328 C 
ATOM      7  O   UNL A   1      33.331  24.777  24.266  1.00  0.00    -0.250 OA
BRANCH   6   8
ATOM      8  O   UNL A   1      33.513  26.930  24.967  1.00  0.00    -0.461 OA
BRANCH   8   9
ATOM      9  C   UNL A   1      34.036  27.226  26.312  1.00  0.00     0.274 C 
BRANCH   9  10
ATOM     10  C   UNL A   1      33.255  28.393  27.018  1.00  0.00     0.275 C 
BRANCH  10  11
ATOM     11  O   UNL A   1      34.111  29.024  28.007  1.00  0.00    -0.458 OA
BRANCH  11  12
ATOM     12  C   UNL A   1      34.966  30.042  27.675  1.00  0.00     0.338 C 
ATOM     13  O   UNL A   1      34.674  31.032  27.031  1.00  0.00    -0.246 OA
BRANCH  12  14
ATOM     14  C   UNL A   1      36.277  29.830  28.391  1.00  0.00     0.060 A 
ATOM     15  C   UNL A   1      37.431  29.911  27.638  1.00  0.00     0.016 A 
ATOM     16  C   UNL A   1      36.409  29.355  29.703  1.00  0.00     0.016 A 
ATOM     17  C   UNL A   1      38.581  29.256  28.053  1.00  0.00     0.010 A 
ATOM     18  C   UNL A   1      37.681  28.934  30.200  1.00  0.00     0.010 A 
ATOM     19  C   UNL A   1      38.804  28.830  29.356  1.00  0.00    -0.014 A 
BRANCH  19  20
ATOM     20  C   UNL A   1      40.177  28.285  29.717  1.00  0.00     0.031 A 
ATOM     21  C   UNL A   1      40.995  28.904  30.828  1.00  0.00     0.074 A 
ATOM     22  C   UNL A   1      40.705  27.172  29.134  1.00  0.00     0.049 A 
ATOM     23  N   UNL A   1      42.290  28.861  31.025  1.00  0.00    -0.248 NA
ATOM     24  C   UNL A   1      40.267  29.681  31.840  1.00  0.00     0.031 C 
ATOM     25  C   UNL A   1      40.063  26.332  28.114  1.00  0.00     0.029 A 
ATOM     26  N   UNL A   1      41.908  26.518  29.336  1.00  0.00    -0.354 N 
ATOM     27  C   UNL A   1      42.546  29.696  32.110  1.00  0.00     0.074 A 
ATOM     28  C   UNL A   1      41.260  30.201  32.550  1.00  0.00     0.031 C 
ATOM     29  C   UNL A   1      40.783  25.225  27.906  1.00  0.00     0.029 A 
ATOM     30  C   UNL A   1      42.073  25.402  28.540  1.00  0.00     0.049 A 
ATOM     31  H   UNL A   1      42.582  26.821  29.987  1.00  0.00     0.167 HD
ATOM     32  C   UNL A   1      43.745  30.026  32.658  1.00  0.00     0.034 A 
ATOM     33  C   UNL A   1      43.156  24.665  28.214  1.00  0.00     0.034 A 
ATOM     34  C   UNL A   1      45.003  29.434  32.254  1.00  0.00     0.049 A 
ATOM     35  C   UNL A   1      44.488  25.086  28.762  1.00  0.00     0.074 A 
ATOM     36  C   UNL A   1      46.289  29.750  32.660  1.00  0.00     0.029 A 
ATOM     37  N   UNL A   1      45.126  28.362  31.376  1.00  0.00    -0.354 N 
ATOM     38  N   UNL A   1      44.764  26.065  29.592  1.00  0.00    -0.248 NA
ATOM     39  C   UNL A   1      45.659  24.335  28.296  1.00  0.00     0.031 C 
ATOM     40  C   UNL A   1      47.187  28.900  32.000  1.00  0.00     0.029 A 
ATOM     41  C   UNL A   1      46.460  28.008  31.231  1.00  0.00     0.049 A 
ATOM     42  H   UNL A   1      44.374  27.919  30.921  1.00  0.00     0.167 HD
ATOM     43  C   UNL A   1      46.145  26.054  29.736  1.00  0.00     0.074 A 
ATOM     44  C   UNL A   1      46.638  24.939  28.952  1.00  0.00     0.031 C 
ATOM     45  C   UNL A   1      46.940  26.904  30.436  1.00  0.00     0.034 A 
BRANCH  32  46
ATOM     46  C   UNL A   1      43.762  31.151  33.670  1.00  0.00     0.023 A 
ATOM     47  C   UNL A   1      43.445  30.960  35.025  1.00  0.00     0.031 A 
ATOM     48  C   UNL A   1      44.051  32.463  33.244  1.00  0.00     0.131 A 
ATOM     49  C   UNL A   1      43.343  32.071  35.883  1.00  0.00     0.055 A 
ATOM     50  C   UNL A   1      44.032  33.550  34.119  1.00  0.00     0.041 A 
ATOM     51  F   UNL A   1      44.342  32.713  31.958  1.00  0.00    -0.206 F 
ATOM     52  C   UNL A   1      43.658  33.359  35.445  1.00  0.00     0.022 A 
BRANCH  49  53
ATOM     53  S   UNL A   1      42.640  31.828  37.537  1.00  0.00     0.124 S 
ATOM     54  O   UNL A   1      42.645  33.193  38.060  1.00  0.00    -0.237 OA
ATOM     55  O   UNL A   1      41.328  31.262  37.243  1.00  0.00    -0.237 OA
ATOM     56  O   UNL A   1      43.583  30.918  38.182  1.00  0.00    -0.744 OA
ENDBRANCH  49  53
ENDBRANCH  32  46
BRANCH  33  57
ATOM     57  C   UNL A   1      43.068  23.585  27.175  1.00  0.00     0.023 A 
ATOM     58  C   UNL A   1      42.411  22.372  27.430  1.00  0.00     0.031 A 
ATOM     59  C   UNL A   1      43.696  23.734  25.920  1.00  0.00     0.131 A 
ATOM     60  C   UNL A   1      42.424  21.352  26.462  1.00  0.00     0.055 A 
ATOM     61  C   UNL A   1      43.635  22.751  24.934  1.00  0.00     0.041 A 
ATOM     62  F   UNL A   1      44.364  24.861  25.620  1.00  0.00    -0.206 F 
ATOM     63  C   UNL A   1      43.008  21.543  25.208  1.00  0.00     0.022 A 
BRANCH  60  64
ATOM     64  S   UNL A   1      41.761  19.722  26.905  1.00  0.00     0.124 S 
ATOM     65  O   UNL A   1      42.897  19.116  27.591  1.00  0.00    -0.237 OA
ATOM     66  O   UNL A   1      40.621  20.077  27.743  1.00  0.00    -0.237 OA
ATOM     67  O   UNL A   1      41.423  19.129  25.613  1.00  0.00    -0.744 OA
ENDBRANCH  60  64
ENDBRANCH  33  57
BRANCH  45  68
ATOM     68  C   UNL A   1      48.417  26.610  30.402  1.00  0.00     0.023 A 
ATOM     69  C   UNL A   1      49.239  27.103  29.372  1.00  0.00     0.031 A 
ATOM     70  C   UNL A   1      48.992  25.765  31.365  1.00  0.00     0.131 A 
ATOM     71  C   UNL A   1      50.574  26.682  29.285  1.00  0.00     0.055 A 
ATOM     72  C   UNL A   1      50.339  25.402  31.310  1.00  0.00     0.041 A 
ATOM     73  F   UNL A   1      48.249  25.261  32.363  1.00  0.00    -0.206 F 
ATOM     74  C   UNL A   1      51.133  25.847  30.256  1.00  0.00     0.022 A 
BRANCH  71  75
ATOM     75  S   UNL A   1      51.535  27.139  27.816  1.00  0.00     0.124 S 
ATOM     76  O   UNL A   1      51.799  28.555  28.054  1.00  0.00    -0.237 OA
ATOM     77  O   UNL A   1      52.689  26.251  27.910  1.00  0.00    -0.237 OA
ATOM     78  O   UNL A   1      50.623  26.856  26.710  1.00  0.00    -0.744 OA
ENDBRANCH  71  75
ENDBRANCH  45  68
ENDBRANCH  19  20
ENDBRANCH  12  14
ENDBRANCH  11  12
ENDBRANCH  10  11
ENDBRANCH   9  10
ENDBRANCH   8   9
ENDBRANCH   6   8
ENDBRANCH   1   6
BRANCH   1  79
ATOM     79  N   UNL A   1      30.127  25.558  24.474  1.00  0.00    -0.341 N 
ATOM     80  C   UNL A   1      29.111  26.371  24.035  1.00  0.00     0.243 C 
ATOM     81  H   UNL A   1      30.051  24.625  24.168  1.00  0.00     0.164 HD
ATOM     82  O   UNL A   1      27.997  25.871  23.863  1.00  0.00    -0.273 OA
BRANCH  80  83
ATOM     83  C   UNL A   1      29.383  27.823  23.653  1.00  0.00     0.175 C 
BRANCH  83  84
ATOM     84  N   UNL A   1      30.801  28.084  23.309  1.00  0.00    -0.342 N 
ATOM     85  C   UNL A   1      31.622  29.107  23.726  1.00  0.00     0.240 C 
ATOM     86  H   UNL A   1      31.215  27.433  22.697  1.00  0.00     0.164 HD
ATOM     87  O   UNL A   1      32.536  29.474  22.984  1.00  0.00    -0.273 OA
BRANCH  85  88
ATOM     88  C   UNL A   1      31.405  29.814  25.077  1.00  0.00     0.216 C 
BRANCH  88  89
ATOM     89  N   UNL A   1      30.780  31.138  25.048  1.00  0.00    -0.346 N 
ATOM     90  C   UNL A   1      31.006  32.283  25.762  1.00  0.00     0.239 C 
ATOM     91  H   UNL A   1      30.057  31.221  24.385  1.00  0.00     0.164 HD
ATOM     92  O   UNL A   1      30.520  33.326  25.306  1.00  0.00    -0.273 OA
BRANCH  90  93
ATOM     93  C   UNL A   1      31.794  32.356  27.089  1.00  0.00     0.219 C 
BRANCH  93  94
ATOM     94  N   UNL A   1      32.653  33.495  27.226  1.00  0.00    -0.312 N 
ATOM     95  C   UNL A   1      33.196  34.016  28.352  1.00  0.00     0.407 C 
ATOM     96  H   UNL A   1      32.880  33.961  26.389  1.00  0.00     0.167 HD
ATOM     97  O   UNL A   1      33.484  35.202  28.384  1.00  0.00    -0.225 OA
BRANCH  95  98
ATOM     98  O   UNL A   1      33.386  33.127  29.349  1.00  0.00    -0.445 OA
BRANCH  98  99
ATOM     99  C   UNL A   1      34.757  33.066  29.780  1.00  0.00     0.270 C 
BRANCH  99 100
ATOM    100  C   UNL A   1      34.937  33.341  31.261  1.00  0.00    -0.011 A 
ATOM    101  C   UNL A   1      34.296  34.423  31.878  1.00  0.00     0.007 A 
ATOM    102  C   UNL A   1      35.680  32.451  32.052  1.00  0.00     0.007 A 
ATOM    103  C   UNL A   1      34.386  34.601  33.260  1.00  0.00     0.000 A 
ATOM    104  C   UNL A   1      35.771  32.632  33.432  1.00  0.00     0.000 A 
ATOM    105  C   UNL A   1      35.123  33.708  34.035  1.00  0.00     0.000 A 
ENDBRANCH  99 100
ENDBRANCH  98  99
ENDBRANCH  95  98
ENDBRANCH  93  94
ENDBRANCH  90  93
ENDBRANCH  88  89
ENDBRANCH  85  88
ENDBRANCH  83  84
BRANCH  83 106
ATOM    106  C   UNL A   1      28.379  28.287  22.568  1.00  0.00     0.070 C 
BRANCH 106 107
ATOM    107  C   UNL A   1      28.235  29.799  22.480  1.00  0.00    -0.045 A 
ATOM    108  C   UNL A   1      28.687  30.485  21.349  1.00  0.00     0.004 A 
ATOM    109  C   UNL A   1      27.708  30.570  23.514  1.00  0.00     0.004 A 
ATOM    110  C   UNL A   1      28.697  31.880  21.252  1.00  0.00     0.000 A 
ATOM    111  C   UNL A   1      27.677  31.973  23.415  1.00  0.00     0.000 A 
ATOM    112  C   UNL A   1      28.182  32.630  22.292  1.00  0.00     0.000 A 
ENDBRANCH 106 107
ENDBRANCH  83 106
ENDBRANCH  80  83
ENDBRANCH   1  79
TORSDOF 28
ENDMDL
