MODEL 1
REMARK VINA RESULT:     -12.1      0.000      0.000
REMARK SMILES CC(C)CN(C)c1cc2c(cc1Cl)C=C(C(=O)OCCOC(=O)c1ccc(-c3c4nc(c(-c5cc(S(=O)(=O)[O-])ccc5F)c5ccc([nH]5)c(-c5cc(S(=O)(=O)[O-])ccc5F)c5nc(c(-c6cc(S(=O)(=O)[O-])ccc6F)c6ccc3[nH]6)C=C5)C=C4)cc1)[C@@H](C(F)(F)F)O2
REMARK SMILES IDX 19 1 18 2 16 3 17 4 15 5 7 6 8 7 12 8 9 9 11 10 13 11 10 12
REMARK SMILES IDX 92 13 14 14 87 15 5 16 6 17 4 18 2 19 1 20 3 21 88 22 89 23
REMARK SMILES IDX 90 24 91 25 20 26 21 27 22 28 23 29 24 30 25 31 86 32 26 33
REMARK SMILES IDX 85 34 27 35 28 36 29 37 79 38 30 39 84 40 78 41 80 42 31 43
REMARK SMILES IDX 83 44 77 45 76 46 32 48 64 49 44 50 63 51 45 52 48 53 62 54
REMARK SMILES IDX 81 55 46 56 47 57 61 59 82 60 49 61 33 62 34 63 42 64 35 65
REMARK SMILES IDX 41 66 43 67 40 68 36 69 37 70 38 71 39 72 65 73 66 74 74 75
REMARK SMILES IDX 67 76 73 77 75 78 72 79 68 80 69 81 70 82 71 83 50 84 51 85
REMARK SMILES IDX 59 86 52 87 58 88 60 89 57 90 53 91 54 92 55 93 56 94
REMARK H PARENT 80 47 48 58
REMARK Flexibility Score: inf
ROOT
ATOM      1  C   UNL A   1      36.120  20.302  25.043  1.00  0.00     0.275 C 
ENDROOT
BRANCH   1   2
ATOM      2  O   UNL A   1      35.353  21.256  24.274  1.00  0.00    -0.459 OA
BRANCH   2   3
ATOM      3  C   UNL A   1      34.011  21.130  24.394  1.00  0.00     0.338 C 
ATOM      4  O   UNL A   1      33.380  20.086  24.302  1.00  0.00    -0.246 OA
BRANCH   3   5
ATOM      5  C   UNL A   1      33.363  22.417  24.705  1.00  0.00     0.087 C 
ATOM      6  C   UNL A   1      32.139  27.312  24.785  1.00  0.00     0.059 A 
ATOM      7  C   UNL A   1      31.646  26.167  25.453  1.00  0.00     0.074 A 
ATOM      8  C   UNL A   1      33.265  27.151  23.952  1.00  0.00     0.065 A 
ATOM      9  C   UNL A   1      32.214  24.906  25.238  1.00  0.00     0.130 A 
ATOM     10  C   UNL A   1      33.760  25.886  23.660  1.00  0.00     0.034 A 
ATOM     11  Cl  UNL A   1      34.131  28.491  23.285  1.00  0.00    -0.082 Cl
ATOM     12  C   UNL A   1      33.225  24.768  24.293  1.00  0.00     0.019 A 
ATOM     13  O   UNL A   1      31.721  23.835  25.942  1.00  0.00    -0.475 OA
ATOM     14  C   UNL A   1      33.734  23.461  23.955  1.00  0.00     0.027 C 
ATOM     15  C   UNL A   1      32.511  22.600  25.928  1.00  0.00     0.316 C 
BRANCH   6  16
ATOM     16  N   UNL A   1      31.514  28.555  24.926  1.00  0.00    -0.373 N 
ATOM     17  C   UNL A   1      30.504  28.892  23.938  1.00  0.00     0.143 C 
BRANCH  16  18
ATOM     18  C   UNL A   1      32.294  29.651  25.540  1.00  0.00     0.119 C 
BRANCH  18  19
ATOM     19  C   UNL A   1      32.524  29.456  27.055  1.00  0.00     0.002 C 
ATOM     20  C   UNL A   1      31.447  28.573  27.696  1.00  0.00     0.009 C 
ATOM     21  C   UNL A   1      33.895  28.833  27.340  1.00  0.00     0.009 C 
ENDBRANCH  18  19
ENDBRANCH  16  18
ENDBRANCH   6  16
BRANCH  15  22
ATOM     22  C   UNL A   1      33.404  22.511  27.181  1.00  0.00     0.430 C 
ATOM     23  F   UNL A   1      33.825  21.245  27.410  1.00  0.00    -0.167 F 
ATOM     24  F   UNL A   1      34.522  23.269  27.037  1.00  0.00    -0.167 F 
ATOM     25  F   UNL A   1      32.775  22.939  28.299  1.00  0.00    -0.167 F 
ENDBRANCH  15  22
ENDBRANCH   3   5
ENDBRANCH   2   3
ENDBRANCH   1   2
BRANCH   1  26
ATOM     26  C   UNL A   1      37.626  20.440  24.804  1.00  0.00     0.275 C 
BRANCH  26  27
ATOM     27  O   UNL A   1      38.161  21.579  25.503  1.00  0.00    -0.458 OA
BRANCH  27  28
ATOM     28  C   UNL A   1      39.316  21.355  26.172  1.00  0.00     0.338 C 
ATOM     29  O   UNL A   1      39.959  20.320  26.208  1.00  0.00    -0.246 OA
BRANCH  28  30
ATOM     30  C   UNL A   1      39.771  22.603  26.805  1.00  0.00     0.060 A 
ATOM     31  C   UNL A   1      40.794  22.619  27.744  1.00  0.00     0.016 A 
ATOM     32  C   UNL A   1      39.255  23.797  26.320  1.00  0.00     0.016 A 
ATOM     33  C   UNL A   1      41.273  23.854  28.206  1.00  0.00     0.010 A 
ATOM     34  C   UNL A   1      39.823  25.017  26.676  1.00  0.00     0.010 A 
ATOM     35  C   UNL A   1      40.821  25.072  27.653  1.00  0.00    -0.014 A 
BRANCH  35  36
ATOM     36  C   UNL A   1      41.397  26.386  28.077  1.00  0.00     0.031 A 
ATOM     37  C   UNL A   1      42.798  26.799  27.682  1.00  0.00     0.074 A 
ATOM     38  C   UNL A   1      40.672  27.205  28.869  1.00  0.00     0.049 A 
ATOM     39  N   UNL A   1      43.422  27.927  27.917  1.00  0.00    -0.248 NA
ATOM     40  C   UNL A   1      43.627  25.810  26.974  1.00  0.00     0.031 C 
ATOM     41  C   UNL A   1      39.362  26.878  29.433  1.00  0.00     0.029 A 
ATOM     42  N   UNL A   1      40.916  28.479  29.323  1.00  0.00    -0.354 N 
ATOM     43  C   UNL A   1      44.712  27.766  27.419  1.00  0.00     0.074 A 
ATOM     44  C   UNL A   1      44.809  26.409  26.941  1.00  0.00     0.031 C 
ATOM     45  C   UNL A   1      38.878  27.951  30.074  1.00  0.00     0.029 A 
ATOM     46  C   UNL A   1      39.860  29.032  30.014  1.00  0.00     0.049 A 
ATOM     47  H   UNL A   1      41.766  28.954  29.169  1.00  0.00     0.167 HD
ATOM     48  C   UNL A   1      45.711  28.678  27.324  1.00  0.00     0.034 A 
ATOM     49  C   UNL A   1      39.680  30.272  30.515  1.00  0.00     0.034 A 
ATOM     50  C   UNL A   1      45.574  30.052  27.735  1.00  0.00     0.049 A 
ATOM     51  C   UNL A   1      40.764  31.302  30.318  1.00  0.00     0.074 A 
ATOM     52  C   UNL A   1      46.473  31.088  27.562  1.00  0.00     0.029 A 
ATOM     53  N   UNL A   1      44.473  30.583  28.390  1.00  0.00    -0.354 N 
ATOM     54  N   UNL A   1      41.919  31.176  29.710  1.00  0.00    -0.248 NA
ATOM     55  C   UNL A   1      40.519  32.647  30.858  1.00  0.00     0.031 C 
ATOM     56  C   UNL A   1      45.946  32.228  28.166  1.00  0.00     0.029 A 
ATOM     57  C   UNL A   1      44.683  31.926  28.653  1.00  0.00     0.049 A 
ATOM     58  H   UNL A   1      43.662  30.080  28.633  1.00  0.00     0.167 HD
ATOM     59  C   UNL A   1      42.530  32.425  29.778  1.00  0.00     0.074 A 
ATOM     60  C   UNL A   1      41.604  33.302  30.462  1.00  0.00     0.031 C 
ATOM     61  C   UNL A   1      43.750  32.804  29.319  1.00  0.00     0.034 A 
BRANCH  48  62
ATOM     62  C   UNL A   1      47.027  28.262  26.702  1.00  0.00     0.023 A 
ATOM     63  C   UNL A   1      47.165  28.220  25.301  1.00  0.00     0.031 A 
ATOM     64  C   UNL A   1      48.094  27.785  27.485  1.00  0.00     0.131 A 
ATOM     65  C   UNL A   1      48.332  27.693  24.731  1.00  0.00     0.055 A 
ATOM     66  C   UNL A   1      49.274  27.309  26.912  1.00  0.00     0.041 A 
ATOM     67  F   UNL A   1      48.010  27.784  28.826  1.00  0.00    -0.206 F 
ATOM     68  C   UNL A   1      49.392  27.250  25.528  1.00  0.00     0.022 A 
BRANCH  65  69
ATOM     69  S   UNL A   1      48.496  27.489  22.935  1.00  0.00     0.124 S 
ATOM     70  O   UNL A   1      48.386  26.040  22.786  1.00  0.00    -0.237 OA
ATOM     71  O   UNL A   1      47.355  28.254  22.437  1.00  0.00    -0.237 OA
ATOM     72  O   UNL A   1      49.809  28.049  22.635  1.00  0.00    -0.744 OA
ENDBRANCH  65  69
ENDBRANCH  48  62
BRANCH  49  73
ATOM     73  C   UNL A   1      38.364  30.617  31.132  1.00  0.00     0.023 A 
ATOM     74  C   UNL A   1      37.351  31.250  30.390  1.00  0.00     0.031 A 
ATOM     75  C   UNL A   1      38.162  30.445  32.513  1.00  0.00     0.131 A 
ATOM     76  C   UNL A   1      36.222  31.760  31.047  1.00  0.00     0.055 A 
ATOM     77  C   UNL A   1      37.003  30.890  33.151  1.00  0.00     0.041 A 
ATOM     78  F   UNL A   1      39.108  29.862  33.267  1.00  0.00    -0.206 F 
ATOM     79  C   UNL A   1      36.035  31.569  32.421  1.00  0.00     0.022 A 
BRANCH  76  80
ATOM     80  S   UNL A   1      35.032  32.815  30.173  1.00  0.00     0.124 S 
ATOM     81  O   UNL A   1      34.513  31.913  29.152  1.00  0.00    -0.237 OA
ATOM     82  O   UNL A   1      34.099  33.160  31.245  1.00  0.00    -0.237 OA
ATOM     83  O   UNL A   1      35.848  33.921  29.683  1.00  0.00    -0.744 OA
ENDBRANCH  76  80
ENDBRANCH  49  73
BRANCH  61  84
ATOM     84  C   UNL A   1      44.196  34.232  29.521  1.00  0.00     0.023 A 
ATOM     85  C   UNL A   1      43.707  35.246  28.675  1.00  0.00     0.031 A 
ATOM     86  C   UNL A   1      45.230  34.554  30.417  1.00  0.00     0.131 A 
ATOM     87  C   UNL A   1      44.292  36.519  28.702  1.00  0.00     0.055 A 
ATOM     88  C   UNL A   1      45.774  35.838  30.475  1.00  0.00     0.041 A 
ATOM     89  F   UNL A   1      45.738  33.619  31.236  1.00  0.00    -0.206 F 
ATOM     90  C   UNL A   1      45.316  36.822  29.603  1.00  0.00     0.022 A 
BRANCH  87  91
ATOM     91  S   UNL A   1      43.817  37.793  27.499  1.00  0.00     0.124 S 
ATOM     92  O   UNL A   1      43.172  36.997  26.457  1.00  0.00    -0.237 OA
ATOM     93  O   UNL A   1      42.921  38.637  28.284  1.00  0.00    -0.237 OA
ATOM     94  O   UNL A   1      45.084  38.407  27.117  1.00  0.00    -0.744 OA
ENDBRANCH  87  91
ENDBRANCH  61  84
ENDBRANCH  35  36
ENDBRANCH  28  30
ENDBRANCH  27  28
ENDBRANCH  26  27
ENDBRANCH   1  26
TORSDOF 18
ENDMDL
MODEL 2
REMARK VINA RESULT:     -12.1      4.918     10.065
REMARK SMILES CC(C)CN(C)c1cc2c(cc1Cl)C=C(C(=O)OCCOC(=O)c1ccc(-c3c4nc(c(-c5cc(S(=O)(=O)[O-])ccc5F)c5ccc([nH]5)c(-c5cc(S(=O)(=O)[O-])ccc5F)c5nc(c(-c6cc(S(=O)(=O)[O-])ccc6F)c6ccc3[nH]6)C=C5)C=C4)cc1)[C@@H](C(F)(F)F)O2
REMARK SMILES IDX 19 1 18 2 16 3 17 4 15 5 7 6 8 7 12 8 9 9 11 10 13 11 10 12
REMARK SMILES IDX 92 13 14 14 87 15 5 16 6 17 4 18 2 19 1 20 3 21 88 22 89 23
REMARK SMILES IDX 90 24 91 25 20 26 21 27 22 28 23 29 24 30 25 31 86 32 26 33
REMARK SMILES IDX 85 34 27 35 28 36 29 37 79 38 30 39 84 40 78 41 80 42 31 43
REMARK SMILES IDX 83 44 77 45 76 46 32 48 64 49 44 50 63 51 45 52 48 53 62 54
REMARK SMILES IDX 81 55 46 56 47 57 61 59 82 60 49 61 33 62 34 63 42 64 35 65
REMARK SMILES IDX 41 66 43 67 40 68 36 69 37 70 38 71 39 72 65 73 66 74 74 75
REMARK SMILES IDX 67 76 73 77 75 78 72 79 68 80 69 81 70 82 71 83 50 84 51 85
REMARK SMILES IDX 59 86 52 87 58 88 60 89 57 90 53 91 54 92 55 93 56 94
REMARK H PARENT 80 47 48 58
REMARK Flexibility Score: inf
ROOT
ATOM      1  C   UNL A   1      31.617  29.818  25.109  1.00  0.00     0.275 C 
ENDROOT
BRANCH   1   2
ATOM      2  O   UNL A   1      31.136  28.487  25.406  1.00  0.00    -0.459 OA
BRANCH   2   3
ATOM      3  C   UNL A   1      30.628  27.820  24.342  1.00  0.00     0.338 C 
ATOM      4  O   UNL A   1      29.789  28.250  23.564  1.00  0.00    -0.246 OA
BRANCH   3   5
ATOM      5  C   UNL A   1      31.245  26.490  24.182  1.00  0.00     0.087 C 
ATOM      6  C   UNL A   1      33.302  21.978  25.113  1.00  0.00     0.059 A 
ATOM      7  C   UNL A   1      32.995  22.690  23.930  1.00  0.00     0.074 A 
ATOM      8  C   UNL A   1      33.085  22.628  26.345  1.00  0.00     0.065 A 
ATOM      9  C   UNL A   1      32.429  23.969  23.985  1.00  0.00     0.130 A 
ATOM     10  C   UNL A   1      32.429  23.852  26.399  1.00  0.00     0.034 A 
ATOM     11  Cl  UNL A   1      33.653  21.991  27.849  1.00  0.00    -0.082 Cl
ATOM     12  C   UNL A   1      32.092  24.511  25.221  1.00  0.00     0.019 A 
ATOM     13  O   UNL A   1      32.188  24.631  22.806  1.00  0.00    -0.475 OA
ATOM     14  C   UNL A   1      31.386  25.767  25.298  1.00  0.00     0.027 C 
ATOM     15  C   UNL A   1      31.879  26.062  22.890  1.00  0.00     0.316 C 
BRANCH   6  16
ATOM     16  N   UNL A   1      33.779  20.664  25.061  1.00  0.00    -0.373 N 
ATOM     17  C   UNL A   1      35.215  20.497  24.920  1.00  0.00     0.143 C 
BRANCH  16  18
ATOM     18  C   UNL A   1      32.889  19.631  24.489  1.00  0.00     0.119 C 
BRANCH  18  19
ATOM     19  C   UNL A   1      33.463  18.202  24.611  1.00  0.00     0.002 C 
ATOM     20  C   UNL A   1      32.705  17.359  25.642  1.00  0.00     0.009 C 
ATOM     21  C   UNL A   1      33.431  17.467  23.266  1.00  0.00     0.009 C 
ENDBRANCH  18  19
ENDBRANCH  16  18
ENDBRANCH   6  16
BRANCH  15  22
ATOM     22  C   UNL A   1      33.146  26.906  22.648  1.00  0.00     0.430 C 
ATOM     23  F   UNL A   1      33.896  26.409  21.636  1.00  0.00    -0.167 F 
ATOM     24  F   UNL A   1      32.826  28.178  22.301  1.00  0.00    -0.167 F 
ATOM     25  F   UNL A   1      33.938  26.979  23.742  1.00  0.00    -0.167 F 
ENDBRANCH  15  22
ENDBRANCH   3   5
ENDBRANCH   2   3
ENDBRANCH   1   2
BRANCH   1  26
ATOM     26  C   UNL A   1      31.768  30.674  26.369  1.00  0.00     0.275 C 
BRANCH  26  27
ATOM     27  O   UNL A   1      33.015  30.403  27.035  1.00  0.00    -0.458 OA
BRANCH  27  28
ATOM     28  C   UNL A   1      33.690  31.496  27.463  1.00  0.00     0.338 C 
ATOM     29  O   UNL A   1      33.257  32.629  27.586  1.00  0.00    -0.246 OA
BRANCH  28  30
ATOM     30  C   UNL A   1      35.050  31.109  27.869  1.00  0.00     0.060 A 
ATOM     31  C   UNL A   1      36.046  32.052  28.092  1.00  0.00     0.016 A 
ATOM     32  C   UNL A   1      35.275  29.775  28.182  1.00  0.00     0.016 A 
ATOM     33  C   UNL A   1      37.279  31.629  28.610  1.00  0.00     0.010 A 
ATOM     34  C   UNL A   1      36.446  29.380  28.823  1.00  0.00     0.010 A 
ATOM     35  C   UNL A   1      37.487  30.293  29.018  1.00  0.00    -0.014 A 
BRANCH  35  36
ATOM     36  C   UNL A   1      38.767  29.860  29.658  1.00  0.00     0.031 A 
ATOM     37  C   UNL A   1      39.161  30.335  31.039  1.00  0.00     0.074 A 
ATOM     38  C   UNL A   1      39.617  29.065  28.972  1.00  0.00     0.049 A 
ATOM     39  N   UNL A   1      40.207  30.005  31.757  1.00  0.00    -0.248 NA
ATOM     40  C   UNL A   1      38.303  31.342  31.685  1.00  0.00     0.031 C 
ATOM     41  C   UNL A   1      39.427  28.640  27.585  1.00  0.00     0.029 A 
ATOM     42  N   UNL A   1      40.793  28.458  29.343  1.00  0.00    -0.354 N 
ATOM     43  C   UNL A   1      40.144  30.783  32.909  1.00  0.00     0.074 A 
ATOM     44  C   UNL A   1      39.007  31.658  32.762  1.00  0.00     0.031 C 
ATOM     45  C   UNL A   1      40.393  27.771  27.254  1.00  0.00     0.029 A 
ATOM     46  C   UNL A   1      41.304  27.610  28.386  1.00  0.00     0.049 A 
ATOM     47  H   UNL A   1      41.229  28.614  30.213  1.00  0.00     0.167 HD
ATOM     48  C   UNL A   1      40.933  30.742  34.012  1.00  0.00     0.034 A 
ATOM     49  C   UNL A   1      42.363  26.773  28.417  1.00  0.00     0.034 A 
ATOM     50  C   UNL A   1      42.019  29.811  34.176  1.00  0.00     0.049 A 
ATOM     51  C   UNL A   1      43.174  26.671  29.684  1.00  0.00     0.074 A 
ATOM     52  C   UNL A   1      42.794  29.594  35.301  1.00  0.00     0.029 A 
ATOM     53  N   UNL A   1      42.477  28.938  33.200  1.00  0.00    -0.354 N 
ATOM     54  N   UNL A   1      43.010  27.306  30.821  1.00  0.00    -0.248 NA
ATOM     55  C   UNL A   1      44.304  25.730  29.685  1.00  0.00     0.031 C 
ATOM     56  C   UNL A   1      43.759  28.639  34.988  1.00  0.00     0.029 A 
ATOM     57  C   UNL A   1      43.543  28.202  33.690  1.00  0.00     0.049 A 
ATOM     58  H   UNL A   1      42.102  28.855  32.294  1.00  0.00     0.167 HD
ATOM     59  C   UNL A   1      44.001  26.830  31.675  1.00  0.00     0.074 A 
ATOM     60  C   UNL A   1      44.743  25.832  30.934  1.00  0.00     0.031 C 
ATOM     61  C   UNL A   1      44.271  27.194  32.954  1.00  0.00     0.034 A 
BRANCH  48  62
ATOM     62  C   UNL A   1      40.635  31.680  35.162  1.00  0.00     0.023 A 
ATOM     63  C   UNL A   1      39.575  31.401  36.046  1.00  0.00     0.031 A 
ATOM     64  C   UNL A   1      41.310  32.907  35.307  1.00  0.00     0.131 A 
ATOM     65  C   UNL A   1      39.208  32.344  37.016  1.00  0.00     0.055 A 
ATOM     66  C   UNL A   1      40.973  33.819  36.308  1.00  0.00     0.041 A 
ATOM     67  F   UNL A   1      42.317  33.234  34.481  1.00  0.00    -0.206 F 
ATOM     68  C   UNL A   1      39.910  33.544  37.160  1.00  0.00     0.022 A 
BRANCH  65  69
ATOM     69  S   UNL A   1      37.761  32.088  38.081  1.00  0.00     0.124 S 
ATOM     70  O   UNL A   1      37.404  30.705  37.775  1.00  0.00    -0.237 OA
ATOM     71  O   UNL A   1      38.321  32.307  39.413  1.00  0.00    -0.237 OA
ATOM     72  O   UNL A   1      36.807  33.093  37.626  1.00  0.00    -0.744 OA
ENDBRANCH  65  69
ENDBRANCH  48  62
BRANCH  49  73
ATOM     73  C   UNL A   1      42.614  25.885  27.243  1.00  0.00     0.023 A 
ATOM     74  C   UNL A   1      42.121  24.568  27.202  1.00  0.00     0.031 A 
ATOM     75  C   UNL A   1      43.476  26.299  26.213  1.00  0.00     0.131 A 
ATOM     76  C   UNL A   1      42.558  23.692  26.199  1.00  0.00     0.055 A 
ATOM     77  C   UNL A   1      43.851  25.444  25.175  1.00  0.00     0.041 A 
ATOM     78  F   UNL A   1      43.987  27.541  26.217  1.00  0.00    -0.206 F 
ATOM     79  C   UNL A   1      43.408  24.127  25.175  1.00  0.00     0.022 A 
BRANCH  76  80
ATOM     80  S   UNL A   1      42.161  21.922  26.268  1.00  0.00     0.124 S 
ATOM     81  O   UNL A   1      40.747  21.911  25.914  1.00  0.00    -0.237 OA
ATOM     82  O   UNL A   1      43.069  21.376  25.262  1.00  0.00    -0.237 OA
ATOM     83  O   UNL A   1      42.470  21.554  27.646  1.00  0.00    -0.744 OA
ENDBRANCH  76  80
ENDBRANCH  49  73
BRANCH  61  84
ATOM     84  C   UNL A   1      45.417  26.529  33.677  1.00  0.00     0.023 A 
ATOM     85  C   UNL A   1      46.728  27.015  33.513  1.00  0.00     0.031 A 
ATOM     86  C   UNL A   1      45.239  25.318  34.369  1.00  0.00     0.131 A 
ATOM     87  C   UNL A   1      47.815  26.267  33.983  1.00  0.00     0.055 A 
ATOM     88  C   UNL A   1      46.322  24.602  34.881  1.00  0.00     0.041 A 
ATOM     89  F   UNL A   1      44.009  24.807  34.542  1.00  0.00    -0.206 F 
ATOM     90  C   UNL A   1      47.617  25.068  34.674  1.00  0.00     0.022 A 
BRANCH  87  91
ATOM     91  S   UNL A   1      49.522  26.767  33.624  1.00  0.00     0.124 S 
ATOM     92  O   UNL A   1      49.570  28.109  34.202  1.00  0.00    -0.237 OA
ATOM     93  O   UNL A   1      50.295  25.754  34.337  1.00  0.00    -0.237 OA
ATOM     94  O   UNL A   1      49.607  26.714  32.169  1.00  0.00    -0.744 OA
ENDBRANCH  87  91
ENDBRANCH  61  84
ENDBRANCH  35  36
ENDBRANCH  28  30
ENDBRANCH  27  28
ENDBRANCH  26  27
ENDBRANCH   1  26
TORSDOF 18
ENDMDL
MODEL 3
REMARK VINA RESULT:     -12.1      1.527      2.102
REMARK SMILES CC(C)CN(C)c1cc2c(cc1Cl)C=C(C(=O)OCCOC(=O)c1ccc(-c3c4nc(c(-c5cc(S(=O)(=O)[O-])ccc5F)c5ccc([nH]5)c(-c5cc(S(=O)(=O)[O-])ccc5F)c5nc(c(-c6cc(S(=O)(=O)[O-])ccc6F)c6ccc3[nH]6)C=C5)C=C4)cc1)[C@@H](C(F)(F)F)O2
REMARK SMILES IDX 19 1 18 2 16 3 17 4 15 5 7 6 8 7 12 8 9 9 11 10 13 11 10 12
REMARK SMILES IDX 92 13 14 14 87 15 5 16 6 17 4 18 2 19 1 20 3 21 88 22 89 23
REMARK SMILES IDX 90 24 91 25 20 26 21 27 22 28 23 29 24 30 25 31 86 32 26 33
REMARK SMILES IDX 85 34 27 35 28 36 29 37 79 38 30 39 84 40 78 41 80 42 31 43
REMARK SMILES IDX 83 44 77 45 76 46 32 48 64 49 44 50 63 51 45 52 48 53 62 54
REMARK SMILES IDX 81 55 46 56 47 57 61 59 82 60 49 61 33 62 34 63 42 64 35 65
REMARK SMILES IDX 41 66 43 67 40 68 36 69 37 70 38 71 39 72 65 73 66 74 74 75
REMARK SMILES IDX 67 76 73 77 75 78 72 79 68 80 69 81 70 82 71 83 50 84 51 85
REMARK SMILES IDX 59 86 52 87 58 88 60 89 57 90 53 91 54 92 55 93 56 94
REMARK H PARENT 80 47 48 58
REMARK Flexibility Score: inf
ROOT
ATOM      1  C   UNL A   1      35.873  21.174  25.354  1.00  0.00     0.275 C 
ENDROOT
BRANCH   1   2
ATOM      2  O   UNL A   1      35.188  21.839  24.268  1.00  0.00    -0.459 OA
BRANCH   2   3
ATOM      3  C   UNL A   1      33.850  21.636  24.237  1.00  0.00     0.338 C 
ATOM      4  O   UNL A   1      33.293  20.549  24.167  1.00  0.00    -0.246 OA
BRANCH   3   5
ATOM      5  C   UNL A   1      33.099  22.901  24.347  1.00  0.00     0.087 C 
ATOM      6  C   UNL A   1      31.674  27.722  23.919  1.00  0.00     0.059 A 
ATOM      7  C   UNL A   1      31.110  26.585  24.543  1.00  0.00     0.074 A 
ATOM      8  C   UNL A   1      32.946  27.583  23.328  1.00  0.00     0.065 A 
ATOM      9  C   UNL A   1      31.763  25.347  24.511  1.00  0.00     0.130 A 
ATOM     10  C   UNL A   1      33.542  26.333  23.206  1.00  0.00     0.034 A 
ATOM     11  Cl  UNL A   1      33.867  28.934  22.765  1.00  0.00    -0.082 Cl
ATOM     12  C   UNL A   1      32.943  25.219  23.786  1.00  0.00     0.019 A 
ATOM     13  O   UNL A   1      31.189  24.285  25.167  1.00  0.00    -0.475 OA
ATOM     14  C   UNL A   1      33.563  23.926  23.625  1.00  0.00     0.027 C 
ATOM     15  C   UNL A   1      32.019  23.094  25.373  1.00  0.00     0.316 C 
BRANCH   6  16
ATOM     16  N   UNL A   1      30.981  28.935  23.869  1.00  0.00    -0.373 N 
ATOM     17  C   UNL A   1      31.189  29.851  24.978  1.00  0.00     0.143 C 
BRANCH  16  18
ATOM     18  C   UNL A   1      29.675  28.954  23.175  1.00  0.00     0.119 C 
BRANCH  18  19
ATOM     19  C   UNL A   1      29.175  30.382  22.864  1.00  0.00     0.002 C 
ATOM     20  C   UNL A   1      28.995  30.619  21.361  1.00  0.00     0.009 C 
ATOM     21  C   UNL A   1      27.844  30.676  23.565  1.00  0.00     0.009 C 
ENDBRANCH  18  19
ENDBRANCH  16  18
ENDBRANCH   6  16
BRANCH  15  22
ATOM     22  C   UNL A   1      32.656  23.111  26.775  1.00  0.00     0.430 C 
ATOM     23  F   UNL A   1      33.841  23.765  26.782  1.00  0.00    -0.167 F 
ATOM     24  F   UNL A   1      31.857  23.753  27.666  1.00  0.00    -0.167 F 
ATOM     25  F   UNL A   1      32.876  21.868  27.262  1.00  0.00    -0.167 F 
ENDBRANCH  15  22
ENDBRANCH   3   5
ENDBRANCH   2   3
ENDBRANCH   1   2
BRANCH   1  26
ATOM     26  C   UNL A   1      37.313  20.802  24.991  1.00  0.00     0.275 C 
BRANCH  26  27
ATOM     27  O   UNL A   1      38.217  21.887  25.270  1.00  0.00    -0.458 OA
BRANCH  27  28
ATOM     28  C   UNL A   1      39.221  21.595  26.130  1.00  0.00     0.338 C 
ATOM     29  O   UNL A   1      39.746  20.509  26.308  1.00  0.00    -0.246 OA
BRANCH  28  30
ATOM     30  C   UNL A   1      39.685  22.827  26.784  1.00  0.00     0.060 A 
ATOM     31  C   UNL A   1      40.776  22.836  27.645  1.00  0.00     0.016 A 
ATOM     32  C   UNL A   1      39.099  24.025  26.396  1.00  0.00     0.016 A 
ATOM     33  C   UNL A   1      41.252  24.064  28.128  1.00  0.00     0.010 A 
ATOM     34  C   UNL A   1      39.658  25.246  26.765  1.00  0.00     0.010 A 
ATOM     35  C   UNL A   1      40.724  25.290  27.667  1.00  0.00    -0.014 A 
BRANCH  35  36
ATOM     36  C   UNL A   1      41.292  26.602  28.107  1.00  0.00     0.031 A 
ATOM     37  C   UNL A   1      42.711  27.003  27.768  1.00  0.00     0.074 A 
ATOM     38  C   UNL A   1      40.541  27.429  28.866  1.00  0.00     0.049 A 
ATOM     39  N   UNL A   1      43.332  28.128  28.023  1.00  0.00    -0.248 NA
ATOM     40  C   UNL A   1      43.560  26.005  27.097  1.00  0.00     0.031 C 
ATOM     41  C   UNL A   1      39.208  27.114  29.378  1.00  0.00     0.029 A 
ATOM     42  N   UNL A   1      40.776  28.704  29.324  1.00  0.00    -0.354 N 
ATOM     43  C   UNL A   1      44.640  27.956  27.577  1.00  0.00     0.074 A 
ATOM     44  C   UNL A   1      44.746  26.595  27.110  1.00  0.00     0.031 C 
ATOM     45  C   UNL A   1      38.706  28.193  29.995  1.00  0.00     0.029 A 
ATOM     46  C   UNL A   1      39.696  29.267  29.969  1.00  0.00     0.049 A 
ATOM     47  H   UNL A   1      41.634  29.172  29.202  1.00  0.00     0.167 HD
ATOM     48  C   UNL A   1      45.648  28.861  27.518  1.00  0.00     0.034 A 
ATOM     49  C   UNL A   1      39.506  30.511  30.458  1.00  0.00     0.034 A 
ATOM     50  C   UNL A   1      45.505  30.237  27.918  1.00  0.00     0.049 A 
ATOM     51  C   UNL A   1      40.604  31.532  30.299  1.00  0.00     0.074 A 
ATOM     52  C   UNL A   1      46.418  31.266  27.776  1.00  0.00     0.029 A 
ATOM     53  N   UNL A   1      44.382  30.778  28.526  1.00  0.00    -0.354 N 
ATOM     54  N   UNL A   1      41.782  31.395  29.738  1.00  0.00    -0.248 NA
ATOM     55  C   UNL A   1      40.347  32.882  30.823  1.00  0.00     0.031 C 
ATOM     56  C   UNL A   1      45.874  32.413  28.353  1.00  0.00     0.029 A 
ATOM     57  C   UNL A   1      44.591  32.122  28.790  1.00  0.00     0.049 A 
ATOM     58  H   UNL A   1      43.558  30.282  28.738  1.00  0.00     0.167 HD
ATOM     59  C   UNL A   1      42.398  32.640  29.825  1.00  0.00     0.074 A 
ATOM     60  C   UNL A   1      41.451  33.527  30.468  1.00  0.00     0.031 C 
ATOM     61  C   UNL A   1      43.638  33.009  29.414  1.00  0.00     0.034 A 
BRANCH  48  62
ATOM     62  C   UNL A   1      46.985  28.433  26.951  1.00  0.00     0.023 A 
ATOM     63  C   UNL A   1      47.147  28.278  25.561  1.00  0.00     0.031 A 
ATOM     64  C   UNL A   1      48.053  28.054  27.787  1.00  0.00     0.131 A 
ATOM     65  C   UNL A   1      48.338  27.739  25.053  1.00  0.00     0.055 A 
ATOM     66  C   UNL A   1      49.255  27.566  27.272  1.00  0.00     0.041 A 
ATOM     67  F   UNL A   1      47.948  28.163  29.122  1.00  0.00    -0.206 F 
ATOM     68  C   UNL A   1      49.396  27.395  25.899  1.00  0.00     0.022 A 
BRANCH  65  69
ATOM     69  S   UNL A   1      48.536  27.391  23.283  1.00  0.00     0.124 S 
ATOM     70  O   UNL A   1      48.430  25.934  23.250  1.00  0.00    -0.237 OA
ATOM     71  O   UNL A   1      47.404  28.111  22.703  1.00  0.00    -0.237 OA
ATOM     72  O   UNL A   1      49.854  27.927  22.964  1.00  0.00    -0.744 OA
ENDBRANCH  65  69
ENDBRANCH  48  62
BRANCH  49  73
ATOM     73  C   UNL A   1      38.169  30.867  31.020  1.00  0.00     0.023 A 
ATOM     74  C   UNL A   1      37.185  31.491  30.231  1.00  0.00     0.031 A 
ATOM     75  C   UNL A   1      37.915  30.718  32.395  1.00  0.00     0.131 A 
ATOM     76  C   UNL A   1      36.034  32.013  30.837  1.00  0.00     0.055 A 
ATOM     77  C   UNL A   1      36.734  31.174  32.982  1.00  0.00     0.041 A 
ATOM     78  F   UNL A   1      38.830  30.144  33.192  1.00  0.00    -0.206 F 
ATOM     79  C   UNL A   1      35.795  31.844  32.206  1.00  0.00     0.022 A 
BRANCH  76  80
ATOM     80  S   UNL A   1      34.880  33.057  29.903  1.00  0.00     0.124 S 
ATOM     81  O   UNL A   1      35.781  33.982  29.227  1.00  0.00    -0.237 OA
ATOM     82  O   UNL A   1      34.222  32.075  29.044  1.00  0.00    -0.237 OA
ATOM     83  O   UNL A   1      34.032  33.643  30.937  1.00  0.00    -0.744 OA
ENDBRANCH  76  80
ENDBRANCH  49  73
BRANCH  61  84
ATOM     84  C   UNL A   1      44.085  34.435  29.628  1.00  0.00     0.023 A 
ATOM     85  C   UNL A   1      44.543  34.844  30.895  1.00  0.00     0.031 A 
ATOM     86  C   UNL A   1      43.884  35.418  28.644  1.00  0.00     0.131 A 
ATOM     87  C   UNL A   1      44.732  36.206  31.163  1.00  0.00     0.055 A 
ATOM     88  C   UNL A   1      44.123  36.769  28.901  1.00  0.00     0.041 A 
ATOM     89  F   UNL A   1      43.437  35.080  27.424  1.00  0.00    -0.206 F 
ATOM     90  C   UNL A   1      44.531  37.169  30.170  1.00  0.00     0.022 A 
BRANCH  87  91
ATOM     91  S   UNL A   1      45.138  36.785  32.835  1.00  0.00     0.124 S 
ATOM     92  O   UNL A   1      44.480  35.782  33.669  1.00  0.00    -0.237 OA
ATOM     93  O   UNL A   1      46.597  36.732  32.831  1.00  0.00    -0.237 OA
ATOM     94  O   UNL A   1      44.558  38.122  32.897  1.00  0.00    -0.744 OA
ENDBRANCH  87  91
ENDBRANCH  61  84
ENDBRANCH  35  36
ENDBRANCH  28  30
ENDBRANCH  27  28
ENDBRANCH  26  27
ENDBRANCH   1  26
TORSDOF 18
ENDMDL
