MODEL 1
REMARK VINA RESULT:     -11.6      0.000      0.000
REMARK SMILES CCc1cc(/C=C/C(=O)OCCOC(=O)c2ccc(-c3c4nc(c(-c5cc(S(=O)(=O)[O-])ccc5F)c5ccc([nH]5)c(-c5cc(S(=O)(=O)[O-])ccc5F)c5nc(c(-c6cc(S(=O)(=O)[O-])ccc6F)c6ccc3[nH]6)C=C5)C=C4)cc2)cc(C(=O)c2ccccc2)c1
REMARK SMILES IDX 11 1 10 2 8 3 9 4 7 5 6 6 5 7 3 8 4 9 89 10 80 11 79 12 2 13
REMARK SMILES IDX 1 14 81 15 82 16 83 17 84 18 88 19 85 20 87 21 86 22 12 23
REMARK SMILES IDX 13 24 14 25 15 26 16 27 17 28 78 29 18 30 77 31 19 32 20 33
REMARK SMILES IDX 21 34 71 35 22 36 76 37 70 38 72 39 23 40 75 41 69 42 68 43
REMARK SMILES IDX 24 45 56 46 36 47 55 48 37 49 40 50 54 51 73 52 38 53 39 54
REMARK SMILES IDX 53 56 74 57 41 58 25 59 26 60 34 61 27 62 33 63 35 64 32 65
REMARK SMILES IDX 28 66 29 67 30 68 31 69 57 70 58 71 66 72 59 73 65 74 67 75
REMARK SMILES IDX 64 76 60 77 61 78 62 79 63 80 42 81 43 82 51 83 44 84 50 85
REMARK SMILES IDX 52 86 49 87 45 88 46 89 47 90 48 91
REMARK H PARENT 72 44 40 55
REMARK Flexibility Score: inf
ROOT
ATOM      1  C   UNL A   1      35.904  21.033  24.634  1.00  0.00     0.275 C 
ENDROOT
BRANCH   1   2
ATOM      2  O   UNL A   1      35.425  22.365  24.894  1.00  0.00    -0.459 OA
BRANCH   2   3
ATOM      3  C   UNL A   1      35.369  23.192  23.824  1.00  0.00     0.330 C 
ATOM      4  O   UNL A   1      35.960  23.041  22.765  1.00  0.00    -0.247 OA
BRANCH   3   5
ATOM      5  C   UNL A   1      34.431  24.316  24.024  1.00  0.00     0.094 C 
ATOM      6  C   UNL A   1      34.474  25.196  25.037  1.00  0.00     0.015 C 
BRANCH   6   7
ATOM      7  C   UNL A   1      33.431  26.212  25.246  1.00  0.00    -0.024 A 
ATOM      8  C   UNL A   1      32.660  28.277  26.307  1.00  0.00    -0.047 A 
ATOM      9  C   UNL A   1      33.639  27.291  26.119  1.00  0.00     0.011 A 
ATOM     10  C   UNL A   1      31.460  28.183  25.590  1.00  0.00     0.016 A 
ATOM     11  C   UNL A   1      31.256  27.143  24.671  1.00  0.00     0.023 A 
ATOM     12  C   UNL A   1      32.241  26.156  24.511  1.00  0.00     0.020 A 
BRANCH   8  13
ATOM     13  C   UNL A   1      32.912  29.454  27.220  1.00  0.00     0.032 C 
ATOM     14  C   UNL A   1      34.384  29.827  27.338  1.00  0.00     0.009 C 
ENDBRANCH   8  13
BRANCH  11  15
ATOM     15  C   UNL A   1      30.000  27.029  23.873  1.00  0.00     0.193 C 
ATOM     16  O   UNL A   1      29.399  25.959  23.820  1.00  0.00    -0.289 OA
BRANCH  15  17
ATOM     17  C   UNL A   1      29.423  28.193  23.159  1.00  0.00     0.022 A 
ATOM     18  C   UNL A   1      28.048  28.427  23.278  1.00  0.00     0.012 A 
ATOM     19  C   UNL A   1      30.212  29.036  22.369  1.00  0.00     0.012 A 
ATOM     20  C   UNL A   1      27.473  29.532  22.649  1.00  0.00     0.001 A 
ATOM     21  C   UNL A   1      29.632  30.142  21.743  1.00  0.00     0.001 A 
ATOM     22  C   UNL A   1      28.267  30.393  21.890  1.00  0.00     0.000 A 
ENDBRANCH  15  17
ENDBRANCH  11  15
ENDBRANCH   6   7
ENDBRANCH   3   5
ENDBRANCH   2   3
ENDBRANCH   1   2
BRANCH   1  23
ATOM     23  C   UNL A   1      37.420  20.939  24.843  1.00  0.00     0.275 C 
BRANCH  23  24
ATOM     24  O   UNL A   1      37.849  21.665  26.009  1.00  0.00    -0.458 OA
BRANCH  24  25
ATOM     25  C   UNL A   1      39.179  21.593  26.270  1.00  0.00     0.338 C 
ATOM     26  O   UNL A   1      39.921  20.658  26.027  1.00  0.00    -0.246 OA
BRANCH  25  27
ATOM     27  C   UNL A   1      39.658  22.884  26.798  1.00  0.00     0.060 A 
ATOM     28  C   UNL A   1      39.200  24.052  26.183  1.00  0.00     0.016 A 
ATOM     29  C   UNL A   1      40.595  22.951  27.833  1.00  0.00     0.016 A 
ATOM     30  C   UNL A   1      39.680  25.294  26.593  1.00  0.00     0.010 A 
ATOM     31  C   UNL A   1      41.077  24.200  28.245  1.00  0.00     0.010 A 
ATOM     32  C   UNL A   1      40.632  25.378  27.620  1.00  0.00    -0.014 A 
BRANCH  32  33
ATOM     33  C   UNL A   1      41.190  26.701  27.997  1.00  0.00     0.031 A 
ATOM     34  C   UNL A   1      42.617  27.036  27.663  1.00  0.00     0.074 A 
ATOM     35  C   UNL A   1      40.408  27.608  28.612  1.00  0.00     0.049 A 
ATOM     36  N   UNL A   1      43.299  28.120  27.929  1.00  0.00    -0.248 NA
ATOM     37  C   UNL A   1      43.375  26.010  26.933  1.00  0.00     0.031 C 
ATOM     38  C   UNL A   1      39.001  27.410  28.956  1.00  0.00     0.029 A 
ATOM     39  N   UNL A   1      40.687  28.876  29.057  1.00  0.00    -0.354 N 
ATOM     40  C   UNL A   1      44.569  27.909  27.404  1.00  0.00     0.074 A 
ATOM     41  C   UNL A   1      44.568  26.578  26.834  1.00  0.00     0.031 C 
ATOM     42  C   UNL A   1      38.537  28.519  29.556  1.00  0.00     0.029 A 
ATOM     43  C   UNL A   1      39.624  29.488  29.681  1.00  0.00     0.049 A 
ATOM     44  H   UNL A   1      41.565  29.308  28.941  1.00  0.00     0.167 HD
ATOM     45  C   UNL A   1      45.632  28.752  27.392  1.00  0.00     0.034 A 
ATOM     46  C   UNL A   1      39.543  30.680  30.303  1.00  0.00     0.034 A 
ATOM     47  C   UNL A   1      45.621  30.073  27.975  1.00  0.00     0.049 A 
ATOM     48  C   UNL A   1      40.763  31.566  30.349  1.00  0.00     0.074 A 
ATOM     49  C   UNL A   1      46.637  31.013  28.004  1.00  0.00     0.029 A 
ATOM     50  N   UNL A   1      44.543  30.638  28.646  1.00  0.00    -0.354 N 
ATOM     51  N   UNL A   1      41.956  31.357  29.842  1.00  0.00    -0.248 NA
ATOM     52  C   UNL A   1      40.622  32.850  31.049  1.00  0.00     0.031 C 
ATOM     53  C   UNL A   1      46.198  32.115  28.747  1.00  0.00     0.029 A 
ATOM     54  C   UNL A   1      44.882  31.896  29.121  1.00  0.00     0.049 A 
ATOM     55  H   UNL A   1      43.666  30.208  28.767  1.00  0.00     0.167 HD
ATOM     56  C   UNL A   1      42.702  32.493  30.145  1.00  0.00     0.074 A 
ATOM     57  C   UNL A   1      41.818  33.390  30.862  1.00  0.00     0.031 C 
ATOM     58  C   UNL A   1      43.998  32.773  29.855  1.00  0.00     0.034 A 
BRANCH  45  59
ATOM     59  C   UNL A   1      46.910  28.242  26.771  1.00  0.00     0.023 A 
ATOM     60  C   UNL A   1      47.116  28.259  25.380  1.00  0.00     0.031 A 
ATOM     61  C   UNL A   1      47.925  27.701  27.580  1.00  0.00     0.131 A 
ATOM     62  C   UNL A   1      48.274  27.682  24.836  1.00  0.00     0.055 A 
ATOM     63  C   UNL A   1      49.109  27.198  27.038  1.00  0.00     0.041 A 
ATOM     64  F   UNL A   1      47.777  27.640  28.913  1.00  0.00    -0.206 F 
ATOM     65  C   UNL A   1      49.283  27.172  25.657  1.00  0.00     0.022 A 
BRANCH  62  66
ATOM     66  S   UNL A   1      48.383  27.484  23.036  1.00  0.00     0.124 S 
ATOM     67  O   UNL A   1      48.312  26.031  22.894  1.00  0.00    -0.237 OA
ATOM     68  O   UNL A   1      47.221  28.229  22.565  1.00  0.00    -0.237 OA
ATOM     69  O   UNL A   1      49.679  28.072  22.703  1.00  0.00    -0.744 OA
ENDBRANCH  62  66
ENDBRANCH  45  59
BRANCH  46  70
ATOM     70  C   UNL A   1      38.279  31.093  30.978  1.00  0.00     0.023 A 
ATOM     71  C   UNL A   1      37.325  31.882  30.318  1.00  0.00     0.031 A 
ATOM     72  C   UNL A   1      38.033  30.741  32.317  1.00  0.00     0.131 A 
ATOM     73  C   UNL A   1      36.187  32.326  31.010  1.00  0.00     0.055 A 
ATOM     74  C   UNL A   1      36.877  31.143  32.985  1.00  0.00     0.041 A 
ATOM     75  F   UNL A   1      38.916  29.989  32.994  1.00  0.00    -0.206 F 
ATOM     76  C   UNL A   1      35.950  31.952  32.334  1.00  0.00     0.022 A 
BRANCH  73  77
ATOM     77  S   UNL A   1      35.055  33.472  30.176  1.00  0.00     0.124 S 
ATOM     78  O   UNL A   1      35.949  34.145  29.240  1.00  0.00    -0.237 OA
ATOM     79  O   UNL A   1      34.079  32.560  29.588  1.00  0.00    -0.237 OA
ATOM     80  O   UNL A   1      34.550  34.305  31.265  1.00  0.00    -0.744 OA
ENDBRANCH  73  77
ENDBRANCH  46  70
BRANCH  58  81
ATOM     81  C   UNL A   1      44.519  34.121  30.287  1.00  0.00     0.023 A 
ATOM     82  C   UNL A   1      44.381  35.262  29.476  1.00  0.00     0.031 A 
ATOM     83  C   UNL A   1      45.181  34.263  31.520  1.00  0.00     0.131 A 
ATOM     84  C   UNL A   1      44.943  36.481  29.882  1.00  0.00     0.055 A 
ATOM     85  C   UNL A   1      45.690  35.492  31.944  1.00  0.00     0.041 A 
ATOM     86  F   UNL A   1      45.344  33.207  32.333  1.00  0.00    -0.206 F 
ATOM     87  C   UNL A   1      45.583  36.606  31.118  1.00  0.00     0.022 A 
BRANCH  84  88
ATOM     88  S   UNL A   1      44.902  37.887  28.735  1.00  0.00     0.124 S 
ATOM     89  O   UNL A   1      43.937  38.773  29.377  1.00  0.00    -0.237 OA
ATOM     90  O   UNL A   1      46.289  38.339  28.745  1.00  0.00    -0.237 OA
ATOM     91  O   UNL A   1      44.455  37.290  27.478  1.00  0.00    -0.744 OA
ENDBRANCH  84  88
ENDBRANCH  58  81
ENDBRANCH  32  33
ENDBRANCH  25  27
ENDBRANCH  24  25
ENDBRANCH  23  24
ENDBRANCH   1  23
TORSDOF 18
ENDMDL
MODEL 2
REMARK VINA RESULT:     -11.6      1.819      7.773
REMARK SMILES CCc1cc(/C=C/C(=O)OCCOC(=O)c2ccc(-c3c4nc(c(-c5cc(S(=O)(=O)[O-])ccc5F)c5ccc([nH]5)c(-c5cc(S(=O)(=O)[O-])ccc5F)c5nc(c(-c6cc(S(=O)(=O)[O-])ccc6F)c6ccc3[nH]6)C=C5)C=C4)cc2)cc(C(=O)c2ccccc2)c1
REMARK SMILES IDX 11 1 10 2 8 3 9 4 7 5 6 6 5 7 3 8 4 9 89 10 80 11 79 12 2 13
REMARK SMILES IDX 1 14 81 15 82 16 83 17 84 18 88 19 85 20 87 21 86 22 12 23
REMARK SMILES IDX 13 24 14 25 15 26 16 27 17 28 78 29 18 30 77 31 19 32 20 33
REMARK SMILES IDX 21 34 71 35 22 36 76 37 70 38 72 39 23 40 75 41 69 42 68 43
REMARK SMILES IDX 24 45 56 46 36 47 55 48 37 49 40 50 54 51 73 52 38 53 39 54
REMARK SMILES IDX 53 56 74 57 41 58 25 59 26 60 34 61 27 62 33 63 35 64 32 65
REMARK SMILES IDX 28 66 29 67 30 68 31 69 57 70 58 71 66 72 59 73 65 74 67 75
REMARK SMILES IDX 64 76 60 77 61 78 62 79 63 80 42 81 43 82 51 83 44 84 50 85
REMARK SMILES IDX 52 86 49 87 45 88 46 89 47 90 48 91
REMARK H PARENT 72 44 40 55
REMARK Flexibility Score: inf
ROOT
ATOM      1  C   UNL A   1      34.592  20.566  25.445  1.00  0.00     0.275 C 
ENDROOT
BRANCH   1   2
ATOM      2  O   UNL A   1      33.723  21.121  24.440  1.00  0.00    -0.459 OA
BRANCH   2   3
ATOM      3  C   UNL A   1      32.553  21.633  24.887  1.00  0.00     0.330 C 
ATOM      4  O   UNL A   1      31.586  20.992  25.271  1.00  0.00    -0.247 OA
BRANCH   3   5
ATOM      5  C   UNL A   1      32.564  23.109  24.944  1.00  0.00     0.094 C 
ATOM      6  C   UNL A   1      31.635  23.873  25.539  1.00  0.00     0.015 C 
BRANCH   6   7
ATOM      7  C   UNL A   1      31.640  25.341  25.446  1.00  0.00    -0.024 A 
ATOM      8  C   UNL A   1      32.335  27.522  26.310  1.00  0.00    -0.047 A 
ATOM      9  C   UNL A   1      32.305  26.123  26.403  1.00  0.00     0.011 A 
ATOM     10  C   UNL A   1      31.702  28.140  25.225  1.00  0.00     0.016 A 
ATOM     11  C   UNL A   1      31.081  27.373  24.228  1.00  0.00     0.023 A 
ATOM     12  C   UNL A   1      31.046  25.976  24.349  1.00  0.00     0.020 A 
BRANCH   8  13
ATOM     13  C   UNL A   1      33.087  28.349  27.327  1.00  0.00     0.032 C 
ATOM     14  C   UNL A   1      34.383  28.941  26.789  1.00  0.00     0.009 C 
ENDBRANCH   8  13
BRANCH  11  15
ATOM     15  C   UNL A   1      30.420  28.001  23.046  1.00  0.00     0.193 C 
ATOM     16  O   UNL A   1      30.651  27.581  21.915  1.00  0.00    -0.289 OA
BRANCH  15  17
ATOM     17  C   UNL A   1      29.447  29.110  23.196  1.00  0.00     0.022 A 
ATOM     18  C   UNL A   1      28.099  28.848  22.926  1.00  0.00     0.012 A 
ATOM     19  C   UNL A   1      29.850  30.394  23.578  1.00  0.00     0.012 A 
ATOM     20  C   UNL A   1      27.149  29.858  23.088  1.00  0.00     0.001 A 
ATOM     21  C   UNL A   1      28.894  31.400  23.740  1.00  0.00     0.001 A 
ATOM     22  C   UNL A   1      27.546  31.129  23.503  1.00  0.00     0.000 A 
ENDBRANCH  15  17
ENDBRANCH  11  15
ENDBRANCH   6   7
ENDBRANCH   3   5
ENDBRANCH   2   3
ENDBRANCH   1   2
BRANCH   1  23
ATOM     23  C   UNL A   1      36.044  20.521  24.958  1.00  0.00     0.275 C 
BRANCH  23  24
ATOM     24  O   UNL A   1      36.847  21.553  25.562  1.00  0.00    -0.458 OA
BRANCH  24  25
ATOM     25  C   UNL A   1      38.150  21.226  25.751  1.00  0.00     0.338 C 
ATOM     26  O   UNL A   1      38.695  20.184  25.434  1.00  0.00    -0.246 OA
BRANCH  25  27
ATOM     27  C   UNL A   1      38.882  22.380  26.306  1.00  0.00     0.060 A 
ATOM     28  C   UNL A   1      38.367  23.657  26.067  1.00  0.00     0.016 A 
ATOM     29  C   UNL A   1      40.092  22.223  26.988  1.00  0.00     0.016 A 
ATOM     30  C   UNL A   1      39.059  24.784  26.503  1.00  0.00     0.010 A 
ATOM     31  C   UNL A   1      40.787  23.356  27.425  1.00  0.00     0.010 A 
ATOM     32  C   UNL A   1      40.282  24.644  27.176  1.00  0.00    -0.014 A 
BRANCH  32  33
ATOM     33  C   UNL A   1      41.046  25.854  27.569  1.00  0.00     0.031 A 
ATOM     34  C   UNL A   1      40.376  26.939  28.365  1.00  0.00     0.074 A 
ATOM     35  C   UNL A   1      42.347  25.965  27.237  1.00  0.00     0.049 A 
ATOM     36  N   UNL A   1      40.858  28.082  28.780  1.00  0.00    -0.248 NA
ATOM     37  C   UNL A   1      38.974  26.703  28.738  1.00  0.00     0.031 C 
ATOM     38  C   UNL A   1      43.114  24.963  26.497  1.00  0.00     0.029 A 
ATOM     39  N   UNL A   1      43.251  26.968  27.477  1.00  0.00    -0.354 N 
ATOM     40  C   UNL A   1      39.820  28.707  29.463  1.00  0.00     0.074 A 
ATOM     41  C   UNL A   1      38.673  27.827  29.374  1.00  0.00     0.031 C 
ATOM     42  C   UNL A   1      44.374  25.401  26.346  1.00  0.00     0.029 A 
ATOM     43  C   UNL A   1      44.494  26.732  26.937  1.00  0.00     0.049 A 
ATOM     44  H   UNL A   1      43.031  27.782  27.987  1.00  0.00     0.167 HD
ATOM     45  C   UNL A   1      39.828  29.899  30.111  1.00  0.00     0.034 A 
ATOM     46  C   UNL A   1      45.594  27.509  26.900  1.00  0.00     0.034 A 
ATOM     47  C   UNL A   1      40.976  30.771  30.182  1.00  0.00     0.049 A 
ATOM     48  C   UNL A   1      45.553  28.867  27.555  1.00  0.00     0.074 A 
ATOM     49  C   UNL A   1      41.096  31.992  30.824  1.00  0.00     0.029 A 
ATOM     50  N   UNL A   1      42.203  30.524  29.577  1.00  0.00    -0.354 N 
ATOM     51  N   UNL A   1      44.567  29.443  28.203  1.00  0.00    -0.248 NA
ATOM     52  C   UNL A   1      46.776  29.677  27.477  1.00  0.00     0.031 C 
ATOM     53  C   UNL A   1      42.367  32.511  30.554  1.00  0.00     0.029 A 
ATOM     54  C   UNL A   1      43.070  31.582  29.801  1.00  0.00     0.049 A 
ATOM     55  H   UNL A   1      42.424  29.713  29.062  1.00  0.00     0.167 HD
ATOM     56  C   UNL A   1      45.059  30.675  28.627  1.00  0.00     0.074 A 
ATOM     57  C   UNL A   1      46.434  30.750  28.176  1.00  0.00     0.031 C 
ATOM     58  C   UNL A   1      44.433  31.655  29.328  1.00  0.00     0.034 A 
BRANCH  45  59
ATOM     59  C   UNL A   1      38.534  30.347  30.747  1.00  0.00     0.023 A 
ATOM     60  C   UNL A   1      37.568  31.073  30.028  1.00  0.00     0.031 A 
ATOM     61  C   UNL A   1      38.276  30.069  32.102  1.00  0.00     0.131 A 
ATOM     62  C   UNL A   1      36.426  31.557  30.684  1.00  0.00     0.055 A 
ATOM     63  C   UNL A   1      37.102  30.489  32.729  1.00  0.00     0.041 A 
ATOM     64  F   UNL A   1      39.170  29.396  32.844  1.00  0.00    -0.206 F 
ATOM     65  C   UNL A   1      36.174  31.251  32.024  1.00  0.00     0.022 A 
BRANCH  62  66
ATOM     66  S   UNL A   1      35.339  32.709  29.798  1.00  0.00     0.124 S 
ATOM     67  O   UNL A   1      34.394  33.088  30.846  1.00  0.00    -0.237 OA
ATOM     68  O   UNL A   1      36.265  33.749  29.367  1.00  0.00    -0.237 OA
ATOM     69  O   UNL A   1      34.773  31.892  28.727  1.00  0.00    -0.744 OA
ENDBRANCH  62  66
ENDBRANCH  45  59
BRANCH  46  70
ATOM     70  C   UNL A   1      46.815  27.052  26.177  1.00  0.00     0.023 A 
ATOM     71  C   UNL A   1      47.892  26.470  26.864  1.00  0.00     0.031 A 
ATOM     72  C   UNL A   1      46.940  27.238  24.789  1.00  0.00     0.131 A 
ATOM     73  C   UNL A   1      49.062  26.130  26.167  1.00  0.00     0.055 A 
ATOM     74  C   UNL A   1      48.086  26.853  24.093  1.00  0.00     0.041 A 
ATOM     75  F   UNL A   1      45.939  27.793  24.086  1.00  0.00    -0.206 F 
ATOM     76  C   UNL A   1      49.162  26.305  24.785  1.00  0.00     0.022 A 
BRANCH  73  77
ATOM     77  S   UNL A   1      50.490  25.526  27.108  1.00  0.00     0.124 S 
ATOM     78  O   UNL A   1      49.960  24.303  27.701  1.00  0.00    -0.237 OA
ATOM     79  O   UNL A   1      51.491  25.350  26.062  1.00  0.00    -0.237 OA
ATOM     80  O   UNL A   1      50.761  26.610  28.050  1.00  0.00    -0.744 OA
ENDBRANCH  73  77
ENDBRANCH  46  70
BRANCH  58  81
ATOM     81  C   UNL A   1      45.251  32.874  29.675  1.00  0.00     0.023 A 
ATOM     82  C   UNL A   1      45.288  34.003  28.836  1.00  0.00     0.031 A 
ATOM     83  C   UNL A   1      46.020  32.900  30.853  1.00  0.00     0.131 A 
ATOM     84  C   UNL A   1      46.118  35.087  29.159  1.00  0.00     0.055 A 
ATOM     85  C   UNL A   1      46.800  34.004  31.197  1.00  0.00     0.041 A 
ATOM     86  F   UNL A   1      46.023  31.849  31.688  1.00  0.00    -0.206 F 
ATOM     87  C   UNL A   1      46.862  35.100  30.341  1.00  0.00     0.022 A 
BRANCH  84  88
ATOM     88  S   UNL A   1      46.279  36.447  27.970  1.00  0.00     0.124 S 
ATOM     89  O   UNL A   1      45.445  37.480  28.576  1.00  0.00    -0.237 OA
ATOM     90  O   UNL A   1      47.715  36.702  27.978  1.00  0.00    -0.237 OA
ATOM     91  O   UNL A   1      45.758  35.881  26.727  1.00  0.00    -0.744 OA
ENDBRANCH  84  88
ENDBRANCH  58  81
ENDBRANCH  32  33
ENDBRANCH  25  27
ENDBRANCH  24  25
ENDBRANCH  23  24
ENDBRANCH   1  23
TORSDOF 18
ENDMDL
MODEL 3
REMARK VINA RESULT:     -11.5      1.821      2.153
REMARK SMILES CCc1cc(/C=C/C(=O)OCCOC(=O)c2ccc(-c3c4nc(c(-c5cc(S(=O)(=O)[O-])ccc5F)c5ccc([nH]5)c(-c5cc(S(=O)(=O)[O-])ccc5F)c5nc(c(-c6cc(S(=O)(=O)[O-])ccc6F)c6ccc3[nH]6)C=C5)C=C4)cc2)cc(C(=O)c2ccccc2)c1
REMARK SMILES IDX 11 1 10 2 8 3 9 4 7 5 6 6 5 7 3 8 4 9 89 10 80 11 79 12 2 13
REMARK SMILES IDX 1 14 81 15 82 16 83 17 84 18 88 19 85 20 87 21 86 22 12 23
REMARK SMILES IDX 13 24 14 25 15 26 16 27 17 28 78 29 18 30 77 31 19 32 20 33
REMARK SMILES IDX 21 34 71 35 22 36 76 37 70 38 72 39 23 40 75 41 69 42 68 43
REMARK SMILES IDX 24 45 56 46 36 47 55 48 37 49 40 50 54 51 73 52 38 53 39 54
REMARK SMILES IDX 53 56 74 57 41 58 25 59 26 60 34 61 27 62 33 63 35 64 32 65
REMARK SMILES IDX 28 66 29 67 30 68 31 69 57 70 58 71 66 72 59 73 65 74 67 75
REMARK SMILES IDX 64 76 60 77 61 78 62 79 63 80 42 81 43 82 51 83 44 84 50 85
REMARK SMILES IDX 52 86 49 87 45 88 46 89 47 90 48 91
REMARK H PARENT 72 44 40 55
REMARK Flexibility Score: inf
ROOT
ATOM      1  C   UNL A   1      34.847  20.591  25.521  1.00  0.00     0.275 C 
ENDROOT
BRANCH   1   2
ATOM      2  O   UNL A   1      33.958  21.023  24.475  1.00  0.00    -0.459 OA
BRANCH   2   3
ATOM      3  C   UNL A   1      32.717  21.396  24.870  1.00  0.00     0.330 C 
ATOM      4  O   UNL A   1      31.813  20.646  25.208  1.00  0.00    -0.247 OA
BRANCH   3   5
ATOM      5  C   UNL A   1      32.559  22.863  24.930  1.00  0.00     0.094 C 
ATOM      6  C   UNL A   1      31.490  23.512  25.418  1.00  0.00     0.015 C 
BRANCH   6   7
ATOM      7  C   UNL A   1      31.343  24.973  25.329  1.00  0.00    -0.024 A 
ATOM      8  C   UNL A   1      31.486  27.189  26.355  1.00  0.00    -0.047 A 
ATOM      9  C   UNL A   1      31.601  25.794  26.437  1.00  0.00     0.011 A 
ATOM     10  C   UNL A   1      31.124  27.765  25.131  1.00  0.00     0.016 A 
ATOM     11  C   UNL A   1      30.917  26.966  23.998  1.00  0.00     0.023 A 
ATOM     12  C   UNL A   1      31.019  25.571  24.105  1.00  0.00     0.020 A 
BRANCH   8  13
ATOM     13  C   UNL A   1      31.805  28.063  27.546  1.00  0.00     0.032 C 
ATOM     14  C   UNL A   1      31.991  29.531  27.189  1.00  0.00     0.009 C 
ENDBRANCH   8  13
BRANCH  11  15
ATOM     15  C   UNL A   1      30.555  27.552  22.674  1.00  0.00     0.193 C 
ATOM     16  O   UNL A   1      31.037  27.090  21.642  1.00  0.00    -0.289 OA
BRANCH  15  17
ATOM     17  C   UNL A   1      29.587  28.669  22.555  1.00  0.00     0.022 A 
ATOM     18  C   UNL A   1      28.293  28.479  23.052  1.00  0.00     0.012 A 
ATOM     19  C   UNL A   1      29.935  29.881  21.948  1.00  0.00     0.012 A 
ATOM     20  C   UNL A   1      27.364  29.519  22.989  1.00  0.00     0.001 A 
ATOM     21  C   UNL A   1      29.002  30.919  21.890  1.00  0.00     0.001 A 
ATOM     22  C   UNL A   1      27.722  30.740  22.416  1.00  0.00     0.000 A 
ENDBRANCH  15  17
ENDBRANCH  11  15
ENDBRANCH   6   7
ENDBRANCH   3   5
ENDBRANCH   2   3
ENDBRANCH   1   2
BRANCH   1  23
ATOM     23  C   UNL A   1      36.288  20.479  25.011  1.00  0.00     0.275 C 
BRANCH  23  24
ATOM     24  O   UNL A   1      37.100  21.587  25.442  1.00  0.00    -0.458 OA
BRANCH  24  25
ATOM     25  C   UNL A   1      38.374  21.265  25.778  1.00  0.00     0.338 C 
ATOM     26  O   UNL A   1      38.948  20.215  25.548  1.00  0.00    -0.246 OA
BRANCH  25  27
ATOM     27  C   UNL A   1      39.046  22.433  26.378  1.00  0.00     0.060 A 
ATOM     28  C   UNL A   1      38.508  23.698  26.125  1.00  0.00     0.016 A 
ATOM     29  C   UNL A   1      40.225  22.302  27.118  1.00  0.00     0.016 A 
ATOM     30  C   UNL A   1      39.146  24.839  26.605  1.00  0.00     0.010 A 
ATOM     31  C   UNL A   1      40.866  23.450  27.599  1.00  0.00     0.010 A 
ATOM     32  C   UNL A   1      40.338  24.726  27.336  1.00  0.00    -0.014 A 
BRANCH  32  33
ATOM     33  C   UNL A   1      41.048  25.953  27.777  1.00  0.00     0.031 A 
ATOM     34  C   UNL A   1      42.479  26.177  27.377  1.00  0.00     0.074 A 
ATOM     35  C   UNL A   1      40.399  26.876  28.512  1.00  0.00     0.049 A 
ATOM     36  N   UNL A   1      43.281  27.164  27.681  1.00  0.00    -0.248 NA
ATOM     37  C   UNL A   1      43.086  25.147  26.520  1.00  0.00     0.031 C 
ATOM     38  C   UNL A   1      39.000  26.786  28.931  1.00  0.00     0.029 A 
ATOM     39  N   UNL A   1      40.829  28.069  29.034  1.00  0.00    -0.354 N 
ATOM     40  C   UNL A   1      44.491  26.878  27.058  1.00  0.00     0.074 A 
ATOM     41  C   UNL A   1      44.323  25.605  26.387  1.00  0.00     0.031 C 
ATOM     42  C   UNL A   1      38.687  27.879  29.646  1.00  0.00     0.029 A 
ATOM     43  C   UNL A   1      39.871  28.725  29.773  1.00  0.00     0.049 A 
ATOM     44  H   UNL A   1      41.737  28.423  28.895  1.00  0.00     0.167 HD
ATOM     45  C   UNL A   1      45.631  27.613  27.041  1.00  0.00     0.034 A 
ATOM     46  C   UNL A   1      39.947  29.863  30.490  1.00  0.00     0.034 A 
ATOM     47  C   UNL A   1      45.788  28.875  27.725  1.00  0.00     0.049 A 
ATOM     48  C   UNL A   1      41.251  30.621  30.525  1.00  0.00     0.074 A 
ATOM     49  C   UNL A   1      46.893  29.707  27.760  1.00  0.00     0.029 A 
ATOM     50  N   UNL A   1      44.813  29.482  28.508  1.00  0.00    -0.354 N 
ATOM     51  N   UNL A   1      42.385  30.342  29.925  1.00  0.00    -0.248 NA
ATOM     52  C   UNL A   1      41.281  31.849  31.330  1.00  0.00     0.031 C 
ATOM     53  C   UNL A   1      46.612  30.780  28.614  1.00  0.00     0.029 A 
ATOM     54  C   UNL A   1      45.304  30.658  29.057  1.00  0.00     0.049 A 
ATOM     55  H   UNL A   1      43.905  29.129  28.653  1.00  0.00     0.167 HD
ATOM     56  C   UNL A   1      43.258  31.372  30.266  1.00  0.00     0.074 A 
ATOM     57  C   UNL A   1      42.513  32.286  31.107  1.00  0.00     0.031 C 
ATOM     58  C   UNL A   1      44.557  31.550  29.913  1.00  0.00     0.034 A 
BRANCH  45  59
ATOM     59  C   UNL A   1      46.812  27.036  26.299  1.00  0.00     0.023 A 
ATOM     60  C   UNL A   1      47.841  26.346  26.966  1.00  0.00     0.031 A 
ATOM     61  C   UNL A   1      46.928  27.205  24.908  1.00  0.00     0.131 A 
ATOM     62  C   UNL A   1      48.971  25.915  26.254  1.00  0.00     0.055 A 
ATOM     63  C   UNL A   1      48.019  26.706  24.194  1.00  0.00     0.041 A 
ATOM     64  F   UNL A   1      45.987  27.871  24.220  1.00  0.00    -0.206 F 
ATOM     65  C   UNL A   1      49.057  26.070  24.868  1.00  0.00     0.022 A 
BRANCH  62  66
ATOM     66  S   UNL A   1      50.389  25.270  27.184  1.00  0.00     0.124 S 
ATOM     67  O   UNL A   1      50.748  26.421  28.010  1.00  0.00    -0.237 OA
ATOM     68  O   UNL A   1      49.813  24.132  27.890  1.00  0.00    -0.237 OA
ATOM     69  O   UNL A   1      51.359  24.935  26.142  1.00  0.00    -0.744 OA
ENDBRANCH  62  66
ENDBRANCH  45  59
BRANCH  46  70
ATOM     70  C   UNL A   1      38.773  30.337  31.278  1.00  0.00     0.023 A 
ATOM     71  C   UNL A   1      37.736  31.063  30.673  1.00  0.00     0.031 A 
ATOM     72  C   UNL A   1      38.700  30.109  32.663  1.00  0.00     0.131 A 
ATOM     73  C   UNL A   1      36.688  31.570  31.459  1.00  0.00     0.055 A 
ATOM     74  C   UNL A   1      37.631  30.573  33.432  1.00  0.00     0.041 A 
ATOM     75  F   UNL A   1      39.668  29.422  33.291  1.00  0.00    -0.206 F 
ATOM     76  C   UNL A   1      36.622  31.318  32.830  1.00  0.00     0.022 A 
BRANCH  73  77
ATOM     77  S   UNL A   1      35.448  32.634  30.672  1.00  0.00     0.124 S 
ATOM     78  O   UNL A   1      35.305  32.007  29.362  1.00  0.00    -0.237 OA
ATOM     79  O   UNL A   1      34.312  32.497  31.576  1.00  0.00    -0.237 OA
ATOM     80  O   UNL A   1      36.083  33.950  30.667  1.00  0.00    -0.744 OA
ENDBRANCH  73  77
ENDBRANCH  46  70
BRANCH  58  81
ATOM     81  C   UNL A   1      45.236  32.801  30.414  1.00  0.00     0.023 A 
ATOM     82  C   UNL A   1      45.170  34.013  29.703  1.00  0.00     0.031 A 
ATOM     83  C   UNL A   1      45.976  32.775  31.610  1.00  0.00     0.131 A 
ATOM     84  C   UNL A   1      45.875  35.134  30.165  1.00  0.00     0.055 A 
ATOM     85  C   UNL A   1      46.630  33.909  32.094  1.00  0.00     0.041 A 
ATOM     86  F   UNL A   1      46.075  31.645  32.327  1.00  0.00    -0.206 F 
ATOM     87  C   UNL A   1      46.592  35.094  31.363  1.00  0.00     0.022 A 
BRANCH  84  88
ATOM     88  S   UNL A   1      45.914  36.627  29.134  1.00  0.00     0.124 S 
ATOM     89  O   UNL A   1      47.069  36.375  28.279  1.00  0.00    -0.237 OA
ATOM     90  O   UNL A   1      44.612  36.587  28.477  1.00  0.00    -0.237 OA
ATOM     91  O   UNL A   1      46.085  37.708  30.103  1.00  0.00    -0.744 OA
ENDBRANCH  84  88
ENDBRANCH  58  81
ENDBRANCH  32  33
ENDBRANCH  25  27
ENDBRANCH  24  25
ENDBRANCH  23  24
ENDBRANCH   1  23
TORSDOF 18
ENDMDL
