MODEL 1
REMARK VINA RESULT:     -11.3      0.000      0.000
REMARK SMILES COc1cc(OC(F)(F)F)cc2c1O[C@@H](C(F)(F)F)C(C(=O)OCCOCCOC(=O)c1ccc(-c3c4nc(c(-c5cc(S(=O)(=O)[O-])ccc5F)c5ccc([nH]5)c(-c5cc(S(=O)(=O)[O-])ccc5F)c5nc(c(-c6cc(S(=O)(=O)[O-])ccc6F)c6ccc3[nH]6)C=C5)C=C4)cc1)=C2
REMARK SMILES IDX 27 1 26 2 25 3 24 4 23 5 21 6 22 7 20 8 3 9 4 10 13 11 5 12
REMARK SMILES IDX 12 13 14 14 11 15 95 16 15 17 2 18 1 19 6 20 7 21 8 22 9 23
REMARK SMILES IDX 10 24 16 25 17 26 18 27 19 28 28 29 29 30 30 31 31 32 32 33
REMARK SMILES IDX 33 34 94 35 34 36 93 37 35 38 36 39 37 40 87 41 38 42 92 43
REMARK SMILES IDX 86 44 88 45 39 46 91 47 85 48 84 49 40 51 72 52 52 53 71 54
REMARK SMILES IDX 53 55 56 56 70 57 89 58 54 59 55 60 69 62 90 63 57 64 41 65
REMARK SMILES IDX 42 66 50 67 43 68 49 69 51 70 48 71 44 72 45 73 46 74 47 75
REMARK SMILES IDX 73 76 74 77 82 78 75 79 81 80 83 81 80 82 76 83 77 84 78 85
REMARK SMILES IDX 79 86 58 87 59 88 67 89 60 90 66 91 68 92 65 93 61 94 62 95
REMARK SMILES IDX 63 96 64 97
REMARK H PARENT 88 50 56 61
REMARK Flexibility Score: inf
ROOT
ATOM      1  C   UNL A   1      36.233  19.978  25.000  1.00  0.00     0.202 C 
ENDROOT
BRANCH   1   2
ATOM      2  O   UNL A   1      35.153  20.867  24.721  1.00  0.00    -0.374 OA
BRANCH   2   3
ATOM      3  C   UNL A   1      33.825  20.429  24.992  1.00  0.00     0.202 C 
BRANCH   3   4
ATOM      4  C   UNL A   1      32.713  20.891  24.045  1.00  0.00     0.261 C 
BRANCH   4   5
ATOM      5  O   UNL A   1      32.464  22.302  24.149  1.00  0.00    -0.460 OA
BRANCH   5   6
ATOM      6  C   UNL A   1      32.896  23.030  23.095  1.00  0.00     0.338 C 
ATOM      7  O   UNL A   1      33.327  22.598  22.036  1.00  0.00    -0.246 OA
BRANCH   6   8
ATOM      8  C   UNL A   1      32.663  24.466  23.314  1.00  0.00     0.087 C 
ATOM      9  C   UNL A   1      31.682  28.167  24.977  1.00  0.00     0.165 A 
ATOM     10  C   UNL A   1      30.616  28.899  24.444  1.00  0.00     0.097 A 
ATOM     11  C   UNL A   1      32.029  26.941  24.403  1.00  0.00     0.170 A 
ATOM     12  C   UNL A   1      29.918  28.436  23.327  1.00  0.00     0.134 A 
ATOM     13  C   UNL A   1      31.315  26.447  23.295  1.00  0.00     0.025 A 
ATOM     14  O   UNL A   1      32.997  26.179  25.007  1.00  0.00    -0.471 OA
ATOM     15  C   UNL A   1      30.282  27.214  22.747  1.00  0.00     0.059 A 
ATOM     16  C   UNL A   1      31.563  25.073  22.839  1.00  0.00     0.027 C 
ATOM     17  C   UNL A   1      33.669  25.257  24.114  1.00  0.00     0.316 C 
BRANCH   9  18
ATOM     18  O   UNL A   1      32.236  28.711  26.107  1.00  0.00    -0.493 OA
ATOM     19  C   UNL A   1      33.493  29.355  25.926  1.00  0.00     0.278 C 
ENDBRANCH   9  18
BRANCH  12  20
ATOM     20  O   UNL A   1      28.861  29.061  22.727  1.00  0.00    -0.406 OA
BRANCH  20  21
ATOM     21  C   UNL A   1      29.139  30.202  21.932  1.00  0.00     0.573 C 
ATOM     22  F   UNL A   1      28.242  30.333  20.929  1.00  0.00    -0.132 F 
ATOM     23  F   UNL A   1      29.141  31.326  22.681  1.00  0.00    -0.132 F 
ATOM     24  F   UNL A   1      30.364  30.065  21.381  1.00  0.00    -0.132 F 
ENDBRANCH  20  21
ENDBRANCH  12  20
BRANCH  17  25
ATOM     25  C   UNL A   1      34.761  24.520  24.906  1.00  0.00     0.430 C 
ATOM     26  F   UNL A   1      35.511  25.378  25.635  1.00  0.00    -0.167 F 
ATOM     27  F   UNL A   1      34.176  23.683  25.810  1.00  0.00    -0.167 F 
ATOM     28  F   UNL A   1      35.568  23.761  24.141  1.00  0.00    -0.167 F 
ENDBRANCH  17  25
ENDBRANCH   6   8
ENDBRANCH   5   6
ENDBRANCH   4   5
ENDBRANCH   3   4
ENDBRANCH   2   3
ENDBRANCH   1   2
BRANCH   1  29
ATOM     29  C   UNL A   1      37.670  20.460  24.764  1.00  0.00     0.261 C 
BRANCH  29  30
ATOM     30  O   UNL A   1      38.042  21.562  25.605  1.00  0.00    -0.460 OA
BRANCH  30  31
ATOM     31  C   UNL A   1      39.279  21.454  26.150  1.00  0.00     0.338 C 
ATOM     32  O   UNL A   1      40.076  20.541  25.982  1.00  0.00    -0.246 OA
BRANCH  31  33
ATOM     33  C   UNL A   1      39.644  22.704  26.838  1.00  0.00     0.060 A 
ATOM     34  C   UNL A   1      38.928  23.861  26.505  1.00  0.00     0.016 A 
ATOM     35  C   UNL A   1      40.721  22.763  27.724  1.00  0.00     0.016 A 
ATOM     36  C   UNL A   1      39.320  25.094  27.016  1.00  0.00     0.010 A 
ATOM     37  C   UNL A   1      41.119  24.005  28.229  1.00  0.00     0.010 A 
ATOM     38  C   UNL A   1      40.445  25.180  27.846  1.00  0.00    -0.014 A 
BRANCH  38  39
ATOM     39  C   UNL A   1      41.015  26.513  28.162  1.00  0.00     0.031 A 
ATOM     40  C   UNL A   1      42.439  26.802  27.768  1.00  0.00     0.074 A 
ATOM     41  C   UNL A   1      40.264  27.461  28.751  1.00  0.00     0.049 A 
ATOM     42  N   UNL A   1      43.157  27.874  27.976  1.00  0.00    -0.248 NA
ATOM     43  C   UNL A   1      43.144  25.732  27.047  1.00  0.00     0.031 C 
ATOM     44  C   UNL A   1      38.860  27.311  29.128  1.00  0.00     0.029 A 
ATOM     45  N   UNL A   1      40.582  28.739  29.137  1.00  0.00    -0.354 N 
ATOM     46  C   UNL A   1      44.405  27.606  27.420  1.00  0.00     0.074 A 
ATOM     47  C   UNL A   1      44.353  26.255  26.904  1.00  0.00     0.031 C 
ATOM     48  C   UNL A   1      38.438  28.453  29.698  1.00  0.00     0.029 A 
ATOM     49  C   UNL A   1      39.552  29.398  29.765  1.00  0.00     0.049 A 
ATOM     50  H   UNL A   1      41.465  29.145  28.980  1.00  0.00     0.167 HD
ATOM     51  C   UNL A   1      45.489  28.418  27.340  1.00  0.00     0.034 A 
ATOM     52  C   UNL A   1      39.521  30.612  30.350  1.00  0.00     0.034 A 
ATOM     53  C   UNL A   1      45.523  29.760  27.868  1.00  0.00     0.049 A 
ATOM     54  C   UNL A   1      40.767  31.467  30.322  1.00  0.00     0.074 A 
ATOM     55  C   UNL A   1      46.562  30.674  27.835  1.00  0.00     0.029 A 
ATOM     56  N   UNL A   1      44.474  30.380  28.537  1.00  0.00    -0.354 N 
ATOM     57  N   UNL A   1      41.940  31.205  29.792  1.00  0.00    -0.248 NA
ATOM     58  C   UNL A   1      40.678  32.786  30.963  1.00  0.00     0.031 C 
ATOM     59  C   UNL A   1      46.170  31.812  28.548  1.00  0.00     0.029 A 
ATOM     60  C   UNL A   1      44.854  31.648  28.949  1.00  0.00     0.049 A 
ATOM     61  H   UNL A   1      43.589  29.976  28.695  1.00  0.00     0.167 HD
ATOM     62  C   UNL A   1      42.715  32.344  30.003  1.00  0.00     0.074 A 
ATOM     63  C   UNL A   1      41.872  33.295  30.697  1.00  0.00     0.031 C 
ATOM     64  C   UNL A   1      44.004  32.585  29.648  1.00  0.00     0.034 A 
BRANCH  51  65
ATOM     65  C   UNL A   1      46.737  27.848  26.709  1.00  0.00     0.023 A 
ATOM     66  C   UNL A   1      47.041  28.046  25.349  1.00  0.00     0.031 A 
ATOM     67  C   UNL A   1      47.621  27.065  27.472  1.00  0.00     0.131 A 
ATOM     68  C   UNL A   1      48.154  27.408  24.780  1.00  0.00     0.055 A 
ATOM     69  C   UNL A   1      48.774  26.503  26.919  1.00  0.00     0.041 A 
ATOM     70  F   UNL A   1      47.372  26.818  28.767  1.00  0.00    -0.206 F 
ATOM     71  C   UNL A   1      49.039  26.660  25.562  1.00  0.00     0.022 A 
BRANCH  68  72
ATOM     72  S   UNL A   1      48.347  27.443  22.977  1.00  0.00     0.124 S 
ATOM     73  O   UNL A   1      49.637  28.115  22.832  1.00  0.00    -0.237 OA
ATOM     74  O   UNL A   1      48.319  26.028  22.630  1.00  0.00    -0.237 OA
ATOM     75  O   UNL A   1      47.194  28.221  22.525  1.00  0.00    -0.744 OA
ENDBRANCH  68  72
ENDBRANCH  51  65
BRANCH  52  76
ATOM     76  C   UNL A   1      38.289  31.087  31.043  1.00  0.00     0.023 A 
ATOM     77  C   UNL A   1      37.249  31.711  30.336  1.00  0.00     0.031 A 
ATOM     78  C   UNL A   1      38.160  30.975  32.439  1.00  0.00     0.131 A 
ATOM     79  C   UNL A   1      36.152  32.244  31.030  1.00  0.00     0.055 A 
ATOM     80  C   UNL A   1      37.039  31.455  33.119  1.00  0.00     0.041 A 
ATOM     81  F   UNL A   1      39.125  30.388  33.166  1.00  0.00    -0.206 F 
ATOM     82  C   UNL A   1      36.032  32.107  32.415  1.00  0.00     0.022 A 
BRANCH  79  83
ATOM     83  S   UNL A   1      34.923  33.205  30.106  1.00  0.00     0.124 S 
ATOM     84  O   UNL A   1      35.757  34.217  29.468  1.00  0.00    -0.237 OA
ATOM     85  O   UNL A   1      34.351  32.195  29.222  1.00  0.00    -0.237 OA
ATOM     86  O   UNL A   1      34.025  33.700  31.147  1.00  0.00    -0.744 OA
ENDBRANCH  79  83
ENDBRANCH  52  76
BRANCH  64  87
ATOM     87  C   UNL A   1      44.559  33.957  29.954  1.00  0.00     0.023 A 
ATOM     88  C   UNL A   1      44.416  35.036  29.063  1.00  0.00     0.031 A 
ATOM     89  C   UNL A   1      45.256  34.183  31.155  1.00  0.00     0.131 A 
ATOM     90  C   UNL A   1      45.014  36.271  29.359  1.00  0.00     0.055 A 
ATOM     91  C   UNL A   1      45.789  35.433  31.475  1.00  0.00     0.041 A 
ATOM     92  F   UNL A   1      45.427  33.190  32.044  1.00  0.00    -0.206 F 
ATOM     93  C   UNL A   1      45.683  36.481  30.567  1.00  0.00     0.022 A 
BRANCH  90  94
ATOM     94  S   UNL A   1      44.998  37.571  28.093  1.00  0.00     0.124 S 
ATOM     95  O   UNL A   1      44.907  36.795  26.861  1.00  0.00    -0.237 OA
ATOM     96  O   UNL A   1      43.810  38.340  28.451  1.00  0.00    -0.237 OA
ATOM     97  O   UNL A   1      46.268  38.265  28.298  1.00  0.00    -0.744 OA
ENDBRANCH  90  94
ENDBRANCH  64  87
ENDBRANCH  38  39
ENDBRANCH  31  33
ENDBRANCH  30  31
ENDBRANCH  29  30
ENDBRANCH   1  29
TORSDOF 21
ENDMDL
MODEL 2
REMARK VINA RESULT:     -11.3      1.675      7.482
REMARK SMILES COc1cc(OC(F)(F)F)cc2c1O[C@@H](C(F)(F)F)C(C(=O)OCCOCCOC(=O)c1ccc(-c3c4nc(c(-c5cc(S(=O)(=O)[O-])ccc5F)c5ccc([nH]5)c(-c5cc(S(=O)(=O)[O-])ccc5F)c5nc(c(-c6cc(S(=O)(=O)[O-])ccc6F)c6ccc3[nH]6)C=C5)C=C4)cc1)=C2
REMARK SMILES IDX 27 1 26 2 25 3 24 4 23 5 21 6 22 7 20 8 3 9 4 10 13 11 5 12
REMARK SMILES IDX 12 13 14 14 11 15 95 16 15 17 2 18 1 19 6 20 7 21 8 22 9 23
REMARK SMILES IDX 10 24 16 25 17 26 18 27 19 28 28 29 29 30 30 31 31 32 32 33
REMARK SMILES IDX 33 34 94 35 34 36 93 37 35 38 36 39 37 40 87 41 38 42 92 43
REMARK SMILES IDX 86 44 88 45 39 46 91 47 85 48 84 49 40 51 72 52 52 53 71 54
REMARK SMILES IDX 53 55 56 56 70 57 89 58 54 59 55 60 69 62 90 63 57 64 41 65
REMARK SMILES IDX 42 66 50 67 43 68 49 69 51 70 48 71 44 72 45 73 46 74 47 75
REMARK SMILES IDX 73 76 74 77 82 78 75 79 81 80 83 81 80 82 76 83 77 84 78 85
REMARK SMILES IDX 79 86 58 87 59 88 67 89 60 90 66 91 68 92 65 93 61 94 62 95
REMARK SMILES IDX 63 96 64 97
REMARK H PARENT 88 50 56 61
REMARK Flexibility Score: inf
ROOT
ATOM      1  C   UNL A   1      35.429  20.191  25.111  1.00  0.00     0.202 C 
ENDROOT
BRANCH   1   2
ATOM      2  O   UNL A   1      34.664  21.368  24.864  1.00  0.00    -0.374 OA
BRANCH   2   3
ATOM      3  C   UNL A   1      33.573  21.291  23.950  1.00  0.00     0.202 C 
BRANCH   3   4
ATOM      4  C   UNL A   1      32.171  21.595  24.485  1.00  0.00     0.261 C 
BRANCH   4   5
ATOM      5  O   UNL A   1      31.656  22.839  23.981  1.00  0.00    -0.460 OA
BRANCH   5   6
ATOM      6  C   UNL A   1      31.090  23.634  24.916  1.00  0.00     0.338 C 
ATOM      7  O   UNL A   1      30.690  23.294  26.020  1.00  0.00    -0.246 OA
BRANCH   6   8
ATOM      8  C   UNL A   1      31.122  25.044  24.499  1.00  0.00     0.087 C 
ATOM      9  C   UNL A   1      31.148  29.219  24.451  1.00  0.00     0.165 A 
ATOM     10  C   UNL A   1      30.083  29.906  23.861  1.00  0.00     0.097 A 
ATOM     11  C   UNL A   1      31.154  27.821  24.443  1.00  0.00     0.170 A 
ATOM     12  C   UNL A   1      29.044  29.213  23.235  1.00  0.00     0.134 A 
ATOM     13  C   UNL A   1      30.098  27.109  23.841  1.00  0.00     0.025 A 
ATOM     14  O   UNL A   1      32.142  27.160  25.128  1.00  0.00    -0.471 OA
ATOM     15  C   UNL A   1      29.064  27.813  23.216  1.00  0.00     0.059 A 
ATOM     16  C   UNL A   1      30.023  25.653  24.022  1.00  0.00     0.027 C 
ATOM     17  C   UNL A   1      32.407  25.821  24.641  1.00  0.00     0.316 C 
BRANCH   9  18
ATOM     18  O   UNL A   1      32.064  30.022  25.079  1.00  0.00    -0.493 OA
ATOM     19  C   UNL A   1      31.573  30.762  26.192  1.00  0.00     0.278 C 
ENDBRANCH   9  18
BRANCH  12  20
ATOM     20  O   UNL A   1      27.954  29.777  22.633  1.00  0.00    -0.406 OA
BRANCH  20  21
ATOM     21  C   UNL A   1      28.185  30.826  21.706  1.00  0.00     0.573 C 
ATOM     22  F   UNL A   1      27.537  31.955  22.068  1.00  0.00    -0.132 F 
ATOM     23  F   UNL A   1      29.506  31.085  21.587  1.00  0.00    -0.132 F 
ATOM     24  F   UNL A   1      27.724  30.449  20.494  1.00  0.00    -0.132 F 
ENDBRANCH  20  21
ENDBRANCH  12  20
BRANCH  17  25
ATOM     25  C   UNL A   1      33.569  25.229  25.454  1.00  0.00     0.430 C 
ATOM     26  F   UNL A   1      33.123  24.524  26.518  1.00  0.00    -0.167 F 
ATOM     27  F   UNL A   1      34.252  24.337  24.680  1.00  0.00    -0.167 F 
ATOM     28  F   UNL A   1      34.465  26.145  25.869  1.00  0.00    -0.167 F 
ENDBRANCH  17  25
ENDBRANCH   6   8
ENDBRANCH   5   6
ENDBRANCH   4   5
ENDBRANCH   3   4
ENDBRANCH   2   3
ENDBRANCH   1   2
BRANCH   1  29
ATOM     29  C   UNL A   1      36.926  20.195  24.774  1.00  0.00     0.261 C 
BRANCH  29  30
ATOM     30  O   UNL A   1      37.616  21.349  25.277  1.00  0.00    -0.460 OA
BRANCH  30  31
ATOM     31  C   UNL A   1      38.807  21.074  25.865  1.00  0.00     0.338 C 
ATOM     32  O   UNL A   1      39.451  20.038  25.765  1.00  0.00    -0.246 OA
BRANCH  31  33
ATOM     33  C   UNL A   1      39.351  22.284  26.503  1.00  0.00     0.060 A 
ATOM     34  C   UNL A   1      38.782  23.515  26.153  1.00  0.00     0.016 A 
ATOM     35  C   UNL A   1      40.454  22.226  27.358  1.00  0.00     0.016 A 
ATOM     36  C   UNL A   1      39.347  24.700  26.615  1.00  0.00     0.010 A 
ATOM     37  C   UNL A   1      41.026  23.419  27.812  1.00  0.00     0.010 A 
ATOM     38  C   UNL A   1      40.499  24.661  27.411  1.00  0.00    -0.014 A 
BRANCH  38  39
ATOM     39  C   UNL A   1      41.246  25.916  27.670  1.00  0.00     0.031 A 
ATOM     40  C   UNL A   1      40.582  27.000  28.475  1.00  0.00     0.074 A 
ATOM     41  C   UNL A   1      42.509  26.069  27.231  1.00  0.00     0.049 A 
ATOM     42  N   UNL A   1      41.022  28.189  28.791  1.00  0.00    -0.248 NA
ATOM     43  C   UNL A   1      39.237  26.698  28.988  1.00  0.00     0.031 C 
ATOM     44  C   UNL A   1      43.270  25.067  26.488  1.00  0.00     0.029 A 
ATOM     45  N   UNL A   1      43.370  27.130  27.345  1.00  0.00    -0.354 N 
ATOM     46  C   UNL A   1      40.005  28.784  29.532  1.00  0.00     0.074 A 
ATOM     47  C   UNL A   1      38.912  27.837  29.581  1.00  0.00     0.031 C 
ATOM     48  C   UNL A   1      44.486  25.565  26.206  1.00  0.00     0.029 A 
ATOM     49  C   UNL A   1      44.574  26.934  26.711  1.00  0.00     0.049 A 
ATOM     50  H   UNL A   1      43.147  27.955  27.834  1.00  0.00     0.167 HD
ATOM     51  C   UNL A   1      39.991  30.005  30.124  1.00  0.00     0.034 A 
ATOM     52  C   UNL A   1      45.616  27.773  26.538  1.00  0.00     0.034 A 
ATOM     53  C   UNL A   1      41.088  30.938  30.057  1.00  0.00     0.049 A 
ATOM     54  C   UNL A   1      45.544  29.159  27.135  1.00  0.00     0.074 A 
ATOM     55  C   UNL A   1      41.187  32.197  30.626  1.00  0.00     0.029 A 
ATOM     56  N   UNL A   1      42.277  30.723  29.369  1.00  0.00    -0.354 N 
ATOM     57  N   UNL A   1      44.578  29.710  27.834  1.00  0.00    -0.248 NA
ATOM     58  C   UNL A   1      46.708  30.030  26.927  1.00  0.00     0.031 C 
ATOM     59  C   UNL A   1      42.396  32.770  30.220  1.00  0.00     0.029 A 
ATOM     60  C   UNL A   1      43.096  31.836  29.472  1.00  0.00     0.049 A 
ATOM     61  H   UNL A   1      42.503  29.898  28.880  1.00  0.00     0.167 HD
ATOM     62  C   UNL A   1      45.038  30.979  28.183  1.00  0.00     0.074 A 
ATOM     63  C   UNL A   1      46.369  31.103  27.624  1.00  0.00     0.031 C 
ATOM     64  C   UNL A   1      44.421  31.951  28.904  1.00  0.00     0.034 A 
BRANCH  51  65
ATOM     65  C   UNL A   1      38.726  30.413  30.842  1.00  0.00     0.023 A 
ATOM     66  C   UNL A   1      37.664  31.052  30.176  1.00  0.00     0.031 A 
ATOM     67  C   UNL A   1      38.593  30.189  32.224  1.00  0.00     0.131 A 
ATOM     68  C   UNL A   1      36.555  31.510  30.903  1.00  0.00     0.055 A 
ATOM     69  C   UNL A   1      37.449  30.570  32.927  1.00  0.00     0.041 A 
ATOM     70  F   UNL A   1      39.583  29.607  32.920  1.00  0.00    -0.206 F 
ATOM     71  C   UNL A   1      36.427  31.249  32.270  1.00  0.00     0.022 A 
BRANCH  68  72
ATOM     72  S   UNL A   1      35.353  32.583  30.070  1.00  0.00     0.124 S 
ATOM     73  O   UNL A   1      34.943  31.746  28.943  1.00  0.00    -0.237 OA
ATOM     74  O   UNL A   1      34.350  32.797  31.106  1.00  0.00    -0.237 OA
ATOM     75  O   UNL A   1      36.139  33.760  29.707  1.00  0.00    -0.744 OA
ENDBRANCH  68  72
ENDBRANCH  51  65
BRANCH  52  76
ATOM     76  C   UNL A   1      46.802  27.351  25.737  1.00  0.00     0.023 A 
ATOM     77  C   UNL A   1      47.001  27.816  24.428  1.00  0.00     0.031 A 
ATOM     78  C   UNL A   1      47.725  26.424  26.254  1.00  0.00     0.131 A 
ATOM     79  C   UNL A   1      48.066  27.317  23.662  1.00  0.00     0.055 A 
ATOM     80  C   UNL A   1      48.817  25.974  25.508  1.00  0.00     0.041 A 
ATOM     81  F   UNL A   1      47.582  25.943  27.500  1.00  0.00    -0.206 F 
ATOM     82  C   UNL A   1      48.984  26.411  24.198  1.00  0.00     0.022 A 
BRANCH  79  83
ATOM     83  S   UNL A   1      48.182  27.799  21.918  1.00  0.00     0.124 S 
ATOM     84  O   UNL A   1      49.323  28.708  21.938  1.00  0.00    -0.237 OA
ATOM     85  O   UNL A   1      48.397  26.514  21.262  1.00  0.00    -0.237 OA
ATOM     86  O   UNL A   1      46.889  28.425  21.651  1.00  0.00    -0.744 OA
ENDBRANCH  79  83
ENDBRANCH  52  76
BRANCH  64  87
ATOM     87  C   UNL A   1      45.207  33.211  29.180  1.00  0.00     0.023 A 
ATOM     88  C   UNL A   1      45.956  33.380  30.358  1.00  0.00     0.031 A 
ATOM     89  C   UNL A   1      45.195  34.267  28.250  1.00  0.00     0.131 A 
ATOM     90  C   UNL A   1      46.608  34.599  30.602  1.00  0.00     0.055 A 
ATOM     91  C   UNL A   1      45.902  35.450  28.468  1.00  0.00     0.041 A 
ATOM     92  F   UNL A   1      44.494  34.164  27.108  1.00  0.00    -0.206 F 
ATOM     93  C   UNL A   1      46.601  35.627  29.657  1.00  0.00     0.022 A 
BRANCH  90  94
ATOM     94  S   UNL A   1      47.380  34.864  32.224  1.00  0.00     0.124 S 
ATOM     95  O   UNL A   1      47.910  33.539  32.528  1.00  0.00    -0.237 OA
ATOM     96  O   UNL A   1      48.370  35.896  31.933  1.00  0.00    -0.237 OA
ATOM     97  O   UNL A   1      46.266  35.295  33.067  1.00  0.00    -0.744 OA
ENDBRANCH  90  94
ENDBRANCH  64  87
ENDBRANCH  38  39
ENDBRANCH  31  33
ENDBRANCH  30  31
ENDBRANCH  29  30
ENDBRANCH   1  29
TORSDOF 21
ENDMDL
MODEL 3
REMARK VINA RESULT:     -11.2      1.519      7.493
REMARK SMILES COc1cc(OC(F)(F)F)cc2c1O[C@@H](C(F)(F)F)C(C(=O)OCCOCCOC(=O)c1ccc(-c3c4nc(c(-c5cc(S(=O)(=O)[O-])ccc5F)c5ccc([nH]5)c(-c5cc(S(=O)(=O)[O-])ccc5F)c5nc(c(-c6cc(S(=O)(=O)[O-])ccc6F)c6ccc3[nH]6)C=C5)C=C4)cc1)=C2
REMARK SMILES IDX 27 1 26 2 25 3 24 4 23 5 21 6 22 7 20 8 3 9 4 10 13 11 5 12
REMARK SMILES IDX 12 13 14 14 11 15 95 16 15 17 2 18 1 19 6 20 7 21 8 22 9 23
REMARK SMILES IDX 10 24 16 25 17 26 18 27 19 28 28 29 29 30 30 31 31 32 32 33
REMARK SMILES IDX 33 34 94 35 34 36 93 37 35 38 36 39 37 40 87 41 38 42 92 43
REMARK SMILES IDX 86 44 88 45 39 46 91 47 85 48 84 49 40 51 72 52 52 53 71 54
REMARK SMILES IDX 53 55 56 56 70 57 89 58 54 59 55 60 69 62 90 63 57 64 41 65
REMARK SMILES IDX 42 66 50 67 43 68 49 69 51 70 48 71 44 72 45 73 46 74 47 75
REMARK SMILES IDX 73 76 74 77 82 78 75 79 81 80 83 81 80 82 76 83 77 84 78 85
REMARK SMILES IDX 79 86 58 87 59 88 67 89 60 90 66 91 68 92 65 93 61 94 62 95
REMARK SMILES IDX 63 96 64 97
REMARK H PARENT 88 50 56 61
REMARK Flexibility Score: inf
ROOT
ATOM      1  C   UNL A   1      35.669  19.784  24.998  1.00  0.00     0.202 C 
ENDROOT
BRANCH   1   2
ATOM      2  O   UNL A   1      34.503  20.576  25.209  1.00  0.00    -0.374 OA
BRANCH   2   3
ATOM      3  C   UNL A   1      33.520  20.627  24.179  1.00  0.00     0.202 C 
BRANCH   3   4
ATOM      4  C   UNL A   1      32.109  21.086  24.559  1.00  0.00     0.261 C 
BRANCH   4   5
ATOM      5  O   UNL A   1      31.823  22.411  24.084  1.00  0.00    -0.460 OA
BRANCH   5   6
ATOM      6  C   UNL A   1      31.259  23.229  25.001  1.00  0.00     0.338 C 
ATOM      7  O   UNL A   1      30.802  22.905  26.087  1.00  0.00    -0.246 OA
BRANCH   6   8
ATOM      8  C   UNL A   1      31.374  24.638  24.593  1.00  0.00     0.087 C 
ATOM      9  C   UNL A   1      31.691  28.801  24.573  1.00  0.00     0.165 A 
ATOM     10  C   UNL A   1      30.655  29.566  24.028  1.00  0.00     0.097 A 
ATOM     11  C   UNL A   1      31.599  27.406  24.555  1.00  0.00     0.170 A 
ATOM     12  C   UNL A   1      29.547  28.954  23.437  1.00  0.00     0.134 A 
ATOM     13  C   UNL A   1      30.474  26.775  23.989  1.00  0.00     0.025 A 
ATOM     14  O   UNL A   1      32.563  26.671  25.198  1.00  0.00    -0.471 OA
ATOM     15  C   UNL A   1      29.469  27.556  23.408  1.00  0.00     0.059 A 
ATOM     16  C   UNL A   1      30.304  25.327  24.162  1.00  0.00     0.027 C 
ATOM     17  C   UNL A   1      32.716  25.322  24.692  1.00  0.00     0.316 C 
BRANCH   9  18
ATOM     18  O   UNL A   1      32.684  29.532  25.172  1.00  0.00    -0.493 OA
ATOM     19  C   UNL A   1      32.249  30.489  26.132  1.00  0.00     0.278 C 
ENDBRANCH   9  18
BRANCH  12  20
ATOM     20  O   UNL A   1      28.478  29.597  22.881  1.00  0.00    -0.406 OA
BRANCH  20  21
ATOM     21  C   UNL A   1      28.704  30.341  21.694  1.00  0.00     0.573 C 
ATOM     22  F   UNL A   1      27.806  30.023  20.736  1.00  0.00    -0.132 F 
ATOM     23  F   UNL A   1      28.652  31.668  21.937  1.00  0.00    -0.132 F 
ATOM     24  F   UNL A   1      29.936  30.051  21.224  1.00  0.00    -0.132 F 
ENDBRANCH  20  21
ENDBRANCH  12  20
BRANCH  17  25
ATOM     25  C   UNL A   1      33.863  24.642  25.456  1.00  0.00     0.430 C 
ATOM     26  F   UNL A   1      34.443  23.669  24.718  1.00  0.00    -0.167 F 
ATOM     27  F   UNL A   1      34.846  25.556  25.700  1.00  0.00    -0.167 F 
ATOM     28  F   UNL A   1      33.497  24.139  26.650  1.00  0.00    -0.167 F 
ENDBRANCH  17  25
ENDBRANCH   6   8
ENDBRANCH   5   6
ENDBRANCH   4   5
ENDBRANCH   3   4
ENDBRANCH   2   3
ENDBRANCH   1   2
BRANCH   1  29
ATOM     29  C   UNL A   1      36.975  20.480  24.592  1.00  0.00     0.261 C 
BRANCH  29  30
ATOM     30  O   UNL A   1      37.481  21.367  25.602  1.00  0.00    -0.460 OA
BRANCH  30  31
ATOM     31  C   UNL A   1      38.792  21.186  25.896  1.00  0.00     0.338 C 
ATOM     32  O   UNL A   1      39.505  20.262  25.527  1.00  0.00    -0.246 OA
BRANCH  31  33
ATOM     33  C   UNL A   1      39.330  22.376  26.575  1.00  0.00     0.060 A 
ATOM     34  C   UNL A   1      38.803  23.623  26.215  1.00  0.00     0.016 A 
ATOM     35  C   UNL A   1      40.391  22.285  27.479  1.00  0.00     0.016 A 
ATOM     36  C   UNL A   1      39.369  24.791  26.718  1.00  0.00     0.010 A 
ATOM     37  C   UNL A   1      40.964  23.460  27.975  1.00  0.00     0.010 A 
ATOM     38  C   UNL A   1      40.481  24.718  27.566  1.00  0.00    -0.014 A 
BRANCH  38  39
ATOM     39  C   UNL A   1      41.242  25.954  27.875  1.00  0.00     0.031 A 
ATOM     40  C   UNL A   1      40.556  27.049  28.648  1.00  0.00     0.074 A 
ATOM     41  C   UNL A   1      42.530  26.080  27.512  1.00  0.00     0.049 A 
ATOM     42  N   UNL A   1      41.004  28.227  28.995  1.00  0.00    -0.248 NA
ATOM     43  C   UNL A   1      39.177  26.777  29.079  1.00  0.00     0.031 C 
ATOM     44  C   UNL A   1      43.311  25.063  26.808  1.00  0.00     0.029 A 
ATOM     45  N   UNL A   1      43.408  27.120  27.682  1.00  0.00    -0.354 N 
ATOM     46  C   UNL A   1      39.959  28.842  29.679  1.00  0.00     0.074 A 
ATOM     47  C   UNL A   1      38.844  27.920  29.659  1.00  0.00     0.031 C 
ATOM     48  C   UNL A   1      44.552  25.534  26.602  1.00  0.00     0.029 A 
ATOM     49  C   UNL A   1      44.642  26.898  27.119  1.00  0.00     0.049 A 
ATOM     50  H   UNL A   1      43.176  27.948  28.163  1.00  0.00     0.167 HD
ATOM     51  C   UNL A   1      39.939  30.060  30.277  1.00  0.00     0.034 A 
ATOM     52  C   UNL A   1      45.711  27.714  27.012  1.00  0.00     0.034 A 
ATOM     53  C   UNL A   1      41.059  30.967  30.280  1.00  0.00     0.049 A 
ATOM     54  C   UNL A   1      45.636  29.098  27.612  1.00  0.00     0.074 A 
ATOM     55  C   UNL A   1      41.153  32.220  30.861  1.00  0.00     0.029 A 
ATOM     56  N   UNL A   1      42.281  30.727  29.661  1.00  0.00    -0.354 N 
ATOM     57  N   UNL A   1      44.645  29.668  28.257  1.00  0.00    -0.248 NA
ATOM     58  C   UNL A   1      46.831  29.943  27.477  1.00  0.00     0.031 C 
ATOM     59  C   UNL A   1      42.397  32.767  30.529  1.00  0.00     0.029 A 
ATOM     60  C   UNL A   1      43.118  31.821  29.819  1.00  0.00     0.049 A 
ATOM     61  H   UNL A   1      42.517  29.900  29.181  1.00  0.00     0.167 HD
ATOM     62  C   UNL A   1      45.112  30.925  28.639  1.00  0.00     0.074 A 
ATOM     63  C   UNL A   1      46.476  31.021  28.160  1.00  0.00     0.031 C 
ATOM     64  C   UNL A   1      44.476  31.907  29.329  1.00  0.00     0.034 A 
BRANCH  51  65
ATOM     65  C   UNL A   1      38.644  30.493  30.922  1.00  0.00     0.023 A 
ATOM     66  C   UNL A   1      37.607  31.091  30.183  1.00  0.00     0.031 A 
ATOM     67  C   UNL A   1      38.456  30.337  32.307  1.00  0.00     0.131 A 
ATOM     68  C   UNL A   1      36.467  31.577  30.842  1.00  0.00     0.055 A 
ATOM     69  C   UNL A   1      37.282  30.745  32.944  1.00  0.00     0.041 A 
ATOM     70  F   UNL A   1      39.420  29.797  33.070  1.00  0.00    -0.206 F 
ATOM     71  C   UNL A   1      36.285  31.383  32.214  1.00  0.00     0.022 A 
BRANCH  68  72
ATOM     72  S   UNL A   1      35.294  32.599  29.908  1.00  0.00     0.124 S 
ATOM     73  O   UNL A   1      34.313  32.936  30.938  1.00  0.00    -0.237 OA
ATOM     74  O   UNL A   1      36.135  33.695  29.442  1.00  0.00    -0.237 OA
ATOM     75  O   UNL A   1      34.807  31.697  28.866  1.00  0.00    -0.744 OA
ENDBRANCH  68  72
ENDBRANCH  51  65
BRANCH  52  76
ATOM     76  C   UNL A   1      46.932  27.268  26.279  1.00  0.00     0.023 A 
ATOM     77  C   UNL A   1      48.008  26.670  26.953  1.00  0.00     0.031 A 
ATOM     78  C   UNL A   1      47.063  27.489  24.896  1.00  0.00     0.131 A 
ATOM     79  C   UNL A   1      49.186  26.360  26.255  1.00  0.00     0.055 A 
ATOM     80  C   UNL A   1      48.214  27.126  24.195  1.00  0.00     0.041 A 
ATOM     81  F   UNL A   1      46.065  28.060  24.202  1.00  0.00    -0.206 F 
ATOM     82  C   UNL A   1      49.291  26.570  24.879  1.00  0.00     0.022 A 
BRANCH  79  83
ATOM     83  S   UNL A   1      50.619  25.762  27.192  1.00  0.00     0.124 S 
ATOM     84  O   UNL A   1      50.228  24.388  27.486  1.00  0.00    -0.237 OA
ATOM     85  O   UNL A   1      51.702  25.930  26.229  1.00  0.00    -0.237 OA
ATOM     86  O   UNL A   1      50.669  26.658  28.346  1.00  0.00    -0.744 OA
ENDBRANCH  79  83
ENDBRANCH  52  76
BRANCH  64  87
ATOM     87  C   UNL A   1      45.274  33.147  29.659  1.00  0.00     0.023 A 
ATOM     88  C   UNL A   1      45.253  34.289  28.838  1.00  0.00     0.031 A 
ATOM     89  C   UNL A   1      46.081  33.180  30.811  1.00  0.00     0.131 A 
ATOM     90  C   UNL A   1      46.070  35.387  29.147  1.00  0.00     0.055 A 
ATOM     91  C   UNL A   1      46.839  34.301  31.150  1.00  0.00     0.041 A 
ATOM     92  F   UNL A   1      46.144  32.118  31.631  1.00  0.00    -0.206 F 
ATOM     93  C   UNL A   1      46.848  35.408  30.307  1.00  0.00     0.022 A 
BRANCH  90  94
ATOM     94  S   UNL A   1      46.186  36.750  27.953  1.00  0.00     0.124 S 
ATOM     95  O   UNL A   1      45.883  37.909  28.787  1.00  0.00    -0.237 OA
ATOM     96  O   UNL A   1      47.565  36.641  27.489  1.00  0.00    -0.237 OA
ATOM     97  O   UNL A   1      45.169  36.420  26.957  1.00  0.00    -0.744 OA
ENDBRANCH  90  94
ENDBRANCH  64  87
ENDBRANCH  38  39
ENDBRANCH  31  33
ENDBRANCH  30  31
ENDBRANCH  29  30
ENDBRANCH   1  29
TORSDOF 21
ENDMDL
