MODEL 1
REMARK VINA RESULT:     -11.5      0.000      0.000
REMARK SMILES O=C(Cn1c(=O)n(Cc2cccnc2)c(=O)c2sccc21)OCCOCCOC(=O)c1ccc(-c2c3nc(c(-c4cc(S(=O)(=O)[O-])ccc4F)c4ccc([nH]4)c(-c4cc(S(=O)(=O)[O-])ccc4F)c4nc(c(-c5cc(S(=O)(=O)[O-])ccc5F)c5ccc2[nH]5)C=C4)C=C3)cc1
REMARK SMILES IDX 25 1 24 2 23 3 22 4 2 5 1 6 3 7 4 8 5 9 21 10 6 11 7 12
REMARK SMILES IDX 17 13 20 14 15 15 18 16 19 17 16 18 8 19 9 20 10 21 14 22
REMARK SMILES IDX 11 23 13 24 12 25 26 26 27 27 28 28 29 29 30 30 31 31 32 32
REMARK SMILES IDX 93 33 33 34 92 35 34 36 35 37 36 38 86 39 37 40 91 41 85 42
REMARK SMILES IDX 87 43 38 44 90 45 84 46 83 47 39 49 71 50 51 51 70 52 52 53
REMARK SMILES IDX 55 54 69 55 88 56 53 57 54 58 68 60 89 61 56 62 40 63 41 64
REMARK SMILES IDX 49 65 42 66 48 67 50 68 47 69 43 70 44 71 45 72 46 73 72 74
REMARK SMILES IDX 73 75 81 76 74 77 80 78 82 79 79 80 75 81 76 82 77 83 78 84
REMARK SMILES IDX 57 85 58 86 66 87 59 88 65 89 67 90 64 91 60 92 61 93 62 94
REMARK SMILES IDX 63 95
REMARK H PARENT 87 48 55 59
REMARK Flexibility Score: inf
ROOT
ATOM      1  O   UNL A   1      40.973  20.581  27.087  1.00  0.00    -0.374 OA
ENDROOT
BRANCH   1   2
ATOM      2  C   UNL A   1      39.920  20.421  26.135  1.00  0.00     0.202 C 
BRANCH   2   3
ATOM      3  C   UNL A   1      38.936  21.567  25.884  1.00  0.00     0.261 C 
BRANCH   3   4
ATOM      4  O   UNL A   1      37.725  21.208  25.217  1.00  0.00    -0.462 OA
BRANCH   4   5
ATOM      5  C   UNL A   1      36.960  22.166  24.640  1.00  0.00     0.326 C 
ATOM      6  O   UNL A   1      37.158  22.478  23.466  1.00  0.00    -0.250 OA
BRANCH   5   7
ATOM      7  C   UNL A   1      35.922  22.900  25.492  1.00  0.00     0.250 C 
BRANCH   7   8
ATOM      8  N   UNL A   1      34.587  22.804  24.943  1.00  0.00    -0.281 N 
ATOM      9  C   UNL A   1      33.733  21.830  25.464  1.00  0.00     0.332 A 
ATOM     10  C   UNL A   1      34.043  23.743  24.084  1.00  0.00     0.070 A 
ATOM     11  O   UNL A   1      33.901  21.337  26.579  1.00  0.00    -0.247 OA
ATOM     12  N   UNL A   1      32.699  21.408  24.644  1.00  0.00    -0.254 N 
ATOM     13  C   UNL A   1      32.864  23.448  23.455  1.00  0.00     0.116 A 
ATOM     14  C   UNL A   1      34.502  25.054  23.794  1.00  0.00     0.039 A 
ATOM     15  C   UNL A   1      32.215  22.165  23.580  1.00  0.00     0.274 A 
ATOM     16  S   UNL A   1      32.271  24.746  22.545  1.00  0.00    -0.136 S 
ATOM     17  C   UNL A   1      33.590  25.739  23.016  1.00  0.00     0.068 A 
ATOM     18  O   UNL A   1      31.329  21.763  22.828  1.00  0.00    -0.268 OA
BRANCH  12  19
ATOM     19  C   UNL A   1      32.131  20.098  24.934  1.00  0.00     0.168 C 
BRANCH  19  20
ATOM     20  C   UNL A   1      32.829  18.952  24.256  1.00  0.00    -0.010 A 
ATOM     21  C   UNL A   1      34.006  18.392  24.767  1.00  0.00     0.009 A 
ATOM     22  C   UNL A   1      32.349  18.433  23.057  1.00  0.00     0.116 A 
ATOM     23  C   UNL A   1      34.643  17.366  24.074  1.00  0.00     0.020 A 
ATOM     24  N   UNL A   1      32.941  17.433  22.367  1.00  0.00    -0.264 NA
ATOM     25  C   UNL A   1      34.074  16.923  22.892  1.00  0.00     0.111 A 
ENDBRANCH  19  20
ENDBRANCH  12  19
ENDBRANCH   7   8
ENDBRANCH   5   7
ENDBRANCH   4   5
ENDBRANCH   3   4
ENDBRANCH   2   3
ENDBRANCH   1   2
BRANCH   1  26
ATOM     26  C   UNL A   1      42.099  19.699  27.076  1.00  0.00     0.202 C 
BRANCH  26  27
ATOM     27  C   UNL A   1      42.758  19.479  25.731  1.00  0.00     0.261 C 
BRANCH  27  28
ATOM     28  O   UNL A   1      43.214  20.723  25.258  1.00  0.00    -0.460 OA
BRANCH  28  29
ATOM     29  C   UNL A   1      44.476  20.692  24.760  1.00  0.00     0.338 C 
ATOM     30  O   UNL A   1      45.092  19.753  24.334  1.00  0.00    -0.246 OA
BRANCH  29  31
ATOM     31  C   UNL A   1      44.971  22.072  24.858  1.00  0.00     0.060 A 
ATOM     32  C   UNL A   1      45.814  22.277  25.937  1.00  0.00     0.016 A 
ATOM     33  C   UNL A   1      44.266  23.103  24.211  1.00  0.00     0.016 A 
ATOM     34  C   UNL A   1      45.619  23.435  26.631  1.00  0.00     0.010 A 
ATOM     35  C   UNL A   1      44.059  24.254  24.916  1.00  0.00     0.010 A 
ATOM     36  C   UNL A   1      44.648  24.336  26.170  1.00  0.00    -0.014 A 
BRANCH  36  37
ATOM     37  C   UNL A   1      44.371  25.464  27.012  1.00  0.00     0.031 A 
ATOM     38  C   UNL A   1      45.496  26.405  26.990  1.00  0.00     0.074 A 
ATOM     39  C   UNL A   1      43.234  25.610  27.708  1.00  0.00     0.049 A 
ATOM     40  N   UNL A   1      46.406  26.536  27.892  1.00  0.00    -0.248 NA
ATOM     41  C   UNL A   1      45.809  27.055  25.708  1.00  0.00     0.031 C 
ATOM     42  C   UNL A   1      41.987  24.851  27.620  1.00  0.00     0.029 A 
ATOM     43  N   UNL A   1      42.950  26.569  28.621  1.00  0.00    -0.354 N 
ATOM     44  C   UNL A   1      47.263  27.499  27.392  1.00  0.00     0.074 A 
ATOM     45  C   UNL A   1      47.003  27.578  25.981  1.00  0.00     0.031 C 
ATOM     46  C   UNL A   1      41.016  25.525  28.284  1.00  0.00     0.029 A 
ATOM     47  C   UNL A   1      41.606  26.678  28.947  1.00  0.00     0.049 A 
ATOM     48  H   UNL A   1      43.642  27.143  29.021  1.00  0.00     0.167 HD
ATOM     49  C   UNL A   1      47.874  28.366  28.235  1.00  0.00     0.034 A 
ATOM     50  C   UNL A   1      41.046  27.701  29.647  1.00  0.00     0.034 A 
ATOM     51  C   UNL A   1      47.926  27.836  29.582  1.00  0.00     0.049 A 
ATOM     52  C   UNL A   1      42.145  28.299  30.458  1.00  0.00     0.074 A 
ATOM     53  C   UNL A   1      48.448  26.679  30.135  1.00  0.00     0.029 A 
ATOM     54  N   UNL A   1      47.015  28.305  30.504  1.00  0.00    -0.354 N 
ATOM     55  N   UNL A   1      42.770  27.651  31.406  1.00  0.00    -0.248 NA
ATOM     56  C   UNL A   1      42.881  29.422  29.892  1.00  0.00     0.031 C 
ATOM     57  C   UNL A   1      47.487  26.263  31.103  1.00  0.00     0.029 A 
ATOM     58  C   UNL A   1      46.470  27.217  31.147  1.00  0.00     0.049 A 
ATOM     59  H   UNL A   1      46.794  29.250  30.672  1.00  0.00     0.167 HD
ATOM     60  C   UNL A   1      44.106  28.001  31.266  1.00  0.00     0.074 A 
ATOM     61  C   UNL A   1      44.101  29.162  30.377  1.00  0.00     0.031 C 
ATOM     62  C   UNL A   1      45.107  27.154  31.648  1.00  0.00     0.034 A 
BRANCH  49  63
ATOM     63  C   UNL A   1      48.035  29.829  27.906  1.00  0.00     0.023 A 
ATOM     64  C   UNL A   1      46.864  30.562  27.660  1.00  0.00     0.031 A 
ATOM     65  C   UNL A   1      49.250  30.473  27.559  1.00  0.00     0.131 A 
ATOM     66  C   UNL A   1      46.924  31.815  27.030  1.00  0.00     0.055 A 
ATOM     67  C   UNL A   1      49.306  31.746  26.994  1.00  0.00     0.041 A 
ATOM     68  F   UNL A   1      50.447  29.884  27.652  1.00  0.00    -0.206 F 
ATOM     69  C   UNL A   1      48.136  32.414  26.698  1.00  0.00     0.022 A 
BRANCH  66  70
ATOM     70  S   UNL A   1      45.372  32.584  26.516  1.00  0.00     0.124 S 
ATOM     71  O   UNL A   1      45.812  33.416  25.401  1.00  0.00    -0.237 OA
ATOM     72  O   UNL A   1      44.562  31.419  26.172  1.00  0.00    -0.237 OA
ATOM     73  O   UNL A   1      44.944  33.310  27.709  1.00  0.00    -0.744 OA
ENDBRANCH  66  70
ENDBRANCH  49  63
BRANCH  50  74
ATOM     74  C   UNL A   1      39.761  28.400  29.357  1.00  0.00     0.023 A 
ATOM     75  C   UNL A   1      38.956  28.931  30.388  1.00  0.00     0.031 A 
ATOM     76  C   UNL A   1      39.427  28.785  28.039  1.00  0.00     0.131 A 
ATOM     77  C   UNL A   1      37.891  29.811  30.086  1.00  0.00     0.055 A 
ATOM     78  C   UNL A   1      38.370  29.651  27.745  1.00  0.00     0.041 A 
ATOM     79  F   UNL A   1      40.172  28.411  26.988  1.00  0.00    -0.206 F 
ATOM     80  C   UNL A   1      37.604  30.179  28.771  1.00  0.00     0.022 A 
BRANCH  77  81
ATOM     81  S   UNL A   1      36.932  30.597  31.421  1.00  0.00     0.124 S 
ATOM     82  O   UNL A   1      37.943  31.417  32.080  1.00  0.00    -0.237 OA
ATOM     83  O   UNL A   1      35.894  31.312  30.688  1.00  0.00    -0.237 OA
ATOM     84  O   UNL A   1      36.453  29.459  32.206  1.00  0.00    -0.744 OA
ENDBRANCH  77  81
ENDBRANCH  50  74
BRANCH  62  85
ATOM     85  C   UNL A   1      44.750  25.949  32.499  1.00  0.00     0.023 A 
ATOM     86  C   UNL A   1      44.470  25.985  33.885  1.00  0.00     0.031 A 
ATOM     87  C   UNL A   1      44.546  24.733  31.824  1.00  0.00     0.131 A 
ATOM     88  C   UNL A   1      44.003  24.823  34.539  1.00  0.00     0.055 A 
ATOM     89  C   UNL A   1      44.067  23.595  32.469  1.00  0.00     0.041 A 
ATOM     90  F   UNL A   1      44.766  24.647  30.500  1.00  0.00    -0.206 F 
ATOM     91  C   UNL A   1      43.795  23.635  33.831  1.00  0.00     0.022 A 
BRANCH  88  92
ATOM     92  S   UNL A   1      43.628  24.843  36.324  1.00  0.00     0.124 S 
ATOM     93  O   UNL A   1      43.779  26.248  36.684  1.00  0.00    -0.237 OA
ATOM     94  O   UNL A   1      42.268  24.311  36.373  1.00  0.00    -0.237 OA
ATOM     95  O   UNL A   1      44.643  23.958  36.900  1.00  0.00    -0.744 OA
ENDBRANCH  88  92
ENDBRANCH  62  85
ENDBRANCH  36  37
ENDBRANCH  29  31
ENDBRANCH  28  29
ENDBRANCH  27  28
ENDBRANCH  26  27
ENDBRANCH   1  26
TORSDOF 20
ENDMDL
MODEL 2
REMARK VINA RESULT:     -11.3      4.815      9.842
REMARK SMILES O=C(Cn1c(=O)n(Cc2cccnc2)c(=O)c2sccc21)OCCOCCOC(=O)c1ccc(-c2c3nc(c(-c4cc(S(=O)(=O)[O-])ccc4F)c4ccc([nH]4)c(-c4cc(S(=O)(=O)[O-])ccc4F)c4nc(c(-c5cc(S(=O)(=O)[O-])ccc5F)c5ccc2[nH]5)C=C4)C=C3)cc1
REMARK SMILES IDX 25 1 24 2 23 3 22 4 2 5 1 6 3 7 4 8 5 9 21 10 6 11 7 12
REMARK SMILES IDX 17 13 20 14 15 15 18 16 19 17 16 18 8 19 9 20 10 21 14 22
REMARK SMILES IDX 11 23 13 24 12 25 26 26 27 27 28 28 29 29 30 30 31 31 32 32
REMARK SMILES IDX 93 33 33 34 92 35 34 36 35 37 36 38 86 39 37 40 91 41 85 42
REMARK SMILES IDX 87 43 38 44 90 45 84 46 83 47 39 49 71 50 51 51 70 52 52 53
REMARK SMILES IDX 55 54 69 55 88 56 53 57 54 58 68 60 89 61 56 62 40 63 41 64
REMARK SMILES IDX 49 65 42 66 48 67 50 68 47 69 43 70 44 71 45 72 46 73 72 74
REMARK SMILES IDX 73 75 81 76 74 77 80 78 82 79 79 80 75 81 76 82 77 83 78 84
REMARK SMILES IDX 57 85 58 86 66 87 59 88 65 89 67 90 64 91 60 92 61 93 62 94
REMARK SMILES IDX 63 95
REMARK H PARENT 87 48 55 59
REMARK Flexibility Score: inf
ROOT
ATOM      1  O   UNL A   1      39.712  32.253  33.195  1.00  0.00    -0.374 OA
ENDROOT
BRANCH   1   2
ATOM      2  C   UNL A   1      40.081  33.517  32.639  1.00  0.00     0.202 C 
BRANCH   2   3
ATOM      3  C   UNL A   1      39.011  34.581  32.381  1.00  0.00     0.261 C 
BRANCH   3   4
ATOM      4  O   UNL A   1      37.708  34.085  32.069  1.00  0.00    -0.462 OA
BRANCH   4   5
ATOM      5  C   UNL A   1      36.689  34.261  32.945  1.00  0.00     0.326 C 
ATOM      6  O   UNL A   1      36.876  34.908  33.975  1.00  0.00    -0.250 OA
BRANCH   5   7
ATOM      7  C   UNL A   1      35.349  33.574  32.672  1.00  0.00     0.250 C 
BRANCH   7   8
ATOM      8  N   UNL A   1      34.904  33.750  31.307  1.00  0.00    -0.281 N 
ATOM      9  C   UNL A   1      35.009  32.662  30.439  1.00  0.00     0.332 A 
ATOM     10  C   UNL A   1      34.199  34.857  30.868  1.00  0.00     0.070 A 
ATOM     11  O   UNL A   1      35.079  31.502  30.843  1.00  0.00    -0.247 OA
ATOM     12  N   UNL A   1      35.071  32.952  29.085  1.00  0.00    -0.254 N 
ATOM     13  C   UNL A   1      34.020  35.026  29.522  1.00  0.00     0.116 A 
ATOM     14  C   UNL A   1      33.543  35.855  31.635  1.00  0.00     0.039 A 
ATOM     15  C   UNL A   1      34.611  34.149  28.542  1.00  0.00     0.274 A 
ATOM     16  S   UNL A   1      33.031  36.353  29.161  1.00  0.00    -0.136 S 
ATOM     17  C   UNL A   1      32.808  36.699  30.828  1.00  0.00     0.068 A 
ATOM     18  O   UNL A   1      34.714  34.418  27.347  1.00  0.00    -0.268 OA
BRANCH  12  19
ATOM     19  C   UNL A   1      35.668  31.936  28.228  1.00  0.00     0.168 C 
BRANCH  19  20
ATOM     20  C   UNL A   1      34.707  30.887  27.742  1.00  0.00    -0.010 A 
ATOM     21  C   UNL A   1      35.123  29.588  27.427  1.00  0.00     0.009 A 
ATOM     22  C   UNL A   1      33.364  31.188  27.540  1.00  0.00     0.116 A 
ATOM     23  C   UNL A   1      34.203  28.667  26.930  1.00  0.00     0.020 A 
ATOM     24  N   UNL A   1      32.448  30.314  27.068  1.00  0.00    -0.264 NA
ATOM     25  C   UNL A   1      32.889  29.074  26.774  1.00  0.00     0.111 A 
ENDBRANCH  19  20
ENDBRANCH  12  19
ENDBRANCH   7   8
ENDBRANCH   5   7
ENDBRANCH   4   5
ENDBRANCH   3   4
ENDBRANCH   2   3
ENDBRANCH   1   2
BRANCH   1  26
ATOM     26  C   UNL A   1      39.683  31.082  32.374  1.00  0.00     0.202 C 
BRANCH  26  27
ATOM     27  C   UNL A   1      38.310  30.547  32.028  1.00  0.00     0.261 C 
BRANCH  27  28
ATOM     28  O   UNL A   1      38.241  30.387  30.631  1.00  0.00    -0.460 OA
BRANCH  28  29
ATOM     29  C   UNL A   1      37.436  29.368  30.235  1.00  0.00     0.338 C 
ATOM     30  O   UNL A   1      36.325  29.102  30.603  1.00  0.00    -0.246 OA
BRANCH  29  31
ATOM     31  C   UNL A   1      38.217  28.615  29.245  1.00  0.00     0.060 A 
ATOM     32  C   UNL A   1      38.734  27.429  29.741  1.00  0.00     0.016 A 
ATOM     33  C   UNL A   1      38.741  29.286  28.125  1.00  0.00     0.016 A 
ATOM     34  C   UNL A   1      40.021  27.147  29.385  1.00  0.00     0.010 A 
ATOM     35  C   UNL A   1      40.034  29.013  27.783  1.00  0.00     0.010 A 
ATOM     36  C   UNL A   1      40.681  28.025  28.513  1.00  0.00    -0.014 A 
BRANCH  36  37
ATOM     37  C   UNL A   1      42.075  27.773  28.286  1.00  0.00     0.031 A 
ATOM     38  C   UNL A   1      42.261  26.462  27.654  1.00  0.00     0.074 A 
ATOM     39  C   UNL A   1      43.048  28.634  28.618  1.00  0.00     0.049 A 
ATOM     40  N   UNL A   1      42.628  25.374  28.236  1.00  0.00    -0.248 NA
ATOM     41  C   UNL A   1      41.698  26.276  26.307  1.00  0.00     0.031 C 
ATOM     42  C   UNL A   1      42.950  30.032  29.038  1.00  0.00     0.029 A 
ATOM     43  N   UNL A   1      44.385  28.421  28.561  1.00  0.00    -0.354 N 
ATOM     44  C   UNL A   1      42.600  24.415  27.240  1.00  0.00     0.074 A 
ATOM     45  C   UNL A   1      41.790  24.954  26.183  1.00  0.00     0.031 C 
ATOM     46  C   UNL A   1      44.181  30.595  28.978  1.00  0.00     0.029 A 
ATOM     47  C   UNL A   1      45.158  29.569  28.649  1.00  0.00     0.049 A 
ATOM     48  H   UNL A   1      44.775  27.523  28.465  1.00  0.00     0.167 HD
ATOM     49  C   UNL A   1      43.509  23.409  27.242  1.00  0.00     0.034 A 
ATOM     50  C   UNL A   1      46.490  29.643  28.386  1.00  0.00     0.034 A 
ATOM     51  C   UNL A   1      44.061  23.207  28.565  1.00  0.00     0.049 A 
ATOM     52  C   UNL A   1      47.028  28.267  28.579  1.00  0.00     0.074 A 
ATOM     53  C   UNL A   1      43.505  22.924  29.801  1.00  0.00     0.029 A 
ATOM     54  N   UNL A   1      45.314  23.715  28.835  1.00  0.00    -0.354 N 
ATOM     55  N   UNL A   1      47.029  27.654  29.735  1.00  0.00    -0.248 NA
ATOM     56  C   UNL A   1      47.103  27.390  27.418  1.00  0.00     0.031 C 
ATOM     57  C   UNL A   1      44.238  23.719  30.731  1.00  0.00     0.029 A 
ATOM     58  C   UNL A   1      45.246  24.386  30.035  1.00  0.00     0.049 A 
ATOM     59  H   UNL A   1      46.114  23.615  28.270  1.00  0.00     0.167 HD
ATOM     60  C   UNL A   1      46.679  26.341  29.450  1.00  0.00     0.074 A 
ATOM     61  C   UNL A   1      46.826  26.217  28.000  1.00  0.00     0.031 C 
ATOM     62  C   UNL A   1      46.034  25.561  30.366  1.00  0.00     0.034 A 
BRANCH  49  63
ATOM     63  C   UNL A   1      44.169  22.919  25.977  1.00  0.00     0.023 A 
ATOM     64  C   UNL A   1      44.119  21.541  25.723  1.00  0.00     0.031 A 
ATOM     65  C   UNL A   1      45.059  23.666  25.163  1.00  0.00     0.131 A 
ATOM     66  C   UNL A   1      44.971  20.958  24.771  1.00  0.00     0.055 A 
ATOM     67  C   UNL A   1      45.855  23.089  24.174  1.00  0.00     0.041 A 
ATOM     68  F   UNL A   1      45.287  24.973  25.329  1.00  0.00    -0.206 F 
ATOM     69  C   UNL A   1      45.837  21.722  23.993  1.00  0.00     0.022 A 
BRANCH  66  70
ATOM     70  S   UNL A   1      45.033  19.155  24.675  1.00  0.00     0.124 S 
ATOM     71  O   UNL A   1      45.063  18.939  23.233  1.00  0.00    -0.237 OA
ATOM     72  O   UNL A   1      46.267  18.861  25.398  1.00  0.00    -0.237 OA
ATOM     73  O   UNL A   1      43.804  18.739  25.347  1.00  0.00    -0.744 OA
ENDBRANCH  66  70
ENDBRANCH  49  63
BRANCH  50  74
ATOM     74  C   UNL A   1      47.205  30.708  27.625  1.00  0.00     0.023 A 
ATOM     75  C   UNL A   1      46.509  31.759  26.988  1.00  0.00     0.031 A 
ATOM     76  C   UNL A   1      48.607  30.855  27.727  1.00  0.00     0.131 A 
ATOM     77  C   UNL A   1      47.206  32.891  26.505  1.00  0.00     0.055 A 
ATOM     78  C   UNL A   1      49.291  31.973  27.242  1.00  0.00     0.041 A 
ATOM     79  F   UNL A   1      49.360  29.961  28.385  1.00  0.00    -0.206 F 
ATOM     80  C   UNL A   1      48.591  33.004  26.639  1.00  0.00     0.022 A 
BRANCH  77  81
ATOM     81  S   UNL A   1      46.299  34.305  25.797  1.00  0.00     0.124 S 
ATOM     82  O   UNL A   1      47.334  34.966  25.010  1.00  0.00    -0.237 OA
ATOM     83  O   UNL A   1      45.231  33.654  25.048  1.00  0.00    -0.237 OA
ATOM     84  O   UNL A   1      45.855  35.045  26.979  1.00  0.00    -0.744 OA
ENDBRANCH  77  81
ENDBRANCH  50  74
BRANCH  62  85
ATOM     85  C   UNL A   1      45.964  26.044  31.804  1.00  0.00     0.023 A 
ATOM     86  C   UNL A   1      44.833  26.639  32.411  1.00  0.00     0.031 A 
ATOM     87  C   UNL A   1      47.063  25.743  32.628  1.00  0.00     0.131 A 
ATOM     88  C   UNL A   1      44.838  26.911  33.796  1.00  0.00     0.055 A 
ATOM     89  C   UNL A   1      47.056  25.994  33.999  1.00  0.00     0.041 A 
ATOM     90  F   UNL A   1      48.153  25.148  32.115  1.00  0.00    -0.206 F 
ATOM     91  C   UNL A   1      45.943  26.581  34.589  1.00  0.00     0.022 A 
BRANCH  88  92
ATOM     92  S   UNL A   1      43.390  27.672  34.605  1.00  0.00     0.124 S 
ATOM     93  O   UNL A   1      43.348  29.009  34.026  1.00  0.00    -0.237 OA
ATOM     94  O   UNL A   1      42.302  26.774  34.227  1.00  0.00    -0.237 OA
ATOM     95  O   UNL A   1      43.734  27.638  36.028  1.00  0.00    -0.744 OA
ENDBRANCH  88  92
ENDBRANCH  62  85
ENDBRANCH  36  37
ENDBRANCH  29  31
ENDBRANCH  28  29
ENDBRANCH  27  28
ENDBRANCH  26  27
ENDBRANCH   1  26
TORSDOF 20
ENDMDL
MODEL 3
REMARK VINA RESULT:     -11.2      2.698      7.685
REMARK SMILES O=C(Cn1c(=O)n(Cc2cccnc2)c(=O)c2sccc21)OCCOCCOC(=O)c1ccc(-c2c3nc(c(-c4cc(S(=O)(=O)[O-])ccc4F)c4ccc([nH]4)c(-c4cc(S(=O)(=O)[O-])ccc4F)c4nc(c(-c5cc(S(=O)(=O)[O-])ccc5F)c5ccc2[nH]5)C=C4)C=C3)cc1
REMARK SMILES IDX 25 1 24 2 23 3 22 4 2 5 1 6 3 7 4 8 5 9 21 10 6 11 7 12
REMARK SMILES IDX 17 13 20 14 15 15 18 16 19 17 16 18 8 19 9 20 10 21 14 22
REMARK SMILES IDX 11 23 13 24 12 25 26 26 27 27 28 28 29 29 30 30 31 31 32 32
REMARK SMILES IDX 93 33 33 34 92 35 34 36 35 37 36 38 86 39 37 40 91 41 85 42
REMARK SMILES IDX 87 43 38 44 90 45 84 46 83 47 39 49 71 50 51 51 70 52 52 53
REMARK SMILES IDX 55 54 69 55 88 56 53 57 54 58 68 60 89 61 56 62 40 63 41 64
REMARK SMILES IDX 49 65 42 66 48 67 50 68 47 69 43 70 44 71 45 72 46 73 72 74
REMARK SMILES IDX 73 75 81 76 74 77 80 78 82 79 79 80 75 81 76 82 77 83 78 84
REMARK SMILES IDX 57 85 58 86 66 87 59 88 65 89 67 90 64 91 60 92 61 93 62 94
REMARK SMILES IDX 63 95
REMARK H PARENT 87 48 55 59
REMARK Flexibility Score: inf
ROOT
ATOM      1  O   UNL A   1      34.317  30.589  28.111  1.00  0.00    -0.374 OA
ENDROOT
BRANCH   1   2
ATOM      2  C   UNL A   1      33.999  30.040  26.830  1.00  0.00     0.202 C 
BRANCH   2   3
ATOM      3  C   UNL A   1      32.539  29.781  26.450  1.00  0.00     0.261 C 
BRANCH   3   4
ATOM      4  O   UNL A   1      32.237  28.451  26.026  1.00  0.00    -0.462 OA
BRANCH   4   5
ATOM      5  C   UNL A   1      31.473  27.648  26.806  1.00  0.00     0.326 C 
ATOM      6  O   UNL A   1      31.483  27.798  28.027  1.00  0.00    -0.250 OA
BRANCH   5   7
ATOM      7  C   UNL A   1      30.679  26.515  26.152  1.00  0.00     0.250 C 
BRANCH   7   8
ATOM      8  N   UNL A   1      31.501  25.680  25.304  1.00  0.00    -0.281 N 
ATOM      9  C   UNL A   1      31.930  24.452  25.812  1.00  0.00     0.332 A 
ATOM     10  C   UNL A   1      31.717  25.931  23.960  1.00  0.00     0.070 A 
ATOM     11  O   UNL A   1      31.352  23.886  26.737  1.00  0.00    -0.247 OA
ATOM     12  N   UNL A   1      33.074  23.913  25.246  1.00  0.00    -0.254 N 
ATOM     13  C   UNL A   1      32.679  25.211  23.307  1.00  0.00     0.116 A 
ATOM     14  C   UNL A   1      31.014  26.812  23.096  1.00  0.00     0.039 A 
ATOM     15  C   UNL A   1      33.538  24.268  23.981  1.00  0.00     0.274 A 
ATOM     16  S   UNL A   1      32.727  25.546  21.648  1.00  0.00    -0.136 S 
ATOM     17  C   UNL A   1      31.421  26.652  21.787  1.00  0.00     0.068 A 
ATOM     18  O   UNL A   1      34.580  23.820  23.507  1.00  0.00    -0.268 OA
BRANCH  12  19
ATOM     19  C   UNL A   1      33.805  22.944  26.052  1.00  0.00     0.168 C 
BRANCH  19  20
ATOM     20  C   UNL A   1      33.689  21.522  25.576  1.00  0.00    -0.010 A 
ATOM     21  C   UNL A   1      34.811  20.764  25.223  1.00  0.00     0.009 A 
ATOM     22  C   UNL A   1      32.444  20.921  25.424  1.00  0.00     0.116 A 
ATOM     23  C   UNL A   1      34.647  19.468  24.739  1.00  0.00     0.020 A 
ATOM     24  N   UNL A   1      32.255  19.664  24.964  1.00  0.00    -0.264 NA
ATOM     25  C   UNL A   1      33.361  18.967  24.633  1.00  0.00     0.111 A 
ENDBRANCH  19  20
ENDBRANCH  12  19
ENDBRANCH   7   8
ENDBRANCH   5   7
ENDBRANCH   4   5
ENDBRANCH   3   4
ENDBRANCH   2   3
ENDBRANCH   1   2
BRANCH   1  26
ATOM     26  C   UNL A   1      35.233  31.681  28.224  1.00  0.00     0.202 C 
BRANCH  26  27
ATOM     27  C   UNL A   1      35.993  31.779  29.530  1.00  0.00     0.261 C 
BRANCH  27  28
ATOM     28  O   UNL A   1      37.145  30.976  29.428  1.00  0.00    -0.460 OA
BRANCH  28  29
ATOM     29  C   UNL A   1      37.058  29.805  30.109  1.00  0.00     0.338 C 
ATOM     30  O   UNL A   1      36.489  29.577  31.141  1.00  0.00    -0.246 OA
BRANCH  29  31
ATOM     31  C   UNL A   1      37.835  28.837  29.323  1.00  0.00     0.060 A 
ATOM     32  C   UNL A   1      38.397  27.831  30.092  1.00  0.00     0.016 A 
ATOM     33  C   UNL A   1      38.311  29.205  28.052  1.00  0.00     0.016 A 
ATOM     34  C   UNL A   1      39.681  27.493  29.781  1.00  0.00     0.010 A 
ATOM     35  C   UNL A   1      39.602  28.879  27.751  1.00  0.00     0.010 A 
ATOM     36  C   UNL A   1      40.294  28.128  28.691  1.00  0.00    -0.014 A 
BRANCH  36  37
ATOM     37  C   UNL A   1      41.689  27.855  28.493  1.00  0.00     0.031 A 
ATOM     38  C   UNL A   1      41.864  26.584  27.781  1.00  0.00     0.074 A 
ATOM     39  C   UNL A   1      42.671  28.666  28.911  1.00  0.00     0.049 A 
ATOM     40  N   UNL A   1      42.184  25.450  28.301  1.00  0.00    -0.248 NA
ATOM     41  C   UNL A   1      41.343  26.501  26.408  1.00  0.00     0.031 C 
ATOM     42  C   UNL A   1      42.592  30.035  29.420  1.00  0.00     0.029 A 
ATOM     43  N   UNL A   1      44.003  28.422  28.884  1.00  0.00    -0.354 N 
ATOM     44  C   UNL A   1      42.167  24.559  27.243  1.00  0.00     0.074 A 
ATOM     45  C   UNL A   1      41.406  25.188  26.199  1.00  0.00     0.031 C 
ATOM     46  C   UNL A   1      43.838  30.569  29.437  1.00  0.00     0.029 A 
ATOM     47  C   UNL A   1      44.801  29.540  29.073  1.00  0.00     0.049 A 
ATOM     48  H   UNL A   1      44.375  27.522  28.741  1.00  0.00     0.167 HD
ATOM     49  C   UNL A   1      43.051  23.532  27.208  1.00  0.00     0.034 A 
ATOM     50  C   UNL A   1      46.142  29.596  28.857  1.00  0.00     0.034 A 
ATOM     51  C   UNL A   1      43.553  23.229  28.532  1.00  0.00     0.049 A 
ATOM     52  C   UNL A   1      46.640  28.196  28.976  1.00  0.00     0.074 A 
ATOM     53  C   UNL A   1      42.948  22.880  29.727  1.00  0.00     0.029 A 
ATOM     54  N   UNL A   1      44.808  23.685  28.874  1.00  0.00    -0.354 N 
ATOM     55  N   UNL A   1      46.587  27.509  30.088  1.00  0.00    -0.248 NA
ATOM     56  C   UNL A   1      46.732  27.395  27.762  1.00  0.00     0.031 C 
ATOM     57  C   UNL A   1      43.668  23.593  30.731  1.00  0.00     0.029 A 
ATOM     58  C   UNL A   1      44.715  24.277  30.113  1.00  0.00     0.049 A 
ATOM     59  H   UNL A   1      45.623  23.601  28.329  1.00  0.00     0.167 HD
ATOM     60  C   UNL A   1      46.215  26.228  29.705  1.00  0.00     0.074 A 
ATOM     61  C   UNL A   1      46.407  26.195  28.256  1.00  0.00     0.031 C 
ATOM     62  C   UNL A   1      45.520  25.407  30.547  1.00  0.00     0.034 A 
BRANCH  49  63
ATOM     63  C   UNL A   1      43.741  23.108  25.935  1.00  0.00     0.023 A 
ATOM     64  C   UNL A   1      43.645  21.756  25.575  1.00  0.00     0.031 A 
ATOM     65  C   UNL A   1      44.692  23.874  25.213  1.00  0.00     0.131 A 
ATOM     66  C   UNL A   1      44.511  21.208  24.615  1.00  0.00     0.055 A 
ATOM     67  C   UNL A   1      45.503  23.338  24.213  1.00  0.00     0.041 A 
ATOM     68  F   UNL A   1      44.966  25.154  25.486  1.00  0.00    -0.206 F 
ATOM     69  C   UNL A   1      45.438  21.990  23.930  1.00  0.00     0.022 A 
BRANCH  66  70
ATOM     70  S   UNL A   1      44.504  19.416  24.386  1.00  0.00     0.124 S 
ATOM     71  O   UNL A   1      43.192  19.059  24.914  1.00  0.00    -0.237 OA
ATOM     72  O   UNL A   1      44.670  19.301  22.940  1.00  0.00    -0.237 OA
ATOM     73  O   UNL A   1      45.644  18.970  25.182  1.00  0.00    -0.744 OA
ENDBRANCH  66  70
ENDBRANCH  49  63
BRANCH  50  74
ATOM     74  C   UNL A   1      46.908  30.689  28.192  1.00  0.00     0.023 A 
ATOM     75  C   UNL A   1      46.279  31.624  27.341  1.00  0.00     0.031 A 
ATOM     76  C   UNL A   1      48.231  30.991  28.587  1.00  0.00     0.131 A 
ATOM     77  C   UNL A   1      46.959  32.797  26.936  1.00  0.00     0.055 A 
ATOM     78  C   UNL A   1      48.901  32.149  28.179  1.00  0.00     0.041 A 
ATOM     79  F   UNL A   1      48.897  30.221  29.460  1.00  0.00    -0.206 F 
ATOM     80  C   UNL A   1      48.262  33.065  27.361  1.00  0.00     0.022 A 
BRANCH  77  81
ATOM     81  S   UNL A   1      46.108  34.064  25.942  1.00  0.00     0.124 S 
ATOM     82  O   UNL A   1      45.620  34.979  26.968  1.00  0.00    -0.237 OA
ATOM     83  O   UNL A   1      47.175  34.563  25.083  1.00  0.00    -0.237 OA
ATOM     84  O   UNL A   1      45.067  33.305  25.247  1.00  0.00    -0.744 OA
ENDBRANCH  77  81
ENDBRANCH  50  74
BRANCH  62  85
ATOM     85  C   UNL A   1      45.414  25.796  32.011  1.00  0.00     0.023 A 
ATOM     86  C   UNL A   1      46.373  25.495  33.006  1.00  0.00     0.031 A 
ATOM     87  C   UNL A   1      44.347  26.639  32.367  1.00  0.00     0.131 A 
ATOM     88  C   UNL A   1      46.237  26.039  34.302  1.00  0.00     0.055 A 
ATOM     89  C   UNL A   1      44.227  27.189  33.643  1.00  0.00     0.041 A 
ATOM     90  F   UNL A   1      43.421  26.985  31.456  1.00  0.00    -0.206 F 
ATOM     91  C   UNL A   1      45.172  26.890  34.616  1.00  0.00     0.022 A 
BRANCH  88  92
ATOM     92  S   UNL A   1      47.464  25.674  35.602  1.00  0.00     0.124 S 
ATOM     93  O   UNL A   1      47.152  24.301  35.982  1.00  0.00    -0.237 OA
ATOM     94  O   UNL A   1      48.734  25.876  34.911  1.00  0.00    -0.237 OA
ATOM     95  O   UNL A   1      47.175  26.669  36.638  1.00  0.00    -0.744 OA
ENDBRANCH  88  92
ENDBRANCH  62  85
ENDBRANCH  36  37
ENDBRANCH  29  31
ENDBRANCH  28  29
ENDBRANCH  27  28
ENDBRANCH  26  27
ENDBRANCH   1  26
TORSDOF 20
ENDMDL
