MODEL 1
REMARK VINA RESULT:     -11.5      0.000      0.000
REMARK SMILES C[C@@H]1[NH2+]CC[C@H]1C(=O)N[C@@H]1CCC[C@H](C(=O)OCCOCCOC(=O)c2ccc(-c3c4nc(c(-c5cc(S(=O)(=O)[O-])ccc5F)c5ccc([nH]5)c(-c5cc(S(=O)(=O)[O-])ccc5F)c5nc(c(-c6cc(S(=O)(=O)[O-])ccc6F)c6ccc3[nH]6)C=C5)C=C4)cc2)C1
REMARK SMILES IDX 21 1 20 2 19 3 18 4 17 5 15 6 16 7 14 8 10 9 11 10 89 11
REMARK SMILES IDX 12 12 13 13 9 14 7 15 8 16 6 18 1 19 2 20 3 21 4 22 5 25
REMARK SMILES IDX 22 26 23 27 24 28 25 29 26 30 27 31 88 32 28 33 87 34 29 35
REMARK SMILES IDX 30 36 31 37 81 38 32 39 86 40 80 41 82 42 33 43 85 44 79 45
REMARK SMILES IDX 78 46 34 48 66 49 46 50 65 51 47 52 50 53 64 54 83 55 48 56
REMARK SMILES IDX 49 57 63 59 84 60 51 61 35 62 36 63 44 64 37 65 43 66 45 67
REMARK SMILES IDX 42 68 38 69 39 70 40 71 41 72 67 73 68 74 76 75 69 76 75 77
REMARK SMILES IDX 77 78 74 79 70 80 71 81 72 82 73 83 52 84 53 85 61 86 54 87
REMARK SMILES IDX 60 88 62 89 59 90 55 91 56 92 57 93 58 94
REMARK H PARENT 9 17 3 23 3 24 82 47 50 58
REMARK Flexibility Score: inf
ROOT
ATOM      1  C   UNL A   1      31.603  31.216  26.259  1.00  0.00     0.202 C 
ENDROOT
BRANCH   1   2
ATOM      2  O   UNL A   1      32.744  30.363  26.211  1.00  0.00    -0.374 OA
BRANCH   2   3
ATOM      3  C   UNL A   1      32.828  29.380  25.185  1.00  0.00     0.202 C 
BRANCH   3   4
ATOM      4  C   UNL A   1      31.661  29.279  24.206  1.00  0.00     0.261 C 
BRANCH   4   5
ATOM      5  O   UNL A   1      32.000  28.564  23.007  1.00  0.00    -0.463 OA
BRANCH   5   6
ATOM      6  C   UNL A   1      30.965  27.918  22.410  1.00  0.00     0.309 C 
ATOM      7  O   UNL A   1      29.886  28.423  22.120  1.00  0.00    -0.252 OA
BRANCH   6   8
ATOM      8  C   UNL A   1      31.217  26.436  22.275  1.00  0.00     0.101 C 
ATOM      9  C   UNL A   1      30.710  24.390  23.673  1.00  0.00     0.082 C 
ATOM     10  C   UNL A   1      32.045  23.775  23.191  1.00  0.00     0.025 C 
ATOM     11  C   UNL A   1      30.850  25.879  23.627  1.00  0.00     0.040 C 
ATOM     12  C   UNL A   1      32.606  24.413  21.900  1.00  0.00     0.003 C 
ATOM     13  C   UNL A   1      32.612  25.951  21.918  1.00  0.00     0.015 C 
BRANCH   9  14
ATOM     14  N   UNL A   1      30.361  23.918  25.025  1.00  0.00    -0.353 N 
ATOM     15  C   UNL A   1      30.941  23.893  26.256  1.00  0.00     0.229 C 
ATOM     16  O   UNL A   1      30.163  23.586  27.173  1.00  0.00    -0.275 OA
ATOM     17  H   UNL A   1      29.465  23.511  25.042  1.00  0.00     0.163 HD
BRANCH  15  18
ATOM     18  C   UNL A   1      32.404  24.195  26.630  1.00  0.00     0.142 C 
ATOM     19  C   UNL A   1      33.724  22.136  27.424  1.00  0.00     0.076 C 
ATOM     20  C   UNL A   1      33.450  23.129  26.302  1.00  0.00     0.192 C 
ATOM     21  N   UNL A   1      34.695  23.856  26.025  1.00  0.00    -0.343 N 
ATOM     22  C   UNL A   1      34.386  25.233  25.660  1.00  0.00     0.261 C 
ATOM     23  H   UNL A   1      35.188  23.403  25.254  1.00  0.00     0.346 HD
ATOM     24  H   UNL A   1      35.285  23.849  26.857  1.00  0.00     0.346 HD
ATOM     25  C   UNL A   1      32.955  25.515  26.100  1.00  0.00     0.081 C 
ENDBRANCH  15  18
ENDBRANCH   9  14
ENDBRANCH   6   8
ENDBRANCH   5   6
ENDBRANCH   4   5
ENDBRANCH   3   4
ENDBRANCH   2   3
ENDBRANCH   1   2
BRANCH   1  26
ATOM     26  C   UNL A   1      31.676  32.501  27.087  1.00  0.00     0.261 C 
BRANCH  26  27
ATOM     27  O   UNL A   1      32.915  33.211  26.936  1.00  0.00    -0.460 OA
BRANCH  27  28
ATOM     28  C   UNL A   1      33.491  33.550  28.114  1.00  0.00     0.338 C 
ATOM     29  O   UNL A   1      32.991  34.237  29.000  1.00  0.00    -0.246 OA
BRANCH  28  30
ATOM     30  C   UNL A   1      34.762  32.832  28.305  1.00  0.00     0.060 A 
ATOM     31  C   UNL A   1      34.684  31.462  28.588  1.00  0.00     0.016 A 
ATOM     32  C   UNL A   1      35.993  33.492  28.317  1.00  0.00     0.016 A 
ATOM     33  C   UNL A   1      35.825  30.761  28.967  1.00  0.00     0.010 A 
ATOM     34  C   UNL A   1      37.138  32.787  28.704  1.00  0.00     0.010 A 
ATOM     35  C   UNL A   1      37.048  31.434  29.081  1.00  0.00    -0.014 A 
BRANCH  35  36
ATOM     36  C   UNL A   1      38.172  30.766  29.780  1.00  0.00     0.031 A 
ATOM     37  C   UNL A   1      38.413  31.092  31.231  1.00  0.00     0.074 A 
ATOM     38  C   UNL A   1      38.924  29.844  29.155  1.00  0.00     0.049 A 
ATOM     39  N   UNL A   1      39.346  30.658  32.038  1.00  0.00    -0.248 NA
ATOM     40  C   UNL A   1      37.474  32.040  31.852  1.00  0.00     0.031 C 
ATOM     41  C   UNL A   1      38.738  29.402  27.773  1.00  0.00     0.029 A 
ATOM     42  N   UNL A   1      39.993  29.113  29.602  1.00  0.00    -0.354 N 
ATOM     43  C   UNL A   1      39.114  31.286  33.257  1.00  0.00     0.074 A 
ATOM     44  C   UNL A   1      37.975  32.158  33.072  1.00  0.00     0.031 C 
ATOM     45  C   UNL A   1      39.668  28.475  27.485  1.00  0.00     0.029 A 
ATOM     46  C   UNL A   1      40.539  28.291  28.644  1.00  0.00     0.049 A 
ATOM     47  H   UNL A   1      40.338  29.169  30.522  1.00  0.00     0.167 HD
ATOM     48  C   UNL A   1      39.785  31.139  34.426  1.00  0.00     0.034 A 
ATOM     49  C   UNL A   1      41.632  27.503  28.692  1.00  0.00     0.034 A 
ATOM     50  C   UNL A   1      40.920  30.264  34.591  1.00  0.00     0.049 A 
ATOM     51  C   UNL A   1      42.423  27.431  29.976  1.00  0.00     0.074 A 
ATOM     52  C   UNL A   1      41.666  30.024  35.732  1.00  0.00     0.029 A 
ATOM     53  N   UNL A   1      41.485  29.495  33.580  1.00  0.00    -0.354 N 
ATOM     54  N   UNL A   1      42.195  28.027  31.125  1.00  0.00    -0.248 NA
ATOM     55  C   UNL A   1      43.613  26.571  29.973  1.00  0.00     0.031 C 
ATOM     56  C   UNL A   1      42.726  29.176  35.393  1.00  0.00     0.029 A 
ATOM     57  C   UNL A   1      42.592  28.813  34.061  1.00  0.00     0.049 A 
ATOM     58  H   UNL A   1      41.147  29.441  32.657  1.00  0.00     0.167 HD
ATOM     59  C   UNL A   1      43.195  27.586  31.988  1.00  0.00     0.074 A 
ATOM     60  C   UNL A   1      44.017  26.665  31.231  1.00  0.00     0.031 C 
ATOM     61  C   UNL A   1      43.411  27.906  33.291  1.00  0.00     0.034 A 
BRANCH  48  62
ATOM     62  C   UNL A   1      39.346  31.991  35.595  1.00  0.00     0.023 A 
ATOM     63  C   UNL A   1      38.631  31.457  36.682  1.00  0.00     0.031 A 
ATOM     64  C   UNL A   1      39.624  33.370  35.606  1.00  0.00     0.131 A 
ATOM     65  C   UNL A   1      38.161  32.306  37.696  1.00  0.00     0.055 A 
ATOM     66  C   UNL A   1      39.224  34.195  36.658  1.00  0.00     0.041 A 
ATOM     67  F   UNL A   1      40.279  33.943  34.584  1.00  0.00    -0.206 F 
ATOM     68  C   UNL A   1      38.476  33.667  37.705  1.00  0.00     0.022 A 
BRANCH  65  69
ATOM     69  S   UNL A   1      37.009  31.636  38.926  1.00  0.00     0.124 S 
ATOM     70  O   UNL A   1      35.885  32.564  38.814  1.00  0.00    -0.237 OA
ATOM     71  O   UNL A   1      36.772  30.284  38.432  1.00  0.00    -0.237 OA
ATOM     72  O   UNL A   1      37.755  31.722  40.178  1.00  0.00    -0.744 OA
ENDBRANCH  65  69
ENDBRANCH  48  62
BRANCH  49  73
ATOM     73  C   UNL A   1      42.076  26.751  27.483  1.00  0.00     0.023 A 
ATOM     74  C   UNL A   1      41.836  25.375  27.354  1.00  0.00     0.031 A 
ATOM     75  C   UNL A   1      42.800  27.392  26.459  1.00  0.00     0.131 A 
ATOM     76  C   UNL A   1      42.356  24.673  26.255  1.00  0.00     0.055 A 
ATOM     77  C   UNL A   1      43.264  26.702  25.339  1.00  0.00     0.041 A 
ATOM     78  F   UNL A   1      43.061  28.707  26.533  1.00  0.00    -0.206 F 
ATOM     79  C   UNL A   1      43.055  25.330  25.239  1.00  0.00     0.022 A 
BRANCH  76  80
ATOM     80  S   UNL A   1      42.187  22.868  26.218  1.00  0.00     0.124 S 
ATOM     81  O   UNL A   1      40.745  22.703  26.359  1.00  0.00    -0.237 OA
ATOM     82  O   UNL A   1      42.746  22.539  24.911  1.00  0.00    -0.237 OA
ATOM     83  O   UNL A   1      42.982  22.428  27.363  1.00  0.00    -0.744 OA
ENDBRANCH  76  80
ENDBRANCH  49  73
BRANCH  61  84
ATOM     84  C   UNL A   1      44.556  27.212  33.990  1.00  0.00     0.023 A 
ATOM     85  C   UNL A   1      44.402  25.957  34.606  1.00  0.00     0.031 A 
ATOM     86  C   UNL A   1      45.823  27.824  34.046  1.00  0.00     0.131 A 
ATOM     87  C   UNL A   1      45.478  25.383  35.300  1.00  0.00     0.055 A 
ATOM     88  C   UNL A   1      46.907  27.216  34.681  1.00  0.00     0.041 A 
ATOM     89  F   UNL A   1      46.028  29.023  33.478  1.00  0.00    -0.206 F 
ATOM     90  C   UNL A   1      46.734  25.995  35.325  1.00  0.00     0.022 A 
BRANCH  87  91
ATOM     91  S   UNL A   1      45.188  23.868  36.255  1.00  0.00     0.124 S 
ATOM     92  O   UNL A   1      44.069  23.266  35.537  1.00  0.00    -0.237 OA
ATOM     93  O   UNL A   1      46.467  23.175  36.138  1.00  0.00    -0.237 OA
ATOM     94  O   UNL A   1      44.872  24.362  37.594  1.00  0.00    -0.744 OA
ENDBRANCH  87  91
ENDBRANCH  61  84
ENDBRANCH  35  36
ENDBRANCH  28  30
ENDBRANCH  27  28
ENDBRANCH  26  27
ENDBRANCH   1  26
TORSDOF 19
ENDMDL
MODEL 2
REMARK VINA RESULT:     -11.4      2.052      2.594
REMARK SMILES C[C@@H]1[NH2+]CC[C@H]1C(=O)N[C@@H]1CCC[C@H](C(=O)OCCOCCOC(=O)c2ccc(-c3c4nc(c(-c5cc(S(=O)(=O)[O-])ccc5F)c5ccc([nH]5)c(-c5cc(S(=O)(=O)[O-])ccc5F)c5nc(c(-c6cc(S(=O)(=O)[O-])ccc6F)c6ccc3[nH]6)C=C5)C=C4)cc2)C1
REMARK SMILES IDX 21 1 20 2 19 3 18 4 17 5 15 6 16 7 14 8 10 9 11 10 89 11
REMARK SMILES IDX 12 12 13 13 9 14 7 15 8 16 6 18 1 19 2 20 3 21 4 22 5 25
REMARK SMILES IDX 22 26 23 27 24 28 25 29 26 30 27 31 88 32 28 33 87 34 29 35
REMARK SMILES IDX 30 36 31 37 81 38 32 39 86 40 80 41 82 42 33 43 85 44 79 45
REMARK SMILES IDX 78 46 34 48 66 49 46 50 65 51 47 52 50 53 64 54 83 55 48 56
REMARK SMILES IDX 49 57 63 59 84 60 51 61 35 62 36 63 44 64 37 65 43 66 45 67
REMARK SMILES IDX 42 68 38 69 39 70 40 71 41 72 67 73 68 74 76 75 69 76 75 77
REMARK SMILES IDX 77 78 74 79 70 80 71 81 72 82 73 83 52 84 53 85 61 86 54 87
REMARK SMILES IDX 60 88 62 89 59 90 55 91 56 92 57 93 58 94
REMARK H PARENT 9 17 3 23 3 24 82 47 50 58
REMARK Flexibility Score: inf
ROOT
ATOM      1  C   UNL A   1      31.299  31.845  26.535  1.00  0.00     0.202 C 
ENDROOT
BRANCH   1   2
ATOM      2  O   UNL A   1      32.106  30.805  25.991  1.00  0.00    -0.374 OA
BRANCH   2   3
ATOM      3  C   UNL A   1      31.869  29.462  26.402  1.00  0.00     0.202 C 
BRANCH   3   4
ATOM      4  C   UNL A   1      31.430  28.464  25.335  1.00  0.00     0.261 C 
BRANCH   4   5
ATOM      5  O   UNL A   1      31.035  27.197  25.886  1.00  0.00    -0.463 OA
BRANCH   5   6
ATOM      6  C   UNL A   1      32.035  26.286  26.009  1.00  0.00     0.309 C 
ATOM      7  O   UNL A   1      33.079  26.457  26.628  1.00  0.00    -0.252 OA
BRANCH   6   8
ATOM      8  C   UNL A   1      31.804  25.063  25.153  1.00  0.00     0.101 C 
ATOM      9  C   UNL A   1      33.266  23.530  23.771  1.00  0.00     0.082 C 
ATOM     10  C   UNL A   1      32.096  23.379  22.770  1.00  0.00     0.025 C 
ATOM     11  C   UNL A   1      33.119  24.858  24.447  1.00  0.00     0.040 C 
ATOM     12  C   UNL A   1      30.714  23.751  23.349  1.00  0.00     0.003 C 
ATOM     13  C   UNL A   1      30.698  25.088  24.111  1.00  0.00     0.015 C 
BRANCH   9  14
ATOM     14  N   UNL A   1      34.569  23.405  23.096  1.00  0.00    -0.353 N 
ATOM     15  C   UNL A   1      35.828  23.003  23.419  1.00  0.00     0.229 C 
ATOM     16  O   UNL A   1      36.577  22.856  22.439  1.00  0.00    -0.275 OA
ATOM     17  H   UNL A   1      34.513  23.690  22.155  1.00  0.00     0.163 HD
BRANCH  15  18
ATOM     18  C   UNL A   1      36.412  22.714  24.814  1.00  0.00     0.142 C 
ATOM     19  C   UNL A   1      37.433  20.366  25.052  1.00  0.00     0.076 C 
ATOM     20  C   UNL A   1      37.679  21.861  24.886  1.00  0.00     0.192 C 
ATOM     21  N   UNL A   1      38.419  22.333  26.063  1.00  0.00    -0.343 N 
ATOM     22  C   UNL A   1      37.991  23.686  26.397  1.00  0.00     0.261 C 
ATOM     23  H   UNL A   1      39.418  22.334  25.858  1.00  0.00     0.346 HD
ATOM     24  H   UNL A   1      38.233  21.714  26.852  1.00  0.00     0.346 HD
ATOM     25  C   UNL A   1      36.672  23.942  25.681  1.00  0.00     0.081 C 
ENDBRANCH  15  18
ENDBRANCH   9  14
ENDBRANCH   6   8
ENDBRANCH   5   6
ENDBRANCH   4   5
ENDBRANCH   3   4
ENDBRANCH   2   3
ENDBRANCH   1   2
BRANCH   1  26
ATOM     26  C   UNL A   1      31.921  33.227  26.748  1.00  0.00     0.261 C 
BRANCH  26  27
ATOM     27  O   UNL A   1      32.374  33.452  28.092  1.00  0.00    -0.460 OA
BRANCH  27  28
ATOM     28  C   UNL A   1      33.507  34.190  28.165  1.00  0.00     0.338 C 
ATOM     29  O   UNL A   1      33.578  35.416  28.211  1.00  0.00    -0.246 OA
BRANCH  28  30
ATOM     30  C   UNL A   1      34.684  33.331  28.372  1.00  0.00     0.060 A 
ATOM     31  C   UNL A   1      34.467  32.085  28.977  1.00  0.00     0.016 A 
ATOM     32  C   UNL A   1      35.980  33.766  28.086  1.00  0.00     0.016 A 
ATOM     33  C   UNL A   1      35.547  31.305  29.375  1.00  0.00     0.010 A 
ATOM     34  C   UNL A   1      37.066  32.982  28.493  1.00  0.00     0.010 A 
ATOM     35  C   UNL A   1      36.852  31.776  29.186  1.00  0.00    -0.014 A 
BRANCH  35  36
ATOM     36  C   UNL A   1      37.968  31.098  29.888  1.00  0.00     0.031 A 
ATOM     37  C   UNL A   1      38.232  31.450  31.329  1.00  0.00     0.074 A 
ATOM     38  C   UNL A   1      38.694  30.146  29.276  1.00  0.00     0.049 A 
ATOM     39  N   UNL A   1      39.164  31.013  32.136  1.00  0.00    -0.248 NA
ATOM     40  C   UNL A   1      37.321  32.432  31.938  1.00  0.00     0.031 C 
ATOM     41  C   UNL A   1      38.483  29.679  27.906  1.00  0.00     0.029 A 
ATOM     42  N   UNL A   1      39.752  29.401  29.728  1.00  0.00    -0.354 N 
ATOM     43  C   UNL A   1      38.958  31.672  33.344  1.00  0.00     0.074 A 
ATOM     44  C   UNL A   1      37.837  32.565  33.151  1.00  0.00     0.031 C 
ATOM     45  C   UNL A   1      39.390  28.726  27.629  1.00  0.00     0.029 A 
ATOM     46  C   UNL A   1      40.269  28.548  28.782  1.00  0.00     0.049 A 
ATOM     47  H   UNL A   1      40.107  29.470  30.643  1.00  0.00     0.167 HD
ATOM     48  C   UNL A   1      39.639  31.535  34.509  1.00  0.00     0.034 A 
ATOM     49  C   UNL A   1      41.345  27.737  28.836  1.00  0.00     0.034 A 
ATOM     50  C   UNL A   1      40.756  30.639  34.681  1.00  0.00     0.049 A 
ATOM     51  C   UNL A   1      42.147  27.674  30.114  1.00  0.00     0.074 A 
ATOM     52  C   UNL A   1      41.508  30.407  35.819  1.00  0.00     0.029 A 
ATOM     53  N   UNL A   1      41.293  29.836  33.682  1.00  0.00    -0.354 N 
ATOM     54  N   UNL A   1      41.944  28.300  31.251  1.00  0.00    -0.248 NA
ATOM     55  C   UNL A   1      43.319  26.789  30.118  1.00  0.00     0.031 C 
ATOM     56  C   UNL A   1      42.545  29.528  35.488  1.00  0.00     0.029 A 
ATOM     57  C   UNL A   1      42.390  29.140  34.166  1.00  0.00     0.049 A 
ATOM     58  H   UNL A   1      40.944  29.770  32.763  1.00  0.00     0.167 HD
ATOM     59  C   UNL A   1      42.944  27.856  32.114  1.00  0.00     0.074 A 
ATOM     60  C   UNL A   1      43.738  26.900  31.369  1.00  0.00     0.031 C 
ATOM     61  C   UNL A   1      43.180  28.199  33.407  1.00  0.00     0.034 A 
BRANCH  48  62
ATOM     62  C   UNL A   1      39.230  32.422  35.663  1.00  0.00     0.023 A 
ATOM     63  C   UNL A   1      39.647  33.761  35.761  1.00  0.00     0.031 A 
ATOM     64  C   UNL A   1      38.430  31.906  36.699  1.00  0.00     0.131 A 
ATOM     65  C   UNL A   1      39.322  34.514  36.900  1.00  0.00     0.055 A 
ATOM     66  C   UNL A   1      38.041  32.685  37.788  1.00  0.00     0.041 A 
ATOM     67  F   UNL A   1      38.022  30.627  36.674  1.00  0.00    -0.206 F 
ATOM     68  C   UNL A   1      38.499  33.994  37.901  1.00  0.00     0.022 A 
BRANCH  65  69
ATOM     69  S   UNL A   1      40.109  36.133  37.125  1.00  0.00     0.124 S 
ATOM     70  O   UNL A   1      39.909  36.743  35.811  1.00  0.00    -0.237 OA
ATOM     71  O   UNL A   1      39.337  36.709  38.220  1.00  0.00    -0.237 OA
ATOM     72  O   UNL A   1      41.495  35.799  37.444  1.00  0.00    -0.744 OA
ENDBRANCH  65  69
ENDBRANCH  48  62
BRANCH  49  73
ATOM     73  C   UNL A   1      41.759  26.949  27.639  1.00  0.00     0.023 A 
ATOM     74  C   UNL A   1      41.695  25.548  27.633  1.00  0.00     0.031 A 
ATOM     75  C   UNL A   1      42.282  27.590  26.499  1.00  0.00     0.131 A 
ATOM     76  C   UNL A   1      42.189  24.829  26.533  1.00  0.00     0.055 A 
ATOM     77  C   UNL A   1      42.717  26.873  25.384  1.00  0.00     0.041 A 
ATOM     78  F   UNL A   1      42.369  28.929  26.452  1.00  0.00    -0.206 F 
ATOM     79  C   UNL A   1      42.685  25.483  25.403  1.00  0.00     0.022 A 
BRANCH  76  80
ATOM     80  S   UNL A   1      42.261  23.020  26.640  1.00  0.00     0.124 S 
ATOM     81  O   UNL A   1      42.186  22.637  25.235  1.00  0.00    -0.237 OA
ATOM     82  O   UNL A   1      43.548  22.808  27.296  1.00  0.00    -0.237 OA
ATOM     83  O   UNL A   1      41.090  22.680  27.445  1.00  0.00    -0.744 OA
ENDBRANCH  76  80
ENDBRANCH  49  73
BRANCH  61  84
ATOM     84  C   UNL A   1      44.318  27.495  34.109  1.00  0.00     0.023 A 
ATOM     85  C   UNL A   1      44.125  26.302  34.828  1.00  0.00     0.031 A 
ATOM     86  C   UNL A   1      45.617  28.035  34.065  1.00  0.00     0.131 A 
ATOM     87  C   UNL A   1      45.198  25.720  35.519  1.00  0.00     0.055 A 
ATOM     88  C   UNL A   1      46.695  27.416  34.699  1.00  0.00     0.041 A 
ATOM     89  F   UNL A   1      45.861  29.174  33.396  1.00  0.00    -0.206 F 
ATOM     90  C   UNL A   1      46.486  26.259  35.443  1.00  0.00     0.022 A 
BRANCH  87  91
ATOM     91  S   UNL A   1      44.871  24.301  36.601  1.00  0.00     0.124 S 
ATOM     92  O   UNL A   1      46.207  23.986  37.099  1.00  0.00    -0.237 OA
ATOM     93  O   UNL A   1      43.942  24.860  37.577  1.00  0.00    -0.237 OA
ATOM     94  O   UNL A   1      44.296  23.306  35.697  1.00  0.00    -0.744 OA
ENDBRANCH  87  91
ENDBRANCH  61  84
ENDBRANCH  35  36
ENDBRANCH  28  30
ENDBRANCH  27  28
ENDBRANCH  26  27
ENDBRANCH   1  26
TORSDOF 19
ENDMDL
MODEL 3
REMARK VINA RESULT:     -11.2      4.958     10.489
REMARK SMILES C[C@@H]1[NH2+]CC[C@H]1C(=O)N[C@@H]1CCC[C@H](C(=O)OCCOCCOC(=O)c2ccc(-c3c4nc(c(-c5cc(S(=O)(=O)[O-])ccc5F)c5ccc([nH]5)c(-c5cc(S(=O)(=O)[O-])ccc5F)c5nc(c(-c6cc(S(=O)(=O)[O-])ccc6F)c6ccc3[nH]6)C=C5)C=C4)cc2)C1
REMARK SMILES IDX 21 1 20 2 19 3 18 4 17 5 15 6 16 7 14 8 10 9 11 10 89 11
REMARK SMILES IDX 12 12 13 13 9 14 7 15 8 16 6 18 1 19 2 20 3 21 4 22 5 25
REMARK SMILES IDX 22 26 23 27 24 28 25 29 26 30 27 31 88 32 28 33 87 34 29 35
REMARK SMILES IDX 30 36 31 37 81 38 32 39 86 40 80 41 82 42 33 43 85 44 79 45
REMARK SMILES IDX 78 46 34 48 66 49 46 50 65 51 47 52 50 53 64 54 83 55 48 56
REMARK SMILES IDX 49 57 63 59 84 60 51 61 35 62 36 63 44 64 37 65 43 66 45 67
REMARK SMILES IDX 42 68 38 69 39 70 40 71 41 72 67 73 68 74 76 75 69 76 75 77
REMARK SMILES IDX 77 78 74 79 70 80 71 81 72 82 73 83 52 84 53 85 61 86 54 87
REMARK SMILES IDX 60 88 62 89 59 90 55 91 56 92 57 93 58 94
REMARK H PARENT 9 17 3 23 3 24 82 47 50 58
REMARK Flexibility Score: inf
ROOT
ATOM      1  C   UNL A   1      37.003  19.516  24.964  1.00  0.00     0.202 C 
ENDROOT
BRANCH   1   2
ATOM      2  O   UNL A   1      36.066  20.582  25.090  1.00  0.00    -0.374 OA
BRANCH   2   3
ATOM      3  C   UNL A   1      34.701  20.342  24.766  1.00  0.00     0.202 C 
BRANCH   3   4
ATOM      4  C   UNL A   1      33.765  21.547  24.715  1.00  0.00     0.261 C 
BRANCH   4   5
ATOM      5  O   UNL A   1      34.388  22.756  25.175  1.00  0.00    -0.463 OA
BRANCH   5   6
ATOM      6  C   UNL A   1      34.033  23.880  24.500  1.00  0.00     0.309 C 
ATOM      7  O   UNL A   1      34.264  24.100  23.316  1.00  0.00    -0.252 OA
BRANCH   6   8
ATOM      8  C   UNL A   1      33.448  24.934  25.410  1.00  0.00     0.101 C 
ATOM      9  C   UNL A   1      31.150  25.925  25.772  1.00  0.00     0.082 C 
ATOM     10  C   UNL A   1      31.824  27.285  26.074  1.00  0.00     0.025 C 
ATOM     11  C   UNL A   1      32.060  25.155  24.868  1.00  0.00     0.040 C 
ATOM     12  C   UNL A   1      33.316  27.179  26.461  1.00  0.00     0.003 C 
ATOM     13  C   UNL A   1      34.141  26.282  25.522  1.00  0.00     0.015 C 
BRANCH   9  14
ATOM     14  N   UNL A   1      29.817  26.110  25.173  1.00  0.00    -0.353 N 
ATOM     15  C   UNL A   1      29.291  26.701  24.066  1.00  0.00     0.229 C 
ATOM     16  O   UNL A   1      28.104  26.408  23.853  1.00  0.00    -0.275 OA
ATOM     17  H   UNL A   1      29.115  25.693  25.725  1.00  0.00     0.163 HD
BRANCH  15  18
ATOM     18  C   UNL A   1      29.979  27.659  23.075  1.00  0.00     0.142 C 
ATOM     19  C   UNL A   1      29.153  30.089  23.229  1.00  0.00     0.076 C 
ATOM     20  C   UNL A   1      30.254  29.086  23.551  1.00  0.00     0.192 C 
ATOM     21  N   UNL A   1      31.475  29.516  22.858  1.00  0.00    -0.343 N 
ATOM     22  C   UNL A   1      32.226  28.345  22.423  1.00  0.00     0.261 C 
ATOM     23  H   UNL A   1      32.049  30.070  23.494  1.00  0.00     0.346 HD
ATOM     24  H   UNL A   1      31.225  30.080  22.046  1.00  0.00     0.346 HD
ATOM     25  C   UNL A   1      31.284  27.149  22.472  1.00  0.00     0.081 C 
ENDBRANCH  15  18
ENDBRANCH   9  14
ENDBRANCH   6   8
ENDBRANCH   5   6
ENDBRANCH   4   5
ENDBRANCH   3   4
ENDBRANCH   2   3
ENDBRANCH   1   2
BRANCH   1  26
ATOM     26  C   UNL A   1      38.491  19.813  25.161  1.00  0.00     0.261 C 
BRANCH  26  27
ATOM     27  O   UNL A   1      38.744  21.068  25.811  1.00  0.00    -0.460 OA
BRANCH  27  28
ATOM     28  C   UNL A   1      39.998  21.175  26.313  1.00  0.00     0.338 C 
ATOM     29  O   UNL A   1      40.932  20.402  26.114  1.00  0.00    -0.246 OA
BRANCH  28  30
ATOM     30  C   UNL A   1      40.183  22.462  27.003  1.00  0.00     0.060 A 
ATOM     31  C   UNL A   1      39.457  23.558  26.516  1.00  0.00     0.016 A 
ATOM     32  C   UNL A   1      41.117  22.627  28.028  1.00  0.00     0.016 A 
ATOM     33  C   UNL A   1      39.722  24.837  26.992  1.00  0.00     0.010 A 
ATOM     34  C   UNL A   1      41.386  23.916  28.501  1.00  0.00     0.010 A 
ATOM     35  C   UNL A   1      40.727  25.030  27.947  1.00  0.00    -0.014 A 
BRANCH  35  36
ATOM     36  C   UNL A   1      41.214  26.405  28.209  1.00  0.00     0.031 A 
ATOM     37  C   UNL A   1      42.612  26.768  27.782  1.00  0.00     0.074 A 
ATOM     38  C   UNL A   1      40.409  27.330  28.761  1.00  0.00     0.049 A 
ATOM     39  N   UNL A   1      43.262  27.893  27.930  1.00  0.00    -0.248 NA
ATOM     40  C   UNL A   1      43.380  25.716  27.097  1.00  0.00     0.031 C 
ATOM     41  C   UNL A   1      39.017  27.107  29.153  1.00  0.00     0.029 A 
ATOM     42  N   UNL A   1      40.646  28.640  29.086  1.00  0.00    -0.354 N 
ATOM     43  C   UNL A   1      44.517  27.682  27.367  1.00  0.00     0.074 A 
ATOM     44  C   UNL A   1      44.548  26.310  26.909  1.00  0.00     0.031 C 
ATOM     45  C   UNL A   1      38.525  28.247  29.670  1.00  0.00     0.029 A 
ATOM     46  C   UNL A   1      39.576  29.262  29.685  1.00  0.00     0.049 A 
ATOM     47  H   UNL A   1      41.501  29.094  28.907  1.00  0.00     0.167 HD
ATOM     48  C   UNL A   1      45.545  28.558  27.238  1.00  0.00     0.034 A 
ATOM     49  C   UNL A   1      39.469  30.499  30.210  1.00  0.00     0.034 A 
ATOM     50  C   UNL A   1      45.495  29.922  27.702  1.00  0.00     0.049 A 
ATOM     51  C   UNL A   1      40.661  31.425  30.141  1.00  0.00     0.074 A 
ATOM     52  C   UNL A   1      46.469  30.901  27.609  1.00  0.00     0.029 A 
ATOM     53  N   UNL A   1      44.417  30.499  28.363  1.00  0.00    -0.354 N 
ATOM     54  N   UNL A   1      41.842  31.217  29.606  1.00  0.00    -0.248 NA
ATOM     55  C   UNL A   1      40.500  32.756  30.740  1.00  0.00     0.031 C 
ATOM     56  C   UNL A   1      46.012  32.040  28.281  1.00  0.00     0.029 A 
ATOM     57  C   UNL A   1      44.717  31.805  28.718  1.00  0.00     0.049 A 
ATOM     58  H   UNL A   1      43.563  30.046  28.550  1.00  0.00     0.167 HD
ATOM     59  C   UNL A   1      42.551  32.404  29.775  1.00  0.00     0.074 A 
ATOM     60  C   UNL A   1      41.660  33.326  30.448  1.00  0.00     0.031 C 
ATOM     61  C   UNL A   1      43.821  32.709  29.401  1.00  0.00     0.034 A 
BRANCH  48  62
ATOM     62  C   UNL A   1      46.827  28.042  26.625  1.00  0.00     0.023 A 
ATOM     63  C   UNL A   1      47.087  28.138  25.246  1.00  0.00     0.031 A 
ATOM     64  C   UNL A   1      47.793  27.417  27.433  1.00  0.00     0.131 A 
ATOM     65  C   UNL A   1      48.248  27.558  24.711  1.00  0.00     0.055 A 
ATOM     66  C   UNL A   1      48.984  26.916  26.906  1.00  0.00     0.041 A 
ATOM     67  F   UNL A   1      47.589  27.271  28.753  1.00  0.00    -0.206 F 
ATOM     68  C   UNL A   1      49.211  26.971  25.535  1.00  0.00     0.022 A 
BRANCH  65  69
ATOM     69  S   UNL A   1      48.414  27.451  22.908  1.00  0.00     0.124 S 
ATOM     70  O   UNL A   1      47.216  28.160  22.459  1.00  0.00    -0.237 OA
ATOM     71  O   UNL A   1      49.684  28.127  22.667  1.00  0.00    -0.237 OA
ATOM     72  O   UNL A   1      48.412  26.014  22.648  1.00  0.00    -0.744 OA
ENDBRANCH  65  69
ENDBRANCH  48  62
BRANCH  49  73
ATOM     73  C   UNL A   1      38.210  30.929  30.884  1.00  0.00     0.023 A 
ATOM     74  C   UNL A   1      37.220  31.640  30.190  1.00  0.00     0.031 A 
ATOM     75  C   UNL A   1      38.005  30.682  32.255  1.00  0.00     0.131 A 
ATOM     76  C   UNL A   1      36.094  32.123  30.875  1.00  0.00     0.055 A 
ATOM     77  C   UNL A   1      36.856  31.113  32.919  1.00  0.00     0.041 A 
ATOM     78  F   UNL A   1      38.922  30.009  32.969  1.00  0.00    -0.206 F 
ATOM     79  C   UNL A   1      35.898  31.850  32.231  1.00  0.00     0.022 A 
BRANCH  76  80
ATOM     80  S   UNL A   1      34.931  33.195  29.988  1.00  0.00     0.124 S 
ATOM     81  O   UNL A   1      34.199  32.230  29.176  1.00  0.00    -0.237 OA
ATOM     82  O   UNL A   1      34.187  33.806  31.085  1.00  0.00    -0.237 OA
ATOM     83  O   UNL A   1      35.804  34.103  29.246  1.00  0.00    -0.744 OA
ENDBRANCH  76  80
ENDBRANCH  49  73
BRANCH  61  84
ATOM     84  C   UNL A   1      44.299  34.117  29.670  1.00  0.00     0.023 A 
ATOM     85  C   UNL A   1      44.115  35.156  28.741  1.00  0.00     0.031 A 
ATOM     86  C   UNL A   1      44.958  34.419  30.876  1.00  0.00     0.131 A 
ATOM     87  C   UNL A   1      44.635  36.432  29.007  1.00  0.00     0.055 A 
ATOM     88  C   UNL A   1      45.414  35.706  31.165  1.00  0.00     0.041 A 
ATOM     89  F   UNL A   1      45.165  33.467  31.800  1.00  0.00    -0.206 F 
ATOM     90  C   UNL A   1      45.266  36.718  30.221  1.00  0.00     0.022 A 
BRANCH  87  91
ATOM     91  S   UNL A   1      44.562  37.691  27.704  1.00  0.00     0.124 S 
ATOM     92  O   UNL A   1      44.563  38.929  28.478  1.00  0.00    -0.237 OA
ATOM     93  O   UNL A   1      45.773  37.419  26.937  1.00  0.00    -0.237 OA
ATOM     94  O   UNL A   1      43.310  37.395  27.010  1.00  0.00    -0.744 OA
ENDBRANCH  87  91
ENDBRANCH  61  84
ENDBRANCH  35  36
ENDBRANCH  28  30
ENDBRANCH  27  28
ENDBRANCH  26  27
ENDBRANCH   1  26
TORSDOF 19
ENDMDL
