MODEL 1
REMARK VINA RESULT:     -10.8      0.000      0.000
REMARK SMILES CCN(CC)c1ccc(NS(=O)(=O)c2ccc(Cl)s2)cc1C(=O)OCCOCCOC(=O)c1ccc(-c2c3nc(c(-c4cc(S(=O)(=O)[O-])ccc4F)c4ccc([nH]4)c(-c4cc(S(=O)(=O)[O-])ccc4F)c4nc(c(-c5cc(S(=O)(=O)[O-])ccc5F)c5ccc2[nH]5)C=C4)C=C3)cc1
REMARK SMILES IDX 27 1 26 2 25 3 24 4 22 5 23 6 21 7 6 8 7 9 8 10 20 11 9 12
REMARK SMILES IDX 3 13 2 14 1 15 4 16 5 17 10 18 11 20 12 21 13 22 14 23 15 24
REMARK SMILES IDX 19 25 16 26 17 27 18 28 28 29 29 30 30 31 31 32 32 33 33 34
REMARK SMILES IDX 34 35 95 36 35 37 94 38 36 39 37 40 38 41 88 42 39 43 93 44
REMARK SMILES IDX 87 45 89 46 40 47 92 48 86 49 85 50 41 52 73 53 53 54 72 55
REMARK SMILES IDX 54 56 57 57 71 58 90 59 55 60 56 61 70 63 91 64 58 65 42 66
REMARK SMILES IDX 43 67 51 68 44 69 50 70 52 71 49 72 45 73 46 74 47 75 48 76
REMARK SMILES IDX 74 77 75 78 83 79 76 80 82 81 84 82 81 83 77 84 78 85 79 86
REMARK SMILES IDX 80 87 59 88 60 89 68 90 61 91 67 92 69 93 66 94 62 95 63 96
REMARK SMILES IDX 64 97 65 98
REMARK H PARENT 10 19 89 51 57 62
REMARK Flexibility Score: inf
ROOT
ATOM      1  O   UNL A   1      31.506  30.533  26.301  1.00  0.00    -0.374 OA
ENDROOT
BRANCH   1   2
ATOM      2  C   UNL A   1      32.370  29.773  27.144  1.00  0.00     0.202 C 
BRANCH   2   3
ATOM      3  C   UNL A   1      31.953  28.328  27.432  1.00  0.00     0.261 C 
BRANCH   3   4
ATOM      4  O   UNL A   1      32.352  27.431  26.377  1.00  0.00    -0.460 OA
BRANCH   4   5
ATOM      5  C   UNL A   1      31.382  26.585  25.950  1.00  0.00     0.340 C 
ATOM      6  O   UNL A   1      30.322  26.356  26.515  1.00  0.00    -0.246 OA
BRANCH   5   7
ATOM      7  C   UNL A   1      31.635  26.107  24.572  1.00  0.00     0.085 A 
ATOM      8  C   UNL A   1      31.870  26.945  23.466  1.00  0.00     0.051 A 
ATOM      9  C   UNL A   1      32.165  26.289  22.265  1.00  0.00     0.029 A 
ATOM     10  C   UNL A   1      32.090  24.908  22.118  1.00  0.00     0.029 A 
ATOM     11  C   UNL A   1      31.615  24.688  24.435  1.00  0.00     0.044 A 
ATOM     12  C   UNL A   1      31.832  24.086  23.197  1.00  0.00     0.050 A 
BRANCH   8  13
ATOM     13  N   UNL A   1      31.795  28.330  23.446  1.00  0.00    -0.371 N 
BRANCH  13  14
ATOM     14  C   UNL A   1      30.508  29.026  23.519  1.00  0.00     0.113 C 
ATOM     15  C   UNL A   1      29.342  28.111  23.181  1.00  0.00     0.027 C 
ENDBRANCH  13  14
BRANCH  13  16
ATOM     16  C   UNL A   1      33.017  29.125  23.688  1.00  0.00     0.113 C 
ATOM     17  C   UNL A   1      34.200  28.722  22.805  1.00  0.00     0.027 C 
ENDBRANCH  13  16
ENDBRANCH   8  13
BRANCH  12  18
ATOM     18  N   UNL A   1      31.622  22.681  22.996  1.00  0.00    -0.279 N 
ATOM     19  H   UNL A   1      30.979  22.373  22.318  1.00  0.00     0.180 HD
BRANCH  18  20
ATOM     20  S   UNL A   1      32.482  21.545  23.930  1.00  0.00     0.271 S 
ATOM     21  O   UNL A   1      31.972  21.631  25.282  1.00  0.00    -0.200 OA
ATOM     22  O   UNL A   1      32.442  20.289  23.209  1.00  0.00    -0.200 OA
BRANCH  20  23
ATOM     23  C   UNL A   1      34.200  21.984  24.077  1.00  0.00     0.141 A 
ATOM     24  C   UNL A   1      34.967  22.903  23.378  1.00  0.00     0.036 A 
ATOM     25  S   UNL A   1      35.158  21.099  25.197  1.00  0.00    -0.110 S 
ATOM     26  C   UNL A   1      36.360  22.761  23.646  1.00  0.00     0.034 A 
ATOM     27  C   UNL A   1      36.581  21.786  24.583  1.00  0.00     0.094 A 
ATOM     28  Cl  UNL A   1      38.109  21.225  25.129  1.00  0.00    -0.072 Cl
ENDBRANCH  20  23
ENDBRANCH  18  20
ENDBRANCH  12  18
ENDBRANCH   5   7
ENDBRANCH   4   5
ENDBRANCH   3   4
ENDBRANCH   2   3
ENDBRANCH   1   2
BRANCH   1  29
ATOM     29  C   UNL A   1      31.278  31.893  26.650  1.00  0.00     0.202 C 
BRANCH  29  30
ATOM     30  C   UNL A   1      32.500  32.801  26.866  1.00  0.00     0.261 C 
BRANCH  30  31
ATOM     31  O   UNL A   1      32.389  33.752  27.941  1.00  0.00    -0.460 OA
BRANCH  31  32
ATOM     32  C   UNL A   1      33.532  34.439  28.199  1.00  0.00     0.338 C 
ATOM     33  O   UNL A   1      33.671  35.650  28.230  1.00  0.00    -0.246 OA
BRANCH  32  34
ATOM     34  C   UNL A   1      34.637  33.518  28.525  1.00  0.00     0.060 A 
ATOM     35  C   UNL A   1      34.356  32.359  29.258  1.00  0.00     0.016 A 
ATOM     36  C   UNL A   1      35.958  33.893  28.277  1.00  0.00     0.016 A 
ATOM     37  C   UNL A   1      35.399  31.588  29.775  1.00  0.00     0.010 A 
ATOM     38  C   UNL A   1      37.003  33.118  28.797  1.00  0.00     0.010 A 
ATOM     39  C   UNL A   1      36.731  31.980  29.577  1.00  0.00    -0.014 A 
BRANCH  39  40
ATOM     40  C   UNL A   1      37.835  31.273  30.284  1.00  0.00     0.031 A 
ATOM     41  C   UNL A   1      38.171  31.653  31.702  1.00  0.00     0.074 A 
ATOM     42  C   UNL A   1      38.524  30.291  29.673  1.00  0.00     0.049 A 
ATOM     43  N   UNL A   1      39.138  31.221  32.472  1.00  0.00    -0.248 NA
ATOM     44  C   UNL A   1      37.303  32.656  32.334  1.00  0.00     0.031 C 
ATOM     45  C   UNL A   1      38.264  29.795  28.322  1.00  0.00     0.029 A 
ATOM     46  N   UNL A   1      39.588  29.540  30.108  1.00  0.00    -0.354 N 
ATOM     47  C   UNL A   1      38.996  31.898  33.680  1.00  0.00     0.074 A 
ATOM     48  C   UNL A   1      37.874  32.801  33.521  1.00  0.00     0.031 C 
ATOM     49  C   UNL A   1      39.152  28.826  28.037  1.00  0.00     0.029 A 
ATOM     50  C   UNL A   1      40.070  28.666  29.163  1.00  0.00     0.049 A 
ATOM     51  H   UNL A   1      39.969  29.620  31.012  1.00  0.00     0.167 HD
ATOM     52  C   UNL A   1      39.722  31.770  34.819  1.00  0.00     0.034 A 
ATOM     53  C   UNL A   1      41.144  27.850  29.190  1.00  0.00     0.034 A 
ATOM     54  C   UNL A   1      40.847  30.877  34.965  1.00  0.00     0.049 A 
ATOM     55  C   UNL A   1      42.004  27.802  30.432  1.00  0.00     0.074 A 
ATOM     56  C   UNL A   1      41.651  30.674  36.075  1.00  0.00     0.029 A 
ATOM     57  N   UNL A   1      41.336  30.043  33.968  1.00  0.00    -0.354 N 
ATOM     58  N   UNL A   1      41.861  28.453  31.564  1.00  0.00    -0.248 NA
ATOM     59  C   UNL A   1      43.165  26.902  30.401  1.00  0.00     0.031 C 
ATOM     60  C   UNL A   1      42.663  29.771  35.729  1.00  0.00     0.029 A 
ATOM     61  C   UNL A   1      42.447  29.348  34.427  1.00  0.00     0.049 A 
ATOM     62  H   UNL A   1      40.951  29.956  33.067  1.00  0.00     0.167 HD
ATOM     63  C   UNL A   1      42.893  28.012  32.389  1.00  0.00     0.074 A 
ATOM     64  C   UNL A   1      43.642  27.032  31.630  1.00  0.00     0.031 C 
ATOM     65  C   UNL A   1      43.193  28.377  33.662  1.00  0.00     0.034 A 
BRANCH  52  66
ATOM     66  C   UNL A   1      39.345  32.654  35.985  1.00  0.00     0.023 A 
ATOM     67  C   UNL A   1      39.841  33.963  36.111  1.00  0.00     0.031 A 
ATOM     68  C   UNL A   1      38.491  32.176  36.996  1.00  0.00     0.131 A 
ATOM     69  C   UNL A   1      39.537  34.722  37.251  1.00  0.00     0.055 A 
ATOM     70  C   UNL A   1      38.128  32.964  38.089  1.00  0.00     0.041 A 
ATOM     71  F   UNL A   1      38.002  30.927  36.942  1.00  0.00    -0.206 F 
ATOM     72  C   UNL A   1      38.663  34.241  38.229  1.00  0.00     0.022 A 
BRANCH  69  73
ATOM     73  S   UNL A   1      40.406  36.294  37.504  1.00  0.00     0.124 S 
ATOM     74  O   UNL A   1      39.485  37.000  38.391  1.00  0.00    -0.237 OA
ATOM     75  O   UNL A   1      41.665  35.866  38.101  1.00  0.00    -0.237 OA
ATOM     76  O   UNL A   1      40.510  36.849  36.156  1.00  0.00    -0.744 OA
ENDBRANCH  69  73
ENDBRANCH  52  66
BRANCH  53  77
ATOM     77  C   UNL A   1      41.511  27.039  27.992  1.00  0.00     0.023 A 
ATOM     78  C   UNL A   1      41.278  25.655  27.954  1.00  0.00     0.031 A 
ATOM     79  C   UNL A   1      42.167  27.627  26.895  1.00  0.00     0.131 A 
ATOM     80  C   UNL A   1      41.746  24.897  26.871  1.00  0.00     0.055 A 
ATOM     81  C   UNL A   1      42.579  26.878  25.794  1.00  0.00     0.041 A 
ATOM     82  F   UNL A   1      42.417  28.947  26.880  1.00  0.00    -0.206 F 
ATOM     83  C   UNL A   1      42.383  25.500  25.784  1.00  0.00     0.022 A 
BRANCH  80  84
ATOM     84  S   UNL A   1      41.604  23.090  26.950  1.00  0.00     0.124 S 
ATOM     85  O   UNL A   1      42.681  22.750  27.873  1.00  0.00    -0.237 OA
ATOM     86  O   UNL A   1      40.246  22.918  27.456  1.00  0.00    -0.237 OA
ATOM     87  O   UNL A   1      41.811  22.672  25.565  1.00  0.00    -0.744 OA
ENDBRANCH  80  84
ENDBRANCH  53  77
BRANCH  65  88
ATOM     88  C   UNL A   1      44.349  27.671  34.329  1.00  0.00     0.023 A 
ATOM     89  C   UNL A   1      44.168  26.504  35.092  1.00  0.00     0.031 A 
ATOM     90  C   UNL A   1      45.652  28.187  34.212  1.00  0.00     0.131 A 
ATOM     91  C   UNL A   1      45.262  25.923  35.753  1.00  0.00     0.055 A 
ATOM     92  C   UNL A   1      46.746  27.570  34.822  1.00  0.00     0.041 A 
ATOM     93  F   UNL A   1      45.885  29.300  33.498  1.00  0.00    -0.206 F 
ATOM     94  C   UNL A   1      46.552  26.440  35.610  1.00  0.00     0.022 A 
BRANCH  91  95
ATOM     95  S   UNL A   1      44.962  24.533  36.880  1.00  0.00     0.124 S 
ATOM     96  O   UNL A   1      46.246  24.413  37.564  1.00  0.00    -0.237 OA
ATOM     97  O   UNL A   1      43.851  25.022  37.691  1.00  0.00    -0.237 OA
ATOM     98  O   UNL A   1      44.632  23.427  35.982  1.00  0.00    -0.744 OA
ENDBRANCH  91  95
ENDBRANCH  65  88
ENDBRANCH  39  40
ENDBRANCH  32  34
ENDBRANCH  31  32
ENDBRANCH  30  31
ENDBRANCH  29  30
ENDBRANCH   1  29
TORSDOF 23
ENDMDL
MODEL 2
REMARK VINA RESULT:     -10.7      2.091      2.343
REMARK SMILES CCN(CC)c1ccc(NS(=O)(=O)c2ccc(Cl)s2)cc1C(=O)OCCOCCOC(=O)c1ccc(-c2c3nc(c(-c4cc(S(=O)(=O)[O-])ccc4F)c4ccc([nH]4)c(-c4cc(S(=O)(=O)[O-])ccc4F)c4nc(c(-c5cc(S(=O)(=O)[O-])ccc5F)c5ccc2[nH]5)C=C4)C=C3)cc1
REMARK SMILES IDX 27 1 26 2 25 3 24 4 22 5 23 6 21 7 6 8 7 9 8 10 20 11 9 12
REMARK SMILES IDX 3 13 2 14 1 15 4 16 5 17 10 18 11 20 12 21 13 22 14 23 15 24
REMARK SMILES IDX 19 25 16 26 17 27 18 28 28 29 29 30 30 31 31 32 32 33 33 34
REMARK SMILES IDX 34 35 95 36 35 37 94 38 36 39 37 40 38 41 88 42 39 43 93 44
REMARK SMILES IDX 87 45 89 46 40 47 92 48 86 49 85 50 41 52 73 53 53 54 72 55
REMARK SMILES IDX 54 56 57 57 71 58 90 59 55 60 56 61 70 63 91 64 58 65 42 66
REMARK SMILES IDX 43 67 51 68 44 69 50 70 52 71 49 72 45 73 46 74 47 75 48 76
REMARK SMILES IDX 74 77 75 78 83 79 76 80 82 81 84 82 81 83 77 84 78 85 79 86
REMARK SMILES IDX 80 87 59 88 60 89 68 90 61 91 67 92 69 93 66 94 62 95 63 96
REMARK SMILES IDX 64 97 65 98
REMARK H PARENT 10 19 89 51 57 62
REMARK Flexibility Score: inf
ROOT
ATOM      1  O   UNL A   1      32.664  30.946  26.814  1.00  0.00    -0.374 OA
ENDROOT
BRANCH   1   2
ATOM      2  C   UNL A   1      32.538  29.752  26.043  1.00  0.00     0.202 C 
BRANCH   2   3
ATOM      3  C   UNL A   1      32.851  28.436  26.758  1.00  0.00     0.261 C 
BRANCH   3   4
ATOM      4  O   UNL A   1      32.631  27.294  25.907  1.00  0.00    -0.460 OA
BRANCH   4   5
ATOM      5  C   UNL A   1      31.510  26.582  26.186  1.00  0.00     0.340 C 
ATOM      6  O   UNL A   1      30.653  26.876  27.006  1.00  0.00    -0.246 OA
BRANCH   5   7
ATOM      7  C   UNL A   1      31.299  25.484  25.216  1.00  0.00     0.085 A 
ATOM      8  C   UNL A   1      30.813  25.657  23.906  1.00  0.00     0.051 A 
ATOM      9  C   UNL A   1      30.761  24.496  23.125  1.00  0.00     0.029 A 
ATOM     10  C   UNL A   1      31.025  23.229  23.633  1.00  0.00     0.029 A 
ATOM     11  C   UNL A   1      31.625  24.190  25.720  1.00  0.00     0.044 A 
ATOM     12  C   UNL A   1      31.475  23.055  24.927  1.00  0.00     0.050 A 
BRANCH   8  13
ATOM     13  N   UNL A   1      30.350  26.837  23.345  1.00  0.00    -0.371 N 
BRANCH  13  14
ATOM     14  C   UNL A   1      29.196  27.547  23.903  1.00  0.00     0.113 C 
ATOM     15  C   UNL A   1      27.934  26.701  23.876  1.00  0.00     0.027 C 
ENDBRANCH  13  14
BRANCH  13  16
ATOM     16  C   UNL A   1      31.206  27.570  22.389  1.00  0.00     0.113 C 
ATOM     17  C   UNL A   1      30.966  29.080  22.378  1.00  0.00     0.027 C 
ENDBRANCH  13  16
ENDBRANCH   8  13
BRANCH  12  18
ATOM     18  N   UNL A   1      31.606  21.734  25.471  1.00  0.00    -0.279 N 
ATOM     19  H   UNL A   1      30.874  21.347  26.003  1.00  0.00     0.180 HD
BRANCH  18  20
ATOM     20  S   UNL A   1      33.027  20.834  25.200  1.00  0.00     0.271 S 
ATOM     21  O   UNL A   1      33.335  20.142  26.433  1.00  0.00    -0.200 OA
ATOM     22  O   UNL A   1      32.828  20.092  23.972  1.00  0.00    -0.200 OA
BRANCH  20  23
ATOM     23  C   UNL A   1      34.430  21.893  24.924  1.00  0.00     0.141 A 
ATOM     24  C   UNL A   1      35.113  22.213  23.761  1.00  0.00     0.036 A 
ATOM     25  S   UNL A   1      35.175  22.607  26.299  1.00  0.00    -0.110 S 
ATOM     26  C   UNL A   1      36.333  22.904  24.023  1.00  0.00     0.034 A 
ATOM     27  C   UNL A   1      36.489  23.132  25.365  1.00  0.00     0.094 A 
ATOM     28  Cl  UNL A   1      37.851  23.846  26.126  1.00  0.00    -0.072 Cl
ENDBRANCH  20  23
ENDBRANCH  18  20
ENDBRANCH  12  18
ENDBRANCH   5   7
ENDBRANCH   4   5
ENDBRANCH   3   4
ENDBRANCH   2   3
ENDBRANCH   1   2
BRANCH   1  29
ATOM     29  C   UNL A   1      31.633  31.919  26.691  1.00  0.00     0.202 C 
BRANCH  29  30
ATOM     30  C   UNL A   1      32.007  33.399  26.876  1.00  0.00     0.261 C 
BRANCH  30  31
ATOM     31  O   UNL A   1      32.401  33.782  28.205  1.00  0.00    -0.460 OA
BRANCH  31  32
ATOM     32  C   UNL A   1      33.584  34.448  28.268  1.00  0.00     0.338 C 
ATOM     33  O   UNL A   1      33.755  35.651  28.173  1.00  0.00    -0.246 OA
BRANCH  32  34
ATOM     34  C   UNL A   1      34.695  33.520  28.548  1.00  0.00     0.060 A 
ATOM     35  C   UNL A   1      34.416  32.306  29.187  1.00  0.00     0.016 A 
ATOM     36  C   UNL A   1      36.015  33.930  28.356  1.00  0.00     0.016 A 
ATOM     37  C   UNL A   1      35.461  31.513  29.667  1.00  0.00     0.010 A 
ATOM     38  C   UNL A   1      37.061  33.132  28.839  1.00  0.00     0.010 A 
ATOM     39  C   UNL A   1      36.790  31.935  29.527  1.00  0.00    -0.014 A 
BRANCH  39  40
ATOM     40  C   UNL A   1      37.890  31.192  30.202  1.00  0.00     0.031 A 
ATOM     41  C   UNL A   1      38.182  31.458  31.656  1.00  0.00     0.074 A 
ATOM     42  C   UNL A   1      38.614  30.278  29.531  1.00  0.00     0.049 A 
ATOM     43  N   UNL A   1      39.137  30.982  32.413  1.00  0.00    -0.248 NA
ATOM     44  C   UNL A   1      37.276  32.389  32.345  1.00  0.00     0.031 C 
ATOM     45  C   UNL A   1      38.400  29.892  28.137  1.00  0.00     0.029 A 
ATOM     46  N   UNL A   1      39.682  29.513  29.931  1.00  0.00    -0.354 N 
ATOM     47  C   UNL A   1      38.950  31.552  33.669  1.00  0.00     0.074 A 
ATOM     48  C   UNL A   1      37.814  32.444  33.555  1.00  0.00     0.031 C 
ATOM     49  C   UNL A   1      39.315  28.967  27.796  1.00  0.00     0.029 A 
ATOM     50  C   UNL A   1      40.207  28.730  28.929  1.00  0.00     0.049 A 
ATOM     51  H   UNL A   1      40.039  29.524  30.848  1.00  0.00     0.167 HD
ATOM     52  C   UNL A   1      39.649  31.343  34.813  1.00  0.00     0.034 A 
ATOM     53  C   UNL A   1      41.296  27.935  28.917  1.00  0.00     0.034 A 
ATOM     54  C   UNL A   1      40.789  30.461  34.914  1.00  0.00     0.049 A 
ATOM     55  C   UNL A   1      42.125  27.799  30.175  1.00  0.00     0.074 A 
ATOM     56  C   UNL A   1      41.567  30.181  36.025  1.00  0.00     0.029 A 
ATOM     57  N   UNL A   1      41.320  29.723  33.865  1.00  0.00    -0.354 N 
ATOM     58  N   UNL A   1      41.940  28.350  31.352  1.00  0.00    -0.248 NA
ATOM     59  C   UNL A   1      43.305  26.927  30.101  1.00  0.00     0.031 C 
ATOM     60  C   UNL A   1      42.607  29.330  35.633  1.00  0.00     0.029 A 
ATOM     61  C   UNL A   1      42.433  29.013  34.296  1.00  0.00     0.049 A 
ATOM     62  H   UNL A   1      40.960  29.705  32.950  1.00  0.00     0.167 HD
ATOM     63  C   UNL A   1      42.959  27.861  32.166  1.00  0.00     0.074 A 
ATOM     64  C   UNL A   1      43.747  26.962  31.348  1.00  0.00     0.031 C 
ATOM     65  C   UNL A   1      43.218  28.124  33.472  1.00  0.00     0.034 A 
BRANCH  52  66
ATOM     66  C   UNL A   1      39.224  32.119  36.038  1.00  0.00     0.023 A 
ATOM     67  C   UNL A   1      38.396  31.551  37.022  1.00  0.00     0.031 A 
ATOM     68  C   UNL A   1      39.638  33.451  36.217  1.00  0.00     0.131 A 
ATOM     69  C   UNL A   1      37.953  32.330  38.101  1.00  0.00     0.055 A 
ATOM     70  C   UNL A   1      39.258  34.197  37.334  1.00  0.00     0.041 A 
ATOM     71  F   UNL A   1      40.413  34.055  35.302  1.00  0.00    -0.206 F 
ATOM     72  C   UNL A   1      38.399  33.642  38.278  1.00  0.00     0.022 A 
BRANCH  69  73
ATOM     73  S   UNL A   1      36.679  31.649  39.197  1.00  0.00     0.124 S 
ATOM     74  O   UNL A   1      36.572  30.277  38.708  1.00  0.00    -0.237 OA
ATOM     75  O   UNL A   1      37.277  31.812  40.517  1.00  0.00    -0.237 OA
ATOM     76  O   UNL A   1      35.512  32.490  38.931  1.00  0.00    -0.744 OA
ENDBRANCH  69  73
ENDBRANCH  52  66
BRANCH  53  77
ATOM     77  C   UNL A   1      41.710  27.234  27.667  1.00  0.00     0.023 A 
ATOM     78  C   UNL A   1      41.682  25.834  27.577  1.00  0.00     0.031 A 
ATOM     79  C   UNL A   1      42.210  27.955  26.567  1.00  0.00     0.131 A 
ATOM     80  C   UNL A   1      42.195  25.196  26.438  1.00  0.00     0.055 A 
ATOM     81  C   UNL A   1      42.665  27.318  25.413  1.00  0.00     0.041 A 
ATOM     82  F   UNL A   1      42.261  29.297  26.600  1.00  0.00    -0.206 F 
ATOM     83  C   UNL A   1      42.675  25.928  25.350  1.00  0.00     0.022 A 
BRANCH  80  84
ATOM     84  S   UNL A   1      42.326  23.386  26.442  1.00  0.00     0.124 S 
ATOM     85  O   UNL A   1      43.424  23.171  27.377  1.00  0.00    -0.237 OA
ATOM     86  O   UNL A   1      41.000  22.991  26.905  1.00  0.00    -0.237 OA
ATOM     87  O   UNL A   1      42.619  23.064  25.046  1.00  0.00    -0.744 OA
ENDBRANCH  80  84
ENDBRANCH  53  77
BRANCH  65  88
ATOM     88  C   UNL A   1      44.372  27.386  34.110  1.00  0.00     0.023 A 
ATOM     89  C   UNL A   1      45.672  27.920  34.138  1.00  0.00     0.031 A 
ATOM     90  C   UNL A   1      44.166  26.119  34.685  1.00  0.00     0.131 A 
ATOM     91  C   UNL A   1      46.726  27.166  34.678  1.00  0.00     0.055 A 
ATOM     92  C   UNL A   1      45.208  25.400  35.274  1.00  0.00     0.041 A 
ATOM     93  F   UNL A   1      42.946  25.558  34.685  1.00  0.00    -0.206 F 
ATOM     94  C   UNL A   1      46.500  25.917  35.260  1.00  0.00     0.022 A 
BRANCH  91  95
ATOM     95  S   UNL A   1      48.419  27.802  34.527  1.00  0.00     0.124 S 
ATOM     96  O   UNL A   1      49.113  26.676  33.910  1.00  0.00    -0.237 OA
ATOM     97  O   UNL A   1      48.237  28.979  33.684  1.00  0.00    -0.237 OA
ATOM     98  O   UNL A   1      48.804  28.085  35.909  1.00  0.00    -0.744 OA
ENDBRANCH  91  95
ENDBRANCH  65  88
ENDBRANCH  39  40
ENDBRANCH  32  34
ENDBRANCH  31  32
ENDBRANCH  30  31
ENDBRANCH  29  30
ENDBRANCH   1  29
TORSDOF 23
ENDMDL
MODEL 3
REMARK VINA RESULT:     -10.6      6.040      9.773
REMARK SMILES CCN(CC)c1ccc(NS(=O)(=O)c2ccc(Cl)s2)cc1C(=O)OCCOCCOC(=O)c1ccc(-c2c3nc(c(-c4cc(S(=O)(=O)[O-])ccc4F)c4ccc([nH]4)c(-c4cc(S(=O)(=O)[O-])ccc4F)c4nc(c(-c5cc(S(=O)(=O)[O-])ccc5F)c5ccc2[nH]5)C=C4)C=C3)cc1
REMARK SMILES IDX 27 1 26 2 25 3 24 4 22 5 23 6 21 7 6 8 7 9 8 10 20 11 9 12
REMARK SMILES IDX 3 13 2 14 1 15 4 16 5 17 10 18 11 20 12 21 13 22 14 23 15 24
REMARK SMILES IDX 19 25 16 26 17 27 18 28 28 29 29 30 30 31 31 32 32 33 33 34
REMARK SMILES IDX 34 35 95 36 35 37 94 38 36 39 37 40 38 41 88 42 39 43 93 44
REMARK SMILES IDX 87 45 89 46 40 47 92 48 86 49 85 50 41 52 73 53 53 54 72 55
REMARK SMILES IDX 54 56 57 57 71 58 90 59 55 60 56 61 70 63 91 64 58 65 42 66
REMARK SMILES IDX 43 67 51 68 44 69 50 70 52 71 49 72 45 73 46 74 47 75 48 76
REMARK SMILES IDX 74 77 75 78 83 79 76 80 82 81 84 82 81 83 77 84 78 85 79 86
REMARK SMILES IDX 80 87 59 88 60 89 68 90 61 91 67 92 69 93 66 94 62 95 63 96
REMARK SMILES IDX 64 97 65 98
REMARK H PARENT 10 19 89 51 57 62
REMARK Flexibility Score: inf
ROOT
ATOM      1  O   UNL A   1      38.041  23.031  26.131  1.00  0.00    -0.374 OA
ENDROOT
BRANCH   1   2
ATOM      2  C   UNL A   1      36.759  23.400  25.627  1.00  0.00     0.202 C 
BRANCH   2   3
ATOM      3  C   UNL A   1      35.542  22.833  26.362  1.00  0.00     0.261 C 
BRANCH   3   4
ATOM      4  O   UNL A   1      35.288  21.459  26.005  1.00  0.00    -0.460 OA
BRANCH   4   5
ATOM      5  C   UNL A   1      34.005  21.055  26.171  1.00  0.00     0.340 C 
ATOM      6  O   UNL A   1      33.404  20.973  27.232  1.00  0.00    -0.246 OA
BRANCH   5   7
ATOM      7  C   UNL A   1      33.298  20.921  24.877  1.00  0.00     0.085 A 
ATOM      8  C   UNL A   1      32.978  19.694  24.264  1.00  0.00     0.051 A 
ATOM      9  C   UNL A   1      32.238  19.788  23.080  1.00  0.00     0.029 A 
ATOM     10  C   UNL A   1      31.955  20.998  22.457  1.00  0.00     0.029 A 
ATOM     11  C   UNL A   1      32.957  22.164  24.267  1.00  0.00     0.044 A 
ATOM     12  C   UNL A   1      32.292  22.202  23.043  1.00  0.00     0.050 A 
BRANCH   8  13
ATOM     13  N   UNL A   1      33.359  18.431  24.693  1.00  0.00    -0.371 N 
BRANCH  13  14
ATOM     14  C   UNL A   1      34.606  17.813  24.233  1.00  0.00     0.113 C 
ATOM     15  C   UNL A   1      34.381  16.873  23.060  1.00  0.00     0.027 C 
ENDBRANCH  13  14
BRANCH  13  16
ATOM     16  C   UNL A   1      32.691  17.833  25.867  1.00  0.00     0.113 C 
ATOM     17  C   UNL A   1      32.278  16.374  25.665  1.00  0.00     0.027 C 
ENDBRANCH  13  16
ENDBRANCH   8  13
BRANCH  12  18
ATOM     18  N   UNL A   1      32.116  23.428  22.320  1.00  0.00    -0.279 N 
ATOM     19  H   UNL A   1      31.252  23.626  21.892  1.00  0.00     0.180 HD
BRANCH  18  20
ATOM     20  S   UNL A   1      33.399  24.542  22.198  1.00  0.00     0.271 S 
ATOM     21  O   UNL A   1      34.623  23.812  22.448  1.00  0.00    -0.200 OA
ATOM     22  O   UNL A   1      33.215  25.262  20.954  1.00  0.00    -0.200 OA
BRANCH  20  23
ATOM     23  C   UNL A   1      33.336  25.758  23.496  1.00  0.00     0.141 A 
ATOM     24  C   UNL A   1      33.997  25.824  24.712  1.00  0.00     0.036 A 
ATOM     25  S   UNL A   1      32.223  27.057  23.321  1.00  0.00    -0.110 S 
ATOM     26  C   UNL A   1      33.468  26.842  25.560  1.00  0.00     0.034 A 
ATOM     27  C   UNL A   1      32.476  27.543  24.925  1.00  0.00     0.094 A 
ATOM     28  Cl  UNL A   1      31.511  28.787  25.607  1.00  0.00    -0.072 Cl
ENDBRANCH  20  23
ENDBRANCH  18  20
ENDBRANCH  12  18
ENDBRANCH   5   7
ENDBRANCH   4   5
ENDBRANCH   3   4
ENDBRANCH   2   3
ENDBRANCH   1   2
BRANCH   1  29
ATOM     29  C   UNL A   1      38.573  21.777  25.717  1.00  0.00     0.202 C 
BRANCH  29  30
ATOM     30  C   UNL A   1      39.849  21.268  26.406  1.00  0.00     0.261 C 
BRANCH  30  31
ATOM     31  O   UNL A   1      40.417  20.065  25.858  1.00  0.00    -0.460 OA
BRANCH  31  32
ATOM     32  C   UNL A   1      41.598  19.696  26.421  1.00  0.00     0.338 C 
ATOM     33  O   UNL A   1      41.973  18.563  26.666  1.00  0.00    -0.246 OA
BRANCH  32  34
ATOM     34  C   UNL A   1      42.456  20.872  26.656  1.00  0.00     0.060 A 
ATOM     35  C   UNL A   1      42.637  21.324  27.969  1.00  0.00     0.016 A 
ATOM     36  C   UNL A   1      42.917  21.630  25.579  1.00  0.00     0.016 A 
ATOM     37  C   UNL A   1      43.251  22.555  28.206  1.00  0.00     0.010 A 
ATOM     38  C   UNL A   1      43.533  22.866  25.819  1.00  0.00     0.010 A 
ATOM     39  C   UNL A   1      43.674  23.352  27.132  1.00  0.00    -0.014 A 
BRANCH  39  40
ATOM     40  C   UNL A   1      44.152  24.742  27.370  1.00  0.00     0.031 A 
ATOM     41  C   UNL A   1      43.182  25.788  27.855  1.00  0.00     0.074 A 
ATOM     42  C   UNL A   1      45.442  25.069  27.170  1.00  0.00     0.049 A 
ATOM     43  N   UNL A   1      43.368  27.068  28.051  1.00  0.00    -0.248 NA
ATOM     44  C   UNL A   1      41.818  25.326  28.153  1.00  0.00     0.031 C 
ATOM     45  C   UNL A   1      46.491  24.139  26.751  1.00  0.00     0.029 A 
ATOM     46  N   UNL A   1      46.089  26.274  27.286  1.00  0.00    -0.354 N 
ATOM     47  C   UNL A   1      42.148  27.568  28.498  1.00  0.00     0.074 A 
ATOM     48  C   UNL A   1      41.219  26.456  28.500  1.00  0.00     0.031 C 
ATOM     49  C   UNL A   1      47.649  24.813  26.638  1.00  0.00     0.029 A 
ATOM     50  C   UNL A   1      47.416  26.226  26.929  1.00  0.00     0.049 A 
ATOM     51  H   UNL A   1      45.643  27.096  27.595  1.00  0.00     0.167 HD
ATOM     52  C   UNL A   1      41.833  28.831  28.883  1.00  0.00     0.034 A 
ATOM     53  C   UNL A   1      48.331  27.211  26.822  1.00  0.00     0.034 A 
ATOM     54  C   UNL A   1      42.763  29.936  28.866  1.00  0.00     0.049 A 
ATOM     55  C   UNL A   1      47.931  28.631  27.154  1.00  0.00     0.074 A 
ATOM     56  C   UNL A   1      42.545  31.253  29.234  1.00  0.00     0.029 A 
ATOM     57  N   UNL A   1      44.086  29.858  28.451  1.00  0.00    -0.354 N 
ATOM     58  N   UNL A   1      46.772  29.089  27.568  1.00  0.00    -0.248 NA
ATOM     59  C   UNL A   1      48.966  29.663  27.011  1.00  0.00     0.031 C 
ATOM     60  C   UNL A   1      43.711  31.983  28.978  1.00  0.00     0.029 A 
ATOM     61  C   UNL A   1      44.685  31.108  28.525  1.00  0.00     0.049 A 
ATOM     62  H   UNL A   1      44.534  29.036  28.149  1.00  0.00     0.167 HD
ATOM     63  C   UNL A   1      46.953  30.455  27.769  1.00  0.00     0.074 A 
ATOM     64  C   UNL A   1      48.334  30.744  27.442  1.00  0.00     0.031 C 
ATOM     65  C   UNL A   1      46.062  31.388  28.191  1.00  0.00     0.034 A 
BRANCH  52  66
ATOM     66  C   UNL A   1      40.409  29.090  29.314  1.00  0.00     0.023 A 
ATOM     67  C   UNL A   1      40.045  29.141  30.671  1.00  0.00     0.031 A 
ATOM     68  C   UNL A   1      39.396  29.272  28.356  1.00  0.00     0.131 A 
ATOM     69  C   UNL A   1      38.698  29.299  31.031  1.00  0.00     0.055 A 
ATOM     70  C   UNL A   1      38.069  29.508  28.721  1.00  0.00     0.041 A 
ATOM     71  F   UNL A   1      39.677  29.214  27.044  1.00  0.00    -0.206 F 
ATOM     72  C   UNL A   1      37.711  29.509  30.065  1.00  0.00     0.022 A 
BRANCH  69  73
ATOM     73  S   UNL A   1      38.236  29.092  32.772  1.00  0.00     0.124 S 
ATOM     74  O   UNL A   1      39.525  29.252  33.440  1.00  0.00    -0.237 OA
ATOM     75  O   UNL A   1      37.273  30.168  32.974  1.00  0.00    -0.237 OA
ATOM     76  O   UNL A   1      37.681  27.740  32.821  1.00  0.00    -0.744 OA
ENDBRANCH  69  73
ENDBRANCH  52  66
BRANCH  53  77
ATOM     77  C   UNL A   1      49.710  26.916  26.336  1.00  0.00     0.023 A 
ATOM     78  C   UNL A   1      50.775  26.747  27.234  1.00  0.00     0.031 A 
ATOM     79  C   UNL A   1      49.995  26.869  24.959  1.00  0.00     0.131 A 
ATOM     80  C   UNL A   1      52.083  26.596  26.748  1.00  0.00     0.055 A 
ATOM     81  C   UNL A   1      51.289  26.660  24.481  1.00  0.00     0.041 A 
ATOM     82  F   UNL A   1      49.015  27.025  24.056  1.00  0.00    -0.206 F 
ATOM     83  C   UNL A   1      52.346  26.538  25.378  1.00  0.00     0.022 A 
BRANCH  80  84
ATOM     84  S   UNL A   1      53.454  26.582  27.936  1.00  0.00     0.124 S 
ATOM     85  O   UNL A   1      54.009  27.919  27.762  1.00  0.00    -0.237 OA
ATOM     86  O   UNL A   1      52.759  26.333  29.194  1.00  0.00    -0.237 OA
ATOM     87  O   UNL A   1      54.299  25.487  27.465  1.00  0.00    -0.744 OA
ENDBRANCH  80  84
ENDBRANCH  53  77
BRANCH  65  88
ATOM     88  C   UNL A   1      46.572  32.798  28.376  1.00  0.00     0.023 A 
ATOM     89  C   UNL A   1      46.777  33.664  27.287  1.00  0.00     0.031 A 
ATOM     90  C   UNL A   1      46.874  33.276  29.664  1.00  0.00     0.131 A 
ATOM     91  C   UNL A   1      47.321  34.940  27.501  1.00  0.00     0.055 A 
ATOM     92  C   UNL A   1      47.358  34.568  29.876  1.00  0.00     0.041 A 
ATOM     93  F   UNL A   1      46.701  32.493  30.741  1.00  0.00    -0.206 F 
ATOM     94  C   UNL A   1      47.598  35.403  28.789  1.00  0.00     0.022 A 
BRANCH  91  95
ATOM     95  S   UNL A   1      47.749  35.958  26.061  1.00  0.00     0.124 S 
ATOM     96  O   UNL A   1      46.564  36.799  25.919  1.00  0.00    -0.237 OA
ATOM     97  O   UNL A   1      48.962  36.636  26.507  1.00  0.00    -0.237 OA
ATOM     98  O   UNL A   1      47.945  34.979  24.993  1.00  0.00    -0.744 OA
ENDBRANCH  91  95
ENDBRANCH  65  88
ENDBRANCH  39  40
ENDBRANCH  32  34
ENDBRANCH  31  32
ENDBRANCH  30  31
ENDBRANCH  29  30
ENDBRANCH   1  29
TORSDOF 23
ENDMDL
