MODEL 1
REMARK VINA RESULT:     -10.7      0.000      0.000
REMARK SMILES COc1ccc(/C=C/C(=O)Nc2cc(Cl)ccc2C(=O)OCCOCCOC(=O)c2ccc(-c3c4nc(c(-c5cc(S(=O)(=O)[O-])ccc5F)c5ccc([nH]5)c(-c5cc(S(=O)(=O)[O-])ccc5F)c5nc(c(-c6cc(S(=O)(=O)[O-])ccc6F)c6ccc3[nH]6)C=C5)C=C4)cc2)cc1
REMARK SMILES IDX 23 1 22 2 21 3 19 4 20 5 18 6 12 7 13 8 14 9 17 10 15 11
REMARK SMILES IDX 16 12 11 13 9 14 10 15 8 17 7 18 6 19 3 20 4 21 94 22 5 23
REMARK SMILES IDX 93 24 2 25 1 26 24 27 25 28 26 29 27 30 28 31 29 32 30 33
REMARK SMILES IDX 31 34 92 35 32 36 91 37 33 38 34 39 35 40 85 41 36 42 90 43
REMARK SMILES IDX 84 44 86 45 37 46 89 47 83 48 82 49 38 51 70 52 50 53 69 54
REMARK SMILES IDX 51 55 54 56 68 57 87 58 52 59 53 60 67 62 88 63 55 64 39 65
REMARK SMILES IDX 40 66 48 67 41 68 47 69 49 70 46 71 42 72 43 73 44 74 45 75
REMARK SMILES IDX 71 76 72 77 80 78 73 79 79 80 81 81 78 82 74 83 75 84 76 85
REMARK SMILES IDX 77 86 56 87 57 88 65 89 58 90 64 91 66 92 63 93 59 94 60 95
REMARK SMILES IDX 61 96 62 97
REMARK H PARENT 11 16 86 50 54 61
REMARK Flexibility Score: inf
ROOT
ATOM      1  C   UNL A   1      36.433  22.175  24.639  1.00  0.00     0.202 C 
ENDROOT
BRANCH   1   2
ATOM      2  C   UNL A   1      35.857  23.278  25.529  1.00  0.00     0.261 C 
BRANCH   2   3
ATOM      3  O   UNL A   1      35.306  24.404  24.821  1.00  0.00    -0.460 OA
BRANCH   3   4
ATOM      4  C   UNL A   1      34.379  25.094  25.529  1.00  0.00     0.340 C 
ATOM      5  O   UNL A   1      34.493  26.250  25.918  1.00  0.00    -0.246 OA
BRANCH   4   6
ATOM      6  C   UNL A   1      33.089  24.369  25.675  1.00  0.00     0.083 A 
ATOM      7  C   UNL A   1      32.180  23.993  24.668  1.00  0.00     0.057 A 
ATOM      8  C   UNL A   1      30.950  23.420  25.065  1.00  0.00     0.047 A 
ATOM      9  C   UNL A   1      30.669  23.141  26.404  1.00  0.00     0.043 A 
ATOM     10  C   UNL A   1      32.778  24.081  27.028  1.00  0.00     0.019 A 
ATOM     11  Cl  UNL A   1      29.195  22.364  26.830  1.00  0.00    -0.084 Cl
ATOM     12  C   UNL A   1      31.586  23.459  27.391  1.00  0.00     0.021 A 
BRANCH   7  13
ATOM     13  N   UNL A   1      32.323  24.072  23.264  1.00  0.00    -0.322 N 
ATOM     14  C   UNL A   1      32.779  23.222  22.301  1.00  0.00     0.248 C 
ATOM     15  O   UNL A   1      32.926  23.634  21.152  1.00  0.00    -0.270 OA
ATOM     16  H   UNL A   1      32.026  24.937  22.899  1.00  0.00     0.170 HD
BRANCH  14  17
ATOM     17  C   UNL A   1      33.073  21.811  22.597  1.00  0.00     0.072 C 
ATOM     18  C   UNL A   1      32.129  20.863  22.671  1.00  0.00     0.014 C 
BRANCH  18  19
ATOM     19  C   UNL A   1      32.401  19.547  23.266  1.00  0.00    -0.025 A 
ATOM     20  C   UNL A   1      33.160  17.149  24.515  1.00  0.00     0.118 A 
ATOM     21  C   UNL A   1      33.000  17.201  23.132  1.00  0.00     0.047 A 
ATOM     22  C   UNL A   1      32.958  18.296  25.279  1.00  0.00     0.047 A 
ATOM     23  C   UNL A   1      32.607  18.388  22.510  1.00  0.00     0.012 A 
ATOM     24  C   UNL A   1      32.563  19.484  24.658  1.00  0.00     0.012 A 
BRANCH  20  25
ATOM     25  O   UNL A   1      33.557  15.947  25.032  1.00  0.00    -0.497 OA
ATOM     26  C   UNL A   1      34.956  15.872  25.287  1.00  0.00     0.278 C 
ENDBRANCH  20  25
ENDBRANCH  18  19
ENDBRANCH  14  17
ENDBRANCH   7  13
ENDBRANCH   4   6
ENDBRANCH   3   4
ENDBRANCH   2   3
ENDBRANCH   1   2
BRANCH   1  27
ATOM     27  O   UNL A   1      35.819  20.893  24.659  1.00  0.00    -0.374 OA
BRANCH  27  28
ATOM     28  C   UNL A   1      36.623  19.758  24.959  1.00  0.00     0.202 C 
BRANCH  28  29
ATOM     29  C   UNL A   1      38.150  19.906  24.974  1.00  0.00     0.261 C 
BRANCH  29  30
ATOM     30  O   UNL A   1      38.724  20.071  26.283  1.00  0.00    -0.460 OA
BRANCH  30  31
ATOM     31  C   UNL A   1      40.054  20.336  26.277  1.00  0.00     0.338 C 
ATOM     32  O   UNL A   1      40.937  19.646  25.776  1.00  0.00    -0.246 OA
BRANCH  31  33
ATOM     33  C   UNL A   1      40.335  21.666  26.841  1.00  0.00     0.060 A 
ATOM     34  C   UNL A   1      39.830  22.786  26.170  1.00  0.00     0.016 A 
ATOM     35  C   UNL A   1      41.212  21.818  27.917  1.00  0.00     0.016 A 
ATOM     36  C   UNL A   1      40.238  24.065  26.543  1.00  0.00     0.010 A 
ATOM     37  C   UNL A   1      41.629  23.103  28.283  1.00  0.00     0.010 A 
ATOM     38  C   UNL A   1      41.173  24.229  27.572  1.00  0.00    -0.014 A 
BRANCH  38  39
ATOM     39  C   UNL A   1      41.786  25.562  27.800  1.00  0.00     0.031 A 
ATOM     40  C   UNL A   1      40.993  26.617  28.526  1.00  0.00     0.074 A 
ATOM     41  C   UNL A   1      43.042  25.818  27.391  1.00  0.00     0.049 A 
ATOM     42  N   UNL A   1      41.310  27.856  28.797  1.00  0.00    -0.248 NA
ATOM     43  C   UNL A   1      39.662  26.216  29.007  1.00  0.00     0.031 C 
ATOM     44  C   UNL A   1      43.919  24.862  26.717  1.00  0.00     0.029 A 
ATOM     45  N   UNL A   1      43.795  26.961  27.479  1.00  0.00    -0.354 N 
ATOM     46  C   UNL A   1      40.219  28.387  29.476  1.00  0.00     0.074 A 
ATOM     47  C   UNL A   1      39.220  27.342  29.547  1.00  0.00     0.031 C 
ATOM     48  C   UNL A   1      45.089  25.464  26.442  1.00  0.00     0.029 A 
ATOM     49  C   UNL A   1      45.030  26.856  26.883  1.00  0.00     0.049 A 
ATOM     50  H   UNL A   1      43.480  27.781  27.926  1.00  0.00     0.167 HD
ATOM     51  C   UNL A   1      40.068  29.631  29.997  1.00  0.00     0.034 A 
ATOM     52  C   UNL A   1      45.988  27.785  26.691  1.00  0.00     0.034 A 
ATOM     53  C   UNL A   1      41.070  30.666  29.908  1.00  0.00     0.049 A 
ATOM     54  C   UNL A   1      45.763  29.186  27.207  1.00  0.00     0.074 A 
ATOM     55  C   UNL A   1      41.026  31.954  30.413  1.00  0.00     0.029 A 
ATOM     56  N   UNL A   1      42.291  30.536  29.260  1.00  0.00    -0.354 N 
ATOM     57  N   UNL A   1      44.729  29.675  27.854  1.00  0.00    -0.248 NA
ATOM     58  C   UNL A   1      46.838  30.160  26.970  1.00  0.00     0.031 C 
ATOM     59  C   UNL A   1      42.190  32.622  30.013  1.00  0.00     0.029 A 
ATOM     60  C   UNL A   1      42.994  31.730  29.322  1.00  0.00     0.049 A 
ATOM     61  H   UNL A   1      42.612  29.715  28.821  1.00  0.00     0.167 HD
ATOM     62  C   UNL A   1      45.044  31.004  28.124  1.00  0.00     0.074 A 
ATOM     63  C   UNL A   1      46.367  31.235  27.583  1.00  0.00     0.031 C 
ATOM     64  C   UNL A   1      44.308  31.949  28.765  1.00  0.00     0.034 A 
BRANCH  51  65
ATOM     65  C   UNL A   1      38.749  29.951  30.659  1.00  0.00     0.023 A 
ATOM     66  C   UNL A   1      37.734  30.658  29.990  1.00  0.00     0.031 A 
ATOM     67  C   UNL A   1      38.512  29.559  31.988  1.00  0.00     0.131 A 
ATOM     68  C   UNL A   1      36.556  31.003  30.670  1.00  0.00     0.055 A 
ATOM     69  C   UNL A   1      37.308  29.843  32.637  1.00  0.00     0.041 A 
ATOM     70  F   UNL A   1      39.452  28.902  32.685  1.00  0.00    -0.206 F 
ATOM     71  C   UNL A   1      36.326  30.580  31.982  1.00  0.00     0.022 A 
BRANCH  68  72
ATOM     72  S   UNL A   1      35.377  32.118  29.860  1.00  0.00     0.124 S 
ATOM     73  O   UNL A   1      36.249  33.207  29.427  1.00  0.00    -0.237 OA
ATOM     74  O   UNL A   1      34.826  31.281  28.800  1.00  0.00    -0.237 OA
ATOM     75  O   UNL A   1      34.443  32.466  30.929  1.00  0.00    -0.744 OA
ENDBRANCH  68  72
ENDBRANCH  51  65
BRANCH  52  76
ATOM     76  C   UNL A   1      47.227  27.447  25.934  1.00  0.00     0.023 A 
ATOM     77  C   UNL A   1      47.346  27.735  24.565  1.00  0.00     0.031 A 
ATOM     78  C   UNL A   1      48.289  26.769  26.560  1.00  0.00     0.131 A 
ATOM     79  C   UNL A   1      48.481  27.308  23.857  1.00  0.00     0.055 A 
ATOM     80  C   UNL A   1      49.439  26.394  25.864  1.00  0.00     0.041 A 
ATOM     81  F   UNL A   1      48.223  26.463  27.866  1.00  0.00    -0.206 F 
ATOM     82  C   UNL A   1      49.534  26.652  24.500  1.00  0.00     0.022 A 
BRANCH  79  83
ATOM     83  S   UNL A   1      48.523  27.541  22.059  1.00  0.00     0.124 S 
ATOM     84  O   UNL A   1      47.226  28.158  21.808  1.00  0.00    -0.237 OA
ATOM     85  O   UNL A   1      49.688  28.404  21.892  1.00  0.00    -0.237 OA
ATOM     86  O   UNL A   1      48.678  26.182  21.543  1.00  0.00    -0.744 OA
ENDBRANCH  79  83
ENDBRANCH  52  76
BRANCH  64  87
ATOM     87  C   UNL A   1      44.947  33.304  28.952  1.00  0.00     0.023 A 
ATOM     88  C   UNL A   1      45.739  33.600  30.075  1.00  0.00     0.031 A 
ATOM     89  C   UNL A   1      44.748  34.316  27.997  1.00  0.00     0.131 A 
ATOM     90  C   UNL A   1      46.259  34.894  30.241  1.00  0.00     0.055 A 
ATOM     91  C   UNL A   1      45.314  35.584  28.139  1.00  0.00     0.041 A 
ATOM     92  F   UNL A   1      43.998  34.088  26.906  1.00  0.00    -0.206 F 
ATOM     93  C   UNL A   1      46.064  35.882  29.273  1.00  0.00     0.022 A 
BRANCH  90  94
ATOM     94  S   UNL A   1      47.123  35.295  31.785  1.00  0.00     0.124 S 
ATOM     95  O   UNL A   1      47.882  36.484  31.410  1.00  0.00    -0.237 OA
ATOM     96  O   UNL A   1      46.019  35.509  32.715  1.00  0.00    -0.237 OA
ATOM     97  O   UNL A   1      47.929  34.103  32.047  1.00  0.00    -0.744 OA
ENDBRANCH  90  94
ENDBRANCH  64  87
ENDBRANCH  38  39
ENDBRANCH  31  33
ENDBRANCH  30  31
ENDBRANCH  29  30
ENDBRANCH  28  29
ENDBRANCH  27  28
ENDBRANCH   1  27
TORSDOF 21
ENDMDL
MODEL 2
REMARK VINA RESULT:     -10.6      4.577      9.646
REMARK SMILES COc1ccc(/C=C/C(=O)Nc2cc(Cl)ccc2C(=O)OCCOCCOC(=O)c2ccc(-c3c4nc(c(-c5cc(S(=O)(=O)[O-])ccc5F)c5ccc([nH]5)c(-c5cc(S(=O)(=O)[O-])ccc5F)c5nc(c(-c6cc(S(=O)(=O)[O-])ccc6F)c6ccc3[nH]6)C=C5)C=C4)cc2)cc1
REMARK SMILES IDX 23 1 22 2 21 3 19 4 20 5 18 6 12 7 13 8 14 9 17 10 15 11
REMARK SMILES IDX 16 12 11 13 9 14 10 15 8 17 7 18 6 19 3 20 4 21 94 22 5 23
REMARK SMILES IDX 93 24 2 25 1 26 24 27 25 28 26 29 27 30 28 31 29 32 30 33
REMARK SMILES IDX 31 34 92 35 32 36 91 37 33 38 34 39 35 40 85 41 36 42 90 43
REMARK SMILES IDX 84 44 86 45 37 46 89 47 83 48 82 49 38 51 70 52 50 53 69 54
REMARK SMILES IDX 51 55 54 56 68 57 87 58 52 59 53 60 67 62 88 63 55 64 39 65
REMARK SMILES IDX 40 66 48 67 41 68 47 69 49 70 46 71 42 72 43 73 44 74 45 75
REMARK SMILES IDX 71 76 72 77 80 78 73 79 79 80 81 81 78 82 74 83 75 84 76 85
REMARK SMILES IDX 77 86 56 87 57 88 65 89 58 90 64 91 66 92 63 93 59 94 60 95
REMARK SMILES IDX 61 96 62 97
REMARK H PARENT 11 16 86 50 54 61
REMARK Flexibility Score: inf
ROOT
ATOM      1  C   UNL A   1      32.918  26.851  26.088  1.00  0.00     0.202 C 
ENDROOT
BRANCH   1   2
ATOM      2  C   UNL A   1      32.084  25.569  26.128  1.00  0.00     0.261 C 
BRANCH   2   3
ATOM      3  O   UNL A   1      32.841  24.349  26.020  1.00  0.00    -0.460 OA
BRANCH   3   4
ATOM      4  C   UNL A   1      32.112  23.231  26.259  1.00  0.00     0.340 C 
ATOM      5  O   UNL A   1      31.291  23.094  27.158  1.00  0.00    -0.246 OA
BRANCH   4   6
ATOM      6  C   UNL A   1      32.274  22.187  25.213  1.00  0.00     0.083 A 
ATOM      7  C   UNL A   1      32.506  22.360  23.835  1.00  0.00     0.057 A 
ATOM      8  C   UNL A   1      32.496  21.212  23.011  1.00  0.00     0.047 A 
ATOM      9  C   UNL A   1      32.358  19.929  23.543  1.00  0.00     0.043 A 
ATOM     10  C   UNL A   1      32.129  20.875  25.728  1.00  0.00     0.019 A 
ATOM     11  Cl  UNL A   1      32.439  18.555  22.511  1.00  0.00    -0.084 Cl
ATOM     12  C   UNL A   1      32.185  19.752  24.906  1.00  0.00     0.021 A 
BRANCH   7  13
ATOM     13  N   UNL A   1      32.790  23.548  23.122  1.00  0.00    -0.322 N 
ATOM     14  C   UNL A   1      33.826  24.435  23.117  1.00  0.00     0.248 C 
ATOM     15  O   UNL A   1      33.722  25.480  22.480  1.00  0.00    -0.270 OA
ATOM     16  H   UNL A   1      32.080  23.788  22.485  1.00  0.00     0.170 HD
BRANCH  14  17
ATOM     17  C   UNL A   1      35.079  24.156  23.835  1.00  0.00     0.072 C 
ATOM     18  C   UNL A   1      35.803  23.044  23.648  1.00  0.00     0.014 C 
BRANCH  18  19
ATOM     19  C   UNL A   1      36.864  22.647  24.584  1.00  0.00    -0.025 A 
ATOM     20  C   UNL A   1      39.057  22.084  26.245  1.00  0.00     0.118 A 
ATOM     21  C   UNL A   1      38.508  21.084  25.444  1.00  0.00     0.047 A 
ATOM     22  C   UNL A   1      38.526  23.371  26.208  1.00  0.00     0.047 A 
ATOM     23  C   UNL A   1      37.406  21.358  24.629  1.00  0.00     0.012 A 
ATOM     24  C   UNL A   1      37.424  23.645  25.395  1.00  0.00     0.012 A 
BRANCH  20  25
ATOM     25  O   UNL A   1      40.139  21.725  27.000  1.00  0.00    -0.497 OA
ATOM     26  C   UNL A   1      40.736  20.498  26.591  1.00  0.00     0.278 C 
ENDBRANCH  20  25
ENDBRANCH  18  19
ENDBRANCH  14  17
ENDBRANCH   7  13
ENDBRANCH   4   6
ENDBRANCH   3   4
ENDBRANCH   2   3
ENDBRANCH   1   2
BRANCH   1  27
ATOM     27  O   UNL A   1      32.823  27.760  27.177  1.00  0.00    -0.374 OA
BRANCH  27  28
ATOM     28  C   UNL A   1      31.705  28.638  27.235  1.00  0.00     0.202 C 
BRANCH  28  29
ATOM     29  C   UNL A   1      31.903  30.123  26.905  1.00  0.00     0.261 C 
BRANCH  29  30
ATOM     30  O   UNL A   1      33.262  30.502  26.627  1.00  0.00    -0.460 OA
BRANCH  30  31
ATOM     31  C   UNL A   1      33.745  31.475  27.437  1.00  0.00     0.338 C 
ATOM     32  O   UNL A   1      33.110  32.408  27.921  1.00  0.00    -0.246 OA
BRANCH  31  33
ATOM     33  C   UNL A   1      35.145  31.215  27.807  1.00  0.00     0.060 A 
ATOM     34  C   UNL A   1      35.487  29.923  28.225  1.00  0.00     0.016 A 
ATOM     35  C   UNL A   1      36.069  32.258  27.895  1.00  0.00     0.016 A 
ATOM     36  C   UNL A   1      36.742  29.679  28.779  1.00  0.00     0.010 A 
ATOM     37  C   UNL A   1      37.325  32.012  28.462  1.00  0.00     0.010 A 
ATOM     38  C   UNL A   1      37.652  30.730  28.942  1.00  0.00    -0.014 A 
BRANCH  38  39
ATOM     39  C   UNL A   1      38.880  30.518  29.749  1.00  0.00     0.031 A 
ATOM     40  C   UNL A   1      39.993  29.678  29.180  1.00  0.00     0.074 A 
ATOM     41  C   UNL A   1      39.012  31.091  30.959  1.00  0.00     0.049 A 
ATOM     42  N   UNL A   1      41.130  29.327  29.721  1.00  0.00    -0.248 NA
ATOM     43  C   UNL A   1      39.791  29.164  27.816  1.00  0.00     0.031 C 
ATOM     44  C   UNL A   1      38.020  31.957  31.593  1.00  0.00     0.029 A 
ATOM     45  N   UNL A   1      40.033  31.023  31.873  1.00  0.00    -0.354 N 
ATOM     46  C   UNL A   1      41.780  28.548  28.770  1.00  0.00     0.074 A 
ATOM     47  C   UNL A   1      40.893  28.453  27.629  1.00  0.00     0.031 C 
ATOM     48  C   UNL A   1      38.478  32.333  32.799  1.00  0.00     0.029 A 
ATOM     49  C   UNL A   1      39.774  31.703  33.040  1.00  0.00     0.049 A 
ATOM     50  H   UNL A   1      40.873  30.534  31.708  1.00  0.00     0.167 HD
ATOM     51  C   UNL A   1      43.005  27.970  28.839  1.00  0.00     0.034 A 
ATOM     52  C   UNL A   1      40.489  31.781  34.181  1.00  0.00     0.034 A 
ATOM     53  C   UNL A   1      43.873  28.064  29.989  1.00  0.00     0.049 A 
ATOM     54  C   UNL A   1      41.813  31.060  34.266  1.00  0.00     0.074 A 
ATOM     55  C   UNL A   1      45.139  27.530  30.161  1.00  0.00     0.029 A 
ATOM     56  N   UNL A   1      43.559  28.725  31.169  1.00  0.00    -0.354 N 
ATOM     57  N   UNL A   1      42.420  30.332  33.357  1.00  0.00    -0.248 NA
ATOM     58  C   UNL A   1      42.550  31.177  35.532  1.00  0.00     0.031 C 
ATOM     59  C   UNL A   1      45.561  27.811  31.465  1.00  0.00     0.029 A 
ATOM     60  C   UNL A   1      44.591  28.583  32.085  1.00  0.00     0.049 A 
ATOM     61  H   UNL A   1      42.725  29.222  31.333  1.00  0.00     0.167 HD
ATOM     62  C   UNL A   1      43.622  29.929  33.932  1.00  0.00     0.074 A 
ATOM     63  C   UNL A   1      43.660  30.506  35.260  1.00  0.00     0.031 C 
ATOM     64  C   UNL A   1      44.608  29.154  33.411  1.00  0.00     0.034 A 
BRANCH  51  65
ATOM     65  C   UNL A   1      43.450  27.140  27.660  1.00  0.00     0.023 A 
ATOM     66  C   UNL A   1      43.291  25.742  27.632  1.00  0.00     0.031 A 
ATOM     67  C   UNL A   1      44.060  27.755  26.553  1.00  0.00     0.131 A 
ATOM     68  C   UNL A   1      43.791  25.002  26.550  1.00  0.00     0.055 A 
ATOM     69  C   UNL A   1      44.491  27.020  25.446  1.00  0.00     0.041 A 
ATOM     70  F   UNL A   1      44.258  29.082  26.532  1.00  0.00    -0.206 F 
ATOM     71  C   UNL A   1      44.369  25.634  25.445  1.00  0.00     0.022 A 
BRANCH  68  72
ATOM     72  S   UNL A   1      43.788  23.192  26.657  1.00  0.00     0.124 S 
ATOM     73  O   UNL A   1      43.042  22.970  27.893  1.00  0.00    -0.237 OA
ATOM     74  O   UNL A   1      43.113  22.803  25.424  1.00  0.00    -0.237 OA
ATOM     75  O   UNL A   1      45.208  22.850  26.725  1.00  0.00    -0.744 OA
ENDBRANCH  68  72
ENDBRANCH  51  65
BRANCH  52  76
ATOM     76  C   UNL A   1      39.954  32.524  35.357  1.00  0.00     0.023 A 
ATOM     77  C   UNL A   1      39.146  31.889  36.315  1.00  0.00     0.031 A 
ATOM     78  C   UNL A   1      40.194  33.902  35.507  1.00  0.00     0.131 A 
ATOM     79  C   UNL A   1      38.570  32.640  37.353  1.00  0.00     0.055 A 
ATOM     80  C   UNL A   1      39.664  34.634  36.571  1.00  0.00     0.041 A 
ATOM     81  F   UNL A   1      40.954  34.559  34.617  1.00  0.00    -0.206 F 
ATOM     82  C   UNL A   1      38.834  34.004  37.494  1.00  0.00     0.022 A 
BRANCH  79  83
ATOM     83  S   UNL A   1      37.393  31.825  38.465  1.00  0.00     0.124 S 
ATOM     84  O   UNL A   1      38.096  31.886  39.741  1.00  0.00    -0.237 OA
ATOM     85  O   UNL A   1      36.216  32.679  38.339  1.00  0.00    -0.237 OA
ATOM     86  O   UNL A   1      37.253  30.487  37.893  1.00  0.00    -0.744 OA
ENDBRANCH  79  83
ENDBRANCH  52  76
BRANCH  64  87
ATOM     87  C   UNL A   1      45.830  28.930  34.270  1.00  0.00     0.023 A 
ATOM     88  C   UNL A   1      45.919  27.845  35.160  1.00  0.00     0.031 A 
ATOM     89  C   UNL A   1      46.913  29.823  34.204  1.00  0.00     0.131 A 
ATOM     90  C   UNL A   1      47.046  27.713  35.988  1.00  0.00     0.055 A 
ATOM     91  C   UNL A   1      48.055  29.655  34.988  1.00  0.00     0.041 A 
ATOM     92  F   UNL A   1      46.879  30.878  33.372  1.00  0.00    -0.206 F 
ATOM     93  C   UNL A   1      48.120  28.602  35.896  1.00  0.00     0.022 A 
BRANCH  90  94
ATOM     94  S   UNL A   1      47.052  26.411  37.250  1.00  0.00     0.124 S 
ATOM     95  O   UNL A   1      46.112  26.937  38.236  1.00  0.00    -0.237 OA
ATOM     96  O   UNL A   1      46.601  25.244  36.499  1.00  0.00    -0.237 OA
ATOM     97  O   UNL A   1      48.446  26.363  37.688  1.00  0.00    -0.744 OA
ENDBRANCH  90  94
ENDBRANCH  64  87
ENDBRANCH  38  39
ENDBRANCH  31  33
ENDBRANCH  30  31
ENDBRANCH  29  30
ENDBRANCH  28  29
ENDBRANCH  27  28
ENDBRANCH   1  27
TORSDOF 21
ENDMDL
MODEL 3
REMARK VINA RESULT:     -10.5      2.442      7.884
REMARK SMILES COc1ccc(/C=C/C(=O)Nc2cc(Cl)ccc2C(=O)OCCOCCOC(=O)c2ccc(-c3c4nc(c(-c5cc(S(=O)(=O)[O-])ccc5F)c5ccc([nH]5)c(-c5cc(S(=O)(=O)[O-])ccc5F)c5nc(c(-c6cc(S(=O)(=O)[O-])ccc6F)c6ccc3[nH]6)C=C5)C=C4)cc2)cc1
REMARK SMILES IDX 23 1 22 2 21 3 19 4 20 5 18 6 12 7 13 8 14 9 17 10 15 11
REMARK SMILES IDX 16 12 11 13 9 14 10 15 8 17 7 18 6 19 3 20 4 21 94 22 5 23
REMARK SMILES IDX 93 24 2 25 1 26 24 27 25 28 26 29 27 30 28 31 29 32 30 33
REMARK SMILES IDX 31 34 92 35 32 36 91 37 33 38 34 39 35 40 85 41 36 42 90 43
REMARK SMILES IDX 84 44 86 45 37 46 89 47 83 48 82 49 38 51 70 52 50 53 69 54
REMARK SMILES IDX 51 55 54 56 68 57 87 58 52 59 53 60 67 62 88 63 55 64 39 65
REMARK SMILES IDX 40 66 48 67 41 68 47 69 49 70 46 71 42 72 43 73 44 74 45 75
REMARK SMILES IDX 71 76 72 77 80 78 73 79 79 80 81 81 78 82 74 83 75 84 76 85
REMARK SMILES IDX 77 86 56 87 57 88 65 89 58 90 64 91 66 92 63 93 59 94 60 95
REMARK SMILES IDX 61 96 62 97
REMARK H PARENT 11 16 86 50 54 61
REMARK Flexibility Score: inf
ROOT
ATOM      1  C   UNL A   1      36.915  22.390  24.146  1.00  0.00     0.202 C 
ENDROOT
BRANCH   1   2
ATOM      2  C   UNL A   1      35.509  22.701  23.628  1.00  0.00     0.261 C 
BRANCH   2   3
ATOM      3  O   UNL A   1      35.254  24.093  23.361  1.00  0.00    -0.460 OA
BRANCH   3   4
ATOM      4  C   UNL A   1      34.720  24.761  24.413  1.00  0.00     0.340 C 
ATOM      5  O   UNL A   1      35.198  24.819  25.538  1.00  0.00    -0.246 OA
BRANCH   4   6
ATOM      6  C   UNL A   1      33.538  25.586  24.047  1.00  0.00     0.083 A 
ATOM      7  C   UNL A   1      32.309  25.701  24.726  1.00  0.00     0.057 A 
ATOM      8  C   UNL A   1      31.281  26.453  24.113  1.00  0.00     0.047 A 
ATOM      9  C   UNL A   1      31.491  27.146  22.919  1.00  0.00     0.043 A 
ATOM     10  C   UNL A   1      33.724  26.294  22.833  1.00  0.00     0.019 A 
ATOM     11  Cl  UNL A   1      30.236  28.118  22.257  1.00  0.00    -0.084 Cl
ATOM     12  C   UNL A   1      32.716  27.079  22.279  1.00  0.00     0.021 A 
BRANCH   7  13
ATOM     13  N   UNL A   1      31.938  25.188  25.990  1.00  0.00    -0.322 N 
ATOM     14  C   UNL A   1      31.871  23.938  26.531  1.00  0.00     0.248 C 
ATOM     15  O   UNL A   1      31.357  23.786  27.637  1.00  0.00    -0.270 OA
ATOM     16  H   UNL A   1      31.667  25.892  26.621  1.00  0.00     0.170 HD
BRANCH  14  17
ATOM     17  C   UNL A   1      32.428  22.768  25.835  1.00  0.00     0.072 C 
ATOM     18  C   UNL A   1      31.886  22.243  24.727  1.00  0.00     0.014 C 
BRANCH  18  19
ATOM     19  C   UNL A   1      32.268  20.912  24.236  1.00  0.00    -0.025 A 
ATOM     20  C   UNL A   1      32.727  18.341  23.205  1.00  0.00     0.118 A 
ATOM     21  C   UNL A   1      32.922  18.600  24.561  1.00  0.00     0.047 A 
ATOM     22  C   UNL A   1      32.286  19.359  22.363  1.00  0.00     0.047 A 
ATOM     23  C   UNL A   1      32.711  19.882  25.073  1.00  0.00     0.012 A 
ATOM     24  C   UNL A   1      32.076  20.642  22.873  1.00  0.00     0.012 A 
BRANCH  20  25
ATOM     25  O   UNL A   1      32.949  17.055  22.798  1.00  0.00    -0.497 OA
ATOM     26  C   UNL A   1      34.249  16.571  23.123  1.00  0.00     0.278 C 
ENDBRANCH  20  25
ENDBRANCH  18  19
ENDBRANCH  14  17
ENDBRANCH   7  13
ENDBRANCH   4   6
ENDBRANCH   3   4
ENDBRANCH   2   3
ENDBRANCH   1   2
BRANCH   1  27
ATOM     27  O   UNL A   1      37.052  21.523  25.264  1.00  0.00    -0.374 OA
BRANCH  27  28
ATOM     28  C   UNL A   1      38.185  20.664  25.323  1.00  0.00     0.202 C 
BRANCH  28  29
ATOM     29  C   UNL A   1      39.489  21.187  25.941  1.00  0.00     0.261 C 
BRANCH  29  30
ATOM     30  O   UNL A   1      40.279  20.189  26.611  1.00  0.00    -0.460 OA
BRANCH  30  31
ATOM     31  C   UNL A   1      41.551  20.087  26.152  1.00  0.00     0.338 C 
ATOM     32  O   UNL A   1      42.028  19.153  25.515  1.00  0.00    -0.246 OA
BRANCH  31  33
ATOM     33  C   UNL A   1      42.304  21.329  26.389  1.00  0.00     0.060 A 
ATOM     34  C   UNL A   1      42.527  21.722  27.714  1.00  0.00     0.016 A 
ATOM     35  C   UNL A   1      42.644  22.174  25.331  1.00  0.00     0.016 A 
ATOM     36  C   UNL A   1      43.048  22.985  27.989  1.00  0.00     0.010 A 
ATOM     37  C   UNL A   1      43.158  23.446  25.610  1.00  0.00     0.010 A 
ATOM     38  C   UNL A   1      43.326  23.871  26.941  1.00  0.00    -0.014 A 
BRANCH  38  39
ATOM     39  C   UNL A   1      43.645  25.288  27.245  1.00  0.00     0.031 A 
ATOM     40  C   UNL A   1      45.062  25.771  27.079  1.00  0.00     0.074 A 
ATOM     41  C   UNL A   1      42.679  26.140  27.635  1.00  0.00     0.049 A 
ATOM     42  N   UNL A   1      45.574  26.948  27.326  1.00  0.00    -0.248 NA
ATOM     43  C   UNL A   1      46.030  24.787  26.569  1.00  0.00     0.031 C 
ATOM     44  C   UNL A   1      41.266  25.797  27.789  1.00  0.00     0.029 A 
ATOM     45  N   UNL A   1      42.743  27.467  27.978  1.00  0.00    -0.354 N 
ATOM     46  C   UNL A   1      46.924  26.850  27.006  1.00  0.00     0.074 A 
ATOM     47  C   UNL A   1      47.155  25.487  26.577  1.00  0.00     0.031 C 
ATOM     48  C   UNL A   1      40.598  26.886  28.207  1.00  0.00     0.029 A 
ATOM     49  C   UNL A   1      41.539  27.989  28.389  1.00  0.00     0.049 A 
ATOM     50  H   UNL A   1      43.573  27.996  27.934  1.00  0.00     0.167 HD
ATOM     51  C   UNL A   1      47.881  27.810  27.060  1.00  0.00     0.034 A 
ATOM     52  C   UNL A   1      41.239  29.208  28.882  1.00  0.00     0.034 A 
ATOM     53  C   UNL A   1      47.636  29.163  27.501  1.00  0.00     0.049 A 
ATOM     54  C   UNL A   1      42.337  30.236  29.012  1.00  0.00     0.074 A 
ATOM     55  C   UNL A   1      48.528  30.219  27.581  1.00  0.00     0.029 A 
ATOM     56  N   UNL A   1      46.413  29.643  27.950  1.00  0.00    -0.354 N 
ATOM     57  N   UNL A   1      43.609  30.132  28.699  1.00  0.00    -0.248 NA
ATOM     58  C   UNL A   1      41.956  31.546  29.556  1.00  0.00     0.031 C 
ATOM     59  C   UNL A   1      47.862  31.315  28.140  1.00  0.00     0.029 A 
ATOM     60  C   UNL A   1      46.535  30.969  28.341  1.00  0.00     0.049 A 
ATOM     61  H   UNL A   1      45.580  29.120  27.985  1.00  0.00     0.167 HD
ATOM     62  C   UNL A   1      44.172  31.374  28.983  1.00  0.00     0.074 A 
ATOM     63  C   UNL A   1      43.099  32.212  29.479  1.00  0.00     0.031 C 
ATOM     64  C   UNL A   1      45.458  31.787  28.845  1.00  0.00     0.034 A 
BRANCH  51  65
ATOM     65  C   UNL A   1      49.287  27.412  26.684  1.00  0.00     0.023 A 
ATOM     66  C   UNL A   1      49.812  27.657  25.402  1.00  0.00     0.031 A 
ATOM     67  C   UNL A   1      50.110  26.759  27.619  1.00  0.00     0.131 A 
ATOM     68  C   UNL A   1      51.097  27.198  25.072  1.00  0.00     0.055 A 
ATOM     69  C   UNL A   1      51.414  26.369  27.306  1.00  0.00     0.041 A 
ATOM     70  F   UNL A   1      49.657  26.480  28.850  1.00  0.00    -0.206 F 
ATOM     71  C   UNL A   1      51.911  26.577  26.023  1.00  0.00     0.022 A 
BRANCH  68  72
ATOM     72  S   UNL A   1      51.646  27.313  23.347  1.00  0.00     0.124 S 
ATOM     73  O   UNL A   1      52.057  28.712  23.261  1.00  0.00    -0.237 OA
ATOM     74  O   UNL A   1      52.719  26.328  23.291  1.00  0.00    -0.237 OA
ATOM     75  O   UNL A   1      50.448  26.975  22.582  1.00  0.00    -0.744 OA
ENDBRANCH  68  72
ENDBRANCH  51  65
BRANCH  52  76
ATOM     76  C   UNL A   1      39.855  29.516  29.342  1.00  0.00     0.023 A 
ATOM     77  C   UNL A   1      39.541  29.592  30.709  1.00  0.00     0.031 A 
ATOM     78  C   UNL A   1      38.808  29.677  28.416  1.00  0.00     0.131 A 
ATOM     79  C   UNL A   1      38.208  29.778  31.111  1.00  0.00     0.055 A 
ATOM     80  C   UNL A   1      37.494  29.916  28.819  1.00  0.00     0.041 A 
ATOM     81  F   UNL A   1      39.052  29.607  27.097  1.00  0.00    -0.206 F 
ATOM     82  C   UNL A   1      37.185  29.954  30.176  1.00  0.00     0.022 A 
BRANCH  79  83
ATOM     83  S   UNL A   1      37.814  29.695  32.880  1.00  0.00     0.124 S 
ATOM     84  O   UNL A   1      39.093  30.044  33.487  1.00  0.00    -0.237 OA
ATOM     85  O   UNL A   1      36.753  30.691  33.001  1.00  0.00    -0.237 OA
ATOM     86  O   UNL A   1      37.389  28.310  33.069  1.00  0.00    -0.744 OA
ENDBRANCH  79  83
ENDBRANCH  52  76
BRANCH  64  87
ATOM     87  C   UNL A   1      45.757  33.226  29.194  1.00  0.00     0.023 A 
ATOM     88  C   UNL A   1      45.576  34.265  28.264  1.00  0.00     0.031 A 
ATOM     89  C   UNL A   1      46.241  33.556  30.472  1.00  0.00     0.131 A 
ATOM     90  C   UNL A   1      45.929  35.580  28.610  1.00  0.00     0.055 A 
ATOM     91  C   UNL A   1      46.536  34.873  30.829  1.00  0.00     0.041 A 
ATOM     92  F   UNL A   1      46.434  32.603  31.397  1.00  0.00    -0.206 F 
ATOM     93  C   UNL A   1      46.393  35.891  29.890  1.00  0.00     0.022 A 
BRANCH  90  94
ATOM     94  S   UNL A   1      45.856  36.866  27.334  1.00  0.00     0.124 S 
ATOM     95  O   UNL A   1      44.451  36.823  26.938  1.00  0.00    -0.237 OA
ATOM     96  O   UNL A   1      46.277  38.057  28.064  1.00  0.00    -0.237 OA
ATOM     97  O   UNL A   1      46.799  36.397  26.319  1.00  0.00    -0.744 OA
ENDBRANCH  90  94
ENDBRANCH  64  87
ENDBRANCH  38  39
ENDBRANCH  31  33
ENDBRANCH  30  31
ENDBRANCH  29  30
ENDBRANCH  28  29
ENDBRANCH  27  28
ENDBRANCH   1  27
TORSDOF 21
ENDMDL
