MODEL 1
REMARK VINA RESULT:     -10.7      0.000      0.000
REMARK SMILES Nc1ccc(O)c(C(=O)OCCOCCOC(=O)c2ccc(-c3c4nc(c(-c5cc(S(=O)(=O)[O-])ccc5F)c5ccc([nH]5)c(-c5cc(S(=O)(=O)[O-])ccc5F)c5nc(c(-c6cc(S(=O)(=O)[O-])ccc6F)c6ccc3[nH]6)C=C5)C=C4)cc2)c1
REMARK SMILES IDX 14 1 13 2 12 3 11 4 10 5 8 6 9 7 7 8 2 9 3 10 82 11 4 12
REMARK SMILES IDX 5 13 1 14 6 17 15 19 16 20 17 21 18 22 19 23 20 24 81 25
REMARK SMILES IDX 21 26 80 27 22 28 23 29 24 30 74 31 25 32 79 33 73 34 75 35
REMARK SMILES IDX 26 36 78 37 72 38 71 39 27 41 59 42 39 43 58 44 40 45 43 46
REMARK SMILES IDX 57 47 76 48 41 49 42 50 56 52 77 53 44 54 28 55 29 56 37 57
REMARK SMILES IDX 30 58 36 59 38 60 35 61 31 62 32 63 33 64 34 65 60 66 61 67
REMARK SMILES IDX 69 68 62 69 68 70 70 71 67 72 63 73 64 74 65 75 66 76 45 77
REMARK SMILES IDX 46 78 54 79 47 80 53 81 55 82 52 83 48 84 49 85 50 86 51 87
REMARK H PARENT 1 15 1 16 6 18 75 40 43 51
REMARK Flexibility Score: inf
ROOT
ATOM      1  C   UNL A   1      36.384  21.540  25.175  1.00  0.00     0.202 C 
ENDROOT
BRANCH   1   2
ATOM      2  O   UNL A   1      36.358  22.161  23.887  1.00  0.00    -0.374 OA
BRANCH   2   3
ATOM      3  C   UNL A   1      35.625  23.383  23.780  1.00  0.00     0.202 C 
BRANCH   3   4
ATOM      4  C   UNL A   1      34.242  23.269  23.129  1.00  0.00     0.261 C 
BRANCH   4   5
ATOM      5  O   UNL A   1      33.196  23.251  24.117  1.00  0.00    -0.460 OA
BRANCH   5   6
ATOM      6  C   UNL A   1      32.068  22.604  23.745  1.00  0.00     0.342 C 
ATOM      7  O   UNL A   1      31.095  23.087  23.180  1.00  0.00    -0.246 OA
BRANCH   6   8
ATOM      8  C   UNL A   1      32.211  21.141  23.906  1.00  0.00     0.103 A 
ATOM      9  C   UNL A   1      32.682  19.168  25.246  1.00  0.00     0.032 A 
ATOM     10  C   UNL A   1      32.498  18.374  24.108  1.00  0.00     0.029 A 
ATOM     11  C   UNL A   1      32.520  20.554  25.142  1.00  0.00     0.045 A 
ATOM     12  C   UNL A   1      32.207  18.952  22.871  1.00  0.00     0.049 A 
ATOM     13  C   UNL A   1      32.061  20.330  22.772  1.00  0.00     0.130 A 
BRANCH   9  14
ATOM     14  N   UNL A   1      32.904  18.573  26.477  1.00  0.00    -0.399 N 
ATOM     15  H   UNL A   1      33.820  18.512  26.836  1.00  0.00     0.156 HD
ATOM     16  H   UNL A   1      32.148  18.212  26.993  1.00  0.00     0.156 HD
ENDBRANCH   9  14
BRANCH  13  17
ATOM     17  O   UNL A   1      31.784  20.821  21.523  1.00  0.00    -0.507 OA
ATOM     18  H   UNL A   1      31.918  20.284  20.768  1.00  0.00     0.293 HD
ENDBRANCH  13  17
ENDBRANCH   6   8
ENDBRANCH   5   6
ENDBRANCH   4   5
ENDBRANCH   3   4
ENDBRANCH   2   3
ENDBRANCH   1   2
BRANCH   1  19
ATOM     19  C   UNL A   1      37.628  20.705  25.501  1.00  0.00     0.261 C 
BRANCH  19  20
ATOM     20  O   UNL A   1      38.836  21.476  25.370  1.00  0.00    -0.460 OA
BRANCH  20  21
ATOM     21  C   UNL A   1      39.718  21.327  26.386  1.00  0.00     0.338 C 
ATOM     22  O   UNL A   1      40.307  20.300  26.700  1.00  0.00    -0.246 OA
BRANCH  21  23
ATOM     23  C   UNL A   1      40.039  22.641  26.976  1.00  0.00     0.060 A 
ATOM     24  C   UNL A   1      39.332  23.751  26.499  1.00  0.00     0.016 A 
ATOM     25  C   UNL A   1      41.043  22.801  27.937  1.00  0.00     0.016 A 
ATOM     26  C   UNL A   1      39.658  25.032  26.941  1.00  0.00     0.010 A 
ATOM     27  C   UNL A   1      41.373  24.089  28.374  1.00  0.00     0.010 A 
ATOM     28  C   UNL A   1      40.705  25.213  27.853  1.00  0.00    -0.014 A 
BRANCH  28  29
ATOM     29  C   UNL A   1      41.194  26.585  28.145  1.00  0.00     0.031 A 
ATOM     30  C   UNL A   1      42.608  26.946  27.775  1.00  0.00     0.074 A 
ATOM     31  C   UNL A   1      40.381  27.506  28.694  1.00  0.00     0.049 A 
ATOM     32  N   UNL A   1      43.259  28.063  27.970  1.00  0.00    -0.248 NA
ATOM     33  C   UNL A   1      43.392  25.902  27.096  1.00  0.00     0.031 C 
ATOM     34  C   UNL A   1      38.978  27.288  29.048  1.00  0.00     0.029 A 
ATOM     35  N   UNL A   1      40.620  28.809  29.055  1.00  0.00    -0.354 N 
ATOM     36  C   UNL A   1      44.529  27.859  27.438  1.00  0.00     0.074 A 
ATOM     37  C   UNL A   1      44.566  26.497  26.950  1.00  0.00     0.031 C 
ATOM     38  C   UNL A   1      38.485  28.417  29.585  1.00  0.00     0.029 A 
ATOM     39  C   UNL A   1      39.543  29.424  29.650  1.00  0.00     0.049 A 
ATOM     40  H   UNL A   1      41.481  29.260  28.902  1.00  0.00     0.167 HD
ATOM     41  C   UNL A   1      45.564  28.732  27.358  1.00  0.00     0.034 A 
ATOM     42  C   UNL A   1      39.434  30.648  30.206  1.00  0.00     0.034 A 
ATOM     43  C   UNL A   1      45.516  30.084  27.858  1.00  0.00     0.049 A 
ATOM     44  C   UNL A   1      40.630  31.571  30.185  1.00  0.00     0.074 A 
ATOM     45  C   UNL A   1      46.505  31.052  27.823  1.00  0.00     0.029 A 
ATOM     46  N   UNL A   1      44.423  30.658  28.496  1.00  0.00    -0.354 N 
ATOM     47  N   UNL A   1      41.825  31.366  29.678  1.00  0.00    -0.248 NA
ATOM     48  C   UNL A   1      40.461  32.891  30.806  1.00  0.00     0.031 C 
ATOM     49  C   UNL A   1      46.035  32.184  28.498  1.00  0.00     0.029 A 
ATOM     50  C   UNL A   1      44.725  31.954  28.886  1.00  0.00     0.049 A 
ATOM     51  H   UNL A   1      43.561  30.210  28.648  1.00  0.00     0.167 HD
ATOM     52  C   UNL A   1      42.534  32.547  29.888  1.00  0.00     0.074 A 
ATOM     53  C   UNL A   1      41.631  33.461  30.555  1.00  0.00     0.031 C 
ATOM     54  C   UNL A   1      43.815  32.851  29.557  1.00  0.00     0.034 A 
BRANCH  41  55
ATOM     55  C   UNL A   1      46.850  28.229  26.747  1.00  0.00     0.023 A 
ATOM     56  C   UNL A   1      47.054  28.221  25.355  1.00  0.00     0.031 A 
ATOM     57  C   UNL A   1      47.879  27.739  27.568  1.00  0.00     0.131 A 
ATOM     58  C   UNL A   1      48.234  27.676  24.826  1.00  0.00     0.055 A 
ATOM     59  C   UNL A   1      49.082  27.266  27.038  1.00  0.00     0.041 A 
ATOM     60  F   UNL A   1      47.730  27.700  28.901  1.00  0.00    -0.206 F 
ATOM     61  C   UNL A   1      49.259  27.221  25.660  1.00  0.00     0.022 A 
BRANCH  58  62
ATOM     62  S   UNL A   1      48.360  27.454  23.030  1.00  0.00     0.124 S 
ATOM     63  O   UNL A   1      49.663  28.053  22.751  1.00  0.00    -0.237 OA
ATOM     64  O   UNL A   1      48.278  26.007  22.884  1.00  0.00    -0.237 OA
ATOM     65  O   UNL A   1      47.216  28.201  22.512  1.00  0.00    -0.744 OA
ENDBRANCH  58  62
ENDBRANCH  41  55
BRANCH  42  66
ATOM     66  C   UNL A   1      38.168  31.068  30.876  1.00  0.00     0.023 A 
ATOM     67  C   UNL A   1      37.152  31.724  30.166  1.00  0.00     0.031 A 
ATOM     68  C   UNL A   1      37.993  30.887  32.260  1.00  0.00     0.131 A 
ATOM     69  C   UNL A   1      36.030  32.223  30.848  1.00  0.00     0.055 A 
ATOM     70  C   UNL A   1      36.849  31.334  32.924  1.00  0.00     0.041 A 
ATOM     71  F   UNL A   1      38.934  30.269  32.990  1.00  0.00    -0.206 F 
ATOM     72  C   UNL A   1      35.866  32.022  32.220  1.00  0.00     0.022 A 
BRANCH  69  73
ATOM     73  S   UNL A   1      34.837  33.237  29.932  1.00  0.00     0.124 S 
ATOM     74  O   UNL A   1      34.189  32.241  29.087  1.00  0.00    -0.237 OA
ATOM     75  O   UNL A   1      34.025  33.794  31.008  1.00  0.00    -0.237 OA
ATOM     76  O   UNL A   1      35.680  34.201  29.228  1.00  0.00    -0.744 OA
ENDBRANCH  69  73
ENDBRANCH  42  66
BRANCH  54  77
ATOM     77  C   UNL A   1      44.293  34.250  29.868  1.00  0.00     0.023 A 
ATOM     78  C   UNL A   1      44.097  35.316  28.974  1.00  0.00     0.031 A 
ATOM     79  C   UNL A   1      44.965  34.513  31.075  1.00  0.00     0.131 A 
ATOM     80  C   UNL A   1      44.616  36.585  29.276  1.00  0.00     0.055 A 
ATOM     81  C   UNL A   1      45.425  35.791  31.398  1.00  0.00     0.041 A 
ATOM     82  F   UNL A   1      45.180  33.532  31.966  1.00  0.00    -0.206 F 
ATOM     83  C   UNL A   1      45.264  36.833  30.489  1.00  0.00     0.022 A 
BRANCH  80  84
ATOM     84  S   UNL A   1      44.512  37.891  28.020  1.00  0.00     0.124 S 
ATOM     85  O   UNL A   1      45.172  37.267  26.877  1.00  0.00    -0.237 OA
ATOM     86  O   UNL A   1      43.073  38.088  27.893  1.00  0.00    -0.237 OA
ATOM     87  O   UNL A   1      45.240  39.006  28.623  1.00  0.00    -0.744 OA
ENDBRANCH  80  84
ENDBRANCH  54  77
ENDBRANCH  28  29
ENDBRANCH  21  23
ENDBRANCH  20  21
ENDBRANCH  19  20
ENDBRANCH   1  19
TORSDOF 19
ENDMDL
MODEL 2
REMARK VINA RESULT:     -10.5      6.152     12.140
REMARK SMILES Nc1ccc(O)c(C(=O)OCCOCCOC(=O)c2ccc(-c3c4nc(c(-c5cc(S(=O)(=O)[O-])ccc5F)c5ccc([nH]5)c(-c5cc(S(=O)(=O)[O-])ccc5F)c5nc(c(-c6cc(S(=O)(=O)[O-])ccc6F)c6ccc3[nH]6)C=C5)C=C4)cc2)c1
REMARK SMILES IDX 14 1 13 2 12 3 11 4 10 5 8 6 9 7 7 8 2 9 3 10 82 11 4 12
REMARK SMILES IDX 5 13 1 14 6 17 15 19 16 20 17 21 18 22 19 23 20 24 81 25
REMARK SMILES IDX 21 26 80 27 22 28 23 29 24 30 74 31 25 32 79 33 73 34 75 35
REMARK SMILES IDX 26 36 78 37 72 38 71 39 27 41 59 42 39 43 58 44 40 45 43 46
REMARK SMILES IDX 57 47 76 48 41 49 42 50 56 52 77 53 44 54 28 55 29 56 37 57
REMARK SMILES IDX 30 58 36 59 38 60 35 61 31 62 32 63 33 64 34 65 60 66 61 67
REMARK SMILES IDX 69 68 62 69 68 70 70 71 67 72 63 73 64 74 65 75 66 76 45 77
REMARK SMILES IDX 46 78 54 79 47 80 53 81 55 82 52 83 48 84 49 85 50 86 51 87
REMARK H PARENT 1 15 1 16 6 18 75 40 43 51
REMARK Flexibility Score: inf
ROOT
ATOM      1  C   UNL A   1      33.132  35.360  29.001  1.00  0.00     0.202 C 
ENDROOT
BRANCH   1   2
ATOM      2  O   UNL A   1      32.368  35.131  30.187  1.00  0.00    -0.374 OA
BRANCH   2   3
ATOM      3  C   UNL A   1      32.523  36.083  31.241  1.00  0.00     0.202 C 
BRANCH   3   4
ATOM      4  C   UNL A   1      33.844  36.004  32.014  1.00  0.00     0.261 C 
BRANCH   4   5
ATOM      5  O   UNL A   1      33.888  34.846  32.866  1.00  0.00    -0.460 OA
BRANCH   5   6
ATOM      6  C   UNL A   1      34.621  33.813  32.392  1.00  0.00     0.342 C 
ATOM      7  O   UNL A   1      34.211  32.848  31.760  1.00  0.00    -0.246 OA
BRANCH   6   8
ATOM      8  C   UNL A   1      36.070  34.073  32.537  1.00  0.00     0.103 A 
ATOM      9  C   UNL A   1      38.049  34.484  33.888  1.00  0.00     0.032 A 
ATOM     10  C   UNL A   1      38.802  34.600  32.715  1.00  0.00     0.029 A 
ATOM     11  C   UNL A   1      36.681  34.202  33.793  1.00  0.00     0.045 A 
ATOM     12  C   UNL A   1      38.198  34.489  31.461  1.00  0.00     0.049 A 
ATOM     13  C   UNL A   1      36.838  34.223  31.374  1.00  0.00     0.130 A 
BRANCH   9  14
ATOM     14  N   UNL A   1      38.676  34.531  35.122  1.00  0.00    -0.399 N 
ATOM     15  H   UNL A   1      38.685  33.734  35.700  1.00  0.00     0.156 HD
ATOM     16  H   UNL A   1      39.114  35.361  35.420  1.00  0.00     0.156 HD
ENDBRANCH   9  14
BRANCH  13  17
ATOM     17  O   UNL A   1      36.318  34.138  30.109  1.00  0.00    -0.507 OA
ATOM     18  H   UNL A   1      36.871  33.907  29.390  1.00  0.00     0.293 HD
ENDBRANCH  13  17
ENDBRANCH   6   8
ENDBRANCH   5   6
ENDBRANCH   4   5
ENDBRANCH   3   4
ENDBRANCH   2   3
ENDBRANCH   1   2
BRANCH   1  19
ATOM     19  C   UNL A   1      33.281  34.167  28.049  1.00  0.00     0.261 C 
BRANCH  19  20
ATOM     20  O   UNL A   1      34.356  33.299  28.449  1.00  0.00    -0.460 OA
BRANCH  20  21
ATOM     21  C   UNL A   1      34.270  32.032  27.977  1.00  0.00     0.338 C 
ATOM     22  O   UNL A   1      33.376  31.570  27.279  1.00  0.00    -0.246 OA
BRANCH  21  23
ATOM     23  C   UNL A   1      35.519  31.299  28.261  1.00  0.00     0.060 A 
ATOM     24  C   UNL A   1      35.402  30.002  28.775  1.00  0.00     0.016 A 
ATOM     25  C   UNL A   1      36.780  31.877  28.081  1.00  0.00     0.016 A 
ATOM     26  C   UNL A   1      36.539  29.295  29.159  1.00  0.00     0.010 A 
ATOM     27  C   UNL A   1      37.921  31.168  28.474  1.00  0.00     0.010 A 
ATOM     28  C   UNL A   1      37.804  29.887  29.047  1.00  0.00    -0.014 A 
BRANCH  28  29
ATOM     29  C   UNL A   1      38.981  29.224  29.663  1.00  0.00     0.031 A 
ATOM     30  C   UNL A   1      39.456  29.695  31.012  1.00  0.00     0.074 A 
ATOM     31  C   UNL A   1      39.594  28.195  29.050  1.00  0.00     0.049 A 
ATOM     32  N   UNL A   1      40.480  29.294  31.719  1.00  0.00    -0.248 NA
ATOM     33  C   UNL A   1      38.667  30.764  31.645  1.00  0.00     0.031 C 
ATOM     34  C   UNL A   1      39.194  27.619  27.766  1.00  0.00     0.029 A 
ATOM     35  N   UNL A   1      40.687  27.454  29.424  1.00  0.00    -0.354 N 
ATOM     36  C   UNL A   1      40.461  30.060  32.881  1.00  0.00     0.074 A 
ATOM     37  C   UNL A   1      39.345  30.976  32.762  1.00  0.00     0.031 C 
ATOM     38  C   UNL A   1      40.038  26.620  27.455  1.00  0.00     0.029 A 
ATOM     39  C   UNL A   1      41.060  26.510  28.496  1.00  0.00     0.049 A 
ATOM     40  H   UNL A   1      41.161  27.585  30.277  1.00  0.00     0.167 HD
ATOM     41  C   UNL A   1      41.292  29.998  33.951  1.00  0.00     0.034 A 
ATOM     42  C   UNL A   1      42.118  25.675  28.475  1.00  0.00     0.034 A 
ATOM     43  C   UNL A   1      42.405  29.087  34.052  1.00  0.00     0.049 A 
ATOM     44  C   UNL A   1      43.083  25.687  29.638  1.00  0.00     0.074 A 
ATOM     45  C   UNL A   1      43.306  28.937  35.092  1.00  0.00     0.029 A 
ATOM     46  N   UNL A   1      42.779  28.176  33.071  1.00  0.00    -0.354 N 
ATOM     47  N   UNL A   1      43.052  26.415  30.731  1.00  0.00    -0.248 NA
ATOM     48  C   UNL A   1      44.220  24.760  29.568  1.00  0.00     0.031 C 
ATOM     49  C   UNL A   1      44.262  27.988  34.713  1.00  0.00     0.029 A 
ATOM     50  C   UNL A   1      43.914  27.486  33.469  1.00  0.00     0.049 A 
ATOM     51  H   UNL A   1      42.307  28.041  32.218  1.00  0.00     0.167 HD
ATOM     52  C   UNL A   1      44.146  26.005  31.491  1.00  0.00     0.074 A 
ATOM     53  C   UNL A   1      44.807  24.960  30.738  1.00  0.00     0.031 C 
ATOM     54  C   UNL A   1      44.566  26.450  32.703  1.00  0.00     0.034 A 
BRANCH  41  55
ATOM     55  C   UNL A   1      41.051  30.977  35.075  1.00  0.00     0.023 A 
ATOM     56  C   UNL A   1      39.913  30.896  35.896  1.00  0.00     0.031 A 
ATOM     57  C   UNL A   1      41.968  32.014  35.318  1.00  0.00     0.131 A 
ATOM     58  C   UNL A   1      39.691  31.871  36.881  1.00  0.00     0.055 A 
ATOM     59  C   UNL A   1      41.779  32.938  36.348  1.00  0.00     0.041 A 
ATOM     60  F   UNL A   1      43.060  32.155  34.550  1.00  0.00    -0.206 F 
ATOM     61  C   UNL A   1      40.629  32.877  37.128  1.00  0.00     0.022 A 
BRANCH  58  62
ATOM     62  S   UNL A   1      38.100  31.880  37.752  1.00  0.00     0.124 S 
ATOM     63  O   UNL A   1      38.529  32.003  39.144  1.00  0.00    -0.237 OA
ATOM     64  O   UNL A   1      37.435  33.044  37.182  1.00  0.00    -0.237 OA
ATOM     65  O   UNL A   1      37.511  30.589  37.402  1.00  0.00    -0.744 OA
ENDBRANCH  58  62
ENDBRANCH  41  55
BRANCH  42  66
ATOM     66  C   UNL A   1      42.363  24.786  27.301  1.00  0.00     0.023 A 
ATOM     67  C   UNL A   1      41.924  23.453  27.294  1.00  0.00     0.031 A 
ATOM     68  C   UNL A   1      43.110  25.239  26.199  1.00  0.00     0.131 A 
ATOM     69  C   UNL A   1      42.282  22.604  26.233  1.00  0.00     0.055 A 
ATOM     70  C   UNL A   1      43.414  24.407  25.120  1.00  0.00     0.041 A 
ATOM     71  F   UNL A   1      43.558  26.503  26.155  1.00  0.00    -0.206 F 
ATOM     72  C   UNL A   1      43.012  23.075  25.140  1.00  0.00     0.022 A 
BRANCH  69  73
ATOM     73  S   UNL A   1      41.867  20.842  26.355  1.00  0.00     0.124 S 
ATOM     74  O   UNL A   1      42.276  20.535  27.721  1.00  0.00    -0.237 OA
ATOM     75  O   UNL A   1      40.431  20.851  26.099  1.00  0.00    -0.237 OA
ATOM     76  O   UNL A   1      42.681  20.229  25.307  1.00  0.00    -0.744 OA
ENDBRANCH  69  73
ENDBRANCH  42  66
BRANCH  54  77
ATOM     77  C   UNL A   1      45.769  25.766  33.309  1.00  0.00     0.023 A 
ATOM     78  C   UNL A   1      47.081  26.103  32.934  1.00  0.00     0.031 A 
ATOM     79  C   UNL A   1      45.594  24.754  34.270  1.00  0.00     0.131 A 
ATOM     80  C   UNL A   1      48.165  25.396  33.475  1.00  0.00     0.055 A 
ATOM     81  C   UNL A   1      46.680  24.095  34.850  1.00  0.00     0.041 A 
ATOM     82  F   UNL A   1      44.363  24.390  34.665  1.00  0.00    -0.206 F 
ATOM     83  C   UNL A   1      47.974  24.405  34.443  1.00  0.00     0.022 A 
BRANCH  80  84
ATOM     84  S   UNL A   1      49.829  25.725  32.832  1.00  0.00     0.124 S 
ATOM     85  O   UNL A   1      50.294  24.383  32.492  1.00  0.00    -0.237 OA
ATOM     86  O   UNL A   1      49.558  26.609  31.704  1.00  0.00    -0.237 OA
ATOM     87  O   UNL A   1      50.516  26.352  33.959  1.00  0.00    -0.744 OA
ENDBRANCH  80  84
ENDBRANCH  54  77
ENDBRANCH  28  29
ENDBRANCH  21  23
ENDBRANCH  20  21
ENDBRANCH  19  20
ENDBRANCH   1  19
TORSDOF 19
ENDMDL
MODEL 3
REMARK VINA RESULT:     -10.5      6.139     11.985
REMARK SMILES Nc1ccc(O)c(C(=O)OCCOCCOC(=O)c2ccc(-c3c4nc(c(-c5cc(S(=O)(=O)[O-])ccc5F)c5ccc([nH]5)c(-c5cc(S(=O)(=O)[O-])ccc5F)c5nc(c(-c6cc(S(=O)(=O)[O-])ccc6F)c6ccc3[nH]6)C=C5)C=C4)cc2)c1
REMARK SMILES IDX 14 1 13 2 12 3 11 4 10 5 8 6 9 7 7 8 2 9 3 10 82 11 4 12
REMARK SMILES IDX 5 13 1 14 6 17 15 19 16 20 17 21 18 22 19 23 20 24 81 25
REMARK SMILES IDX 21 26 80 27 22 28 23 29 24 30 74 31 25 32 79 33 73 34 75 35
REMARK SMILES IDX 26 36 78 37 72 38 71 39 27 41 59 42 39 43 58 44 40 45 43 46
REMARK SMILES IDX 57 47 76 48 41 49 42 50 56 52 77 53 44 54 28 55 29 56 37 57
REMARK SMILES IDX 30 58 36 59 38 60 35 61 31 62 32 63 33 64 34 65 60 66 61 67
REMARK SMILES IDX 69 68 62 69 68 70 70 71 67 72 63 73 64 74 65 75 66 76 45 77
REMARK SMILES IDX 46 78 54 79 47 80 53 81 55 82 52 83 48 84 49 85 50 86 51 87
REMARK H PARENT 1 15 1 16 6 18 75 40 43 51
REMARK Flexibility Score: inf
ROOT
ATOM      1  C   UNL A   1      33.857  34.294  29.244  1.00  0.00     0.202 C 
ENDROOT
BRANCH   1   2
ATOM      2  O   UNL A   1      32.764  35.006  29.829  1.00  0.00    -0.374 OA
BRANCH   2   3
ATOM      3  C   UNL A   1      32.905  36.423  29.930  1.00  0.00     0.202 C 
BRANCH   3   4
ATOM      4  C   UNL A   1      32.903  36.987  31.356  1.00  0.00     0.261 C 
BRANCH   4   5
ATOM      5  O   UNL A   1      32.955  35.937  32.338  1.00  0.00    -0.460 OA
BRANCH   5   6
ATOM      6  C   UNL A   1      34.107  35.869  33.043  1.00  0.00     0.342 C 
ATOM      7  O   UNL A   1      34.403  36.524  34.034  1.00  0.00    -0.246 OA
BRANCH   6   8
ATOM      8  C   UNL A   1      34.937  34.725  32.606  1.00  0.00     0.103 A 
ATOM      9  C   UNL A   1      36.938  33.795  31.585  1.00  0.00     0.032 A 
ATOM     10  C   UNL A   1      36.416  32.511  31.777  1.00  0.00     0.029 A 
ATOM     11  C   UNL A   1      36.198  34.902  32.019  1.00  0.00     0.045 A 
ATOM     12  C   UNL A   1      35.155  32.328  32.346  1.00  0.00     0.049 A 
ATOM     13  C   UNL A   1      34.420  33.431  32.761  1.00  0.00     0.130 A 
BRANCH   9  14
ATOM     14  N   UNL A   1      38.218  33.955  31.081  1.00  0.00    -0.399 N 
ATOM     15  H   UNL A   1      38.926  34.339  31.648  1.00  0.00     0.156 HD
ATOM     16  H   UNL A   1      38.420  33.685  30.156  1.00  0.00     0.156 HD
ENDBRANCH   9  14
BRANCH  13  17
ATOM     17  O   UNL A   1      33.188  33.169  33.301  1.00  0.00    -0.507 OA
ATOM     18  H   UNL A   1      33.106  32.563  34.009  1.00  0.00     0.293 HD
ENDBRANCH  13  17
ENDBRANCH   6   8
ENDBRANCH   5   6
ENDBRANCH   4   5
ENDBRANCH   3   4
ENDBRANCH   2   3
ENDBRANCH   1   2
BRANCH   1  19
ATOM     19  C   UNL A   1      33.533  33.455  28.002  1.00  0.00     0.261 C 
BRANCH  19  20
ATOM     20  O   UNL A   1      34.692  32.752  27.517  1.00  0.00    -0.460 OA
BRANCH  20  21
ATOM     21  C   UNL A   1      34.632  31.405  27.637  1.00  0.00     0.338 C 
ATOM     22  O   UNL A   1      33.833  30.656  27.087  1.00  0.00    -0.246 OA
BRANCH  21  23
ATOM     23  C   UNL A   1      35.800  30.909  28.390  1.00  0.00     0.060 A 
ATOM     24  C   UNL A   1      37.028  31.541  28.163  1.00  0.00     0.016 A 
ATOM     25  C   UNL A   1      35.716  29.819  29.262  1.00  0.00     0.016 A 
ATOM     26  C   UNL A   1      38.188  31.056  28.764  1.00  0.00     0.010 A 
ATOM     27  C   UNL A   1      36.884  29.329  29.860  1.00  0.00     0.010 A 
ATOM     28  C   UNL A   1      38.130  29.924  29.587  1.00  0.00    -0.014 A 
BRANCH  28  29
ATOM     29  C   UNL A   1      39.390  29.281  30.039  1.00  0.00     0.031 A 
ATOM     30  C   UNL A   1      40.092  29.833  31.251  1.00  0.00     0.074 A 
ATOM     31  C   UNL A   1      39.880  28.201  29.404  1.00  0.00     0.049 A 
ATOM     32  N   UNL A   1      41.219  29.461  31.800  1.00  0.00    -0.248 NA
ATOM     33  C   UNL A   1      39.432  30.958  31.933  1.00  0.00     0.031 C 
ATOM     34  C   UNL A   1      39.261  27.548  28.251  1.00  0.00     0.029 A 
ATOM     35  N   UNL A   1      41.015  27.465  29.637  1.00  0.00    -0.354 N 
ATOM     36  C   UNL A   1      41.406  30.304  32.891  1.00  0.00     0.074 A 
ATOM     37  C   UNL A   1      40.294  31.231  32.900  1.00  0.00     0.031 C 
ATOM     38  C   UNL A   1      40.031  26.513  27.871  1.00  0.00     0.029 A 
ATOM     39  C   UNL A   1      41.216  26.454  28.727  1.00  0.00     0.049 A 
ATOM     40  H   UNL A   1      41.629  27.645  30.386  1.00  0.00     0.167 HD
ATOM     41  C   UNL A   1      42.407  30.297  33.805  1.00  0.00     0.034 A 
ATOM     42  C   UNL A   1      42.249  25.598  28.585  1.00  0.00     0.034 A 
ATOM     43  C   UNL A   1      43.514  29.374  33.778  1.00  0.00     0.049 A 
ATOM     44  C   UNL A   1      43.398  25.670  29.564  1.00  0.00     0.074 A 
ATOM     45  C   UNL A   1      44.578  29.277  34.658  1.00  0.00     0.029 A 
ATOM     46  N   UNL A   1      43.707  28.391  32.815  1.00  0.00    -0.354 N 
ATOM     47  N   UNL A   1      43.561  26.471  30.592  1.00  0.00    -0.248 NA
ATOM     48  C   UNL A   1      44.499  24.718  29.365  1.00  0.00     0.031 C 
ATOM     49  C   UNL A   1      45.448  28.285  34.189  1.00  0.00     0.029 A 
ATOM     50  C   UNL A   1      44.888  27.707  33.061  1.00  0.00     0.049 A 
ATOM     51  H   UNL A   1      43.095  28.208  32.066  1.00  0.00     0.167 HD
ATOM     52  C   UNL A   1      44.766  26.092  31.181  1.00  0.00     0.074 A 
ATOM     53  C   UNL A   1      45.279  24.985  30.402  1.00  0.00     0.031 C 
ATOM     54  C   UNL A   1      45.391  26.609  32.270  1.00  0.00     0.034 A 
BRANCH  41  55
ATOM     55  C   UNL A   1      42.371  31.355  34.882  1.00  0.00     0.023 A 
ATOM     56  C   UNL A   1      41.347  31.395  35.845  1.00  0.00     0.031 A 
ATOM     57  C   UNL A   1      43.367  32.344  34.936  1.00  0.00     0.131 A 
ATOM     58  C   UNL A   1      41.310  32.440  36.783  1.00  0.00     0.055 A 
ATOM     59  C   UNL A   1      43.366  33.338  35.918  1.00  0.00     0.041 A 
ATOM     60  F   UNL A   1      44.355  32.369  34.028  1.00  0.00    -0.206 F 
ATOM     61  C   UNL A   1      42.327  33.397  36.840  1.00  0.00     0.022 A 
BRANCH  58  62
ATOM     62  S   UNL A   1      39.850  32.602  37.846  1.00  0.00     0.124 S 
ATOM     63  O   UNL A   1      38.968  31.578  37.291  1.00  0.00    -0.237 OA
ATOM     64  O   UNL A   1      40.393  32.328  39.171  1.00  0.00    -0.237 OA
ATOM     65  O   UNL A   1      39.414  33.979  37.622  1.00  0.00    -0.744 OA
ENDBRANCH  58  62
ENDBRANCH  41  55
BRANCH  42  66
ATOM     66  C   UNL A   1      42.281  24.627  27.452  1.00  0.00     0.023 A 
ATOM     67  C   UNL A   1      41.511  23.454  27.476  1.00  0.00     0.031 A 
ATOM     68  C   UNL A   1      43.147  24.824  26.361  1.00  0.00     0.131 A 
ATOM     69  C   UNL A   1      41.660  22.497  26.459  1.00  0.00     0.055 A 
ATOM     70  C   UNL A   1      43.249  23.897  25.323  1.00  0.00     0.041 A 
ATOM     71  F   UNL A   1      43.909  25.925  26.288  1.00  0.00    -0.206 F 
ATOM     72  C   UNL A   1      42.514  22.716  25.376  1.00  0.00     0.022 A 
BRANCH  69  73
ATOM     73  S   UNL A   1      40.798  20.910  26.628  1.00  0.00     0.124 S 
ATOM     74  O   UNL A   1      40.778  20.736  28.075  1.00  0.00    -0.237 OA
ATOM     75  O   UNL A   1      39.515  21.195  25.996  1.00  0.00    -0.237 OA
ATOM     76  O   UNL A   1      41.657  19.978  25.898  1.00  0.00    -0.744 OA
ENDBRANCH  69  73
ENDBRANCH  42  66
BRANCH  54  77
ATOM     77  C   UNL A   1      46.674  25.944  32.708  1.00  0.00     0.023 A 
ATOM     78  C   UNL A   1      46.680  24.876  33.622  1.00  0.00     0.031 A 
ATOM     79  C   UNL A   1      47.908  26.395  32.209  1.00  0.00     0.131 A 
ATOM     80  C   UNL A   1      47.901  24.331  34.051  1.00  0.00     0.055 A 
ATOM     81  C   UNL A   1      49.116  25.809  32.593  1.00  0.00     0.041 A 
ATOM     82  F   UNL A   1      47.961  27.412  31.334  1.00  0.00    -0.206 F 
ATOM     83  C   UNL A   1      49.118  24.780  33.530  1.00  0.00     0.022 A 
BRANCH  80  84
ATOM     84  S   UNL A   1      47.885  23.085  35.370  1.00  0.00     0.124 S 
ATOM     85  O   UNL A   1      46.461  22.986  35.676  1.00  0.00    -0.237 OA
ATOM     86  O   UNL A   1      48.476  21.926  34.711  1.00  0.00    -0.237 OA
ATOM     87  O   UNL A   1      48.704  23.686  36.420  1.00  0.00    -0.744 OA
ENDBRANCH  80  84
ENDBRANCH  54  77
ENDBRANCH  28  29
ENDBRANCH  21  23
ENDBRANCH  20  21
ENDBRANCH  19  20
ENDBRANCH   1  19
TORSDOF 19
ENDMDL
