MODEL 1
REMARK VINA RESULT:     -11.0      0.000      0.000
REMARK SMILES CO[C@H]1C[C@H](C(=O)OCCOCCOC(=O)c2ccc(-c3c4nc(c(-c5cc(S(=O)(=O)[O-])ccc5F)c5ccc([nH]5)c(-c5cc(S(=O)(=O)[O-])ccc5F)c5nc(c(-c6cc(S(=O)(=O)[O-])ccc6F)c6ccc3[nH]6)C=C5)C=C4)cc2)N(C(=O)c2cc(Cl)c(Cl)n2C)C1
REMARK SMILES IDX 12 1 11 2 10 3 9 4 8 5 6 6 7 7 5 8 3 9 4 10 91 11 80 12 2 13
REMARK SMILES IDX 1 14 81 15 82 16 83 17 84 18 89 19 85 20 87 21 90 22 86 23
REMARK SMILES IDX 88 24 13 25 14 26 15 27 16 28 17 29 18 30 79 31 19 32 78 33
REMARK SMILES IDX 20 34 21 35 22 36 72 37 23 38 77 39 71 40 73 41 24 42 76 43
REMARK SMILES IDX 70 44 69 45 25 47 57 48 37 49 56 50 38 51 41 52 55 53 74 54
REMARK SMILES IDX 39 55 40 56 54 58 75 59 42 60 26 61 27 62 35 63 28 64 34 65
REMARK SMILES IDX 36 66 33 67 29 68 30 69 31 70 32 71 58 72 59 73 67 74 60 75
REMARK SMILES IDX 66 76 68 77 65 78 61 79 62 80 63 81 64 82 43 83 44 84 52 85
REMARK SMILES IDX 45 86 51 87 53 88 50 89 46 90 47 91 48 92 49 93
REMARK H PARENT 73 46 41 57
REMARK Flexibility Score: inf
ROOT
ATOM      1  C   UNL A   1      31.765  28.883  25.003  1.00  0.00     0.202 C 
ENDROOT
BRANCH   1   2
ATOM      2  O   UNL A   1      31.532  27.717  25.790  1.00  0.00    -0.374 OA
BRANCH   2   3
ATOM      3  C   UNL A   1      32.308  26.549  25.535  1.00  0.00     0.202 C 
BRANCH   3   4
ATOM      4  C   UNL A   1      32.780  26.323  24.098  1.00  0.00     0.261 C 
BRANCH   4   5
ATOM      5  O   UNL A   1      34.026  25.613  24.055  1.00  0.00    -0.462 OA
BRANCH   5   6
ATOM      6  C   UNL A   1      34.055  24.570  23.186  1.00  0.00     0.329 C 
ATOM      7  O   UNL A   1      33.566  24.595  22.061  1.00  0.00    -0.250 OA
BRANCH   6   8
ATOM      8  C   UNL A   1      34.745  23.324  23.764  1.00  0.00     0.198 C 
ATOM      9  C   UNL A   1      36.134  23.990  25.622  1.00  0.00     0.140 C 
ATOM     10  C   UNL A   1      36.197  23.460  24.189  1.00  0.00     0.071 C 
ATOM     11  C   UNL A   1      34.790  23.458  26.155  1.00  0.00     0.153 C 
ATOM     12  N   UNL A   1      34.064  22.951  24.996  1.00  0.00    -0.321 N 
BRANCH   9  13
ATOM     13  O   UNL A   1      37.217  23.488  26.405  1.00  0.00    -0.380 OA
ATOM     14  C   UNL A   1      38.321  24.384  26.485  1.00  0.00     0.195 C 
ENDBRANCH   9  13
BRANCH  12  15
ATOM     15  C   UNL A   1      32.829  22.346  25.114  1.00  0.00     0.271 C 
ATOM     16  O   UNL A   1      31.833  22.975  25.465  1.00  0.00    -0.267 OA
BRANCH  15  17
ATOM     17  C   UNL A   1      32.760  20.937  24.782  1.00  0.00     0.109 A 
ATOM     18  C   UNL A   1      33.012  19.848  25.610  1.00  0.00     0.055 A 
ATOM     19  N   UNL A   1      32.415  20.424  23.539  1.00  0.00    -0.329 N 
ATOM     20  C   UNL A   1      32.867  18.669  24.847  1.00  0.00     0.078 A 
ATOM     21  C   UNL A   1      32.492  19.057  23.588  1.00  0.00     0.128 A 
ATOM     22  C   UNL A   1      32.125  21.213  22.359  1.00  0.00     0.151 C 
ATOM     23  Cl  UNL A   1      33.131  17.100  25.437  1.00  0.00    -0.081 Cl
ATOM     24  Cl  UNL A   1      32.155  18.115  22.202  1.00  0.00    -0.063 Cl
ENDBRANCH  15  17
ENDBRANCH  12  15
ENDBRANCH   6   8
ENDBRANCH   5   6
ENDBRANCH   4   5
ENDBRANCH   3   4
ENDBRANCH   2   3
ENDBRANCH   1   2
BRANCH   1  25
ATOM     25  C   UNL A   1      31.771  30.252  25.699  1.00  0.00     0.261 C 
BRANCH  25  26
ATOM     26  O   UNL A   1      32.430  30.243  26.981  1.00  0.00    -0.460 OA
BRANCH  26  27
ATOM     27  C   UNL A   1      33.131  31.375  27.252  1.00  0.00     0.338 C 
ATOM     28  O   UNL A   1      32.685  32.513  27.305  1.00  0.00    -0.246 OA
BRANCH  27  29
ATOM     29  C   UNL A   1      34.502  31.053  27.682  1.00  0.00     0.060 A 
ATOM     30  C   UNL A   1      34.783  29.718  27.999  1.00  0.00     0.016 A 
ATOM     31  C   UNL A   1      35.458  32.049  27.894  1.00  0.00     0.016 A 
ATOM     32  C   UNL A   1      36.005  29.378  28.574  1.00  0.00     0.010 A 
ATOM     33  C   UNL A   1      36.683  31.705  28.481  1.00  0.00     0.010 A 
ATOM     34  C   UNL A   1      36.947  30.375  28.857  1.00  0.00    -0.014 A 
BRANCH  34  35
ATOM     35  C   UNL A   1      38.134  30.037  29.684  1.00  0.00     0.031 A 
ATOM     36  C   UNL A   1      39.147  29.061  29.146  1.00  0.00     0.074 A 
ATOM     37  C   UNL A   1      38.333  30.629  30.876  1.00  0.00     0.049 A 
ATOM     38  N   UNL A   1      40.232  28.596  29.708  1.00  0.00    -0.248 NA
ATOM     39  C   UNL A   1      38.899  28.542  27.792  1.00  0.00     0.031 C 
ATOM     40  C   UNL A   1      37.451  31.628  31.476  1.00  0.00     0.029 A 
ATOM     41  N   UNL A   1      39.340  30.472  31.795  1.00  0.00    -0.354 N 
ATOM     42  C   UNL A   1      40.796  27.726  28.780  1.00  0.00     0.074 A 
ATOM     43  C   UNL A   1      39.911  27.702  27.635  1.00  0.00     0.031 C 
ATOM     44  C   UNL A   1      37.950  31.987  32.672  1.00  0.00     0.029 A 
ATOM     45  C   UNL A   1      39.161  31.214  32.939  1.00  0.00     0.049 A 
ATOM     46  H   UNL A   1      40.115  29.883  31.649  1.00  0.00     0.167 HD
ATOM     47  C   UNL A   1      41.950  27.018  28.874  1.00  0.00     0.034 A 
ATOM     48  C   UNL A   1      39.877  31.245  34.082  1.00  0.00     0.034 A 
ATOM     49  C   UNL A   1      42.819  27.046  30.027  1.00  0.00     0.049 A 
ATOM     50  C   UNL A   1      41.114  30.388  34.196  1.00  0.00     0.074 A 
ATOM     51  C   UNL A   1      44.013  26.375  30.220  1.00  0.00     0.029 A 
ATOM     52  N   UNL A   1      42.583  27.776  31.185  1.00  0.00    -0.354 N 
ATOM     53  N   UNL A   1      41.632  29.564  33.316  1.00  0.00    -0.248 NA
ATOM     54  C   UNL A   1      41.866  30.473  35.456  1.00  0.00     0.031 C 
ATOM     55  C   UNL A   1      44.461  26.639  31.520  1.00  0.00     0.029 A 
ATOM     56  C   UNL A   1      43.592  27.544  32.109  1.00  0.00     0.049 A 
ATOM     57  H   UNL A   1      41.812  28.370  31.329  1.00  0.00     0.167 HD
ATOM     58  C   UNL A   1      42.788  29.054  33.907  1.00  0.00     0.074 A 
ATOM     59  C   UNL A   1      42.895  29.675  35.210  1.00  0.00     0.031 C 
ATOM     60  C   UNL A   1      43.681  28.158  33.413  1.00  0.00     0.034 A 
BRANCH  47  61
ATOM     61  C   UNL A   1      42.307  26.113  27.720  1.00  0.00     0.023 A 
ATOM     62  C   UNL A   1      41.962  24.750  27.709  1.00  0.00     0.031 A 
ATOM     63  C   UNL A   1      43.019  26.620  26.618  1.00  0.00     0.131 A 
ATOM     64  C   UNL A   1      42.380  23.931  26.649  1.00  0.00     0.055 A 
ATOM     65  C   UNL A   1      43.367  25.816  25.531  1.00  0.00     0.041 A 
ATOM     66  F   UNL A   1      43.398  27.907  26.584  1.00  0.00    -0.206 F 
ATOM     67  C   UNL A   1      43.058  24.459  25.548  1.00  0.00     0.022 A 
BRANCH  64  68
ATOM     68  S   UNL A   1      42.140  22.138  26.790  1.00  0.00     0.124 S 
ATOM     69  O   UNL A   1      40.864  21.957  26.104  1.00  0.00    -0.237 OA
ATOM     70  O   UNL A   1      43.314  21.607  26.108  1.00  0.00    -0.237 OA
ATOM     71  O   UNL A   1      42.101  21.911  28.234  1.00  0.00    -0.744 OA
ENDBRANCH  64  68
ENDBRANCH  47  61
BRANCH  48  72
ATOM     72  C   UNL A   1      39.416  32.076  35.232  1.00  0.00     0.023 A 
ATOM     73  C   UNL A   1      38.722  31.511  36.312  1.00  0.00     0.031 A 
ATOM     74  C   UNL A   1      39.630  33.467  35.241  1.00  0.00     0.131 A 
ATOM     75  C   UNL A   1      38.232  32.337  37.337  1.00  0.00     0.055 A 
ATOM     76  C   UNL A   1      39.187  34.276  36.286  1.00  0.00     0.041 A 
ATOM     77  F   UNL A   1      40.287  34.058  34.230  1.00  0.00    -0.206 F 
ATOM     78  C   UNL A   1      38.472  33.713  37.338  1.00  0.00     0.022 A 
BRANCH  75  79
ATOM     79  S   UNL A   1      37.207  31.594  38.637  1.00  0.00     0.124 S 
ATOM     80  O   UNL A   1      36.032  32.458  38.618  1.00  0.00    -0.237 OA
ATOM     81  O   UNL A   1      37.016  30.239  38.133  1.00  0.00    -0.237 OA
ATOM     82  O   UNL A   1      38.043  31.701  39.831  1.00  0.00    -0.744 OA
ENDBRANCH  75  79
ENDBRANCH  48  72
BRANCH  60  83
ATOM     83  C   UNL A   1      44.879  27.831  34.273  1.00  0.00     0.023 A 
ATOM     84  C   UNL A   1      44.897  26.715  35.127  1.00  0.00     0.031 A 
ATOM     85  C   UNL A   1      46.018  28.654  34.239  1.00  0.00     0.131 A 
ATOM     86  C   UNL A   1      46.009  26.482  35.951  1.00  0.00     0.055 A 
ATOM     87  C   UNL A   1      47.147  28.383  35.015  1.00  0.00     0.041 A 
ATOM     88  F   UNL A   1      46.057  29.736  33.445  1.00  0.00    -0.206 F 
ATOM     89  C   UNL A   1      47.141  27.298  35.887  1.00  0.00     0.022 A 
BRANCH  86  90
ATOM     90  S   UNL A   1      45.923  25.148  37.177  1.00  0.00     0.124 S 
ATOM     91  O   UNL A   1      44.486  25.044  37.411  1.00  0.00    -0.237 OA
ATOM     92  O   UNL A   1      46.535  24.030  36.466  1.00  0.00    -0.237 OA
ATOM     93  O   UNL A   1      46.698  25.666  38.303  1.00  0.00    -0.744 OA
ENDBRANCH  86  90
ENDBRANCH  60  83
ENDBRANCH  34  35
ENDBRANCH  27  29
ENDBRANCH  26  27
ENDBRANCH  25  26
ENDBRANCH   1  25
TORSDOF 20
ENDMDL
MODEL 2
REMARK VINA RESULT:     -11.0      0.962      7.476
REMARK SMILES CO[C@H]1C[C@H](C(=O)OCCOCCOC(=O)c2ccc(-c3c4nc(c(-c5cc(S(=O)(=O)[O-])ccc5F)c5ccc([nH]5)c(-c5cc(S(=O)(=O)[O-])ccc5F)c5nc(c(-c6cc(S(=O)(=O)[O-])ccc6F)c6ccc3[nH]6)C=C5)C=C4)cc2)N(C(=O)c2cc(Cl)c(Cl)n2C)C1
REMARK SMILES IDX 12 1 11 2 10 3 9 4 8 5 6 6 7 7 5 8 3 9 4 10 91 11 80 12 2 13
REMARK SMILES IDX 1 14 81 15 82 16 83 17 84 18 89 19 85 20 87 21 90 22 86 23
REMARK SMILES IDX 88 24 13 25 14 26 15 27 16 28 17 29 18 30 79 31 19 32 78 33
REMARK SMILES IDX 20 34 21 35 22 36 72 37 23 38 77 39 71 40 73 41 24 42 76 43
REMARK SMILES IDX 70 44 69 45 25 47 57 48 37 49 56 50 38 51 41 52 55 53 74 54
REMARK SMILES IDX 39 55 40 56 54 58 75 59 42 60 26 61 27 62 35 63 28 64 34 65
REMARK SMILES IDX 36 66 33 67 29 68 30 69 31 70 32 71 58 72 59 73 67 74 60 75
REMARK SMILES IDX 66 76 68 77 65 78 61 79 62 80 63 81 64 82 43 83 44 84 52 85
REMARK SMILES IDX 45 86 51 87 53 88 50 89 46 90 47 91 48 92 49 93
REMARK H PARENT 73 46 41 57
REMARK Flexibility Score: inf
ROOT
ATOM      1  C   UNL A   1      31.797  29.859  25.368  1.00  0.00     0.202 C 
ENDROOT
BRANCH   1   2
ATOM      2  O   UNL A   1      32.993  29.161  25.028  1.00  0.00    -0.374 OA
BRANCH   2   3
ATOM      3  C   UNL A   1      33.049  27.752  25.238  1.00  0.00     0.202 C 
BRANCH   3   4
ATOM      4  C   UNL A   1      33.597  26.895  24.097  1.00  0.00     0.261 C 
BRANCH   4   5
ATOM      5  O   UNL A   1      33.563  25.498  24.420  1.00  0.00    -0.462 OA
BRANCH   5   6
ATOM      6  C   UNL A   1      33.873  24.670  23.389  1.00  0.00     0.329 C 
ATOM      7  O   UNL A   1      33.588  24.891  22.216  1.00  0.00    -0.250 OA
BRANCH   6   8
ATOM      8  C   UNL A   1      34.602  23.394  23.841  1.00  0.00     0.198 C 
ATOM      9  C   UNL A   1      36.020  23.927  25.719  1.00  0.00     0.140 C 
ATOM     10  C   UNL A   1      36.061  23.525  24.244  1.00  0.00     0.071 C 
ATOM     11  C   UNL A   1      34.701  23.321  26.232  1.00  0.00     0.153 C 
ATOM     12  N   UNL A   1      33.959  22.900  25.051  1.00  0.00    -0.321 N 
BRANCH   9  13
ATOM     13  O   UNL A   1      37.132  23.383  26.431  1.00  0.00    -0.380 OA
ATOM     14  C   UNL A   1      38.362  24.048  26.157  1.00  0.00     0.195 C 
ENDBRANCH   9  13
BRANCH  12  15
ATOM     15  C   UNL A   1      32.739  22.259  25.142  1.00  0.00     0.271 C 
ATOM     16  O   UNL A   1      31.717  22.861  25.466  1.00  0.00    -0.267 OA
BRANCH  15  17
ATOM     17  C   UNL A   1      32.719  20.848  24.816  1.00  0.00     0.109 A 
ATOM     18  C   UNL A   1      32.975  19.770  25.656  1.00  0.00     0.055 A 
ATOM     19  N   UNL A   1      32.427  20.320  23.565  1.00  0.00    -0.329 N 
ATOM     20  C   UNL A   1      32.886  18.584  24.895  1.00  0.00     0.078 A 
ATOM     21  C   UNL A   1      32.540  18.956  23.624  1.00  0.00     0.128 A 
ATOM     22  C   UNL A   1      32.152  21.096  22.373  1.00  0.00     0.151 C 
ATOM     23  Cl  UNL A   1      33.175  17.025  25.502  1.00  0.00    -0.081 Cl
ATOM     24  Cl  UNL A   1      32.273  17.999  22.233  1.00  0.00    -0.063 Cl
ENDBRANCH  15  17
ENDBRANCH  12  15
ENDBRANCH   6   8
ENDBRANCH   5   6
ENDBRANCH   4   5
ENDBRANCH   3   4
ENDBRANCH   2   3
ENDBRANCH   1   2
BRANCH   1  25
ATOM     25  C   UNL A   1      31.847  30.900  26.495  1.00  0.00     0.261 C 
BRANCH  25  26
ATOM     26  O   UNL A   1      32.894  30.657  27.456  1.00  0.00    -0.460 OA
BRANCH  26  27
ATOM     27  C   UNL A   1      33.749  31.700  27.618  1.00  0.00     0.338 C 
ATOM     28  O   UNL A   1      33.451  32.885  27.681  1.00  0.00    -0.246 OA
BRANCH  27  29
ATOM     29  C   UNL A   1      35.110  31.221  27.916  1.00  0.00     0.060 A 
ATOM     30  C   UNL A   1      35.308  29.836  27.976  1.00  0.00     0.016 A 
ATOM     31  C   UNL A   1      36.140  32.101  28.254  1.00  0.00     0.016 A 
ATOM     32  C   UNL A   1      36.524  29.322  28.421  1.00  0.00     0.010 A 
ATOM     33  C   UNL A   1      37.359  31.582  28.710  1.00  0.00     0.010 A 
ATOM     34  C   UNL A   1      37.544  30.191  28.830  1.00  0.00    -0.014 A 
BRANCH  34  35
ATOM     35  C   UNL A   1      38.734  29.636  29.524  1.00  0.00     0.031 A 
ATOM     36  C   UNL A   1      39.103  30.169  30.884  1.00  0.00     0.074 A 
ATOM     37  C   UNL A   1      39.447  28.637  28.974  1.00  0.00     0.049 A 
ATOM     38  N   UNL A   1      40.115  29.858  31.651  1.00  0.00    -0.248 NA
ATOM     39  C   UNL A   1      38.207  31.188  31.451  1.00  0.00     0.031 C 
ATOM     40  C   UNL A   1      39.155  28.004  27.689  1.00  0.00     0.029 A 
ATOM     41  N   UNL A   1      40.566  27.983  29.426  1.00  0.00    -0.354 N 
ATOM     42  C   UNL A   1      39.984  30.646  32.790  1.00  0.00     0.074 A 
ATOM     43  C   UNL A   1      38.812  31.474  32.595  1.00  0.00     0.031 C 
ATOM     44  C   UNL A   1      40.080  27.058  27.449  1.00  0.00     0.029 A 
ATOM     45  C   UNL A   1      41.051  27.048  28.542  1.00  0.00     0.049 A 
ATOM     46  H   UNL A   1      40.981  28.166  30.299  1.00  0.00     0.167 HD
ATOM     47  C   UNL A   1      40.764  30.671  33.899  1.00  0.00     0.034 A 
ATOM     48  C   UNL A   1      42.167  26.291  28.594  1.00  0.00     0.034 A 
ATOM     49  C   UNL A   1      41.935  29.844  34.077  1.00  0.00     0.049 A 
ATOM     50  C   UNL A   1      43.066  26.393  29.802  1.00  0.00     0.074 A 
ATOM     51  C   UNL A   1      42.789  29.783  35.163  1.00  0.00     0.029 A 
ATOM     52  N   UNL A   1      42.421  28.940  33.141  1.00  0.00    -0.354 N 
ATOM     53  N   UNL A   1      42.935  27.147  30.869  1.00  0.00    -0.248 NA
ATOM     54  C   UNL A   1      44.258  25.534  29.816  1.00  0.00     0.031 C 
ATOM     55  C   UNL A   1      43.831  28.902  34.856  1.00  0.00     0.029 A 
ATOM     56  C   UNL A   1      43.582  28.344  33.612  1.00  0.00     0.049 A 
ATOM     57  H   UNL A   1      42.003  28.750  32.270  1.00  0.00     0.167 HD
ATOM     58  C   UNL A   1      44.014  26.831  31.693  1.00  0.00     0.074 A 
ATOM     59  C   UNL A   1      44.776  25.809  31.005  1.00  0.00     0.031 C 
ATOM     60  C   UNL A   1      44.342  27.336  32.910  1.00  0.00     0.034 A 
BRANCH  47  61
ATOM     61  C   UNL A   1      40.407  31.661  34.981  1.00  0.00     0.023 A 
ATOM     62  C   UNL A   1      39.493  31.349  36.003  1.00  0.00     0.031 A 
ATOM     63  C   UNL A   1      40.980  32.946  34.981  1.00  0.00     0.131 A 
ATOM     64  C   UNL A   1      39.135  32.327  36.944  1.00  0.00     0.055 A 
ATOM     65  C   UNL A   1      40.677  33.889  35.964  1.00  0.00     0.041 A 
ATOM     66  F   UNL A   1      41.840  33.309  34.016  1.00  0.00    -0.206 F 
ATOM     67  C   UNL A   1      39.740  33.586  36.947  1.00  0.00     0.022 A 
BRANCH  64  68
ATOM     68  S   UNL A   1      37.771  31.974  38.086  1.00  0.00     0.124 S 
ATOM     69  O   UNL A   1      38.423  32.134  39.383  1.00  0.00    -0.237 OA
ATOM     70  O   UNL A   1      36.790  32.994  37.733  1.00  0.00    -0.237 OA
ATOM     71  O   UNL A   1      37.392  30.601  37.753  1.00  0.00    -0.744 OA
ENDBRANCH  64  68
ENDBRANCH  47  61
BRANCH  48  72
ATOM     72  C   UNL A   1      42.529  25.410  27.446  1.00  0.00     0.023 A 
ATOM     73  C   UNL A   1      42.084  24.082  27.373  1.00  0.00     0.031 A 
ATOM     74  C   UNL A   1      43.371  25.881  26.421  1.00  0.00     0.131 A 
ATOM     75  C   UNL A   1      42.512  23.258  26.320  1.00  0.00     0.055 A 
ATOM     76  C   UNL A   1      43.752  25.075  25.349  1.00  0.00     0.041 A 
ATOM     77  F   UNL A   1      43.826  27.144  26.444  1.00  0.00    -0.206 F 
ATOM     78  C   UNL A   1      43.332  23.749  25.301  1.00  0.00     0.022 A 
BRANCH  75  79
ATOM     79  S   UNL A   1      42.043  21.506  26.340  1.00  0.00     0.124 S 
ATOM     80  O   UNL A   1      42.263  21.156  27.739  1.00  0.00    -0.237 OA
ATOM     81  O   UNL A   1      40.653  21.560  25.903  1.00  0.00    -0.237 OA
ATOM     82  O   UNL A   1      42.970  20.895  25.389  1.00  0.00    -0.744 OA
ENDBRANCH  75  79
ENDBRANCH  48  72
BRANCH  60  83
ATOM     83  C   UNL A   1      45.558  26.756  33.594  1.00  0.00     0.023 A 
ATOM     84  C   UNL A   1      45.486  25.583  34.365  1.00  0.00     0.031 A 
ATOM     85  C   UNL A   1      46.806  27.391  33.474  1.00  0.00     0.131 A 
ATOM     86  C   UNL A   1      46.629  25.112  35.030  1.00  0.00     0.055 A 
ATOM     87  C   UNL A   1      47.953  26.884  34.087  1.00  0.00     0.041 A 
ATOM     88  F   UNL A   1      46.934  28.516  32.753  1.00  0.00    -0.206 F 
ATOM     89  C   UNL A   1      47.865  25.744  34.881  1.00  0.00     0.022 A 
BRANCH  86  90
ATOM     90  S   UNL A   1      46.460  23.710  36.169  1.00  0.00     0.124 S 
ATOM     91  O   UNL A   1      47.473  24.011  37.174  1.00  0.00    -0.237 OA
ATOM     92  O   UNL A   1      45.073  23.828  36.607  1.00  0.00    -0.237 OA
ATOM     93  O   UNL A   1      46.747  22.549  35.328  1.00  0.00    -0.744 OA
ENDBRANCH  86  90
ENDBRANCH  60  83
ENDBRANCH  34  35
ENDBRANCH  27  29
ENDBRANCH  26  27
ENDBRANCH  25  26
ENDBRANCH   1  25
TORSDOF 20
ENDMDL
MODEL 3
REMARK VINA RESULT:     -11.0      2.161      8.127
REMARK SMILES CO[C@H]1C[C@H](C(=O)OCCOCCOC(=O)c2ccc(-c3c4nc(c(-c5cc(S(=O)(=O)[O-])ccc5F)c5ccc([nH]5)c(-c5cc(S(=O)(=O)[O-])ccc5F)c5nc(c(-c6cc(S(=O)(=O)[O-])ccc6F)c6ccc3[nH]6)C=C5)C=C4)cc2)N(C(=O)c2cc(Cl)c(Cl)n2C)C1
REMARK SMILES IDX 12 1 11 2 10 3 9 4 8 5 6 6 7 7 5 8 3 9 4 10 91 11 80 12 2 13
REMARK SMILES IDX 1 14 81 15 82 16 83 17 84 18 89 19 85 20 87 21 90 22 86 23
REMARK SMILES IDX 88 24 13 25 14 26 15 27 16 28 17 29 18 30 79 31 19 32 78 33
REMARK SMILES IDX 20 34 21 35 22 36 72 37 23 38 77 39 71 40 73 41 24 42 76 43
REMARK SMILES IDX 70 44 69 45 25 47 57 48 37 49 56 50 38 51 41 52 55 53 74 54
REMARK SMILES IDX 39 55 40 56 54 58 75 59 42 60 26 61 27 62 35 63 28 64 34 65
REMARK SMILES IDX 36 66 33 67 29 68 30 69 31 70 32 71 58 72 59 73 67 74 60 75
REMARK SMILES IDX 66 76 68 77 65 78 61 79 62 80 63 81 64 82 43 83 44 84 52 85
REMARK SMILES IDX 45 86 51 87 53 88 50 89 46 90 47 91 48 92 49 93
REMARK H PARENT 73 46 41 57
REMARK Flexibility Score: inf
ROOT
ATOM      1  C   UNL A   1      31.559  31.567  26.415  1.00  0.00     0.202 C 
ENDROOT
BRANCH   1   2
ATOM      2  O   UNL A   1      32.637  30.641  26.543  1.00  0.00    -0.374 OA
BRANCH   2   3
ATOM      3  C   UNL A   1      32.494  29.541  27.438  1.00  0.00     0.202 C 
BRANCH   3   4
ATOM      4  C   UNL A   1      32.961  28.171  26.943  1.00  0.00     0.261 C 
BRANCH   4   5
ATOM      5  O   UNL A   1      33.587  28.259  25.655  1.00  0.00    -0.462 OA
BRANCH   5   6
ATOM      6  C   UNL A   1      32.856  27.744  24.633  1.00  0.00     0.329 C 
ATOM      7  O   UNL A   1      33.338  27.193  23.648  1.00  0.00    -0.250 OA
BRANCH   6   8
ATOM      8  C   UNL A   1      31.343  27.946  24.816  1.00  0.00     0.198 C 
ATOM      9  C   UNL A   1      30.337  28.330  22.656  1.00  0.00     0.140 C 
ATOM     10  C   UNL A   1      30.672  29.021  23.979  1.00  0.00     0.071 C 
ATOM     11  C   UNL A   1      30.159  26.851  23.046  1.00  0.00     0.153 C 
ATOM     12  N   UNL A   1      30.663  26.724  24.408  1.00  0.00    -0.321 N 
BRANCH   9  13
ATOM     13  O   UNL A   1      29.132  28.849  22.094  1.00  0.00    -0.380 OA
ATOM     14  C   UNL A   1      29.272  30.164  21.566  1.00  0.00     0.195 C 
ENDBRANCH   9  13
BRANCH  12  15
ATOM     15  C   UNL A   1      30.609  25.531  25.101  1.00  0.00     0.271 C 
ATOM     16  O   UNL A   1      29.953  25.416  26.135  1.00  0.00    -0.267 OA
BRANCH  15  17
ATOM     17  C   UNL A   1      31.345  24.417  24.539  1.00  0.00     0.109 A 
ATOM     18  C   UNL A   1      30.962  23.572  23.503  1.00  0.00     0.055 A 
ATOM     19  N   UNL A   1      32.600  23.997  24.956  1.00  0.00    -0.329 N 
ATOM     20  C   UNL A   1      31.973  22.602  23.326  1.00  0.00     0.078 A 
ATOM     21  C   UNL A   1      32.964  22.897  24.223  1.00  0.00     0.128 A 
ATOM     22  C   UNL A   1      33.352  24.567  26.056  1.00  0.00     0.151 C 
ATOM     23  Cl  UNL A   1      31.905  21.333  22.201  1.00  0.00    -0.081 Cl
ATOM     24  Cl  UNL A   1      34.454  22.112  24.512  1.00  0.00    -0.063 Cl
ENDBRANCH  15  17
ENDBRANCH  12  15
ENDBRANCH   6   8
ENDBRANCH   5   6
ENDBRANCH   4   5
ENDBRANCH   3   4
ENDBRANCH   2   3
ENDBRANCH   1   2
BRANCH   1  25
ATOM     25  C   UNL A   1      31.826  33.051  26.703  1.00  0.00     0.261 C 
BRANCH  25  26
ATOM     26  O   UNL A   1      32.317  33.300  28.034  1.00  0.00    -0.460 OA
BRANCH  26  27
ATOM     27  C   UNL A   1      33.432  34.076  28.078  1.00  0.00     0.338 C 
ATOM     28  O   UNL A   1      33.470  35.298  28.056  1.00  0.00    -0.246 OA
BRANCH  27  29
ATOM     29  C   UNL A   1      34.627  33.262  28.361  1.00  0.00     0.060 A 
ATOM     30  C   UNL A   1      34.432  32.022  28.981  1.00  0.00     0.016 A 
ATOM     31  C   UNL A   1      35.917  33.752  28.143  1.00  0.00     0.016 A 
ATOM     32  C   UNL A   1      35.524  31.284  29.430  1.00  0.00     0.010 A 
ATOM     33  C   UNL A   1      37.014  33.012  28.603  1.00  0.00     0.010 A 
ATOM     34  C   UNL A   1      36.821  31.793  29.282  1.00  0.00    -0.014 A 
BRANCH  34  35
ATOM     35  C   UNL A   1      37.949  31.119  29.974  1.00  0.00     0.031 A 
ATOM     36  C   UNL A   1      38.253  31.483  31.403  1.00  0.00     0.074 A 
ATOM     37  C   UNL A   1      38.660  30.158  29.356  1.00  0.00     0.049 A 
ATOM     38  N   UNL A   1      39.207  31.050  32.186  1.00  0.00    -0.248 NA
ATOM     39  C   UNL A   1      37.359  32.469  32.030  1.00  0.00     0.031 C 
ATOM     40  C   UNL A   1      38.424  29.683  27.993  1.00  0.00     0.029 A 
ATOM     41  N   UNL A   1      39.727  29.414  29.793  1.00  0.00    -0.354 N 
ATOM     42  C   UNL A   1      39.034  31.712  33.397  1.00  0.00     0.074 A 
ATOM     43  C   UNL A   1      37.904  32.603  33.231  1.00  0.00     0.031 C 
ATOM     44  C   UNL A   1      39.330  28.733  27.701  1.00  0.00     0.029 A 
ATOM     45  C   UNL A   1      40.233  28.564  28.838  1.00  0.00     0.049 A 
ATOM     46  H   UNL A   1      40.095  29.483  30.703  1.00  0.00     0.167 HD
ATOM     47  C   UNL A   1      39.747  31.583  34.544  1.00  0.00     0.034 A 
ATOM     48  C   UNL A   1      41.317  27.762  28.867  1.00  0.00     0.034 A 
ATOM     49  C   UNL A   1      40.876  30.696  34.692  1.00  0.00     0.049 A 
ATOM     50  C   UNL A   1      42.146  27.694  30.127  1.00  0.00     0.074 A 
ATOM     51  C   UNL A   1      41.662  30.483  35.811  1.00  0.00     0.029 A 
ATOM     52  N   UNL A   1      41.388  29.882  33.689  1.00  0.00    -0.354 N 
ATOM     53  N   UNL A   1      41.976  28.331  31.263  1.00  0.00    -0.248 NA
ATOM     54  C   UNL A   1      43.305  26.792  30.111  1.00  0.00     0.031 C 
ATOM     55  C   UNL A   1      42.690  29.599  35.465  1.00  0.00     0.029 A 
ATOM     56  C   UNL A   1      42.498  29.193  34.154  1.00  0.00     0.049 A 
ATOM     57  H   UNL A   1      41.017  29.806  32.781  1.00  0.00     0.167 HD
ATOM     58  C   UNL A   1      42.993  27.884  32.104  1.00  0.00     0.074 A 
ATOM     59  C   UNL A   1      43.760  26.915  31.350  1.00  0.00     0.031 C 
ATOM     60  C   UNL A   1      43.264  28.239  33.387  1.00  0.00     0.034 A 
BRANCH  47  61
ATOM     61  C   UNL A   1      39.359  32.462  35.708  1.00  0.00     0.023 A 
ATOM     62  C   UNL A   1      39.769  33.804  35.796  1.00  0.00     0.031 A 
ATOM     63  C   UNL A   1      38.576  31.943  36.756  1.00  0.00     0.131 A 
ATOM     64  C   UNL A   1      39.447  34.561  36.933  1.00  0.00     0.055 A 
ATOM     65  C   UNL A   1      38.196  32.725  37.848  1.00  0.00     0.041 A 
ATOM     66  F   UNL A   1      38.177  30.662  36.739  1.00  0.00    -0.206 F 
ATOM     67  C   UNL A   1      38.642  34.039  37.947  1.00  0.00     0.022 A 
BRANCH  64  68
ATOM     68  S   UNL A   1      40.204  36.198  37.129  1.00  0.00     0.124 S 
ATOM     69  O   UNL A   1      39.974  36.789  35.814  1.00  0.00    -0.237 OA
ATOM     70  O   UNL A   1      39.439  36.770  38.231  1.00  0.00    -0.237 OA
ATOM     71  O   UNL A   1      41.602  35.895  37.432  1.00  0.00    -0.744 OA
ENDBRANCH  64  68
ENDBRANCH  47  61
BRANCH  48  72
ATOM     72  C   UNL A   1      41.718  26.999  27.650  1.00  0.00     0.023 A 
ATOM     73  C   UNL A   1      41.514  25.615  27.553  1.00  0.00     0.031 A 
ATOM     74  C   UNL A   1      42.355  27.648  26.576  1.00  0.00     0.131 A 
ATOM     75  C   UNL A   1      41.979  24.917  26.426  1.00  0.00     0.055 A 
ATOM     76  C   UNL A   1      42.769  26.960  25.436  1.00  0.00     0.041 A 
ATOM     77  F   UNL A   1      42.576  28.972  26.619  1.00  0.00    -0.206 F 
ATOM     78  C   UNL A   1      42.592  25.582  25.362  1.00  0.00     0.022 A 
BRANCH  75  79
ATOM     79  S   UNL A   1      41.838  23.108  26.404  1.00  0.00     0.124 S 
ATOM     80  O   UNL A   1      40.392  22.922  26.436  1.00  0.00    -0.237 OA
ATOM     81  O   UNL A   1      42.502  22.769  25.150  1.00  0.00    -0.237 OA
ATOM     82  O   UNL A   1      42.549  22.698  27.613  1.00  0.00    -0.744 OA
ENDBRANCH  75  79
ENDBRANCH  48  72
BRANCH  60  83
ATOM     83  C   UNL A   1      44.417  27.538  34.069  1.00  0.00     0.023 A 
ATOM     84  C   UNL A   1      44.224  26.402  34.873  1.00  0.00     0.031 A 
ATOM     85  C   UNL A   1      45.728  28.020  33.912  1.00  0.00     0.131 A 
ATOM     86  C   UNL A   1      45.316  25.819  35.534  1.00  0.00     0.055 A 
ATOM     87  C   UNL A   1      46.820  27.398  34.521  1.00  0.00     0.041 A 
ATOM     88  F   UNL A   1      45.973  29.103  33.157  1.00  0.00    -0.206 F 
ATOM     89  C   UNL A   1      46.614  26.299  35.348  1.00  0.00     0.022 A 
BRANCH  86  90
ATOM     90  S   UNL A   1      45.006  24.476  36.714  1.00  0.00     0.124 S 
ATOM     91  O   UNL A   1      44.875  23.321  35.832  1.00  0.00    -0.237 OA
ATOM     92  O   UNL A   1      46.204  24.509  37.546  1.00  0.00    -0.237 OA
ATOM     93  O   UNL A   1      43.774  24.887  37.385  1.00  0.00    -0.744 OA
ENDBRANCH  86  90
ENDBRANCH  60  83
ENDBRANCH  34  35
ENDBRANCH  27  29
ENDBRANCH  26  27
ENDBRANCH  25  26
ENDBRANCH   1  25
TORSDOF 20
ENDMDL
