MODEL 1
REMARK VINA RESULT:      -9.7      0.000      0.000
REMARK SMILES CCCCCn1c(SCC(=O)OCCOCCOC(=O)c2ccc(-c3c4nc(c(-c5cc(S(=O)(=O)[O-])ccc5F)c5ccc([nH]5)c(-c5cc(S(=O)(=O)[O-])ccc5F)c5nc(c(-c6cc(S(=O)(=O)[O-])ccc6F)c6ccc3[nH]6)C=C5)C=C4)cc2)nc2ccccc2c1=O
REMARK SMILES IDX 13 1 12 2 10 3 11 4 9 5 8 6 7 7 6 8 91 9 84 10 90 11 92 12
REMARK SMILES IDX 85 13 89 14 86 15 88 16 87 17 5 18 4 19 3 20 2 21 1 22 14 23
REMARK SMILES IDX 15 24 16 25 17 26 18 27 19 28 20 29 21 30 22 31 83 32 23 33
REMARK SMILES IDX 82 34 24 35 25 36 26 37 76 38 27 39 81 40 75 41 77 42 28 43
REMARK SMILES IDX 80 44 74 45 73 46 29 48 61 49 41 50 60 51 42 52 45 53 59 54
REMARK SMILES IDX 78 55 43 56 44 57 58 59 79 60 46 61 30 62 31 63 39 64 32 65
REMARK SMILES IDX 38 66 40 67 37 68 33 69 34 70 35 71 36 72 62 73 63 74 71 75
REMARK SMILES IDX 64 76 70 77 72 78 69 79 65 80 66 81 67 82 68 83 47 84 48 85
REMARK SMILES IDX 56 86 49 87 55 88 57 89 54 90 50 91 51 92 52 93 53 94
REMARK H PARENT 77 47 45 58
REMARK Flexibility Score: inf
ROOT
ATOM      1  C   UNL A   1      31.635  25.931  22.289  1.00  0.00     0.261 C 
ENDROOT
BRANCH   1   2
ATOM      2  O   UNL A   1      30.477  26.016  23.194  1.00  0.00    -0.463 OA
BRANCH   2   3
ATOM      3  C   UNL A   1      30.591  25.625  24.487  1.00  0.00     0.316 C 
ATOM      4  O   UNL A   1      30.517  26.432  25.414  1.00  0.00    -0.251 OA
BRANCH   3   5
ATOM      5  C   UNL A   1      30.736  24.117  24.787  1.00  0.00     0.200 C 
BRANCH   5   6
ATOM      6  S   UNL A   1      32.205  23.375  25.568  1.00  0.00    -0.076 SA
BRANCH   6   7
ATOM      7  C   UNL A   1      32.362  21.780  24.836  1.00  0.00     0.171 A 
ATOM      8  N   UNL A   1      32.685  21.744  23.517  1.00  0.00    -0.287 N 
ATOM      9  C   UNL A   1      32.201  20.681  22.760  1.00  0.00     0.262 A 
ATOM     10  N   UNL A   1      32.211  20.678  25.517  1.00  0.00    -0.224 NA
ATOM     11  C   UNL A   1      32.338  19.394  23.425  1.00  0.00     0.066 A 
ATOM     12  O   UNL A   1      31.778  20.751  21.609  1.00  0.00    -0.269 OA
ATOM     13  C   UNL A   1      32.453  19.458  24.813  1.00  0.00     0.079 A 
ATOM     14  C   UNL A   1      32.598  18.240  22.668  1.00  0.00     0.016 A 
ATOM     15  C   UNL A   1      32.892  18.297  25.452  1.00  0.00     0.029 A 
ATOM     16  C   UNL A   1      33.053  17.105  23.323  1.00  0.00     0.001 A 
ATOM     17  C   UNL A   1      33.210  17.139  24.711  1.00  0.00     0.002 A 
BRANCH   8  18
ATOM     18  C   UNL A   1      33.378  22.775  22.784  1.00  0.00     0.128 C 
BRANCH  18  19
ATOM     19  C   UNL A   1      34.742  23.392  23.326  1.00  0.00     0.022 C 
BRANCH  19  20
ATOM     20  C   UNL A   1      36.144  22.629  23.753  1.00  0.00     0.002 C 
BRANCH  20  21
ATOM     21  C   UNL A   1      36.510  21.613  24.922  1.00  0.00    -0.003 C 
ATOM     22  C   UNL A   1      37.913  21.037  25.152  1.00  0.00     0.004 C 
ENDBRANCH  20  21
ENDBRANCH  19  20
ENDBRANCH  18  19
ENDBRANCH   8  18
ENDBRANCH   6   7
ENDBRANCH   5   6
ENDBRANCH   3   5
ENDBRANCH   2   3
ENDBRANCH   1   2
BRANCH   1  23
ATOM     23  C   UNL A   1      32.728  27.117  22.350  1.00  0.00     0.202 C 
BRANCH  23  24
ATOM     24  O   UNL A   1      32.270  28.335  22.970  1.00  0.00    -0.374 OA
BRANCH  24  25
ATOM     25  C   UNL A   1      32.864  29.009  24.107  1.00  0.00     0.202 C 
BRANCH  25  26
ATOM     26  C   UNL A   1      31.817  29.899  25.096  1.00  0.00     0.261 C 
BRANCH  26  27
ATOM     27  O   UNL A   1      32.200  30.137  26.529  1.00  0.00    -0.460 OA
BRANCH  27  28
ATOM     28  C   UNL A   1      32.899  31.233  26.987  1.00  0.00     0.338 C 
ATOM     29  O   UNL A   1      32.421  32.359  27.028  1.00  0.00    -0.246 OA
BRANCH  28  30
ATOM     30  C   UNL A   1      34.238  30.891  27.694  1.00  0.00     0.060 A 
ATOM     31  C   UNL A   1      34.588  29.658  28.272  1.00  0.00     0.016 A 
ATOM     32  C   UNL A   1      35.218  31.896  27.786  1.00  0.00     0.016 A 
ATOM     33  C   UNL A   1      35.836  29.477  28.973  1.00  0.00     0.010 A 
ATOM     34  C   UNL A   1      36.436  31.731  28.512  1.00  0.00     0.010 A 
ATOM     35  C   UNL A   1      36.781  30.517  29.126  1.00  0.00    -0.014 A 
BRANCH  35  36
ATOM     36  C   UNL A   1      38.201  30.306  29.648  1.00  0.00     0.031 A 
ATOM     37  C   UNL A   1      39.275  29.440  28.989  1.00  0.00     0.074 A 
ATOM     38  C   UNL A   1      38.517  30.828  30.856  1.00  0.00     0.049 A 
ATOM     39  N   UNL A   1      40.504  29.186  29.401  1.00  0.00    -0.248 NA
ATOM     40  C   UNL A   1      38.939  28.771  27.728  1.00  0.00     0.031 C 
ATOM     41  C   UNL A   1      37.613  31.639  31.664  1.00  0.00     0.029 A 
ATOM     42  N   UNL A   1      39.661  30.738  31.628  1.00  0.00    -0.354 N 
ATOM     43  C   UNL A   1      41.091  28.345  28.451  1.00  0.00     0.074 A 
ATOM     44  C   UNL A   1      40.063  28.108  27.454  1.00  0.00     0.031 C 
ATOM     45  C   UNL A   1      38.225  31.971  32.811  1.00  0.00     0.029 A 
ATOM     46  C   UNL A   1      39.564  31.381  32.845  1.00  0.00     0.049 A 
ATOM     47  H   UNL A   1      40.470  30.259  31.337  1.00  0.00     0.167 HD
ATOM     48  C   UNL A   1      42.355  27.831  28.401  1.00  0.00     0.034 A 
ATOM     49  C   UNL A   1      40.426  31.498  33.881  1.00  0.00     0.034 A 
ATOM     50  C   UNL A   1      43.398  28.055  29.387  1.00  0.00     0.049 A 
ATOM     51  C   UNL A   1      41.808  30.893  33.815  1.00  0.00     0.074 A 
ATOM     52  C   UNL A   1      44.724  27.639  29.338  1.00  0.00     0.029 A 
ATOM     53  N   UNL A   1      43.255  28.726  30.590  1.00  0.00    -0.354 N 
ATOM     54  N   UNL A   1      42.377  30.236  32.836  1.00  0.00    -0.248 NA
ATOM     55  C   UNL A   1      42.678  31.066  34.993  1.00  0.00     0.031 C 
ATOM     56  C   UNL A   1      45.354  27.986  30.533  1.00  0.00     0.029 A 
ATOM     57  C   UNL A   1      44.450  28.697  31.301  1.00  0.00     0.049 A 
ATOM     58  H   UNL A   1      42.427  29.160  30.898  1.00  0.00     0.167 HD
ATOM     59  C   UNL A   1      43.677  29.960  33.260  1.00  0.00     0.074 A 
ATOM     60  C   UNL A   1      43.820  30.535  34.578  1.00  0.00     0.031 C 
ATOM     61  C   UNL A   1      44.652  29.285  32.603  1.00  0.00     0.034 A 
BRANCH  48  62
ATOM     62  C   UNL A   1      42.787  26.997  27.201  1.00  0.00     0.023 A 
ATOM     63  C   UNL A   1      42.770  25.585  27.258  1.00  0.00     0.031 A 
ATOM     64  C   UNL A   1      43.464  27.602  26.125  1.00  0.00     0.131 A 
ATOM     65  C   UNL A   1      43.458  24.833  26.290  1.00  0.00     0.055 A 
ATOM     66  C   UNL A   1      44.116  26.847  25.145  1.00  0.00     0.041 A 
ATOM     67  F   UNL A   1      43.540  28.938  26.035  1.00  0.00    -0.206 F 
ATOM     68  C   UNL A   1      44.129  25.458  25.234  1.00  0.00     0.022 A 
BRANCH  65  69
ATOM     69  S   UNL A   1      43.599  23.024  26.408  1.00  0.00     0.124 S 
ATOM     70  O   UNL A   1      42.844  22.743  27.628  1.00  0.00    -0.237 OA
ATOM     71  O   UNL A   1      42.963  22.583  25.170  1.00  0.00    -0.237 OA
ATOM     72  O   UNL A   1      45.035  22.789  26.501  1.00  0.00    -0.744 OA
ENDBRANCH  65  69
ENDBRANCH  48  62
BRANCH  49  73
ATOM     73  C   UNL A   1      40.021  32.310  35.069  1.00  0.00     0.023 A 
ATOM     74  C   UNL A   1      39.235  31.764  36.099  1.00  0.00     0.031 A 
ATOM     75  C   UNL A   1      40.364  33.671  35.149  1.00  0.00     0.131 A 
ATOM     76  C   UNL A   1      38.768  32.591  37.130  1.00  0.00     0.055 A 
ATOM     77  C   UNL A   1      39.959  34.473  36.215  1.00  0.00     0.041 A 
ATOM     78  F   UNL A   1      41.109  34.238  34.186  1.00  0.00    -0.206 F 
ATOM     79  C   UNL A   1      39.142  33.937  37.205  1.00  0.00     0.022 A 
BRANCH  76  80
ATOM     80  S   UNL A   1      37.554  31.983  38.333  1.00  0.00     0.124 S 
ATOM     81  O   UNL A   1      38.256  32.176  39.597  1.00  0.00    -0.237 OA
ATOM     82  O   UNL A   1      36.424  32.878  38.095  1.00  0.00    -0.237 OA
ATOM     83  O   UNL A   1      37.339  30.596  37.934  1.00  0.00    -0.744 OA
ENDBRANCH  76  80
ENDBRANCH  49  73
BRANCH  61  84
ATOM     84  C   UNL A   1      46.015  29.122  33.251  1.00  0.00     0.023 A 
ATOM     85  C   UNL A   1      46.338  27.934  33.939  1.00  0.00     0.031 A 
ATOM     86  C   UNL A   1      46.939  30.181  33.307  1.00  0.00     0.131 A 
ATOM     87  C   UNL A   1      47.527  27.848  34.679  1.00  0.00     0.055 A 
ATOM     88  C   UNL A   1      48.145  30.074  34.007  1.00  0.00     0.041 A 
ATOM     89  F   UNL A   1      46.684  31.341  32.681  1.00  0.00    -0.206 F 
ATOM     90  C   UNL A   1      48.437  28.909  34.708  1.00  0.00     0.022 A 
BRANCH  87  91
ATOM     91  S   UNL A   1      47.907  26.390  35.695  1.00  0.00     0.124 S 
ATOM     92  O   UNL A   1      49.194  26.757  36.283  1.00  0.00    -0.237 OA
ATOM     93  O   UNL A   1      46.784  26.364  36.628  1.00  0.00    -0.237 OA
ATOM     94  O   UNL A   1      47.953  25.294  34.735  1.00  0.00    -0.744 OA
ENDBRANCH  87  91
ENDBRANCH  61  84
ENDBRANCH  35  36
ENDBRANCH  28  30
ENDBRANCH  27  28
ENDBRANCH  26  27
ENDBRANCH  25  26
ENDBRANCH  24  25
ENDBRANCH  23  24
ENDBRANCH   1  23
TORSDOF 23
ENDMDL
MODEL 2
REMARK VINA RESULT:      -9.1      4.811      8.188
REMARK SMILES CCCCCn1c(SCC(=O)OCCOCCOC(=O)c2ccc(-c3c4nc(c(-c5cc(S(=O)(=O)[O-])ccc5F)c5ccc([nH]5)c(-c5cc(S(=O)(=O)[O-])ccc5F)c5nc(c(-c6cc(S(=O)(=O)[O-])ccc6F)c6ccc3[nH]6)C=C5)C=C4)cc2)nc2ccccc2c1=O
REMARK SMILES IDX 13 1 12 2 10 3 11 4 9 5 8 6 7 7 6 8 91 9 84 10 90 11 92 12
REMARK SMILES IDX 85 13 89 14 86 15 88 16 87 17 5 18 4 19 3 20 2 21 1 22 14 23
REMARK SMILES IDX 15 24 16 25 17 26 18 27 19 28 20 29 21 30 22 31 83 32 23 33
REMARK SMILES IDX 82 34 24 35 25 36 26 37 76 38 27 39 81 40 75 41 77 42 28 43
REMARK SMILES IDX 80 44 74 45 73 46 29 48 61 49 41 50 60 51 42 52 45 53 59 54
REMARK SMILES IDX 78 55 43 56 44 57 58 59 79 60 46 61 30 62 31 63 39 64 32 65
REMARK SMILES IDX 38 66 40 67 37 68 33 69 34 70 35 71 36 72 62 73 63 74 71 75
REMARK SMILES IDX 64 76 70 77 72 78 69 79 65 80 66 81 67 82 68 83 47 84 48 85
REMARK SMILES IDX 56 86 49 87 55 88 57 89 54 90 50 91 51 92 52 93 53 94
REMARK H PARENT 77 47 45 58
REMARK Flexibility Score: inf
ROOT
ATOM      1  C   UNL A   1      35.636  31.599  28.956  1.00  0.00     0.261 C 
ENDROOT
BRANCH   1   2
ATOM      2  O   UNL A   1      34.355  31.212  28.343  1.00  0.00    -0.463 OA
BRANCH   2   3
ATOM      3  C   UNL A   1      34.260  30.066  27.625  1.00  0.00     0.316 C 
ATOM      4  O   UNL A   1      35.251  29.384  27.365  1.00  0.00    -0.251 OA
BRANCH   3   5
ATOM      5  C   UNL A   1      32.856  29.580  27.201  1.00  0.00     0.200 C 
BRANCH   5   6
ATOM      6  S   UNL A   1      32.565  28.199  26.050  1.00  0.00    -0.076 SA
BRANCH   6   7
ATOM      7  C   UNL A   1      31.365  28.795  24.906  1.00  0.00     0.171 A 
ATOM      8  N   UNL A   1      30.746  27.866  24.132  1.00  0.00    -0.287 N 
ATOM      9  C   UNL A   1      30.341  28.250  22.857  1.00  0.00     0.262 A 
ATOM     10  N   UNL A   1      31.049  30.057  24.816  1.00  0.00    -0.224 NA
ATOM     11  C   UNL A   1      29.690  29.552  22.830  1.00  0.00     0.066 A 
ATOM     12  O   UNL A   1      30.414  27.564  21.841  1.00  0.00    -0.269 OA
ATOM     13  C   UNL A   1      29.997  30.386  23.906  1.00  0.00     0.079 A 
ATOM     14  C   UNL A   1      28.647  29.794  21.923  1.00  0.00     0.016 A 
ATOM     15  C   UNL A   1      29.172  31.497  24.081  1.00  0.00     0.029 A 
ATOM     16  C   UNL A   1      27.828  30.893  22.130  1.00  0.00     0.001 A 
ATOM     17  C   UNL A   1      28.084  31.736  23.215  1.00  0.00     0.002 A 
BRANCH   8  18
ATOM     18  C   UNL A   1      30.581  26.469  24.450  1.00  0.00     0.128 C 
BRANCH  18  19
ATOM     19  C   UNL A   1      31.723  25.411  24.115  1.00  0.00     0.022 C 
BRANCH  19  20
ATOM     20  C   UNL A   1      32.458  24.310  25.102  1.00  0.00     0.002 C 
BRANCH  20  21
ATOM     21  C   UNL A   1      33.735  24.389  26.049  1.00  0.00    -0.003 C 
ATOM     22  C   UNL A   1      34.241  23.224  26.909  1.00  0.00     0.004 C 
ENDBRANCH  20  21
ENDBRANCH  19  20
ENDBRANCH  18  19
ENDBRANCH   8  18
ENDBRANCH   6   7
ENDBRANCH   5   6
ENDBRANCH   3   5
ENDBRANCH   2   3
ENDBRANCH   1   2
BRANCH   1  23
ATOM     23  C   UNL A   1      35.631  32.020  30.514  1.00  0.00     0.202 C 
BRANCH  23  24
ATOM     24  O   UNL A   1      34.380  32.550  30.996  1.00  0.00    -0.374 OA
BRANCH  24  25
ATOM     25  C   UNL A   1      34.089  33.932  31.324  1.00  0.00     0.202 C 
BRANCH  25  26
ATOM     26  C   UNL A   1      35.288  34.783  32.163  1.00  0.00     0.261 C 
BRANCH  26  27
ATOM     27  O   UNL A   1      35.987  34.110  33.310  1.00  0.00    -0.460 OA
BRANCH  27  28
ATOM     28  C   UNL A   1      37.330  34.230  33.594  1.00  0.00     0.338 C 
ATOM     29  O   UNL A   1      37.750  34.682  34.652  1.00  0.00    -0.246 OA
BRANCH  28  30
ATOM     30  C   UNL A   1      38.266  33.506  32.589  1.00  0.00     0.060 A 
ATOM     31  C   UNL A   1      38.464  33.844  31.239  1.00  0.00     0.016 A 
ATOM     32  C   UNL A   1      38.998  32.394  33.044  1.00  0.00     0.016 A 
ATOM     33  C   UNL A   1      39.304  33.050  30.375  1.00  0.00     0.010 A 
ATOM     34  C   UNL A   1      39.799  31.585  32.181  1.00  0.00     0.010 A 
ATOM     35  C   UNL A   1      39.975  31.889  30.823  1.00  0.00    -0.014 A 
BRANCH  35  36
ATOM     36  C   UNL A   1      41.049  31.162  30.015  1.00  0.00     0.031 A 
ATOM     37  C   UNL A   1      40.966  29.722  29.511  1.00  0.00     0.074 A 
ATOM     38  C   UNL A   1      42.232  31.793  29.820  1.00  0.00     0.049 A 
ATOM     39  N   UNL A   1      41.865  29.023  28.843  1.00  0.00    -0.248 NA
ATOM     40  C   UNL A   1      39.741  28.967  29.792  1.00  0.00     0.031 C 
ATOM     41  C   UNL A   1      42.524  33.149  30.270  1.00  0.00     0.029 A 
ATOM     42  N   UNL A   1      43.409  31.379  29.225  1.00  0.00    -0.354 N 
ATOM     43  C   UNL A   1      41.316  27.759  28.610  1.00  0.00     0.074 A 
ATOM     44  C   UNL A   1      40.009  27.781  29.242  1.00  0.00     0.031 C 
ATOM     45  C   UNL A   1      43.788  33.459  29.942  1.00  0.00     0.029 A 
ATOM     46  C   UNL A   1      44.419  32.318  29.277  1.00  0.00     0.049 A 
ATOM     47  H   UNL A   1      43.517  30.497  28.804  1.00  0.00     0.167 HD
ATOM     48  C   UNL A   1      41.833  26.692  27.933  1.00  0.00     0.034 A 
ATOM     49  C   UNL A   1      45.703  32.294  28.851  1.00  0.00     0.034 A 
ATOM     50  C   UNL A   1      43.137  26.648  27.294  1.00  0.00     0.049 A 
ATOM     51  C   UNL A   1      46.262  31.089  28.132  1.00  0.00     0.074 A 
ATOM     52  C   UNL A   1      43.671  25.629  26.512  1.00  0.00     0.029 A 
ATOM     53  N   UNL A   1      44.113  27.628  27.360  1.00  0.00    -0.354 N 
ATOM     54  N   UNL A   1      45.662  29.973  27.799  1.00  0.00    -0.248 NA
ATOM     55  C   UNL A   1      47.673  31.149  27.710  1.00  0.00     0.031 C 
ATOM     56  C   UNL A   1      44.985  25.957  26.176  1.00  0.00     0.029 A 
ATOM     57  C   UNL A   1      45.251  27.219  26.673  1.00  0.00     0.049 A 
ATOM     58  H   UNL A   1      44.016  28.490  27.827  1.00  0.00     0.167 HD
ATOM     59  C   UNL A   1      46.604  29.225  27.092  1.00  0.00     0.074 A 
ATOM     60  C   UNL A   1      47.810  30.019  27.030  1.00  0.00     0.031 C 
ATOM     61  C   UNL A   1      46.466  27.989  26.553  1.00  0.00     0.034 A 
BRANCH  48  62
ATOM     62  C   UNL A   1      40.991  25.436  27.743  1.00  0.00     0.023 A 
ATOM     63  C   UNL A   1      41.571  24.152  27.863  1.00  0.00     0.031 A 
ATOM     64  C   UNL A   1      39.705  25.524  27.178  1.00  0.00     0.131 A 
ATOM     65  C   UNL A   1      40.888  23.023  27.380  1.00  0.00     0.055 A 
ATOM     66  C   UNL A   1      39.015  24.392  26.733  1.00  0.00     0.041 A 
ATOM     67  F   UNL A   1      39.118  26.718  27.010  1.00  0.00    -0.206 F 
ATOM     68  C   UNL A   1      39.612  23.138  26.818  1.00  0.00     0.022 A 
BRANCH  65  69
ATOM     69  S   UNL A   1      41.655  21.374  27.368  1.00  0.00     0.124 S 
ATOM     70  O   UNL A   1      42.895  21.616  28.103  1.00  0.00    -0.237 OA
ATOM     71  O   UNL A   1      40.663  20.566  28.072  1.00  0.00    -0.237 OA
ATOM     72  O   UNL A   1      41.823  21.076  25.950  1.00  0.00    -0.744 OA
ENDBRANCH  65  69
ENDBRANCH  48  62
BRANCH  49  73
ATOM     73  C   UNL A   1      46.546  33.515  29.031  1.00  0.00     0.023 A 
ATOM     74  C   UNL A   1      46.615  34.513  28.043  1.00  0.00     0.031 A 
ATOM     75  C   UNL A   1      47.352  33.659  30.174  1.00  0.00     0.131 A 
ATOM     76  C   UNL A   1      47.515  35.576  28.191  1.00  0.00     0.055 A 
ATOM     77  C   UNL A   1      48.192  34.758  30.352  1.00  0.00     0.041 A 
ATOM     78  F   UNL A   1      47.325  32.728  31.142  1.00  0.00    -0.206 F 
ATOM     79  C   UNL A   1      48.289  35.716  29.347  1.00  0.00     0.022 A 
BRANCH  76  80
ATOM     80  S   UNL A   1      47.810  36.741  26.831  1.00  0.00     0.124 S 
ATOM     81  O   UNL A   1      46.739  36.399  25.901  1.00  0.00    -0.237 OA
ATOM     82  O   UNL A   1      47.672  38.030  27.507  1.00  0.00    -0.237 OA
ATOM     83  O   UNL A   1      49.161  36.416  26.387  1.00  0.00    -0.744 OA
ENDBRANCH  76  80
ENDBRANCH  49  73
BRANCH  61  84
ATOM     84  C   UNL A   1      47.626  27.368  25.798  1.00  0.00     0.023 A 
ATOM     85  C   UNL A   1      48.646  26.687  26.495  1.00  0.00     0.031 A 
ATOM     86  C   UNL A   1      47.799  27.564  24.416  1.00  0.00     0.131 A 
ATOM     87  C   UNL A   1      49.800  26.261  25.819  1.00  0.00     0.055 A 
ATOM     88  C   UNL A   1      48.929  27.097  23.738  1.00  0.00     0.041 A 
ATOM     89  F   UNL A   1      46.868  28.215  23.699  1.00  0.00    -0.206 F 
ATOM     90  C   UNL A   1      49.941  26.454  24.442  1.00  0.00     0.022 A 
BRANCH  87  91
ATOM     91  S   UNL A   1      51.195  25.511  26.709  1.00  0.00     0.124 S 
ATOM     92  O   UNL A   1      52.070  25.103  25.612  1.00  0.00    -0.237 OA
ATOM     93  O   UNL A   1      51.685  26.629  27.511  1.00  0.00    -0.237 OA
ATOM     94  O   UNL A   1      50.588  24.418  27.458  1.00  0.00    -0.744 OA
ENDBRANCH  87  91
ENDBRANCH  61  84
ENDBRANCH  35  36
ENDBRANCH  28  30
ENDBRANCH  27  28
ENDBRANCH  26  27
ENDBRANCH  25  26
ENDBRANCH  24  25
ENDBRANCH  23  24
ENDBRANCH   1  23
TORSDOF 23
ENDMDL
MODEL 3
REMARK VINA RESULT:      -8.9      4.720      8.144
REMARK SMILES CCCCCn1c(SCC(=O)OCCOCCOC(=O)c2ccc(-c3c4nc(c(-c5cc(S(=O)(=O)[O-])ccc5F)c5ccc([nH]5)c(-c5cc(S(=O)(=O)[O-])ccc5F)c5nc(c(-c6cc(S(=O)(=O)[O-])ccc6F)c6ccc3[nH]6)C=C5)C=C4)cc2)nc2ccccc2c1=O
REMARK SMILES IDX 13 1 12 2 10 3 11 4 9 5 8 6 7 7 6 8 91 9 84 10 90 11 92 12
REMARK SMILES IDX 85 13 89 14 86 15 88 16 87 17 5 18 4 19 3 20 2 21 1 22 14 23
REMARK SMILES IDX 15 24 16 25 17 26 18 27 19 28 20 29 21 30 22 31 83 32 23 33
REMARK SMILES IDX 82 34 24 35 25 36 26 37 76 38 27 39 81 40 75 41 77 42 28 43
REMARK SMILES IDX 80 44 74 45 73 46 29 48 61 49 41 50 60 51 42 52 45 53 59 54
REMARK SMILES IDX 78 55 43 56 44 57 58 59 79 60 46 61 30 62 31 63 39 64 32 65
REMARK SMILES IDX 38 66 40 67 37 68 33 69 34 70 35 71 36 72 62 73 63 74 71 75
REMARK SMILES IDX 64 76 70 77 72 78 69 79 65 80 66 81 67 82 68 83 47 84 48 85
REMARK SMILES IDX 56 86 49 87 55 88 57 89 54 90 50 91 51 92 52 93 53 94
REMARK H PARENT 77 47 45 58
REMARK Flexibility Score: inf
ROOT
ATOM      1  C   UNL A   1      33.926  32.098  27.693  1.00  0.00     0.261 C 
ENDROOT
BRANCH   1   2
ATOM      2  O   UNL A   1      34.833  31.032  28.149  1.00  0.00    -0.463 OA
BRANCH   2   3
ATOM      3  C   UNL A   1      34.835  29.826  27.530  1.00  0.00     0.316 C 
ATOM      4  O   UNL A   1      35.851  29.135  27.467  1.00  0.00    -0.251 OA
BRANCH   3   5
ATOM      5  C   UNL A   1      33.501  29.289  26.966  1.00  0.00     0.200 C 
BRANCH   5   6
ATOM      6  S   UNL A   1      33.385  27.967  25.717  1.00  0.00    -0.076 SA
BRANCH   6   7
ATOM      7  C   UNL A   1      31.827  28.209  24.931  1.00  0.00     0.171 A 
ATOM      8  N   UNL A   1      30.934  27.191  25.023  1.00  0.00    -0.287 N 
ATOM      9  C   UNL A   1      30.043  27.012  23.968  1.00  0.00     0.262 A 
ATOM     10  N   UNL A   1      31.517  29.316  24.316  1.00  0.00    -0.224 NA
ATOM     11  C   UNL A   1      29.455  28.258  23.498  1.00  0.00     0.066 A 
ATOM     12  O   UNL A   1      29.683  25.934  23.505  1.00  0.00    -0.269 OA
ATOM     13  C   UNL A   1      30.188  29.406  23.799  1.00  0.00     0.079 A 
ATOM     14  C   UNL A   1      28.133  28.272  23.025  1.00  0.00     0.016 A 
ATOM     15  C   UNL A   1      29.522  30.623  23.646  1.00  0.00     0.029 A 
ATOM     16  C   UNL A   1      27.486  29.493  22.901  1.00  0.00     0.001 A 
ATOM     17  C   UNL A   1      28.176  30.664  23.223  1.00  0.00     0.002 A 
BRANCH   8  18
ATOM     18  C   UNL A   1      30.898  26.182  26.053  1.00  0.00     0.128 C 
BRANCH  18  19
ATOM     19  C   UNL A   1      31.587  24.763  25.836  1.00  0.00     0.022 C 
BRANCH  19  20
ATOM     20  C   UNL A   1      32.299  23.761  26.939  1.00  0.00     0.002 C 
BRANCH  20  21
ATOM     21  C   UNL A   1      33.509  22.731  26.842  1.00  0.00    -0.003 C 
ATOM     22  C   UNL A   1      34.917  23.103  26.360  1.00  0.00     0.004 C 
ENDBRANCH  20  21
ENDBRANCH  19  20
ENDBRANCH  18  19
ENDBRANCH   8  18
ENDBRANCH   6   7
ENDBRANCH   5   6
ENDBRANCH   3   5
ENDBRANCH   2   3
ENDBRANCH   1   2
BRANCH   1  23
ATOM     23  C   UNL A   1      33.912  33.483  28.521  1.00  0.00     0.202 C 
BRANCH  23  24
ATOM     24  O   UNL A   1      35.207  33.946  28.953  1.00  0.00    -0.374 OA
BRANCH  24  25
ATOM     25  C   UNL A   1      35.736  33.917  30.303  1.00  0.00     0.202 C 
BRANCH  25  26
ATOM     26  C   UNL A   1      34.605  33.869  31.562  1.00  0.00     0.261 C 
BRANCH  26  27
ATOM     27  O   UNL A   1      34.746  32.815  32.624  1.00  0.00    -0.460 OA
BRANCH  27  28
ATOM     28  C   UNL A   1      35.725  32.801  33.595  1.00  0.00     0.338 C 
ATOM     29  O   UNL A   1      35.524  33.155  34.749  1.00  0.00    -0.246 OA
BRANCH  28  30
ATOM     30  C   UNL A   1      37.023  32.054  33.186  1.00  0.00     0.060 A 
ATOM     31  C   UNL A   1      37.115  30.940  32.335  1.00  0.00     0.016 A 
ATOM     32  C   UNL A   1      38.246  32.512  33.710  1.00  0.00     0.016 A 
ATOM     33  C   UNL A   1      38.372  30.277  32.086  1.00  0.00     0.010 A 
ATOM     34  C   UNL A   1      39.485  31.834  33.496  1.00  0.00     0.010 A 
ATOM     35  C   UNL A   1      39.585  30.698  32.678  1.00  0.00    -0.014 A 
BRANCH  35  36
ATOM     36  C   UNL A   1      40.960  30.180  32.262  1.00  0.00     0.031 A 
ATOM     37  C   UNL A   1      41.717  29.027  32.921  1.00  0.00     0.074 A 
ATOM     38  C   UNL A   1      41.633  30.863  31.305  1.00  0.00     0.049 A 
ATOM     39  N   UNL A   1      42.916  28.552  32.638  1.00  0.00    -0.248 NA
ATOM     40  C   UNL A   1      41.066  28.325  34.032  1.00  0.00     0.031 C 
ATOM     41  C   UNL A   1      41.102  32.021  30.595  1.00  0.00     0.029 A 
ATOM     42  N   UNL A   1      42.904  30.708  30.785  1.00  0.00    -0.354 N 
ATOM     43  C   UNL A   1      43.159  27.494  33.518  1.00  0.00     0.074 A 
ATOM     44  C   UNL A   1      41.985  27.420  34.369  1.00  0.00     0.031 C 
ATOM     45  C   UNL A   1      42.029  32.474  29.738  1.00  0.00     0.029 A 
ATOM     46  C   UNL A   1      43.241  31.660  29.844  1.00  0.00     0.049 A 
ATOM     47  H   UNL A   1      43.513  29.986  31.059  1.00  0.00     0.167 HD
ATOM     48  C   UNL A   1      44.237  26.660  33.607  1.00  0.00     0.034 A 
ATOM     49  C   UNL A   1      44.374  31.877  29.139  1.00  0.00     0.034 A 
ATOM     50  C   UNL A   1      45.420  26.717  32.767  1.00  0.00     0.049 A 
ATOM     51  C   UNL A   1      45.565  30.959  29.277  1.00  0.00     0.074 A 
ATOM     52  C   UNL A   1      46.498  25.838  32.748  1.00  0.00     0.029 A 
ATOM     53  N   UNL A   1      45.705  27.686  31.820  1.00  0.00    -0.354 N 
ATOM     54  N   UNL A   1      45.697  29.881  30.009  1.00  0.00    -0.248 NA
ATOM     55  C   UNL A   1      46.760  31.276  28.473  1.00  0.00     0.031 C 
ATOM     56  C   UNL A   1      47.458  26.315  31.856  1.00  0.00     0.029 A 
ATOM     57  C   UNL A   1      46.951  27.449  31.248  1.00  0.00     0.049 A 
ATOM     58  H   UNL A   1      45.111  28.437  31.585  1.00  0.00     0.167 HD
ATOM     59  C   UNL A   1      46.963  29.370  29.719  1.00  0.00     0.074 A 
ATOM     60  C   UNL A   1      47.553  30.246  28.733  1.00  0.00     0.031 C 
ATOM     61  C   UNL A   1      47.568  28.273  30.237  1.00  0.00     0.034 A 
BRANCH  48  62
ATOM     62  C   UNL A   1      44.226  25.513  34.610  1.00  0.00     0.023 A 
ATOM     63  C   UNL A   1      44.666  25.711  35.939  1.00  0.00     0.031 A 
ATOM     64  C   UNL A   1      44.046  24.189  34.170  1.00  0.00     0.131 A 
ATOM     65  C   UNL A   1      44.956  24.606  36.757  1.00  0.00     0.055 A 
ATOM     66  C   UNL A   1      44.301  23.093  35.001  1.00  0.00     0.041 A 
ATOM     67  F   UNL A   1      43.660  23.939  32.910  1.00  0.00    -0.206 F 
ATOM     68  C   UNL A   1      44.774  23.298  36.294  1.00  0.00     0.022 A 
BRANCH  65  69
ATOM     69  S   UNL A   1      45.674  24.806  38.416  1.00  0.00     0.124 S 
ATOM     70  O   UNL A   1      47.101  24.907  38.115  1.00  0.00    -0.237 OA
ATOM     71  O   UNL A   1      45.047  26.042  38.876  1.00  0.00    -0.237 OA
ATOM     72  O   UNL A   1      45.273  23.593  39.119  1.00  0.00    -0.744 OA
ENDBRANCH  65  69
ENDBRANCH  48  62
BRANCH  49  73
ATOM     73  C   UNL A   1      44.406  32.999  28.151  1.00  0.00     0.023 A 
ATOM     74  C   UNL A   1      44.622  34.328  28.554  1.00  0.00     0.031 A 
ATOM     75  C   UNL A   1      44.149  32.753  26.790  1.00  0.00     0.131 A 
ATOM     76  C   UNL A   1      44.515  35.364  27.617  1.00  0.00     0.055 A 
ATOM     77  C   UNL A   1      44.118  33.780  25.847  1.00  0.00     0.041 A 
ATOM     78  F   UNL A   1      43.932  31.500  26.358  1.00  0.00    -0.206 F 
ATOM     79  C   UNL A   1      44.284  35.097  26.263  1.00  0.00     0.022 A 
BRANCH  76  80
ATOM     80  S   UNL A   1      44.539  37.101  28.143  1.00  0.00     0.124 S 
ATOM     81  O   UNL A   1      44.318  37.803  26.884  1.00  0.00    -0.237 OA
ATOM     82  O   UNL A   1      43.428  37.140  29.092  1.00  0.00    -0.237 OA
ATOM     83  O   UNL A   1      45.863  37.263  28.734  1.00  0.00    -0.744 OA
ENDBRANCH  76  80
ENDBRANCH  49  73
BRANCH  61  84
ATOM     84  C   UNL A   1      48.953  27.885  29.755  1.00  0.00     0.023 A 
ATOM     85  C   UNL A   1      49.106  27.002  28.666  1.00  0.00     0.031 A 
ATOM     86  C   UNL A   1      50.113  28.273  30.449  1.00  0.00     0.131 A 
ATOM     87  C   UNL A   1      50.377  26.511  28.328  1.00  0.00     0.055 A 
ATOM     88  C   UNL A   1      51.383  27.819  30.080  1.00  0.00     0.041 A 
ATOM     89  F   UNL A   1      50.031  29.103  31.502  1.00  0.00    -0.206 F 
ATOM     90  C   UNL A   1      51.517  26.924  29.024  1.00  0.00     0.022 A 
BRANCH  87  91
ATOM     91  S   UNL A   1      50.595  25.262  27.027  1.00  0.00     0.124 S 
ATOM     92  O   UNL A   1      49.969  24.086  27.627  1.00  0.00    -0.237 OA
ATOM     93  O   UNL A   1      49.864  25.852  25.908  1.00  0.00    -0.237 OA
ATOM     94  O   UNL A   1      52.041  25.177  26.858  1.00  0.00    -0.744 OA
ENDBRANCH  87  91
ENDBRANCH  61  84
ENDBRANCH  35  36
ENDBRANCH  28  30
ENDBRANCH  27  28
ENDBRANCH  26  27
ENDBRANCH  25  26
ENDBRANCH  24  25
ENDBRANCH  23  24
ENDBRANCH   1  23
TORSDOF 23
ENDMDL
