MODEL 1
REMARK VINA RESULT:      -9.3      0.000      0.000
REMARK SMILES C[C@H](CC(=O)N1CCC2(CC1)CN(CCCC(=O)OCCOCCOC(=O)c1ccc(-c3c4nc(c(-c5cc(S(=O)(=O)[O-])ccc5F)c5ccc([nH]5)c(-c5cc(S(=O)(=O)[O-])ccc5F)c5nc(c(-c6cc(S(=O)(=O)[O-])ccc6F)c6ccc3[nH]6)C=C5)C=C4)cc1)C(=O)O2)n1ccnc1
REMARK SMILES IDX 20 1 19 2 17 3 18 4 16 5 15 6 14 7 13 8 4 9 5 10 6 11 7 12
REMARK SMILES IDX 11 13 8 14 10 15 9 16 12 17 93 18 91 19 92 20 3 21 2 22 1 23
REMARK SMILES IDX 94 24 95 25 98 26 96 27 97 28 21 29 22 30 23 31 24 32 25 33
REMARK SMILES IDX 26 34 27 35 28 36 29 37 90 38 30 39 89 40 31 41 32 42 33 43
REMARK SMILES IDX 83 44 34 45 88 46 82 47 84 48 35 49 87 50 81 51 80 52 36 54
REMARK SMILES IDX 68 55 48 56 67 57 49 58 52 59 66 60 85 61 50 62 51 63 65 65
REMARK SMILES IDX 86 66 53 67 37 68 38 69 46 70 39 71 45 72 47 73 44 74 40 75
REMARK SMILES IDX 41 76 42 77 43 78 69 79 70 80 78 81 71 82 77 83 79 84 76 85
REMARK SMILES IDX 72 86 73 87 74 88 75 89 54 90 55 91 63 92 56 93 62 94 64 95
REMARK SMILES IDX 61 96 57 97 58 98 59 99 60 100
REMARK H PARENT 84 53 52 64
REMARK Flexibility Score: inf
ROOT
ATOM      1  C   UNL A   1      32.838  26.752  23.837  1.00  0.00     0.261 C 
ENDROOT
BRANCH   1   2
ATOM      2  O   UNL A   1      32.787  26.315  25.204  1.00  0.00    -0.463 OA
BRANCH   2   3
ATOM      3  C   UNL A   1      31.558  26.174  25.748  1.00  0.00     0.305 C 
ATOM      4  O   UNL A   1      31.224  26.588  26.852  1.00  0.00    -0.252 OA
BRANCH   3   5
ATOM      5  C   UNL A   1      30.573  25.476  24.831  1.00  0.00     0.124 C 
BRANCH   5   6
ATOM      6  C   UNL A   1      30.694  23.974  24.534  1.00  0.00     0.033 C 
BRANCH   6   7
ATOM      7  C   UNL A   1      31.309  23.034  25.573  1.00  0.00     0.124 C 
BRANCH   7   8
ATOM      8  N   UNL A   1      32.543  22.384  25.183  1.00  0.00    -0.304 N 
ATOM      9  C   UNL A   1      38.823  22.413  25.763  1.00  0.00     0.224 C 
ATOM     10  O   UNL A   1      39.754  21.602  25.772  1.00  0.00    -0.275 OA
ATOM     11  N   UNL A   1      37.658  22.154  25.060  1.00  0.00    -0.342 N 
ATOM     12  C   UNL A   1      37.111  20.811  24.950  1.00  0.00     0.123 C 
ATOM     13  C   UNL A   1      36.853  23.143  24.383  1.00  0.00     0.123 C 
ATOM     14  C   UNL A   1      35.718  20.789  25.600  1.00  0.00     0.072 C 
ATOM     15  C   UNL A   1      35.547  23.309  25.125  1.00  0.00     0.072 C 
ATOM     16  C   UNL A   1      34.810  21.961  25.169  1.00  0.00     0.135 C 
ATOM     17  C   UNL A   1      33.603  22.068  26.079  1.00  0.00     0.172 C 
ATOM     18  O   UNL A   1      34.228  21.694  23.876  1.00  0.00    -0.441 OA
ATOM     19  C   UNL A   1      32.928  22.138  23.889  1.00  0.00     0.410 C 
ATOM     20  O   UNL A   1      32.243  22.264  22.885  1.00  0.00    -0.224 OA
BRANCH   9  21
ATOM     21  C   UNL A   1      38.816  23.558  26.789  1.00  0.00     0.125 C 
BRANCH  21  22
ATOM     22  C   UNL A   1      40.088  24.193  27.389  1.00  0.00     0.094 C 
ATOM     23  C   UNL A   1      40.867  23.266  28.318  1.00  0.00     0.032 C 
BRANCH  22  24
ATOM     24  N   UNL A   1      40.903  24.905  26.419  1.00  0.00    -0.334 N 
ATOM     25  C   UNL A   1      40.760  26.190  25.975  1.00  0.00     0.107 A 
ATOM     26  C   UNL A   1      42.040  24.403  25.838  1.00  0.00     0.199 A 
ATOM     27  C   UNL A   1      41.941  26.466  25.327  1.00  0.00     0.130 A 
ATOM     28  N   UNL A   1      42.727  25.345  25.236  1.00  0.00    -0.245 NA
ENDBRANCH  22  24
ENDBRANCH  21  22
ENDBRANCH   9  21
ENDBRANCH   7   8
ENDBRANCH   6   7
ENDBRANCH   5   6
ENDBRANCH   3   5
ENDBRANCH   2   3
ENDBRANCH   1   2
BRANCH   1  29
ATOM     29  C   UNL A   1      32.640  28.268  23.750  1.00  0.00     0.202 C 
BRANCH  29  30
ATOM     30  O   UNL A   1      33.123  29.053  24.841  1.00  0.00    -0.374 OA
BRANCH  30  31
ATOM     31  C   UNL A   1      32.197  29.875  25.547  1.00  0.00     0.202 C 
BRANCH  31  32
ATOM     32  C   UNL A   1      32.654  30.584  26.831  1.00  0.00     0.261 C 
BRANCH  32  33
ATOM     33  O   UNL A   1      34.023  30.323  27.182  1.00  0.00    -0.460 OA
BRANCH  33  34
ATOM     34  C   UNL A   1      34.653  31.390  27.740  1.00  0.00     0.338 C 
ATOM     35  O   UNL A   1      34.175  32.497  27.934  1.00  0.00    -0.246 OA
BRANCH  34  36
ATOM     36  C   UNL A   1      35.966  30.997  28.284  1.00  0.00     0.060 A 
ATOM     37  C   UNL A   1      36.067  29.715  28.837  1.00  0.00     0.016 A 
ATOM     38  C   UNL A   1      37.037  31.888  28.355  1.00  0.00     0.016 A 
ATOM     39  C   UNL A   1      37.220  29.338  29.519  1.00  0.00     0.010 A 
ATOM     40  C   UNL A   1      38.195  31.507  29.044  1.00  0.00     0.010 A 
ATOM     41  C   UNL A   1      38.276  30.245  29.665  1.00  0.00    -0.014 A 
BRANCH  41  42
ATOM     42  C   UNL A   1      39.390  29.921  30.593  1.00  0.00     0.031 A 
ATOM     43  C   UNL A   1      39.421  30.555  31.956  1.00  0.00     0.074 A 
ATOM     44  C   UNL A   1      40.332  29.023  30.256  1.00  0.00     0.049 A 
ATOM     45  N   UNL A   1      40.310  30.438  32.909  1.00  0.00    -0.248 NA
ATOM     46  C   UNL A   1      38.295  31.440  32.287  1.00  0.00     0.031 C 
ATOM     47  C   UNL A   1      40.363  28.270  29.005  1.00  0.00     0.029 A 
ATOM     48  N   UNL A   1      41.438  28.588  30.943  1.00  0.00    -0.354 N 
ATOM     49  C   UNL A   1      39.856  31.237  33.952  1.00  0.00     0.074 A 
ATOM     50  C   UNL A   1      38.638  31.872  33.490  1.00  0.00     0.031 C 
ATOM     51  C   UNL A   1      41.438  27.465  29.018  1.00  0.00     0.029 A 
ATOM     52  C   UNL A   1      42.212  27.708  30.227  1.00  0.00     0.049 A 
ATOM     53  H   UNL A   1      41.655  28.877  31.859  1.00  0.00     0.167 HD
ATOM     54  C   UNL A   1      40.400  31.415  35.183  1.00  0.00     0.034 A 
ATOM     55  C   UNL A   1      43.427  27.185  30.482  1.00  0.00     0.034 A 
ATOM     56  C   UNL A   1      41.625  30.782  35.617  1.00  0.00     0.049 A 
ATOM     57  C   UNL A   1      44.083  27.488  31.799  1.00  0.00     0.074 A 
ATOM     58  C   UNL A   1      42.252  30.870  36.847  1.00  0.00     0.029 A 
ATOM     59  N   UNL A   1      42.425  29.964  34.826  1.00  0.00    -0.354 N 
ATOM     60  N   UNL A   1      43.645  28.238  32.784  1.00  0.00    -0.248 NA
ATOM     61  C   UNL A   1      45.382  26.856  32.053  1.00  0.00     0.031 C 
ATOM     62  C   UNL A   1      43.471  30.188  36.770  1.00  0.00     0.029 A 
ATOM     63  C   UNL A   1      43.564  29.585  35.526  1.00  0.00     0.049 A 
ATOM     64  H   UNL A   1      42.214  29.691  33.903  1.00  0.00     0.167 HD
ATOM     65  C   UNL A   1      44.601  28.142  33.790  1.00  0.00     0.074 A 
ATOM     66  C   UNL A   1      45.634  27.255  33.292  1.00  0.00     0.031 C 
ATOM     67  C   UNL A   1      44.609  28.723  35.018  1.00  0.00     0.034 A 
BRANCH  54  68
ATOM     68  C   UNL A   1      39.703  32.388  36.110  1.00  0.00     0.023 A 
ATOM     69  C   UNL A   1      40.176  33.698  36.307  1.00  0.00     0.031 A 
ATOM     70  C   UNL A   1      38.589  31.974  36.863  1.00  0.00     0.131 A 
ATOM     71  C   UNL A   1      39.607  34.506  37.304  1.00  0.00     0.055 A 
ATOM     72  C   UNL A   1      37.964  32.820  37.782  1.00  0.00     0.041 A 
ATOM     73  F   UNL A   1      38.103  30.730  36.740  1.00  0.00    -0.206 F 
ATOM     74  C   UNL A   1      38.487  34.087  38.025  1.00  0.00     0.022 A 
BRANCH  71  75
ATOM     75  S   UNL A   1      40.477  36.024  37.786  1.00  0.00     0.124 S 
ATOM     76  O   UNL A   1      41.213  36.344  36.566  1.00  0.00    -0.237 OA
ATOM     77  O   UNL A   1      39.379  36.922  38.126  1.00  0.00    -0.237 OA
ATOM     78  O   UNL A   1      41.308  35.600  38.912  1.00  0.00    -0.744 OA
ENDBRANCH  71  75
ENDBRANCH  54  68
BRANCH  55  79
ATOM     79  C   UNL A   1      44.116  26.374  29.438  1.00  0.00     0.023 A 
ATOM     80  C   UNL A   1      44.855  26.973  28.407  1.00  0.00     0.031 A 
ATOM     81  C   UNL A   1      44.041  24.968  29.466  1.00  0.00     0.131 A 
ATOM     82  C   UNL A   1      45.470  26.169  27.433  1.00  0.00     0.055 A 
ATOM     83  C   UNL A   1      44.686  24.173  28.518  1.00  0.00     0.041 A 
ATOM     84  F   UNL A   1      43.355  24.343  30.437  1.00  0.00    -0.206 F 
ATOM     85  C   UNL A   1      45.403  24.774  27.491  1.00  0.00     0.022 A 
BRANCH  82  86
ATOM     86  S   UNL A   1      46.329  26.973  26.052  1.00  0.00     0.124 S 
ATOM     87  O   UNL A   1      45.861  26.190  24.914  1.00  0.00    -0.237 OA
ATOM     88  O   UNL A   1      45.831  28.342  26.141  1.00  0.00    -0.237 OA
ATOM     89  O   UNL A   1      47.741  26.807  26.388  1.00  0.00    -0.744 OA
ENDBRANCH  82  86
ENDBRANCH  55  79
BRANCH  67  90
ATOM     90  C   UNL A   1      45.764  28.381  35.931  1.00  0.00     0.023 A 
ATOM     91  C   UNL A   1      45.721  27.281  36.807  1.00  0.00     0.031 A 
ATOM     92  C   UNL A   1      46.923  29.178  35.932  1.00  0.00     0.131 A 
ATOM     93  C   UNL A   1      46.789  27.044  37.686  1.00  0.00     0.055 A 
ATOM     94  C   UNL A   1      48.013  28.895  36.757  1.00  0.00     0.041 A 
ATOM     95  F   UNL A   1      47.018  30.248  35.126  1.00  0.00    -0.206 F 
ATOM     96  C   UNL A   1      47.943  27.831  37.651  1.00  0.00     0.022 A 
BRANCH  93  97
ATOM     97  S   UNL A   1      46.607  25.762  38.955  1.00  0.00     0.124 S 
ATOM     98  O   UNL A   1      47.234  24.611  38.312  1.00  0.00    -0.237 OA
ATOM     99  O   UNL A   1      47.332  26.335  40.085  1.00  0.00    -0.237 OA
ATOM    100  O   UNL A   1      45.159  25.659  39.135  1.00  0.00    -0.744 OA
ENDBRANCH  93  97
ENDBRANCH  67  90
ENDBRANCH  41  42
ENDBRANCH  34  36
ENDBRANCH  33  34
ENDBRANCH  32  33
ENDBRANCH  31  32
ENDBRANCH  30  31
ENDBRANCH  29  30
ENDBRANCH   1  29
TORSDOF 23
ENDMDL
MODEL 2
REMARK VINA RESULT:      -9.3      4.503      8.800
REMARK SMILES C[C@H](CC(=O)N1CCC2(CC1)CN(CCCC(=O)OCCOCCOC(=O)c1ccc(-c3c4nc(c(-c5cc(S(=O)(=O)[O-])ccc5F)c5ccc([nH]5)c(-c5cc(S(=O)(=O)[O-])ccc5F)c5nc(c(-c6cc(S(=O)(=O)[O-])ccc6F)c6ccc3[nH]6)C=C5)C=C4)cc1)C(=O)O2)n1ccnc1
REMARK SMILES IDX 20 1 19 2 17 3 18 4 16 5 15 6 14 7 13 8 4 9 5 10 6 11 7 12
REMARK SMILES IDX 11 13 8 14 10 15 9 16 12 17 93 18 91 19 92 20 3 21 2 22 1 23
REMARK SMILES IDX 94 24 95 25 98 26 96 27 97 28 21 29 22 30 23 31 24 32 25 33
REMARK SMILES IDX 26 34 27 35 28 36 29 37 90 38 30 39 89 40 31 41 32 42 33 43
REMARK SMILES IDX 83 44 34 45 88 46 82 47 84 48 35 49 87 50 81 51 80 52 36 54
REMARK SMILES IDX 68 55 48 56 67 57 49 58 52 59 66 60 85 61 50 62 51 63 65 65
REMARK SMILES IDX 86 66 53 67 37 68 38 69 46 70 39 71 45 72 47 73 44 74 40 75
REMARK SMILES IDX 41 76 42 77 43 78 69 79 70 80 78 81 71 82 77 83 79 84 76 85
REMARK SMILES IDX 72 86 73 87 74 88 75 89 54 90 55 91 63 92 56 93 62 94 64 95
REMARK SMILES IDX 61 96 57 97 58 98 59 99 60 100
REMARK H PARENT 84 53 52 64
REMARK Flexibility Score: inf
ROOT
ATOM      1  C   UNL A   1      35.287  33.710  30.299  1.00  0.00     0.261 C 
ENDROOT
BRANCH   1   2
ATOM      2  O   UNL A   1      35.272  33.347  28.910  1.00  0.00    -0.463 OA
BRANCH   2   3
ATOM      3  C   UNL A   1      34.058  33.154  28.349  1.00  0.00     0.305 C 
ATOM      4  O   UNL A   1      33.163  33.991  28.298  1.00  0.00    -0.252 OA
BRANCH   3   5
ATOM      5  C   UNL A   1      33.899  31.784  27.720  1.00  0.00     0.124 C 
BRANCH   5   6
ATOM      6  C   UNL A   1      35.124  30.967  27.282  1.00  0.00     0.033 C 
BRANCH   6   7
ATOM      7  C   UNL A   1      35.449  29.641  27.974  1.00  0.00     0.124 C 
BRANCH   7   8
ATOM      8  N   UNL A   1      36.786  29.527  28.521  1.00  0.00    -0.304 N 
ATOM      9  C   UNL A   1      42.351  26.600  28.036  1.00  0.00     0.224 C 
ATOM     10  O   UNL A   1      43.546  26.848  28.225  1.00  0.00    -0.275 OA
ATOM     11  N   UNL A   1      41.364  27.244  28.763  1.00  0.00    -0.342 N 
ATOM     12  C   UNL A   1      41.494  28.634  29.170  1.00  0.00     0.123 C 
ATOM     13  C   UNL A   1      40.116  26.653  29.184  1.00  0.00     0.123 C 
ATOM     14  C   UNL A   1      40.363  29.448  28.523  1.00  0.00     0.072 C 
ATOM     15  C   UNL A   1      38.984  27.283  28.406  1.00  0.00     0.072 C 
ATOM     16  C   UNL A   1      38.969  28.798  28.662  1.00  0.00     0.135 C 
ATOM     17  C   UNL A   1      37.972  29.463  27.735  1.00  0.00     0.172 C 
ATOM     18  O   UNL A   1      38.425  29.055  29.974  1.00  0.00    -0.441 OA
ATOM     19  C   UNL A   1      37.081  29.302  29.841  1.00  0.00     0.410 C 
ATOM     20  O   UNL A   1      36.299  29.328  30.780  1.00  0.00    -0.224 OA
BRANCH   9  21
ATOM     21  C   UNL A   1      41.938  25.824  26.774  1.00  0.00     0.125 C 
BRANCH  21  22
ATOM     22  C   UNL A   1      42.887  25.511  25.599  1.00  0.00     0.094 C 
ATOM     23  C   UNL A   1      43.885  26.624  25.292  1.00  0.00     0.032 C 
BRANCH  22  24
ATOM     24  N   UNL A   1      43.462  24.176  25.647  1.00  0.00    -0.334 N 
ATOM     25  C   UNL A   1      44.074  23.557  26.700  1.00  0.00     0.107 A 
ATOM     26  C   UNL A   1      43.400  23.264  24.624  1.00  0.00     0.199 A 
ATOM     27  C   UNL A   1      44.146  22.234  26.330  1.00  0.00     0.130 A 
ATOM     28  N   UNL A   1      43.735  22.063  25.033  1.00  0.00    -0.245 NA
ENDBRANCH  22  24
ENDBRANCH  21  22
ENDBRANCH   9  21
ENDBRANCH   7   8
ENDBRANCH   6   7
ENDBRANCH   5   6
ENDBRANCH   3   5
ENDBRANCH   2   3
ENDBRANCH   1   2
BRANCH   1  29
ATOM     29  C   UNL A   1      34.784  32.550  31.163  1.00  0.00     0.202 C 
BRANCH  29  30
ATOM     30  O   UNL A   1      34.027  32.882  32.327  1.00  0.00    -0.374 OA
BRANCH  30  31
ATOM     31  C   UNL A   1      34.361  34.072  33.038  1.00  0.00     0.202 C 
BRANCH  31  32
ATOM     32  C   UNL A   1      35.260  33.973  34.280  1.00  0.00     0.261 C 
BRANCH  32  33
ATOM     33  O   UNL A   1      35.925  32.707  34.417  1.00  0.00    -0.460 OA
BRANCH  33  34
ATOM     34  C   UNL A   1      37.031  32.757  35.204  1.00  0.00     0.338 C 
ATOM     35  O   UNL A   1      37.093  33.188  36.344  1.00  0.00    -0.246 OA
BRANCH  34  36
ATOM     36  C   UNL A   1      38.151  32.028  34.580  1.00  0.00     0.060 A 
ATOM     37  C   UNL A   1      39.443  32.365  35.002  1.00  0.00     0.016 A 
ATOM     38  C   UNL A   1      37.957  31.122  33.537  1.00  0.00     0.016 A 
ATOM     39  C   UNL A   1      40.551  31.845  34.340  1.00  0.00     0.010 A 
ATOM     40  C   UNL A   1      39.075  30.602  32.872  1.00  0.00     0.010 A 
ATOM     41  C   UNL A   1      40.376  30.993  33.243  1.00  0.00    -0.014 A 
BRANCH  41  42
ATOM     42  C   UNL A   1      41.549  30.640  32.402  1.00  0.00     0.031 A 
ATOM     43  C   UNL A   1      42.242  29.324  32.620  1.00  0.00     0.074 A 
ATOM     44  C   UNL A   1      41.957  31.451  31.411  1.00  0.00     0.049 A 
ATOM     45  N   UNL A   1      43.297  28.830  32.023  1.00  0.00    -0.248 NA
ATOM     46  C   UNL A   1      41.665  28.448  33.649  1.00  0.00     0.031 C 
ATOM     47  C   UNL A   1      41.314  32.708  31.036  1.00  0.00     0.029 A 
ATOM     48  N   UNL A   1      43.005  31.331  30.532  1.00  0.00    -0.354 N 
ATOM     49  C   UNL A   1      43.516  27.588  32.607  1.00  0.00     0.074 A 
ATOM     50  C   UNL A   1      42.512  27.431  33.639  1.00  0.00     0.031 C 
ATOM     51  C   UNL A   1      41.986  33.241  30.003  1.00  0.00     0.029 A 
ATOM     52  C   UNL A   1      43.148  32.416  29.703  1.00  0.00     0.049 A 
ATOM     53  H   UNL A   1      43.596  30.545  30.500  1.00  0.00     0.167 HD
ATOM     54  C   UNL A   1      44.460  26.661  32.300  1.00  0.00     0.034 A 
ATOM     55  C   UNL A   1      44.120  32.744  28.829  1.00  0.00     0.034 A 
ATOM     56  C   UNL A   1      45.461  26.847  31.276  1.00  0.00     0.049 A 
ATOM     57  C   UNL A   1      45.234  31.766  28.588  1.00  0.00     0.074 A 
ATOM     58  C   UNL A   1      46.448  25.968  30.865  1.00  0.00     0.029 A 
ATOM     59  N   UNL A   1      45.624  28.001  30.516  1.00  0.00    -0.354 N 
ATOM     60  N   UNL A   1      45.431  30.589  29.137  1.00  0.00    -0.248 NA
ATOM     61  C   UNL A   1      46.242  32.143  27.591  1.00  0.00     0.031 C 
ATOM     62  C   UNL A   1      47.260  26.621  29.931  1.00  0.00     0.029 A 
ATOM     63  C   UNL A   1      46.724  27.874  29.678  1.00  0.00     0.049 A 
ATOM     64  H   UNL A   1      45.041  28.794  30.564  1.00  0.00     0.167 HD
ATOM     65  C   UNL A   1      46.568  30.071  28.528  1.00  0.00     0.074 A 
ATOM     66  C   UNL A   1      47.008  31.062  27.565  1.00  0.00     0.031 C 
ATOM     67  C   UNL A   1      47.180  28.875  28.738  1.00  0.00     0.034 A 
BRANCH  54  68
ATOM     68  C   UNL A   1      44.487  25.402  33.140  1.00  0.00     0.023 A 
ATOM     69  C   UNL A   1      44.907  25.411  34.483  1.00  0.00     0.031 A 
ATOM     70  C   UNL A   1      44.155  24.162  32.566  1.00  0.00     0.131 A 
ATOM     71  C   UNL A   1      45.085  24.199  35.170  1.00  0.00     0.055 A 
ATOM     72  C   UNL A   1      44.238  22.968  33.288  1.00  0.00     0.041 A 
ATOM     73  F   UNL A   1      43.770  24.081  31.284  1.00  0.00    -0.206 F 
ATOM     74  C   UNL A   1      44.728  22.980  34.591  1.00  0.00     0.022 A 
BRANCH  71  75
ATOM     75  S   UNL A   1      45.981  24.224  36.748  1.00  0.00     0.124 S 
ATOM     76  O   UNL A   1      46.600  22.901  36.758  1.00  0.00    -0.237 OA
ATOM     77  O   UNL A   1      46.887  25.354  36.577  1.00  0.00    -0.237 OA
ATOM     78  O   UNL A   1      44.923  24.416  37.739  1.00  0.00    -0.744 OA
ENDBRANCH  71  75
ENDBRANCH  54  68
BRANCH  55  79
ATOM     79  C   UNL A   1      44.104  34.082  28.174  1.00  0.00     0.023 A 
ATOM     80  C   UNL A   1      44.445  35.250  28.871  1.00  0.00     0.031 A 
ATOM     81  C   UNL A   1      43.740  34.204  26.818  1.00  0.00     0.131 A 
ATOM     82  C   UNL A   1      44.396  36.492  28.217  1.00  0.00     0.055 A 
ATOM     83  C   UNL A   1      43.730  35.436  26.163  1.00  0.00     0.041 A 
ATOM     84  F   UNL A   1      43.414  33.117  26.101  1.00  0.00    -0.206 F 
ATOM     85  C   UNL A   1      44.055  36.590  26.864  1.00  0.00     0.022 A 
BRANCH  82  86
ATOM     86  S   UNL A   1      44.739  37.996  29.171  1.00  0.00     0.124 S 
ATOM     87  O   UNL A   1      45.885  38.546  28.456  1.00  0.00    -0.237 OA
ATOM     88  O   UNL A   1      43.486  38.731  29.040  1.00  0.00    -0.237 OA
ATOM     89  O   UNL A   1      45.022  37.490  30.511  1.00  0.00    -0.744 OA
ENDBRANCH  82  86
ENDBRANCH  55  79
BRANCH  67  90
ATOM     90  C   UNL A   1      48.378  28.555  27.873  1.00  0.00     0.023 A 
ATOM     91  C   UNL A   1      48.241  28.062  26.564  1.00  0.00     0.031 A 
ATOM     92  C   UNL A   1      49.679  28.738  28.376  1.00  0.00     0.131 A 
ATOM     93  C   UNL A   1      49.382  27.713  25.824  1.00  0.00     0.055 A 
ATOM     94  C   UNL A   1      50.812  28.458  27.609  1.00  0.00     0.041 A 
ATOM     95  F   UNL A   1      49.874  29.196  29.622  1.00  0.00    -0.206 F 
ATOM     96  C   UNL A   1      50.666  27.929  26.331  1.00  0.00     0.022 A 
BRANCH  93  97
ATOM     97  S   UNL A   1      49.167  26.869  24.234  1.00  0.00     0.124 S 
ATOM     98  O   UNL A   1      48.368  27.835  23.486  1.00  0.00    -0.237 OA
ATOM     99  O   UNL A   1      50.544  26.694  23.783  1.00  0.00    -0.237 OA
ATOM    100  O   UNL A   1      48.470  25.634  24.591  1.00  0.00    -0.744 OA
ENDBRANCH  93  97
ENDBRANCH  67  90
ENDBRANCH  41  42
ENDBRANCH  34  36
ENDBRANCH  33  34
ENDBRANCH  32  33
ENDBRANCH  31  32
ENDBRANCH  30  31
ENDBRANCH  29  30
ENDBRANCH   1  29
TORSDOF 23
ENDMDL
MODEL 3
REMARK VINA RESULT:      -9.3      5.071     10.559
REMARK SMILES C[C@H](CC(=O)N1CCC2(CC1)CN(CCCC(=O)OCCOCCOC(=O)c1ccc(-c3c4nc(c(-c5cc(S(=O)(=O)[O-])ccc5F)c5ccc([nH]5)c(-c5cc(S(=O)(=O)[O-])ccc5F)c5nc(c(-c6cc(S(=O)(=O)[O-])ccc6F)c6ccc3[nH]6)C=C5)C=C4)cc1)C(=O)O2)n1ccnc1
REMARK SMILES IDX 20 1 19 2 17 3 18 4 16 5 15 6 14 7 13 8 4 9 5 10 6 11 7 12
REMARK SMILES IDX 11 13 8 14 10 15 9 16 12 17 93 18 91 19 92 20 3 21 2 22 1 23
REMARK SMILES IDX 94 24 95 25 98 26 96 27 97 28 21 29 22 30 23 31 24 32 25 33
REMARK SMILES IDX 26 34 27 35 28 36 29 37 90 38 30 39 89 40 31 41 32 42 33 43
REMARK SMILES IDX 83 44 34 45 88 46 82 47 84 48 35 49 87 50 81 51 80 52 36 54
REMARK SMILES IDX 68 55 48 56 67 57 49 58 52 59 66 60 85 61 50 62 51 63 65 65
REMARK SMILES IDX 86 66 53 67 37 68 38 69 46 70 39 71 45 72 47 73 44 74 40 75
REMARK SMILES IDX 41 76 42 77 43 78 69 79 70 80 78 81 71 82 77 83 79 84 76 85
REMARK SMILES IDX 72 86 73 87 74 88 75 89 54 90 55 91 63 92 56 93 62 94 64 95
REMARK SMILES IDX 61 96 57 97 58 98 59 99 60 100
REMARK H PARENT 84 53 52 64
REMARK Flexibility Score: inf
ROOT
ATOM      1  C   UNL A   1      37.244  32.693  37.755  1.00  0.00     0.261 C 
ENDROOT
BRANCH   1   2
ATOM      2  O   UNL A   1      36.765  33.500  36.668  1.00  0.00    -0.463 OA
BRANCH   2   3
ATOM      3  C   UNL A   1      37.040  33.059  35.421  1.00  0.00     0.305 C 
ATOM      4  O   UNL A   1      37.318  31.902  35.127  1.00  0.00    -0.252 OA
BRANCH   3   5
ATOM      5  C   UNL A   1      36.927  34.141  34.365  1.00  0.00     0.124 C 
BRANCH   5   6
ATOM      6  C   UNL A   1      35.565  34.745  33.991  1.00  0.00     0.033 C 
BRANCH   6   7
ATOM      7  C   UNL A   1      34.434  33.839  33.497  1.00  0.00     0.124 C 
BRANCH   7   8
ATOM      8  N   UNL A   1      34.720  33.071  32.303  1.00  0.00    -0.304 N 
ATOM      9  C   UNL A   1      39.226  30.247  28.912  1.00  0.00     0.224 C 
ATOM     10  O   UNL A   1      39.348  29.266  28.172  1.00  0.00    -0.275 OA
ATOM     11  N   UNL A   1      38.012  30.903  29.033  1.00  0.00    -0.342 N 
ATOM     12  C   UNL A   1      36.746  30.189  28.989  1.00  0.00     0.123 C 
ATOM     13  C   UNL A   1      37.847  32.324  29.227  1.00  0.00     0.123 C 
ATOM     14  C   UNL A   1      36.020  30.385  30.330  1.00  0.00     0.072 C 
ATOM     15  C   UNL A   1      37.332  32.574  30.626  1.00  0.00     0.072 C 
ATOM     16  C   UNL A   1      35.989  31.850  30.814  1.00  0.00     0.135 C 
ATOM     17  C   UNL A   1      35.567  31.927  32.267  1.00  0.00     0.172 C 
ATOM     18  O   UNL A   1      34.953  32.583  30.128  1.00  0.00    -0.441 OA
ATOM     19  C   UNL A   1      34.355  33.429  31.030  1.00  0.00     0.410 C 
ATOM     20  O   UNL A   1      33.603  34.338  30.713  1.00  0.00    -0.224 OA
BRANCH   9  21
ATOM     21  C   UNL A   1      40.322  30.545  29.949  1.00  0.00     0.125 C 
BRANCH  21  22
ATOM     22  C   UNL A   1      40.196  30.240  31.456  1.00  0.00     0.094 C 
ATOM     23  C   UNL A   1      40.130  31.483  32.340  1.00  0.00     0.032 C 
BRANCH  22  24
ATOM     24  N   UNL A   1      39.208  29.219  31.769  1.00  0.00    -0.334 N 
ATOM     25  C   UNL A   1      39.124  27.946  31.280  1.00  0.00     0.107 A 
ATOM     26  C   UNL A   1      38.216  29.358  32.706  1.00  0.00     0.199 A 
ATOM     27  C   UNL A   1      38.228  27.314  32.111  1.00  0.00     0.130 A 
ATOM     28  N   UNL A   1      37.659  28.203  32.988  1.00  0.00    -0.245 NA
ENDBRANCH  22  24
ENDBRANCH  21  22
ENDBRANCH   9  21
ENDBRANCH   7   8
ENDBRANCH   6   7
ENDBRANCH   5   6
ENDBRANCH   3   5
ENDBRANCH   2   3
ENDBRANCH   1   2
BRANCH   1  29
ATOM     29  C   UNL A   1      38.731  32.961  38.007  1.00  0.00     0.202 C 
BRANCH  29  30
ATOM     30  O   UNL A   1      39.220  32.737  39.330  1.00  0.00    -0.374 OA
BRANCH  30  31
ATOM     31  C   UNL A   1      39.169  33.813  40.264  1.00  0.00     0.202 C 
BRANCH  31  32
ATOM     32  C   UNL A   1      40.414  34.692  40.460  1.00  0.00     0.261 C 
BRANCH  32  33
ATOM     33  O   UNL A   1      40.594  35.682  39.434  1.00  0.00    -0.460 OA
BRANCH  33  34
ATOM     34  C   UNL A   1      41.897  35.961  39.172  1.00  0.00     0.338 C 
ATOM     35  O   UNL A   1      42.723  36.387  39.963  1.00  0.00    -0.246 OA
BRANCH  34  36
ATOM     36  C   UNL A   1      42.272  35.492  37.824  1.00  0.00     0.060 A 
ATOM     37  C   UNL A   1      41.240  35.368  36.885  1.00  0.00     0.016 A 
ATOM     38  C   UNL A   1      43.568  35.081  37.515  1.00  0.00     0.016 A 
ATOM     39  C   UNL A   1      41.488  34.773  35.652  1.00  0.00     0.010 A 
ATOM     40  C   UNL A   1      43.813  34.480  36.274  1.00  0.00     0.010 A 
ATOM     41  C   UNL A   1      42.766  34.286  35.353  1.00  0.00    -0.014 A 
BRANCH  41  42
ATOM     42  C   UNL A   1      42.958  33.444  34.144  1.00  0.00     0.031 A 
ATOM     43  C   UNL A   1      43.000  31.948  34.288  1.00  0.00     0.074 A 
ATOM     44  C   UNL A   1      43.031  33.997  32.920  1.00  0.00     0.049 A 
ATOM     45  N   UNL A   1      43.186  31.029  33.375  1.00  0.00    -0.248 NA
ATOM     46  C   UNL A   1      42.802  31.420  35.645  1.00  0.00     0.031 C 
ATOM     47  C   UNL A   1      42.911  35.424  32.636  1.00  0.00     0.029 A 
ATOM     48  N   UNL A   1      43.216  33.419  31.688  1.00  0.00    -0.354 N 
ATOM     49  C   UNL A   1      43.135  29.813  34.047  1.00  0.00     0.074 A 
ATOM     50  C   UNL A   1      42.950  30.119  35.450  1.00  0.00     0.031 C 
ATOM     51  C   UNL A   1      43.025  35.607  31.311  1.00  0.00     0.029 A 
ATOM     52  C   UNL A   1      43.313  34.333  30.668  1.00  0.00     0.049 A 
ATOM     53  H   UNL A   1      43.272  32.447  31.550  1.00  0.00     0.167 HD
ATOM     54  C   UNL A   1      43.223  28.558  33.536  1.00  0.00     0.034 A 
ATOM     55  C   UNL A   1      43.639  34.182  29.370  1.00  0.00     0.034 A 
ATOM     56  C   UNL A   1      43.423  28.276  32.133  1.00  0.00     0.049 A 
ATOM     57  C   UNL A   1      43.861  32.794  28.837  1.00  0.00     0.074 A 
ATOM     58  C   UNL A   1      43.501  27.046  31.502  1.00  0.00     0.029 A 
ATOM     59  N   UNL A   1      43.603  29.236  31.142  1.00  0.00    -0.354 N 
ATOM     60  N   UNL A   1      43.803  31.648  29.475  1.00  0.00    -0.248 NA
ATOM     61  C   UNL A   1      44.164  32.675  27.407  1.00  0.00     0.031 C 
ATOM     62  C   UNL A   1      43.822  27.260  30.158  1.00  0.00     0.029 A 
ATOM     63  C   UNL A   1      43.844  28.625  29.918  1.00  0.00     0.049 A 
ATOM     64  H   UNL A   1      43.565  30.210  31.288  1.00  0.00     0.167 HD
ATOM     65  C   UNL A   1      44.030  30.667  28.516  1.00  0.00     0.074 A 
ATOM     66  C   UNL A   1      44.220  31.359  27.256  1.00  0.00     0.031 C 
ATOM     67  C   UNL A   1      44.062  29.317  28.666  1.00  0.00     0.034 A 
BRANCH  54  68
ATOM     68  C   UNL A   1      43.175  27.409  34.520  1.00  0.00     0.023 A 
ATOM     69  C   UNL A   1      44.332  26.927  35.160  1.00  0.00     0.031 A 
ATOM     70  C   UNL A   1      41.963  26.739  34.768  1.00  0.00     0.131 A 
ATOM     71  C   UNL A   1      44.271  25.751  35.926  1.00  0.00     0.055 A 
ATOM     72  C   UNL A   1      41.893  25.628  35.613  1.00  0.00     0.041 A 
ATOM     73  F   UNL A   1      40.828  27.133  34.171  1.00  0.00    -0.206 F 
ATOM     74  C   UNL A   1      43.055  25.114  36.179  1.00  0.00     0.022 A 
BRANCH  71  75
ATOM     75  S   UNL A   1      45.829  24.956  36.412  1.00  0.00     0.124 S 
ATOM     76  O   UNL A   1      46.196  24.249  35.186  1.00  0.00    -0.237 OA
ATOM     77  O   UNL A   1      46.666  26.095  36.769  1.00  0.00    -0.237 OA
ATOM     78  O   UNL A   1      45.439  24.093  37.526  1.00  0.00    -0.744 OA
ENDBRANCH  71  75
ENDBRANCH  54  68
BRANCH  55  79
ATOM     79  C   UNL A   1      43.833  35.385  28.511  1.00  0.00     0.023 A 
ATOM     80  C   UNL A   1      45.102  35.944  28.301  1.00  0.00     0.031 A 
ATOM     81  C   UNL A   1      42.730  35.994  27.884  1.00  0.00     0.131 A 
ATOM     82  C   UNL A   1      45.234  37.091  27.500  1.00  0.00     0.055 A 
ATOM     83  C   UNL A   1      42.871  37.111  27.058  1.00  0.00     0.041 A 
ATOM     84  F   UNL A   1      41.494  35.494  28.044  1.00  0.00    -0.206 F 
ATOM     85  C   UNL A   1      44.129  37.668  26.866  1.00  0.00     0.022 A 
BRANCH  82  86
ATOM     86  S   UNL A   1      46.870  37.855  27.331  1.00  0.00     0.124 S 
ATOM     87  O   UNL A   1      46.719  38.611  26.093  1.00  0.00    -0.237 OA
ATOM     88  O   UNL A   1      46.968  38.639  28.557  1.00  0.00    -0.237 OA
ATOM     89  O   UNL A   1      47.773  36.708  27.257  1.00  0.00    -0.744 OA
ENDBRANCH  82  86
ENDBRANCH  55  79
BRANCH  67  90
ATOM     90  C   UNL A   1      44.272  28.492  27.418  1.00  0.00     0.023 A 
ATOM     91  C   UNL A   1      45.543  28.022  27.040  1.00  0.00     0.031 A 
ATOM     92  C   UNL A   1      43.181  28.180  26.586  1.00  0.00     0.131 A 
ATOM     93  C   UNL A   1      45.699  27.319  25.836  1.00  0.00     0.055 A 
ATOM     94  C   UNL A   1      43.332  27.418  25.426  1.00  0.00     0.041 A 
ATOM     95  F   UNL A   1      41.946  28.609  26.888  1.00  0.00    -0.206 F 
ATOM     96  C   UNL A   1      44.599  26.995  25.038  1.00  0.00     0.022 A 
BRANCH  93  97
ATOM     97  S   UNL A   1      47.376  26.928  25.265  1.00  0.00     0.124 S 
ATOM     98  O   UNL A   1      47.117  25.920  24.241  1.00  0.00    -0.237 OA
ATOM     99  O   UNL A   1      47.852  28.220  24.783  1.00  0.00    -0.237 OA
ATOM    100  O   UNL A   1      48.042  26.431  26.468  1.00  0.00    -0.744 OA
ENDBRANCH  93  97
ENDBRANCH  67  90
ENDBRANCH  41  42
ENDBRANCH  34  36
ENDBRANCH  33  34
ENDBRANCH  32  33
ENDBRANCH  31  32
ENDBRANCH  30  31
ENDBRANCH  29  30
ENDBRANCH   1  29
TORSDOF 23
ENDMDL
