MODEL 1
REMARK VINA RESULT:     -11.9      0.000      0.000
REMARK SMILES Cc1ccc(C)c(S(=O)(=O)N[C@H](CC2=c3ccccc3=NC2)C(=O)OCCOCCOC(=O)c2ccc(-c3c4nc(c(-c5cc(S(=O)(=O)[O-])ccc5F)c5ccc([nH]5)c(-c5cc(S(=O)(=O)[O-])ccc5F)c5nc(c(-c6cc(S(=O)(=O)[O-])ccc6F)c6ccc3[nH]6)C=C5)C=C4)cc2)c1
REMARK SMILES IDX 28 1 27 2 26 3 25 4 23 5 24 6 12 7 11 8 8 10 9 11 10 12 7 13
REMARK SMILES IDX 1 14 2 15 3 16 97 17 4 18 5 19 6 20 13 21 14 22 15 23 22 24
REMARK SMILES IDX 16 25 20 26 21 27 17 28 19 29 18 30 29 31 30 32 31 33 32 34
REMARK SMILES IDX 33 35 34 36 35 37 96 38 36 39 95 40 37 41 38 42 39 43 89 44
REMARK SMILES IDX 40 45 94 46 88 47 90 48 41 49 93 50 87 51 86 52 42 54 74 55
REMARK SMILES IDX 54 56 73 57 55 58 58 59 72 60 91 61 56 62 57 63 71 65 92 66
REMARK SMILES IDX 59 67 43 68 44 69 52 70 45 71 51 72 53 73 50 74 46 75 47 76
REMARK SMILES IDX 48 77 49 78 75 79 76 80 84 81 77 82 83 83 85 84 82 85 78 86
REMARK SMILES IDX 79 87 80 88 81 89 60 90 61 91 69 92 62 93 68 94 70 95 67 96
REMARK SMILES IDX 63 97 64 98 65 99 66 100
REMARK H PARENT 11 9 90 53 58 64
REMARK Flexibility Score: inf
ROOT
ATOM      1  O   UNL A   1      33.208  31.385  27.663  1.00  0.00    -0.374 OA
ENDROOT
BRANCH   1   2
ATOM      2  C   UNL A   1      33.144  30.457  26.602  1.00  0.00     0.202 C 
BRANCH   2   3
ATOM      3  C   UNL A   1      31.752  29.795  26.627  1.00  0.00     0.261 C 
BRANCH   3   4
ATOM      4  O   UNL A   1      31.720  28.617  25.784  1.00  0.00    -0.462 OA
BRANCH   4   5
ATOM      5  C   UNL A   1      31.516  27.441  26.434  1.00  0.00     0.324 C 
ATOM      6  O   UNL A   1      31.044  27.343  27.556  1.00  0.00    -0.250 OA
BRANCH   5   7
ATOM      7  C   UNL A   1      31.935  26.230  25.609  1.00  0.00     0.183 C 
BRANCH   7   8
ATOM      8  N   UNL A   1      32.194  25.015  26.445  1.00  0.00    -0.197 NA
ATOM      9  H   UNL A   1      33.168  24.743  26.311  1.00  0.00     0.142 HD
BRANCH   8  10
ATOM     10  S   UNL A   1      31.221  23.674  26.095  1.00  0.00     0.241 S 
ATOM     11  O   UNL A   1      30.541  24.035  24.879  1.00  0.00    -0.207 OA
ATOM     12  O   UNL A   1      30.563  23.341  27.327  1.00  0.00    -0.207 OA
BRANCH  10  13
ATOM     13  C   UNL A   1      32.287  22.347  25.637  1.00  0.00     0.085 A 
ATOM     14  C   UNL A   1      32.232  19.545  23.108  1.00  0.00     0.044 C 
ATOM     15  C   UNL A   1      32.663  20.417  24.242  1.00  0.00    -0.050 A 
ATOM     16  C   UNL A   1      33.687  20.006  25.100  1.00  0.00     0.004 A 
ATOM     17  C   UNL A   1      32.013  21.630  24.474  1.00  0.00     0.025 A 
ATOM     18  C   UNL A   1      33.982  20.737  26.247  1.00  0.00     0.005 A 
ATOM     19  C   UNL A   1      33.253  21.890  26.554  1.00  0.00    -0.031 A 
ATOM     20  C   UNL A   1      33.484  22.516  27.898  1.00  0.00     0.046 C 
ENDBRANCH  10  13
ENDBRANCH   8  10
ENDBRANCH   7   8
BRANCH   7  21
ATOM     21  C   UNL A   1      33.126  26.376  24.628  1.00  0.00     0.065 C 
BRANCH  21  22
ATOM     22  C   UNL A   1      33.743  25.197  23.944  1.00  0.00    -0.037 C 
ATOM     23  C   UNL A   1      34.793  24.472  24.324  1.00  0.00     0.001 A 
ATOM     24  C   UNL A   1      33.289  24.772  22.573  1.00  0.00     0.174 C 
ATOM     25  C   UNL A   1      35.676  24.463  25.447  1.00  0.00     0.010 A 
ATOM     26  C   UNL A   1      34.912  23.477  23.243  1.00  0.00     0.065 A 
ATOM     27  N   UNL A   1      34.118  23.592  22.224  1.00  0.00    -0.280 NA
ATOM     28  C   UNL A   1      36.590  23.481  25.539  1.00  0.00     0.001 A 
ATOM     29  C   UNL A   1      35.910  22.404  23.438  1.00  0.00     0.028 A 
ATOM     30  C   UNL A   1      36.685  22.432  24.536  1.00  0.00     0.002 A 
ENDBRANCH  21  22
ENDBRANCH   7  21
ENDBRANCH   5   7
ENDBRANCH   4   5
ENDBRANCH   3   4
ENDBRANCH   2   3
ENDBRANCH   1   2
BRANCH   1  31
ATOM     31  C   UNL A   1      32.845  32.733  27.466  1.00  0.00     0.202 C 
BRANCH  31  32
ATOM     32  C   UNL A   1      33.950  33.728  27.818  1.00  0.00     0.261 C 
BRANCH  32  33
ATOM     33  O   UNL A   1      35.281  33.186  27.675  1.00  0.00    -0.460 OA
BRANCH  33  34
ATOM     34  C   UNL A   1      35.982  33.086  28.842  1.00  0.00     0.338 C 
ATOM     35  O   UNL A   1      35.840  33.845  29.785  1.00  0.00    -0.246 OA
BRANCH  34  36
ATOM     36  C   UNL A   1      37.043  32.044  28.712  1.00  0.00     0.060 A 
ATOM     37  C   UNL A   1      36.715  30.798  28.153  1.00  0.00     0.016 A 
ATOM     38  C   UNL A   1      38.220  32.197  29.452  1.00  0.00     0.016 A 
ATOM     39  C   UNL A   1      37.515  29.682  28.435  1.00  0.00     0.010 A 
ATOM     40  C   UNL A   1      38.932  31.071  29.827  1.00  0.00     0.010 A 
ATOM     41  C   UNL A   1      38.599  29.806  29.317  1.00  0.00    -0.014 A 
BRANCH  41  42
ATOM     42  C   UNL A   1      39.750  28.891  29.302  1.00  0.00     0.031 A 
ATOM     43  C   UNL A   1      40.118  28.614  30.683  1.00  0.00     0.074 A 
ATOM     44  C   UNL A   1      40.555  28.378  28.357  1.00  0.00     0.049 A 
ATOM     45  N   UNL A   1      40.954  29.378  31.311  1.00  0.00    -0.248 NA
ATOM     46  C   UNL A   1      39.337  27.706  31.518  1.00  0.00     0.031 C 
ATOM     47  C   UNL A   1      40.750  28.903  27.027  1.00  0.00     0.029 A 
ATOM     48  N   UNL A   1      41.401  27.280  28.404  1.00  0.00    -0.354 N 
ATOM     49  C   UNL A   1      41.030  28.816  32.555  1.00  0.00     0.074 A 
ATOM     50  C   UNL A   1      39.812  28.054  32.717  1.00  0.00     0.031 C 
ATOM     51  C   UNL A   1      41.599  28.097  26.352  1.00  0.00     0.029 A 
ATOM     52  C   UNL A   1      41.919  26.927  27.162  1.00  0.00     0.049 A 
ATOM     53  H   UNL A   1      41.612  26.797  29.235  1.00  0.00     0.167 HD
ATOM     54  C   UNL A   1      42.252  28.671  33.127  1.00  0.00     0.034 A 
ATOM     55  C   UNL A   1      43.002  26.177  26.845  1.00  0.00     0.034 A 
ATOM     56  C   UNL A   1      43.273  29.462  32.471  1.00  0.00     0.049 A 
ATOM     57  C   UNL A   1      44.118  26.655  27.688  1.00  0.00     0.074 A 
ATOM     58  C   UNL A   1      43.638  30.793  32.445  1.00  0.00     0.029 A 
ATOM     59  N   UNL A   1      43.840  28.882  31.362  1.00  0.00    -0.354 N 
ATOM     60  N   UNL A   1      44.709  27.809  27.542  1.00  0.00    -0.248 NA
ATOM     61  C   UNL A   1      44.415  25.948  28.933  1.00  0.00     0.031 C 
ATOM     62  C   UNL A   1      44.441  30.995  31.283  1.00  0.00     0.029 A 
ATOM     63  C   UNL A   1      44.548  29.788  30.604  1.00  0.00     0.049 A 
ATOM     64  H   UNL A   1      43.749  27.929  31.133  1.00  0.00     0.167 HD
ATOM     65  C   UNL A   1      45.048  28.160  28.832  1.00  0.00     0.074 A 
ATOM     66  C   UNL A   1      45.016  26.929  29.605  1.00  0.00     0.031 C 
ATOM     67  C   UNL A   1      44.981  29.449  29.263  1.00  0.00     0.034 A 
BRANCH  54  68
ATOM     68  C   UNL A   1      42.555  27.484  33.990  1.00  0.00     0.023 A 
ATOM     69  C   UNL A   1      43.382  26.430  33.554  1.00  0.00     0.031 A 
ATOM     70  C   UNL A   1      42.144  27.432  35.325  1.00  0.00     0.131 A 
ATOM     71  C   UNL A   1      43.651  25.318  34.345  1.00  0.00     0.055 A 
ATOM     72  C   UNL A   1      42.503  26.368  36.164  1.00  0.00     0.041 A 
ATOM     73  F   UNL A   1      41.405  28.418  35.856  1.00  0.00    -0.206 F 
ATOM     74  C   UNL A   1      43.236  25.289  35.668  1.00  0.00     0.022 A 
BRANCH  71  75
ATOM     75  S   UNL A   1      44.494  23.886  33.619  1.00  0.00     0.124 S 
ATOM     76  O   UNL A   1      45.489  23.573  34.637  1.00  0.00    -0.237 OA
ATOM     77  O   UNL A   1      43.395  22.932  33.485  1.00  0.00    -0.237 OA
ATOM     78  O   UNL A   1      45.017  24.398  32.354  1.00  0.00    -0.744 OA
ENDBRANCH  71  75
ENDBRANCH  54  68
BRANCH  55  79
ATOM     79  C   UNL A   1      42.927  24.779  26.346  1.00  0.00     0.023 A 
ATOM     80  C   UNL A   1      42.083  23.796  26.900  1.00  0.00     0.031 A 
ATOM     81  C   UNL A   1      43.695  24.411  25.225  1.00  0.00     0.131 A 
ATOM     82  C   UNL A   1      41.998  22.518  26.309  1.00  0.00     0.055 A 
ATOM     83  C   UNL A   1      43.629  23.135  24.658  1.00  0.00     0.041 A 
ATOM     84  F   UNL A   1      44.502  25.306  24.635  1.00  0.00    -0.206 F 
ATOM     85  C   UNL A   1      42.770  22.184  25.195  1.00  0.00     0.022 A 
BRANCH  82  86
ATOM     86  S   UNL A   1      40.749  21.312  26.864  1.00  0.00     0.124 S 
ATOM     87  O   UNL A   1      40.644  21.600  28.295  1.00  0.00    -0.237 OA
ATOM     88  O   UNL A   1      39.590  21.686  26.065  1.00  0.00    -0.237 OA
ATOM     89  O   UNL A   1      41.359  20.024  26.554  1.00  0.00    -0.744 OA
ENDBRANCH  82  86
ENDBRANCH  55  79
BRANCH  67  90
ATOM     90  C   UNL A   1      45.208  30.539  28.260  1.00  0.00     0.023 A 
ATOM     91  C   UNL A   1      46.532  30.868  27.933  1.00  0.00     0.031 A 
ATOM     92  C   UNL A   1      44.187  31.320  27.703  1.00  0.00     0.131 A 
ATOM     93  C   UNL A   1      46.798  31.954  27.088  1.00  0.00     0.055 A 
ATOM     94  C   UNL A   1      44.449  32.352  26.796  1.00  0.00     0.041 A 
ATOM     95  F   UNL A   1      42.919  31.160  28.085  1.00  0.00    -0.206 F 
ATOM     96  C   UNL A   1      45.763  32.677  26.488  1.00  0.00     0.022 A 
BRANCH  93  97
ATOM     97  S   UNL A   1      48.489  32.576  26.902  1.00  0.00     0.124 S 
ATOM     98  O   UNL A   1      49.235  31.366  26.567  1.00  0.00    -0.237 OA
ATOM     99  O   UNL A   1      48.345  33.541  25.814  1.00  0.00    -0.237 OA
ATOM    100  O   UNL A   1      48.794  33.160  28.205  1.00  0.00    -0.744 OA
ENDBRANCH  93  97
ENDBRANCH  67  90
ENDBRANCH  41  42
ENDBRANCH  34  36
ENDBRANCH  33  34
ENDBRANCH  32  33
ENDBRANCH  31  32
ENDBRANCH   1  31
TORSDOF 22
ENDMDL
MODEL 2
REMARK VINA RESULT:     -11.4      2.071      3.136
REMARK SMILES Cc1ccc(C)c(S(=O)(=O)N[C@H](CC2=c3ccccc3=NC2)C(=O)OCCOCCOC(=O)c2ccc(-c3c4nc(c(-c5cc(S(=O)(=O)[O-])ccc5F)c5ccc([nH]5)c(-c5cc(S(=O)(=O)[O-])ccc5F)c5nc(c(-c6cc(S(=O)(=O)[O-])ccc6F)c6ccc3[nH]6)C=C5)C=C4)cc2)c1
REMARK SMILES IDX 28 1 27 2 26 3 25 4 23 5 24 6 12 7 11 8 8 10 9 11 10 12 7 13
REMARK SMILES IDX 1 14 2 15 3 16 97 17 4 18 5 19 6 20 13 21 14 22 15 23 22 24
REMARK SMILES IDX 16 25 20 26 21 27 17 28 19 29 18 30 29 31 30 32 31 33 32 34
REMARK SMILES IDX 33 35 34 36 35 37 96 38 36 39 95 40 37 41 38 42 39 43 89 44
REMARK SMILES IDX 40 45 94 46 88 47 90 48 41 49 93 50 87 51 86 52 42 54 74 55
REMARK SMILES IDX 54 56 73 57 55 58 58 59 72 60 91 61 56 62 57 63 71 65 92 66
REMARK SMILES IDX 59 67 43 68 44 69 52 70 45 71 51 72 53 73 50 74 46 75 47 76
REMARK SMILES IDX 48 77 49 78 75 79 76 80 84 81 77 82 83 83 85 84 82 85 78 86
REMARK SMILES IDX 79 87 80 88 81 89 60 90 61 91 69 92 62 93 68 94 70 95 67 96
REMARK SMILES IDX 63 97 64 98 65 99 66 100
REMARK H PARENT 11 9 90 53 58 64
REMARK Flexibility Score: inf
ROOT
ATOM      1  O   UNL A   1      33.606  30.617  26.883  1.00  0.00    -0.374 OA
ENDROOT
BRANCH   1   2
ATOM      2  C   UNL A   1      34.471  29.526  27.117  1.00  0.00     0.202 C 
BRANCH   2   3
ATOM      3  C   UNL A   1      33.738  28.235  26.701  1.00  0.00     0.261 C 
BRANCH   3   4
ATOM      4  O   UNL A   1      32.939  28.451  25.510  1.00  0.00    -0.462 OA
BRANCH   4   5
ATOM      5  C   UNL A   1      33.364  27.797  24.398  1.00  0.00     0.324 C 
ATOM      6  O   UNL A   1      34.082  28.286  23.540  1.00  0.00    -0.250 OA
BRANCH   5   7
ATOM      7  C   UNL A   1      32.855  26.362  24.325  1.00  0.00     0.183 C 
BRANCH   7   8
ATOM      8  N   UNL A   1      33.956  25.360  24.160  1.00  0.00    -0.197 NA
ATOM      9  H   UNL A   1      33.734  24.780  23.351  1.00  0.00     0.142 HD
BRANCH   8  10
ATOM     10  S   UNL A   1      34.208  24.337  25.486  1.00  0.00     0.241 S 
ATOM     11  O   UNL A   1      33.177  24.703  26.420  1.00  0.00    -0.207 OA
ATOM     12  O   UNL A   1      35.616  24.400  25.762  1.00  0.00    -0.207 OA
BRANCH  10  13
ATOM     13  C   UNL A   1      33.796  22.699  24.982  1.00  0.00     0.085 A 
ATOM     14  C   UNL A   1      31.861  21.115  22.154  1.00  0.00     0.044 C 
ATOM     15  C   UNL A   1      32.645  21.272  23.416  1.00  0.00    -0.050 A 
ATOM     16  C   UNL A   1      32.761  20.207  24.314  1.00  0.00     0.004 A 
ATOM     17  C   UNL A   1      33.231  22.501  23.724  1.00  0.00     0.025 A 
ATOM     18  C   UNL A   1      33.351  20.396  25.559  1.00  0.00     0.005 A 
ATOM     19  C   UNL A   1      33.833  21.655  25.927  1.00  0.00    -0.031 A 
ATOM     20  C   UNL A   1      34.273  21.840  27.350  1.00  0.00     0.046 C 
ENDBRANCH  10  13
ENDBRANCH   8  10
ENDBRANCH   7   8
BRANCH   7  21
ATOM     21  C   UNL A   1      31.758  26.015  23.287  1.00  0.00     0.065 C 
BRANCH  21  22
ATOM     22  C   UNL A   1      30.380  26.595  23.363  1.00  0.00    -0.037 C 
ATOM     23  C   UNL A   1      29.962  27.797  22.971  1.00  0.00     0.001 A 
ATOM     24  C   UNL A   1      29.274  25.871  24.081  1.00  0.00     0.174 C 
ATOM     25  C   UNL A   1      30.558  28.929  22.335  1.00  0.00     0.010 A 
ATOM     26  C   UNL A   1      28.529  27.774  23.316  1.00  0.00     0.065 A 
ATOM     27  N   UNL A   1      28.077  26.738  23.953  1.00  0.00    -0.280 NA
ATOM     28  C   UNL A   1      29.771  29.963  21.992  1.00  0.00     0.001 A 
ATOM     29  C   UNL A   1      27.722  28.927  22.866  1.00  0.00     0.028 A 
ATOM     30  C   UNL A   1      28.337  29.943  22.239  1.00  0.00     0.002 A 
ENDBRANCH  21  22
ENDBRANCH   7  21
ENDBRANCH   5   7
ENDBRANCH   4   5
ENDBRANCH   3   4
ENDBRANCH   2   3
ENDBRANCH   1   2
BRANCH   1  31
ATOM     31  C   UNL A   1      33.641  31.757  27.711  1.00  0.00     0.202 C 
BRANCH  31  32
ATOM     32  C   UNL A   1      35.045  32.319  27.929  1.00  0.00     0.261 C 
BRANCH  32  33
ATOM     33  O   UNL A   1      35.179  33.077  29.152  1.00  0.00    -0.460 OA
BRANCH  33  34
ATOM     34  C   UNL A   1      35.182  32.324  30.290  1.00  0.00     0.338 C 
ATOM     35  O   UNL A   1      34.367  32.449  31.188  1.00  0.00    -0.246 OA
BRANCH  34  36
ATOM     36  C   UNL A   1      36.410  31.476  30.338  1.00  0.00     0.060 A 
ATOM     37  C   UNL A   1      37.654  32.056  30.039  1.00  0.00     0.016 A 
ATOM     38  C   UNL A   1      36.261  30.086  30.332  1.00  0.00     0.016 A 
ATOM     39  C   UNL A   1      38.715  31.239  29.624  1.00  0.00     0.010 A 
ATOM     40  C   UNL A   1      37.270  29.301  29.802  1.00  0.00     0.010 A 
ATOM     41  C   UNL A   1      38.510  29.861  29.454  1.00  0.00    -0.014 A 
BRANCH  41  42
ATOM     42  C   UNL A   1      39.600  28.878  29.512  1.00  0.00     0.031 A 
ATOM     43  C   UNL A   1      39.953  28.683  30.910  1.00  0.00     0.074 A 
ATOM     44  C   UNL A   1      40.371  28.245  28.610  1.00  0.00     0.049 A 
ATOM     45  N   UNL A   1      40.835  29.438  31.482  1.00  0.00    -0.248 NA
ATOM     46  C   UNL A   1      39.118  27.891  31.809  1.00  0.00     0.031 C 
ATOM     47  C   UNL A   1      40.596  28.655  27.245  1.00  0.00     0.029 A 
ATOM     48  N   UNL A   1      41.146  27.103  28.742  1.00  0.00    -0.354 N 
ATOM     49  C   UNL A   1      40.879  28.967  32.765  1.00  0.00     0.074 A 
ATOM     50  C   UNL A   1      39.615  28.297  32.980  1.00  0.00     0.031 C 
ATOM     51  C   UNL A   1      41.391  27.749  26.635  1.00  0.00     0.029 A 
ATOM     52  C   UNL A   1      41.639  26.626  27.532  1.00  0.00     0.049 A 
ATOM     53  H   UNL A   1      41.328  26.672  29.609  1.00  0.00     0.167 HD
ATOM     54  C   UNL A   1      42.090  28.790  33.350  1.00  0.00     0.034 A 
ATOM     55  C   UNL A   1      42.672  25.787  27.276  1.00  0.00     0.034 A 
ATOM     56  C   UNL A   1      43.157  29.463  32.640  1.00  0.00     0.049 A 
ATOM     57  C   UNL A   1      43.817  26.257  28.084  1.00  0.00     0.074 A 
ATOM     58  C   UNL A   1      43.605  30.764  32.515  1.00  0.00     0.029 A 
ATOM     59  N   UNL A   1      43.685  28.768  31.579  1.00  0.00    -0.354 N 
ATOM     60  N   UNL A   1      44.479  27.358  27.853  1.00  0.00    -0.248 NA
ATOM     61  C   UNL A   1      44.071  25.628  29.380  1.00  0.00     0.031 C 
ATOM     62  C   UNL A   1      44.417  30.827  31.344  1.00  0.00     0.029 A 
ATOM     63  C   UNL A   1      44.448  29.568  30.758  1.00  0.00     0.049 A 
ATOM     64  H   UNL A   1      43.535  27.807  31.423  1.00  0.00     0.167 HD
ATOM     65  C   UNL A   1      44.841  27.783  29.115  1.00  0.00     0.074 A 
ATOM     66  C   UNL A   1      44.734  26.618  29.978  1.00  0.00     0.031 C 
ATOM     67  C   UNL A   1      44.856  29.102  29.448  1.00  0.00     0.034 A 
BRANCH  54  68
ATOM     68  C   UNL A   1      42.319  27.654  34.301  1.00  0.00     0.023 A 
ATOM     69  C   UNL A   1      43.120  26.544  33.966  1.00  0.00     0.031 A 
ATOM     70  C   UNL A   1      41.863  27.708  35.621  1.00  0.00     0.131 A 
ATOM     71  C   UNL A   1      43.320  25.480  34.839  1.00  0.00     0.055 A 
ATOM     72  C   UNL A   1      42.154  26.692  36.541  1.00  0.00     0.041 A 
ATOM     73  F   UNL A   1      41.144  28.754  36.058  1.00  0.00    -0.206 F 
ATOM     74  C   UNL A   1      42.861  25.557  36.145  1.00  0.00     0.022 A 
BRANCH  71  75
ATOM     75  S   UNL A   1      44.132  23.973  34.241  1.00  0.00     0.124 S 
ATOM     76  O   UNL A   1      42.994  23.098  33.986  1.00  0.00    -0.237 OA
ATOM     77  O   UNL A   1      44.837  24.465  33.060  1.00  0.00    -0.237 OA
ATOM     78  O   UNL A   1      44.998  23.583  35.352  1.00  0.00    -0.744 OA
ENDBRANCH  71  75
ENDBRANCH  54  68
BRANCH  55  79
ATOM     79  C   UNL A   1      42.509  24.363  26.884  1.00  0.00     0.023 A 
ATOM     80  C   UNL A   1      43.360  23.700  25.978  1.00  0.00     0.031 A 
ATOM     81  C   UNL A   1      41.484  23.604  27.479  1.00  0.00     0.131 A 
ATOM     82  C   UNL A   1      43.197  22.321  25.730  1.00  0.00     0.055 A 
ATOM     83  C   UNL A   1      41.308  22.243  27.210  1.00  0.00     0.041 A 
ATOM     84  F   UNL A   1      40.652  24.168  28.368  1.00  0.00    -0.206 F 
ATOM     85  C   UNL A   1      42.174  21.593  26.339  1.00  0.00     0.022 A 
BRANCH  82  86
ATOM     86  S   UNL A   1      44.423  21.397  24.747  1.00  0.00     0.124 S 
ATOM     87  O   UNL A   1      45.641  21.539  25.545  1.00  0.00    -0.237 OA
ATOM     88  O   UNL A   1      43.845  20.059  24.722  1.00  0.00    -0.237 OA
ATOM     89  O   UNL A   1      44.449  22.113  23.477  1.00  0.00    -0.744 OA
ENDBRANCH  82  86
ENDBRANCH  55  79
BRANCH  67  90
ATOM     90  C   UNL A   1      45.150  30.097  28.366  1.00  0.00     0.023 A 
ATOM     91  C   UNL A   1      46.493  30.407  28.102  1.00  0.00     0.031 A 
ATOM     92  C   UNL A   1      44.168  30.814  27.670  1.00  0.00     0.131 A 
ATOM     93  C   UNL A   1      46.813  31.412  27.181  1.00  0.00     0.055 A 
ATOM     94  C   UNL A   1      44.489  31.760  26.692  1.00  0.00     0.041 A 
ATOM     95  F   UNL A   1      42.876  30.678  27.976  1.00  0.00    -0.206 F 
ATOM     96  C   UNL A   1      45.821  32.068  26.446  1.00  0.00     0.022 A 
BRANCH  93  97
ATOM     97  S   UNL A   1      48.512  32.030  27.055  1.00  0.00     0.124 S 
ATOM     98  O   UNL A   1      48.396  33.064  26.030  1.00  0.00    -0.237 OA
ATOM     99  O   UNL A   1      48.763  32.520  28.409  1.00  0.00    -0.237 OA
ATOM    100  O   UNL A   1      49.286  30.853  26.674  1.00  0.00    -0.744 OA
ENDBRANCH  93  97
ENDBRANCH  67  90
ENDBRANCH  41  42
ENDBRANCH  34  36
ENDBRANCH  33  34
ENDBRANCH  32  33
ENDBRANCH  31  32
ENDBRANCH   1  31
TORSDOF 22
ENDMDL
MODEL 3
REMARK VINA RESULT:     -10.9      1.148      2.106
REMARK SMILES Cc1ccc(C)c(S(=O)(=O)N[C@H](CC2=c3ccccc3=NC2)C(=O)OCCOCCOC(=O)c2ccc(-c3c4nc(c(-c5cc(S(=O)(=O)[O-])ccc5F)c5ccc([nH]5)c(-c5cc(S(=O)(=O)[O-])ccc5F)c5nc(c(-c6cc(S(=O)(=O)[O-])ccc6F)c6ccc3[nH]6)C=C5)C=C4)cc2)c1
REMARK SMILES IDX 28 1 27 2 26 3 25 4 23 5 24 6 12 7 11 8 8 10 9 11 10 12 7 13
REMARK SMILES IDX 1 14 2 15 3 16 97 17 4 18 5 19 6 20 13 21 14 22 15 23 22 24
REMARK SMILES IDX 16 25 20 26 21 27 17 28 19 29 18 30 29 31 30 32 31 33 32 34
REMARK SMILES IDX 33 35 34 36 35 37 96 38 36 39 95 40 37 41 38 42 39 43 89 44
REMARK SMILES IDX 40 45 94 46 88 47 90 48 41 49 93 50 87 51 86 52 42 54 74 55
REMARK SMILES IDX 54 56 73 57 55 58 58 59 72 60 91 61 56 62 57 63 71 65 92 66
REMARK SMILES IDX 59 67 43 68 44 69 52 70 45 71 51 72 53 73 50 74 46 75 47 76
REMARK SMILES IDX 48 77 49 78 75 79 76 80 84 81 77 82 83 83 85 84 82 85 78 86
REMARK SMILES IDX 79 87 80 88 81 89 60 90 61 91 69 92 62 93 68 94 70 95 67 96
REMARK SMILES IDX 63 97 64 98 65 99 66 100
REMARK H PARENT 11 9 90 53 58 64
REMARK Flexibility Score: inf
ROOT
ATOM      1  O   UNL A   1      32.644  31.900  27.437  1.00  0.00    -0.374 OA
ENDROOT
BRANCH   1   2
ATOM      2  C   UNL A   1      31.568  31.350  26.707  1.00  0.00     0.202 C 
BRANCH   2   3
ATOM      3  C   UNL A   1      32.123  30.227  25.809  1.00  0.00     0.261 C 
BRANCH   3   4
ATOM      4  O   UNL A   1      31.494  28.957  26.113  1.00  0.00    -0.462 OA
BRANCH   4   5
ATOM      5  C   UNL A   1      32.340  27.963  26.492  1.00  0.00     0.324 C 
ATOM      6  O   UNL A   1      33.258  28.102  27.285  1.00  0.00    -0.250 OA
BRANCH   5   7
ATOM      7  C   UNL A   1      32.021  26.631  25.825  1.00  0.00     0.183 C 
BRANCH   7   8
ATOM      8  N   UNL A   1      30.559  26.450  25.554  1.00  0.00    -0.197 NA
ATOM      9  H   UNL A   1      30.280  25.543  25.927  1.00  0.00     0.142 HD
BRANCH   8  10
ATOM     10  S   UNL A   1      30.115  26.505  23.921  1.00  0.00     0.241 S 
ATOM     11  O   UNL A   1      30.470  27.833  23.499  1.00  0.00    -0.207 OA
ATOM     12  O   UNL A   1      28.787  25.960  23.863  1.00  0.00    -0.207 OA
BRANCH  10  13
ATOM     13  C   UNL A   1      31.208  25.443  23.034  1.00  0.00     0.085 A 
ATOM     14  C   UNL A   1      31.981  21.749  22.975  1.00  0.00     0.044 C 
ATOM     15  C   UNL A   1      32.052  23.212  22.684  1.00  0.00    -0.050 A 
ATOM     16  C   UNL A   1      33.145  23.743  21.992  1.00  0.00     0.004 A 
ATOM     17  C   UNL A   1      31.045  24.064  23.140  1.00  0.00     0.025 A 
ATOM     18  C   UNL A   1      33.294  25.120  21.860  1.00  0.00     0.005 A 
ATOM     19  C   UNL A   1      32.353  25.988  22.420  1.00  0.00    -0.031 A 
ATOM     20  C   UNL A   1      32.674  27.454  22.416  1.00  0.00     0.046 C 
ENDBRANCH  10  13
ENDBRANCH   8  10
ENDBRANCH   7   8
BRANCH   7  21
ATOM     21  C   UNL A   1      32.530  25.327  26.491  1.00  0.00     0.065 C 
BRANCH  21  22
ATOM     22  C   UNL A   1      33.609  24.490  25.879  1.00  0.00    -0.037 C 
ATOM     23  C   UNL A   1      33.759  23.168  25.922  1.00  0.00     0.001 A 
ATOM     24  C   UNL A   1      34.808  25.127  25.228  1.00  0.00     0.174 C 
ATOM     25  C   UNL A   1      33.021  22.072  26.467  1.00  0.00     0.010 A 
ATOM     26  C   UNL A   1      34.999  22.954  25.155  1.00  0.00     0.065 A 
ATOM     27  N   UNL A   1      35.649  24.002  24.751  1.00  0.00    -0.280 NA
ATOM     28  C   UNL A   1      33.444  20.822  26.214  1.00  0.00     0.001 A 
ATOM     29  C   UNL A   1      35.374  21.551  24.880  1.00  0.00     0.028 A 
ATOM     30  C   UNL A   1      34.616  20.567  25.391  1.00  0.00     0.002 A 
ENDBRANCH  21  22
ENDBRANCH   7  21
ENDBRANCH   5   7
ENDBRANCH   4   5
ENDBRANCH   3   4
ENDBRANCH   2   3
ENDBRANCH   1   2
BRANCH   1  31
ATOM     31  C   UNL A   1      32.841  33.295  27.492  1.00  0.00     0.202 C 
BRANCH  31  32
ATOM     32  C   UNL A   1      33.952  33.725  28.448  1.00  0.00     0.261 C 
BRANCH  32  33
ATOM     33  O   UNL A   1      35.002  32.743  28.591  1.00  0.00    -0.460 OA
BRANCH  33  34
ATOM     34  C   UNL A   1      35.133  32.230  29.849  1.00  0.00     0.338 C 
ATOM     35  O   UNL A   1      34.414  32.536  30.785  1.00  0.00    -0.246 OA
BRANCH  34  36
ATOM     36  C   UNL A   1      36.371  31.400  29.935  1.00  0.00     0.060 A 
ATOM     37  C   UNL A   1      37.621  32.039  29.996  1.00  0.00     0.016 A 
ATOM     38  C   UNL A   1      36.289  30.044  29.604  1.00  0.00     0.016 A 
ATOM     39  C   UNL A   1      38.774  31.339  29.614  1.00  0.00     0.010 A 
ATOM     40  C   UNL A   1      37.410  29.400  29.109  1.00  0.00     0.010 A 
ATOM     41  C   UNL A   1      38.664  30.030  29.119  1.00  0.00    -0.014 A 
BRANCH  41  42
ATOM     42  C   UNL A   1      39.772  29.065  29.160  1.00  0.00     0.031 A 
ATOM     43  C   UNL A   1      40.092  28.812  30.557  1.00  0.00     0.074 A 
ATOM     44  C   UNL A   1      40.576  28.488  28.252  1.00  0.00     0.049 A 
ATOM     45  N   UNL A   1      40.946  29.556  31.185  1.00  0.00    -0.248 NA
ATOM     46  C   UNL A   1      39.250  27.965  31.397  1.00  0.00     0.031 C 
ATOM     47  C   UNL A   1      40.829  28.964  26.913  1.00  0.00     0.029 A 
ATOM     48  N   UNL A   1      41.369  27.355  28.352  1.00  0.00    -0.354 N 
ATOM     49  C   UNL A   1      40.965  29.028  32.446  1.00  0.00     0.074 A 
ATOM     50  C   UNL A   1      39.710  28.326  32.597  1.00  0.00     0.031 C 
ATOM     51  C   UNL A   1      41.656  28.102  26.283  1.00  0.00     0.029 A 
ATOM     52  C   UNL A   1      41.902  26.943  27.134  1.00  0.00     0.049 A 
ATOM     53  H   UNL A   1      41.538  26.888  29.202  1.00  0.00     0.167 HD
ATOM     54  C   UNL A   1      42.165  28.846  33.054  1.00  0.00     0.034 A 
ATOM     55  C   UNL A   1      42.957  26.136  26.868  1.00  0.00     0.034 A 
ATOM     56  C   UNL A   1      43.237  29.570  32.404  1.00  0.00     0.049 A 
ATOM     57  C   UNL A   1      44.072  26.588  27.726  1.00  0.00     0.074 A 
ATOM     58  C   UNL A   1      43.662  30.882  32.350  1.00  0.00     0.029 A 
ATOM     59  N   UNL A   1      43.804  28.933  31.326  1.00  0.00    -0.354 N 
ATOM     60  N   UNL A   1      44.718  27.710  27.562  1.00  0.00    -0.248 NA
ATOM     61  C   UNL A   1      44.305  25.905  28.998  1.00  0.00     0.031 C 
ATOM     62  C   UNL A   1      44.503  31.013  31.204  1.00  0.00     0.029 A 
ATOM     63  C   UNL A   1      44.572  29.783  30.563  1.00  0.00     0.049 A 
ATOM     64  H   UNL A   1      43.676  27.978  31.123  1.00  0.00     0.167 HD
ATOM     65  C   UNL A   1      45.041  28.083  28.851  1.00  0.00     0.074 A 
ATOM     66  C   UNL A   1      44.934  26.878  29.658  1.00  0.00     0.031 C 
ATOM     67  C   UNL A   1      45.022  29.386  29.244  1.00  0.00     0.034 A 
BRANCH  54  68
ATOM     68  C   UNL A   1      42.391  27.672  33.958  1.00  0.00     0.023 A 
ATOM     69  C   UNL A   1      43.232  26.599  33.600  1.00  0.00     0.031 A 
ATOM     70  C   UNL A   1      41.888  27.651  35.262  1.00  0.00     0.131 A 
ATOM     71  C   UNL A   1      43.431  25.500  34.429  1.00  0.00     0.055 A 
ATOM     72  C   UNL A   1      42.174  26.600  36.144  1.00  0.00     0.041 A 
ATOM     73  F   UNL A   1      41.127  28.656  35.722  1.00  0.00    -0.206 F 
ATOM     74  C   UNL A   1      42.925  25.503  35.720  1.00  0.00     0.022 A 
BRANCH  71  75
ATOM     75  S   UNL A   1      44.302  24.044  33.790  1.00  0.00     0.124 S 
ATOM     76  O   UNL A   1      44.196  24.236  32.350  1.00  0.00    -0.237 OA
ATOM     77  O   UNL A   1      45.636  24.222  34.362  1.00  0.00    -0.237 OA
ATOM     78  O   UNL A   1      43.547  22.920  34.340  1.00  0.00    -0.744 OA
ENDBRANCH  71  75
ENDBRANCH  54  68
BRANCH  55  79
ATOM     79  C   UNL A   1      42.831  24.729  26.407  1.00  0.00     0.023 A 
ATOM     80  C   UNL A   1      41.857  23.832  26.890  1.00  0.00     0.031 A 
ATOM     81  C   UNL A   1      43.689  24.262  25.393  1.00  0.00     0.131 A 
ATOM     82  C   UNL A   1      41.741  22.542  26.333  1.00  0.00     0.055 A 
ATOM     83  C   UNL A   1      43.588  22.973  24.862  1.00  0.00     0.041 A 
ATOM     84  F   UNL A   1      44.623  25.071  24.871  1.00  0.00    -0.206 F 
ATOM     85  C   UNL A   1      42.604  22.109  25.325  1.00  0.00     0.022 A 
BRANCH  82  86
ATOM     86  S   UNL A   1      40.348  21.453  26.779  1.00  0.00     0.124 S 
ATOM     87  O   UNL A   1      40.718  20.997  28.119  1.00  0.00    -0.237 OA
ATOM     88  O   UNL A   1      39.216  22.369  26.721  1.00  0.00    -0.237 OA
ATOM     89  O   UNL A   1      40.390  20.412  25.757  1.00  0.00    -0.744 OA
ENDBRANCH  82  86
ENDBRANCH  55  79
BRANCH  67  90
ATOM     90  C   UNL A   1      45.324  30.434  28.216  1.00  0.00     0.023 A 
ATOM     91  C   UNL A   1      46.668  30.766  27.988  1.00  0.00     0.031 A 
ATOM     92  C   UNL A   1      44.347  31.178  27.542  1.00  0.00     0.131 A 
ATOM     93  C   UNL A   1      46.995  31.817  27.121  1.00  0.00     0.055 A 
ATOM     94  C   UNL A   1      44.675  32.173  26.616  1.00  0.00     0.041 A 
ATOM     95  F   UNL A   1      43.052  31.019  27.822  1.00  0.00    -0.206 F 
ATOM     96  C   UNL A   1      46.008  32.501  26.405  1.00  0.00     0.022 A 
BRANCH  93  97
ATOM     97  S   UNL A   1      48.690  32.451  27.051  1.00  0.00     0.124 S 
ATOM     98  O   UNL A   1      48.552  33.625  26.193  1.00  0.00    -0.237 OA
ATOM     99  O   UNL A   1      48.972  32.736  28.457  1.00  0.00    -0.237 OA
ATOM    100  O   UNL A   1      49.456  31.345  26.483  1.00  0.00    -0.744 OA
ENDBRANCH  93  97
ENDBRANCH  67  90
ENDBRANCH  41  42
ENDBRANCH  34  36
ENDBRANCH  33  34
ENDBRANCH  32  33
ENDBRANCH  31  32
ENDBRANCH   1  31
TORSDOF 22
ENDMDL
