MODEL 1
REMARK VINA RESULT:     -10.8      0.000      0.000
REMARK SMILES CCOc1ccc2c(=O)cc(-c3ccccc3C(=O)OCCOCCOC(=O)c3ccc(-c4c5nc(c(-c6cc(S(=O)(=O)[O-])ccc6F)c6ccc([nH]6)c(-c6cc(S(=O)(=O)[O-])ccc6F)c6nc(c(-c7cc(S(=O)(=O)[O-])ccc7F)c7ccc4[nH]7)C=C6)C=C5)cc3)oc2c1OCC
REMARK SMILES IDX 23 1 22 2 21 3 20 4 18 5 19 6 17 7 12 8 13 9 14 10 16 11
REMARK SMILES IDX 15 12 11 13 4 14 5 15 94 16 6 17 93 18 7 19 92 20 8 21 9 22
REMARK SMILES IDX 10 23 3 24 2 25 1 26 95 27 96 28 97 29 24 30 25 31 26 32
REMARK SMILES IDX 27 33 28 34 29 35 30 36 91 37 31 38 90 39 32 40 33 41 34 42
REMARK SMILES IDX 84 43 35 44 89 45 83 46 85 47 36 48 88 49 82 50 81 51 37 53
REMARK SMILES IDX 69 54 49 55 68 56 50 57 53 58 67 59 86 60 51 61 52 62 66 64
REMARK SMILES IDX 87 65 54 66 38 67 39 68 47 69 40 70 46 71 48 72 45 73 41 74
REMARK SMILES IDX 42 75 43 76 44 77 70 78 71 79 79 80 72 81 78 82 80 83 77 84
REMARK SMILES IDX 73 85 74 86 75 87 76 88 55 89 56 90 64 91 57 92 63 93 65 94
REMARK SMILES IDX 62 95 58 96 59 97 60 98 61 99
REMARK H PARENT 85 52 53 63
REMARK Flexibility Score: inf
ROOT
ATOM      1  O   UNL A   1      38.829  21.959  26.333  1.00  0.00    -0.374 OA
ENDROOT
BRANCH   1   2
ATOM      2  C   UNL A   1      38.485  23.254  25.838  1.00  0.00     0.202 C 
BRANCH   2   3
ATOM      3  C   UNL A   1      37.098  23.784  26.192  1.00  0.00     0.261 C 
BRANCH   3   4
ATOM      4  O   UNL A   1      36.126  22.731  26.115  1.00  0.00    -0.460 OA
BRANCH   4   5
ATOM      5  C   UNL A   1      35.438  22.647  24.958  1.00  0.00     0.338 C 
ATOM      6  O   UNL A   1      35.514  23.422  24.015  1.00  0.00    -0.246 OA
BRANCH   5   7
ATOM      7  C   UNL A   1      34.651  21.386  24.876  1.00  0.00     0.071 A 
ATOM      8  C   UNL A   1      33.246  21.273  24.902  1.00  0.00     0.032 A 
ATOM      9  C   UNL A   1      32.691  19.993  24.698  1.00  0.00     0.013 A 
ATOM     10  C   UNL A   1      33.486  18.853  24.567  1.00  0.00     0.001 A 
ATOM     11  C   UNL A   1      35.443  20.223  24.770  1.00  0.00     0.016 A 
ATOM     12  C   UNL A   1      34.866  18.964  24.638  1.00  0.00     0.001 A 
BRANCH   8  13
ATOM     13  C   UNL A   1      32.287  22.359  25.201  1.00  0.00     0.139 A 
ATOM     14  C   UNL A   1      30.341  26.425  23.469  1.00  0.00     0.165 A 
ATOM     15  C   UNL A   1      29.569  26.530  24.626  1.00  0.00     0.051 A 
ATOM     16  C   UNL A   1      31.245  25.346  23.305  1.00  0.00     0.205 A 
ATOM     17  C   UNL A   1      29.688  25.585  25.632  1.00  0.00     0.020 A 
ATOM     18  C   UNL A   1      31.314  24.359  24.309  1.00  0.00     0.184 A 
ATOM     19  C   UNL A   1      30.537  24.497  25.463  1.00  0.00     0.069 A 
ATOM     20  O   UNL A   1      32.115  23.251  24.148  1.00  0.00    -0.452 OA
ATOM     21  C   UNL A   1      30.611  23.478  26.519  1.00  0.00     0.193 A 
ATOM     22  O   UNL A   1      29.852  23.457  27.478  1.00  0.00    -0.289 OA
ATOM     23  C   UNL A   1      31.645  22.450  26.371  1.00  0.00     0.100 A 
BRANCH  14  24
ATOM     24  O   UNL A   1      30.140  27.289  22.418  1.00  0.00    -0.490 OA
BRANCH  24  25
ATOM     25  C   UNL A   1      29.591  28.568  22.763  1.00  0.00     0.226 C 
ATOM     26  C   UNL A   1      30.241  29.720  22.008  1.00  0.00     0.049 C 
ENDBRANCH  24  25
ENDBRANCH  14  24
BRANCH  16  27
ATOM     27  O   UNL A   1      31.972  25.404  22.141  1.00  0.00    -0.487 OA
BRANCH  27  28
ATOM     28  C   UNL A   1      33.357  25.732  22.143  1.00  0.00     0.226 C 
ATOM     29  C   UNL A   1      33.618  27.226  22.010  1.00  0.00     0.049 C 
ENDBRANCH  27  28
ENDBRANCH  16  27
ENDBRANCH   8  13
ENDBRANCH   5   7
ENDBRANCH   4   5
ENDBRANCH   3   4
ENDBRANCH   2   3
ENDBRANCH   1   2
BRANCH   1  30
ATOM     30  C   UNL A   1      38.912  20.890  25.391  1.00  0.00     0.202 C 
BRANCH  30  31
ATOM     31  C   UNL A   1      39.660  19.614  25.803  1.00  0.00     0.261 C 
BRANCH  31  32
ATOM     32  O   UNL A   1      40.746  19.845  26.715  1.00  0.00    -0.460 OA
BRANCH  32  33
ATOM     33  C   UNL A   1      41.930  20.143  26.123  1.00  0.00     0.338 C 
ATOM     34  O   UNL A   1      42.559  19.446  25.340  1.00  0.00    -0.246 OA
BRANCH  33  35
ATOM     35  C   UNL A   1      42.295  21.536  26.426  1.00  0.00     0.060 A 
ATOM     36  C   UNL A   1      42.419  21.926  27.767  1.00  0.00     0.016 A 
ATOM     37  C   UNL A   1      42.437  22.470  25.403  1.00  0.00     0.016 A 
ATOM     38  C   UNL A   1      42.703  23.254  28.091  1.00  0.00     0.010 A 
ATOM     39  C   UNL A   1      42.696  23.802  25.736  1.00  0.00     0.010 A 
ATOM     40  C   UNL A   1      42.837  24.209  27.078  1.00  0.00    -0.014 A 
BRANCH  40  41
ATOM     41  C   UNL A   1      43.029  25.652  27.393  1.00  0.00     0.031 A 
ATOM     42  C   UNL A   1      44.417  26.229  27.350  1.00  0.00     0.074 A 
ATOM     43  C   UNL A   1      41.993  26.435  27.753  1.00  0.00     0.049 A 
ATOM     44  N   UNL A   1      44.844  27.404  27.737  1.00  0.00    -0.248 NA
ATOM     45  C   UNL A   1      45.465  25.356  26.799  1.00  0.00     0.031 C 
ATOM     46  C   UNL A   1      40.589  26.032  27.769  1.00  0.00     0.029 A 
ATOM     47  N   UNL A   1      41.969  27.730  28.216  1.00  0.00    -0.354 N 
ATOM     48  C   UNL A   1      46.210  27.414  27.471  1.00  0.00     0.074 A 
ATOM     49  C   UNL A   1      46.546  26.102  26.960  1.00  0.00     0.031 C 
ATOM     50  C   UNL A   1      39.848  27.032  28.275  1.00  0.00     0.029 A 
ATOM     51  C   UNL A   1      40.724  28.143  28.634  1.00  0.00     0.049 A 
ATOM     52  H   UNL A   1      42.766  28.306  28.246  1.00  0.00     0.167 HD
ATOM     53  C   UNL A   1      47.094  28.433  27.613  1.00  0.00     0.034 A 
ATOM     54  C   UNL A   1      40.338  29.270  29.266  1.00  0.00     0.034 A 
ATOM     55  C   UNL A   1      46.744  29.734  28.125  1.00  0.00     0.049 A 
ATOM     56  C   UNL A   1      41.364  30.338  29.556  1.00  0.00     0.074 A 
ATOM     57  C   UNL A   1      47.553  30.848  28.275  1.00  0.00     0.029 A 
ATOM     58  N   UNL A   1      45.485  30.096  28.588  1.00  0.00    -0.354 N 
ATOM     59  N   UNL A   1      42.647  30.346  29.279  1.00  0.00    -0.248 NA
ATOM     60  C   UNL A   1      40.887  31.554  30.229  1.00  0.00     0.031 C 
ATOM     61  C   UNL A   1      46.809  31.848  28.908  1.00  0.00     0.029 A 
ATOM     62  C   UNL A   1      45.511  31.394  29.076  1.00  0.00     0.049 A 
ATOM     63  H   UNL A   1      44.690  29.514  28.573  1.00  0.00     0.167 HD
ATOM     64  C   UNL A   1      43.120  31.584  29.707  1.00  0.00     0.074 A 
ATOM     65  C   UNL A   1      41.985  32.296  30.255  1.00  0.00     0.031 C 
ATOM     66  C   UNL A   1      44.378  32.091  29.639  1.00  0.00     0.034 A 
BRANCH  53  67
ATOM     67  C   UNL A   1      48.531  28.155  27.240  1.00  0.00     0.023 A 
ATOM     68  C   UNL A   1      49.004  28.343  25.929  1.00  0.00     0.031 A 
ATOM     69  C   UNL A   1      49.432  27.659  28.198  1.00  0.00     0.131 A 
ATOM     70  C   UNL A   1      50.308  27.954  25.592  1.00  0.00     0.055 A 
ATOM     71  C   UNL A   1      50.757  27.359  27.877  1.00  0.00     0.041 A 
ATOM     72  F   UNL A   1      49.035  27.438  29.461  1.00  0.00    -0.206 F 
ATOM     73  C   UNL A   1      51.198  27.488  26.563  1.00  0.00     0.022 A 
BRANCH  70  74
ATOM     74  S   UNL A   1      50.769  27.905  23.839  1.00  0.00     0.124 S 
ATOM     75  O   UNL A   1      51.473  29.175  23.684  1.00  0.00    -0.237 OA
ATOM     76  O   UNL A   1      51.592  26.703  23.763  1.00  0.00    -0.237 OA
ATOM     77  O   UNL A   1      49.483  27.826  23.148  1.00  0.00    -0.744 OA
ENDBRANCH  70  74
ENDBRANCH  53  67
BRANCH  54  78
ATOM     78  C   UNL A   1      38.921  29.445  29.701  1.00  0.00     0.023 A 
ATOM     79  C   UNL A   1      38.012  30.177  28.922  1.00  0.00     0.031 A 
ATOM     80  C   UNL A   1      38.473  28.931  30.931  1.00  0.00     0.131 A 
ATOM     81  C   UNL A   1      36.712  30.413  29.400  1.00  0.00     0.055 A 
ATOM     82  C   UNL A   1      37.164  29.123  31.377  1.00  0.00     0.041 A 
ATOM     83  F   UNL A   1      39.306  28.232  31.719  1.00  0.00    -0.206 F 
ATOM     84  C   UNL A   1      36.278  29.879  30.616  1.00  0.00     0.022 A 
BRANCH  81  85
ATOM     85  S   UNL A   1      35.626  31.509  28.448  1.00  0.00     0.124 S 
ATOM     86  O   UNL A   1      34.655  31.915  29.459  1.00  0.00    -0.237 OA
ATOM     87  O   UNL A   1      36.553  32.540  27.997  1.00  0.00    -0.237 OA
ATOM     88  O   UNL A   1      35.102  30.639  27.396  1.00  0.00    -0.744 OA
ENDBRANCH  81  85
ENDBRANCH  54  78
BRANCH  66  89
ATOM     89  C   UNL A   1      44.586  33.498  30.146  1.00  0.00     0.023 A 
ATOM     90  C   UNL A   1      44.367  34.618  29.327  1.00  0.00     0.031 A 
ATOM     91  C   UNL A   1      45.001  33.721  31.472  1.00  0.00     0.131 A 
ATOM     92  C   UNL A   1      44.608  35.908  29.824  1.00  0.00     0.055 A 
ATOM     93  C   UNL A   1      45.177  35.008  31.982  1.00  0.00     0.041 A 
ATOM     94  F   UNL A   1      45.229  32.688  32.299  1.00  0.00    -0.206 F 
ATOM     95  C   UNL A   1      44.990  36.111  31.153  1.00  0.00     0.022 A 
BRANCH  92  96
ATOM     96  S   UNL A   1      44.492  37.315  28.687  1.00  0.00     0.124 S 
ATOM     97  O   UNL A   1      43.326  38.025  29.202  1.00  0.00    -0.237 OA
ATOM     98  O   UNL A   1      45.777  37.980  28.877  1.00  0.00    -0.237 OA
ATOM     99  O   UNL A   1      44.308  36.686  27.380  1.00  0.00    -0.744 OA
ENDBRANCH  92  96
ENDBRANCH  66  89
ENDBRANCH  40  41
ENDBRANCH  33  35
ENDBRANCH  32  33
ENDBRANCH  31  32
ENDBRANCH  30  31
ENDBRANCH   1  30
TORSDOF 22
ENDMDL
MODEL 2
REMARK VINA RESULT:     -10.5      2.308      7.738
REMARK SMILES CCOc1ccc2c(=O)cc(-c3ccccc3C(=O)OCCOCCOC(=O)c3ccc(-c4c5nc(c(-c6cc(S(=O)(=O)[O-])ccc6F)c6ccc([nH]6)c(-c6cc(S(=O)(=O)[O-])ccc6F)c6nc(c(-c7cc(S(=O)(=O)[O-])ccc7F)c7ccc4[nH]7)C=C6)C=C5)cc3)oc2c1OCC
REMARK SMILES IDX 23 1 22 2 21 3 20 4 18 5 19 6 17 7 12 8 13 9 14 10 16 11
REMARK SMILES IDX 15 12 11 13 4 14 5 15 94 16 6 17 93 18 7 19 92 20 8 21 9 22
REMARK SMILES IDX 10 23 3 24 2 25 1 26 95 27 96 28 97 29 24 30 25 31 26 32
REMARK SMILES IDX 27 33 28 34 29 35 30 36 91 37 31 38 90 39 32 40 33 41 34 42
REMARK SMILES IDX 84 43 35 44 89 45 83 46 85 47 36 48 88 49 82 50 81 51 37 53
REMARK SMILES IDX 69 54 49 55 68 56 50 57 53 58 67 59 86 60 51 61 52 62 66 64
REMARK SMILES IDX 87 65 54 66 38 67 39 68 47 69 40 70 46 71 48 72 45 73 41 74
REMARK SMILES IDX 42 75 43 76 44 77 70 78 71 79 79 80 72 81 78 82 80 83 77 84
REMARK SMILES IDX 73 85 74 86 75 87 76 88 55 89 56 90 64 91 57 92 63 93 65 94
REMARK SMILES IDX 62 95 58 96 59 97 60 98 61 99
REMARK H PARENT 85 52 53 63
REMARK Flexibility Score: inf
ROOT
ATOM      1  O   UNL A   1      38.742  21.655  26.519  1.00  0.00    -0.374 OA
ENDROOT
BRANCH   1   2
ATOM      2  C   UNL A   1      38.889  23.035  26.182  1.00  0.00     0.202 C 
BRANCH   2   3
ATOM      3  C   UNL A   1      37.645  23.760  25.674  1.00  0.00     0.261 C 
BRANCH   3   4
ATOM      4  O   UNL A   1      36.557  22.838  25.521  1.00  0.00    -0.460 OA
BRANCH   4   5
ATOM      5  C   UNL A   1      36.089  22.680  24.266  1.00  0.00     0.338 C 
ATOM      6  O   UNL A   1      36.684  22.954  23.234  1.00  0.00    -0.246 OA
BRANCH   5   7
ATOM      7  C   UNL A   1      34.776  21.977  24.252  1.00  0.00     0.071 A 
ATOM      8  C   UNL A   1      33.587  22.434  23.649  1.00  0.00     0.032 A 
ATOM      9  C   UNL A   1      32.478  21.564  23.651  1.00  0.00     0.013 A 
ATOM     10  C   UNL A   1      32.506  20.330  24.304  1.00  0.00     0.001 A 
ATOM     11  C   UNL A   1      34.784  20.740  24.932  1.00  0.00     0.016 A 
ATOM     12  C   UNL A   1      33.652  19.931  24.975  1.00  0.00     0.001 A 
BRANCH   8  13
ATOM     13  C   UNL A   1      33.360  23.779  23.075  1.00  0.00     0.139 A 
ATOM     14  C   UNL A   1      32.989  28.469  24.163  1.00  0.00     0.165 A 
ATOM     15  C   UNL A   1      32.797  28.752  22.811  1.00  0.00     0.051 A 
ATOM     16  C   UNL A   1      33.174  27.133  24.598  1.00  0.00     0.205 A 
ATOM     17  C   UNL A   1      32.774  27.726  21.880  1.00  0.00     0.020 A 
ATOM     18  C   UNL A   1      33.209  26.104  23.636  1.00  0.00     0.184 A 
ATOM     19  C   UNL A   1      33.001  26.416  22.288  1.00  0.00     0.069 A 
ATOM     20  O   UNL A   1      33.472  24.805  24.007  1.00  0.00    -0.452 OA
ATOM     21  C   UNL A   1      33.024  25.348  21.280  1.00  0.00     0.193 A 
ATOM     22  O   UNL A   1      33.003  25.568  20.077  1.00  0.00    -0.289 OA
ATOM     23  C   UNL A   1      33.091  23.972  21.779  1.00  0.00     0.100 A 
BRANCH  14  24
ATOM     24  O   UNL A   1      33.134  29.490  25.074  1.00  0.00    -0.490 OA
BRANCH  24  25
ATOM     25  C   UNL A   1      31.921  30.144  25.470  1.00  0.00     0.226 C 
ATOM     26  C   UNL A   1      31.918  30.564  26.933  1.00  0.00     0.049 C 
ENDBRANCH  24  25
ENDBRANCH  14  24
BRANCH  16  27
ATOM     27  O   UNL A   1      33.299  27.005  25.960  1.00  0.00    -0.487 OA
BRANCH  27  28
ATOM     28  C   UNL A   1      32.239  26.495  26.761  1.00  0.00     0.226 C 
ATOM     29  C   UNL A   1      30.867  26.689  26.131  1.00  0.00     0.049 C 
ENDBRANCH  27  28
ENDBRANCH  16  27
ENDBRANCH   8  13
ENDBRANCH   5   7
ENDBRANCH   4   5
ENDBRANCH   3   4
ENDBRANCH   2   3
ENDBRANCH   1   2
BRANCH   1  30
ATOM     30  C   UNL A   1      38.664  20.716  25.448  1.00  0.00     0.202 C 
BRANCH  30  31
ATOM     31  C   UNL A   1      39.651  19.539  25.438  1.00  0.00     0.261 C 
BRANCH  31  32
ATOM     32  O   UNL A   1      40.659  19.618  26.458  1.00  0.00    -0.460 OA
BRANCH  32  33
ATOM     33  C   UNL A   1      41.908  19.890  26.001  1.00  0.00     0.338 C 
ATOM     34  O   UNL A   1      42.592  19.193  25.266  1.00  0.00    -0.246 OA
BRANCH  33  35
ATOM     35  C   UNL A   1      42.285  21.261  26.384  1.00  0.00     0.060 A 
ATOM     36  C   UNL A   1      42.500  22.210  25.375  1.00  0.00     0.016 A 
ATOM     37  C   UNL A   1      42.503  21.587  27.719  1.00  0.00     0.016 A 
ATOM     38  C   UNL A   1      42.920  23.501  25.701  1.00  0.00     0.010 A 
ATOM     39  C   UNL A   1      42.947  22.873  28.036  1.00  0.00     0.010 A 
ATOM     40  C   UNL A   1      43.156  23.845  27.036  1.00  0.00    -0.014 A 
BRANCH  40  41
ATOM     41  C   UNL A   1      43.710  25.177  27.407  1.00  0.00     0.031 A 
ATOM     42  C   UNL A   1      42.779  26.230  27.939  1.00  0.00     0.074 A 
ATOM     43  C   UNL A   1      45.015  25.465  27.237  1.00  0.00     0.049 A 
ATOM     44  N   UNL A   1      43.002  27.498  28.175  1.00  0.00    -0.248 NA
ATOM     45  C   UNL A   1      41.408  25.791  28.243  1.00  0.00     0.031 C 
ATOM     46  C   UNL A   1      46.044  24.523  26.800  1.00  0.00     0.029 A 
ATOM     47  N   UNL A   1      45.694  26.653  27.375  1.00  0.00    -0.354 N 
ATOM     48  C   UNL A   1      41.801  28.008  28.659  1.00  0.00     0.074 A 
ATOM     49  C   UNL A   1      40.839  26.927  28.612  1.00  0.00     0.031 C 
ATOM     50  C   UNL A   1      47.206  25.179  26.646  1.00  0.00     0.029 A 
ATOM     51  C   UNL A   1      47.005  26.591  26.958  1.00  0.00     0.049 A 
ATOM     52  H   UNL A   1      45.282  27.470  27.737  1.00  0.00     0.167 HD
ATOM     53  C   UNL A   1      41.535  29.253  29.127  1.00  0.00     0.034 A 
ATOM     54  C   UNL A   1      47.928  27.564  26.811  1.00  0.00     0.034 A 
ATOM     55  C   UNL A   1      42.504  30.319  29.166  1.00  0.00     0.049 A 
ATOM     56  C   UNL A   1      47.571  28.979  27.194  1.00  0.00     0.074 A 
ATOM     57  C   UNL A   1      42.351  31.607  29.653  1.00  0.00     0.029 A 
ATOM     58  N   UNL A   1      43.805  30.233  28.684  1.00  0.00    -0.354 N 
ATOM     59  N   UNL A   1      46.440  29.444  27.672  1.00  0.00    -0.248 NA
ATOM     60  C   UNL A   1      48.618  29.996  27.031  1.00  0.00     0.031 C 
ATOM     61  C   UNL A   1      43.524  32.319  29.386  1.00  0.00     0.029 A 
ATOM     62  C   UNL A   1      44.443  31.457  28.811  1.00  0.00     0.049 A 
ATOM     63  H   UNL A   1      44.213  29.420  28.307  1.00  0.00     0.167 HD
ATOM     64  C   UNL A   1      46.656  30.800  27.906  1.00  0.00     0.074 A 
ATOM     65  C   UNL A   1      48.025  31.075  27.520  1.00  0.00     0.031 C 
ATOM     66  C   UNL A   1      45.803  31.730  28.407  1.00  0.00     0.034 A 
BRANCH  53  67
ATOM     67  C   UNL A   1      40.126  29.527  29.595  1.00  0.00     0.023 A 
ATOM     68  C   UNL A   1      39.807  29.620  30.961  1.00  0.00     0.031 A 
ATOM     69  C   UNL A   1      39.079  29.658  28.666  1.00  0.00     0.131 A 
ATOM     70  C   UNL A   1      38.469  29.747  31.361  1.00  0.00     0.055 A 
ATOM     71  C   UNL A   1      37.760  29.877  29.069  1.00  0.00     0.041 A 
ATOM     72  F   UNL A   1      39.317  29.557  27.348  1.00  0.00    -0.206 F 
ATOM     73  C   UNL A   1      37.445  29.903  30.424  1.00  0.00     0.022 A 
BRANCH  70  74
ATOM     74  S   UNL A   1      38.068  29.534  33.117  1.00  0.00     0.124 S 
ATOM     75  O   UNL A   1      37.294  28.296  33.095  1.00  0.00    -0.237 OA
ATOM     76  O   UNL A   1      39.388  29.452  33.734  1.00  0.00    -0.237 OA
ATOM     77  O   UNL A   1      37.301  30.735  33.441  1.00  0.00    -0.744 OA
ENDBRANCH  70  74
ENDBRANCH  53  67
BRANCH  54  78
ATOM     78  C   UNL A   1      49.273  27.249  26.247  1.00  0.00     0.023 A 
ATOM     79  C   UNL A   1      49.592  27.570  24.919  1.00  0.00     0.031 A 
ATOM     80  C   UNL A   1      50.239  26.572  27.014  1.00  0.00     0.131 A 
ATOM     81  C   UNL A   1      50.828  27.174  24.382  1.00  0.00     0.055 A 
ATOM     82  C   UNL A   1      51.487  26.228  26.490  1.00  0.00     0.041 A 
ATOM     83  F   UNL A   1      49.980  26.234  28.288  1.00  0.00    -0.206 F 
ATOM     84  C   UNL A   1      51.783  26.517  25.162  1.00  0.00     0.022 A 
BRANCH  81  85
ATOM     85  S   UNL A   1      51.132  27.449  22.615  1.00  0.00     0.124 S 
ATOM     86  O   UNL A   1      51.126  28.906  22.537  1.00  0.00    -0.237 OA
ATOM     87  O   UNL A   1      52.424  26.799  22.423  1.00  0.00    -0.237 OA
ATOM     88  O   UNL A   1      50.000  26.786  21.968  1.00  0.00    -0.744 OA
ENDBRANCH  81  85
ENDBRANCH  54  78
BRANCH  66  89
ATOM     89  C   UNL A   1      46.337  33.129  28.596  1.00  0.00     0.023 A 
ATOM     90  C   UNL A   1      46.954  33.529  29.793  1.00  0.00     0.031 A 
ATOM     91  C   UNL A   1      46.235  34.074  27.559  1.00  0.00     0.131 A 
ATOM     92  C   UNL A   1      47.403  34.850  29.942  1.00  0.00     0.055 A 
ATOM     93  C   UNL A   1      46.741  35.368  27.689  1.00  0.00     0.041 A 
ATOM     94  F   UNL A   1      45.651  33.750  26.394  1.00  0.00    -0.206 F 
ATOM     95  C   UNL A   1      47.321  35.766  28.891  1.00  0.00     0.022 A 
BRANCH  92  96
ATOM     96  S   UNL A   1      48.027  35.380  31.560  1.00  0.00     0.124 S 
ATOM     97  O   UNL A   1      48.327  34.104  32.202  1.00  0.00    -0.237 OA
ATOM     98  O   UNL A   1      49.179  36.199  31.201  1.00  0.00    -0.237 OA
ATOM     99  O   UNL A   1      46.902  36.115  32.137  1.00  0.00    -0.744 OA
ENDBRANCH  92  96
ENDBRANCH  66  89
ENDBRANCH  40  41
ENDBRANCH  33  35
ENDBRANCH  32  33
ENDBRANCH  31  32
ENDBRANCH  30  31
ENDBRANCH   1  30
TORSDOF 22
ENDMDL
MODEL 3
REMARK VINA RESULT:     -10.4      5.508      9.691
REMARK SMILES CCOc1ccc2c(=O)cc(-c3ccccc3C(=O)OCCOCCOC(=O)c3ccc(-c4c5nc(c(-c6cc(S(=O)(=O)[O-])ccc6F)c6ccc([nH]6)c(-c6cc(S(=O)(=O)[O-])ccc6F)c6nc(c(-c7cc(S(=O)(=O)[O-])ccc7F)c7ccc4[nH]7)C=C6)C=C5)cc3)oc2c1OCC
REMARK SMILES IDX 23 1 22 2 21 3 20 4 18 5 19 6 17 7 12 8 13 9 14 10 16 11
REMARK SMILES IDX 15 12 11 13 4 14 5 15 94 16 6 17 93 18 7 19 92 20 8 21 9 22
REMARK SMILES IDX 10 23 3 24 2 25 1 26 95 27 96 28 97 29 24 30 25 31 26 32
REMARK SMILES IDX 27 33 28 34 29 35 30 36 91 37 31 38 90 39 32 40 33 41 34 42
REMARK SMILES IDX 84 43 35 44 89 45 83 46 85 47 36 48 88 49 82 50 81 51 37 53
REMARK SMILES IDX 69 54 49 55 68 56 50 57 53 58 67 59 86 60 51 61 52 62 66 64
REMARK SMILES IDX 87 65 54 66 38 67 39 68 47 69 40 70 46 71 48 72 45 73 41 74
REMARK SMILES IDX 42 75 43 76 44 77 70 78 71 79 79 80 72 81 78 82 80 83 77 84
REMARK SMILES IDX 73 85 74 86 75 87 76 88 55 89 56 90 64 91 57 92 63 93 65 94
REMARK SMILES IDX 62 95 58 96 59 97 60 98 61 99
REMARK H PARENT 85 52 53 63
REMARK Flexibility Score: inf
ROOT
ATOM      1  O   UNL A   1      34.112  31.262  28.254  1.00  0.00    -0.374 OA
ENDROOT
BRANCH   1   2
ATOM      2  C   UNL A   1      35.057  30.494  27.508  1.00  0.00     0.202 C 
BRANCH   2   3
ATOM      3  C   UNL A   1      34.651  29.071  27.135  1.00  0.00     0.261 C 
BRANCH   3   4
ATOM      4  O   UNL A   1      33.928  29.066  25.896  1.00  0.00    -0.460 OA
BRANCH   4   5
ATOM      5  C   UNL A   1      32.963  28.131  25.780  1.00  0.00     0.338 C 
ATOM      6  O   UNL A   1      32.894  27.083  26.404  1.00  0.00    -0.246 OA
BRANCH   5   7
ATOM      7  C   UNL A   1      31.863  28.583  24.883  1.00  0.00     0.071 A 
ATOM      8  C   UNL A   1      31.292  27.851  23.823  1.00  0.00     0.032 A 
ATOM      9  C   UNL A   1      30.180  28.415  23.165  1.00  0.00     0.013 A 
ATOM     10  C   UNL A   1      29.707  29.692  23.473  1.00  0.00     0.001 A 
ATOM     11  C   UNL A   1      31.393  29.884  25.167  1.00  0.00     0.016 A 
ATOM     12  C   UNL A   1      30.337  30.443  24.454  1.00  0.00     0.001 A 
BRANCH   8  13
ATOM     13  C   UNL A   1      31.793  26.571  23.276  1.00  0.00     0.139 A 
ATOM     14  C   UNL A   1      32.207  21.845  24.175  1.00  0.00     0.165 A 
ATOM     15  C   UNL A   1      32.822  21.678  22.935  1.00  0.00     0.051 A 
ATOM     16  C   UNL A   1      31.788  23.129  24.603  1.00  0.00     0.205 A 
ATOM     17  C   UNL A   1      33.041  22.771  22.112  1.00  0.00     0.020 A 
ATOM     18  C   UNL A   1      31.961  24.225  23.732  1.00  0.00     0.184 A 
ATOM     19  C   UNL A   1      32.593  24.029  22.499  1.00  0.00     0.069 A 
ATOM     20  O   UNL A   1      31.490  25.472  24.073  1.00  0.00    -0.452 OA
ATOM     21  C   UNL A   1      32.787  25.167  21.591  1.00  0.00     0.193 A 
ATOM     22  O   UNL A   1      33.190  25.041  20.443  1.00  0.00    -0.289 OA
ATOM     23  C   UNL A   1      32.457  26.495  22.117  1.00  0.00     0.100 A 
BRANCH  14  24
ATOM     24  O   UNL A   1      31.879  20.750  24.942  1.00  0.00    -0.490 OA
BRANCH  24  25
ATOM     25  C   UNL A   1      32.964  19.869  25.261  1.00  0.00     0.226 C 
ATOM     26  C   UNL A   1      32.523  18.426  25.462  1.00  0.00     0.049 C 
ENDBRANCH  24  25
ENDBRANCH  14  24
BRANCH  16  27
ATOM     27  O   UNL A   1      31.246  23.145  25.865  1.00  0.00    -0.487 OA
BRANCH  27  28
ATOM     28  C   UNL A   1      31.959  23.678  26.975  1.00  0.00     0.226 C 
ATOM     29  C   UNL A   1      32.806  22.640  27.696  1.00  0.00     0.049 C 
ENDBRANCH  27  28
ENDBRANCH  16  27
ENDBRANCH   8  13
ENDBRANCH   5   7
ENDBRANCH   4   5
ENDBRANCH   3   4
ENDBRANCH   2   3
ENDBRANCH   1   2
BRANCH   1  30
ATOM     30  C   UNL A   1      32.953  31.735  27.567  1.00  0.00     0.202 C 
BRANCH  30  31
ATOM     31  C   UNL A   1      32.740  33.252  27.457  1.00  0.00     0.261 C 
BRANCH  31  32
ATOM     32  O   UNL A   1      32.576  33.909  28.724  1.00  0.00    -0.460 OA
BRANCH  32  33
ATOM     33  C   UNL A   1      33.423  34.948  28.936  1.00  0.00     0.338 C 
ATOM     34  O   UNL A   1      33.215  36.129  28.698  1.00  0.00    -0.246 OA
BRANCH  33  35
ATOM     35  C   UNL A   1      34.608  34.477  29.671  1.00  0.00     0.060 A 
ATOM     36  C   UNL A   1      35.857  34.518  29.037  1.00  0.00     0.016 A 
ATOM     37  C   UNL A   1      34.479  33.927  30.943  1.00  0.00     0.016 A 
ATOM     38  C   UNL A   1      36.991  34.021  29.682  1.00  0.00     0.010 A 
ATOM     39  C   UNL A   1      35.614  33.408  31.572  1.00  0.00     0.010 A 
ATOM     40  C   UNL A   1      36.880  33.452  30.955  1.00  0.00    -0.014 A 
BRANCH  40  41
ATOM     41  C   UNL A   1      38.048  32.814  31.623  1.00  0.00     0.031 A 
ATOM     42  C   UNL A   1      38.670  31.596  30.996  1.00  0.00     0.074 A 
ATOM     43  C   UNL A   1      38.529  33.281  32.791  1.00  0.00     0.049 A 
ATOM     44  N   UNL A   1      39.581  30.787  31.473  1.00  0.00    -0.248 NA
ATOM     45  C   UNL A   1      38.193  31.244  29.651  1.00  0.00     0.031 C 
ATOM     46  C   UNL A   1      38.074  34.490  33.475  1.00  0.00     0.029 A 
ATOM     47  N   UNL A   1      39.487  32.767  33.634  1.00  0.00    -0.354 N 
ATOM     48  C   UNL A   1      39.791  29.831  30.484  1.00  0.00     0.074 A 
ATOM     49  C   UNL A   1      38.858  30.124  29.415  1.00  0.00     0.031 C 
ATOM     50  C   UNL A   1      38.705  34.593  34.657  1.00  0.00     0.029 A 
ATOM     51  C   UNL A   1      39.598  33.451  34.825  1.00  0.00     0.049 A 
ATOM     52  H   UNL A   1      40.040  31.985  33.409  1.00  0.00     0.167 HD
ATOM     53  C   UNL A   1      40.697  28.822  30.456  1.00  0.00     0.034 A 
ATOM     54  C   UNL A   1      40.309  33.171  35.936  1.00  0.00     0.034 A 
ATOM     55  C   UNL A   1      41.618  28.543  31.529  1.00  0.00     0.049 A 
ATOM     56  C   UNL A   1      41.203  31.955  35.949  1.00  0.00     0.074 A 
ATOM     57  C   UNL A   1      42.601  27.569  31.590  1.00  0.00     0.029 A 
ATOM     58  N   UNL A   1      41.662  29.223  32.740  1.00  0.00    -0.354 N 
ATOM     59  N   UNL A   1      41.410  31.072  35.000  1.00  0.00    -0.248 NA
ATOM     60  C   UNL A   1      41.969  31.707  37.178  1.00  0.00     0.031 C 
ATOM     61  C   UNL A   1      43.176  27.604  32.864  1.00  0.00     0.029 A 
ATOM     62  C   UNL A   1      42.615  28.654  33.572  1.00  0.00     0.049 A 
ATOM     63  H   UNL A   1      41.098  29.996  32.973  1.00  0.00     0.167 HD
ATOM     64  C   UNL A   1      42.362  30.190  35.502  1.00  0.00     0.074 A 
ATOM     65  C   UNL A   1      42.691  30.649  36.836  1.00  0.00     0.031 C 
ATOM     66  C   UNL A   1      42.924  29.106  34.909  1.00  0.00     0.034 A 
BRANCH  53  67
ATOM     67  C   UNL A   1      40.700  27.930  29.238  1.00  0.00     0.023 A 
ATOM     68  C   UNL A   1      41.644  28.089  28.208  1.00  0.00     0.031 A 
ATOM     69  C   UNL A   1      39.721  26.934  29.083  1.00  0.00     0.131 A 
ATOM     70  C   UNL A   1      41.536  27.328  27.036  1.00  0.00     0.055 A 
ATOM     71  C   UNL A   1      39.675  26.116  27.952  1.00  0.00     0.041 A 
ATOM     72  F   UNL A   1      38.778  26.748  30.021  1.00  0.00    -0.206 F 
ATOM     73  C   UNL A   1      40.575  26.324  26.910  1.00  0.00     0.022 A 
BRANCH  70  74
ATOM     74  S   UNL A   1      42.562  27.786  25.612  1.00  0.00     0.124 S 
ATOM     75  O   UNL A   1      41.853  28.956  25.101  1.00  0.00    -0.237 OA
ATOM     76  O   UNL A   1      43.859  28.044  26.228  1.00  0.00    -0.237 OA
ATOM     77  O   UNL A   1      42.503  26.606  24.753  1.00  0.00    -0.744 OA
ENDBRANCH  70  74
ENDBRANCH  53  67
BRANCH  54  78
ATOM     78  C   UNL A   1      40.188  34.033  37.147  1.00  0.00     0.023 A 
ATOM     79  C   UNL A   1      41.194  34.954  37.481  1.00  0.00     0.031 A 
ATOM     80  C   UNL A   1      39.091  33.909  38.019  1.00  0.00     0.131 A 
ATOM     81  C   UNL A   1      41.105  35.682  38.679  1.00  0.00     0.055 A 
ATOM     82  C   UNL A   1      38.982  34.675  39.181  1.00  0.00     0.041 A 
ATOM     83  F   UNL A   1      38.106  33.036  37.750  1.00  0.00    -0.206 F 
ATOM     84  C   UNL A   1      40.000  35.559  39.524  1.00  0.00     0.022 A 
BRANCH  81  85
ATOM     85  S   UNL A   1      42.507  36.727  39.162  1.00  0.00     0.124 S 
ATOM     86  O   UNL A   1      42.756  36.277  40.527  1.00  0.00    -0.237 OA
ATOM     87  O   UNL A   1      43.514  36.363  38.170  1.00  0.00    -0.237 OA
ATOM     88  O   UNL A   1      41.977  38.085  39.039  1.00  0.00    -0.744 OA
ENDBRANCH  81  85
ENDBRANCH  54  78
BRANCH  66  89
ATOM     89  C   UNL A   1      43.977  28.356  35.690  1.00  0.00     0.023 A 
ATOM     90  C   UNL A   1      45.342  28.671  35.579  1.00  0.00     0.031 A 
ATOM     91  C   UNL A   1      43.608  27.319  36.565  1.00  0.00     0.131 A 
ATOM     92  C   UNL A   1      46.293  27.926  36.293  1.00  0.00     0.055 A 
ATOM     93  C   UNL A   1      44.552  26.623  37.322  1.00  0.00     0.041 A 
ATOM     94  F   UNL A   1      42.319  26.972  36.708  1.00  0.00    -0.206 F 
ATOM     95  C   UNL A   1      45.905  26.918  37.180  1.00  0.00     0.022 A 
BRANCH  92  96
ATOM     96  S   UNL A   1      48.052  28.237  35.986  1.00  0.00     0.124 S 
ATOM     97  O   UNL A   1      48.576  26.885  35.821  1.00  0.00    -0.237 OA
ATOM     98  O   UNL A   1      48.021  29.059  34.781  1.00  0.00    -0.237 OA
ATOM     99  O   UNL A   1      48.494  28.930  37.196  1.00  0.00    -0.744 OA
ENDBRANCH  92  96
ENDBRANCH  66  89
ENDBRANCH  40  41
ENDBRANCH  33  35
ENDBRANCH  32  33
ENDBRANCH  31  32
ENDBRANCH  30  31
ENDBRANCH   1  30
TORSDOF 22
ENDMDL
