MODEL 1
REMARK VINA RESULT:     -10.9      0.000      0.000
REMARK SMILES Cc1nc2nc(CNC(=O)OC(C)(C)C)nn2c(C)c1CCC(=O)OCCOCCOC(=O)c1ccc(-c2c3nc(c(-c4cc(S(=O)(=O)[O-])ccc4F)c4ccc([nH]4)c(-c4cc(S(=O)(=O)[O-])ccc4F)c4nc(c(-c5cc(S(=O)(=O)[O-])ccc5F)c5ccc2[nH]5)C=C4)C=C3)cc1
REMARK SMILES IDX 26 1 25 2 23 3 24 4 22 5 21 6 20 7 1 8 2 9 3 10 4 11 18 12
REMARK SMILES IDX 5 13 17 14 19 15 6 16 16 17 7 18 8 19 9 20 10 22 11 23 12 24
REMARK SMILES IDX 13 25 14 26 15 27 27 28 28 29 29 30 30 31 31 32 32 33 33 34
REMARK SMILES IDX 34 35 35 36 96 37 36 38 95 39 37 40 38 41 39 42 89 43 40 44
REMARK SMILES IDX 94 45 88 46 90 47 41 48 93 49 87 50 86 51 42 53 74 54 54 55
REMARK SMILES IDX 73 56 55 57 58 58 72 59 91 60 56 61 57 62 71 64 92 65 59 66
REMARK SMILES IDX 43 67 44 68 52 69 45 70 51 71 53 72 50 73 46 74 47 75 48 76
REMARK SMILES IDX 49 77 75 78 76 79 84 80 77 81 83 82 85 83 82 84 78 85 79 86
REMARK SMILES IDX 80 87 81 88 60 89 61 90 69 91 62 92 68 93 70 94 67 95 63 96
REMARK SMILES IDX 64 97 65 98 66 99
REMARK H PARENT 8 21 90 52 58 63
REMARK Flexibility Score: inf
ROOT
ATOM      1  C   UNL A   1      40.499  19.578  26.467  1.00  0.00     0.261 C 
ENDROOT
BRANCH   1   2
ATOM      2  O   UNL A   1      39.547  19.766  25.380  1.00  0.00    -0.463 OA
BRANCH   2   3
ATOM      3  C   UNL A   1      38.676  20.797  25.388  1.00  0.00     0.306 C 
ATOM      4  O   UNL A   1      38.820  21.812  26.058  1.00  0.00    -0.252 OA
BRANCH   3   5
ATOM      5  C   UNL A   1      37.450  20.542  24.505  1.00  0.00     0.127 C 
BRANCH   5   6
ATOM      6  C   UNL A   1      36.359  19.544  24.974  1.00  0.00     0.051 C 
BRANCH   6   7
ATOM      7  C   UNL A   1      34.923  20.048  24.985  1.00  0.00    -0.005 A 
ATOM      8  C   UNL A   1      33.940  17.815  24.053  1.00  0.00     0.067 C 
ATOM      9  C   UNL A   1      33.711  19.246  24.488  1.00  0.00     0.046 A 
ATOM     10  N   UNL A   1      32.467  19.655  24.488  1.00  0.00    -0.216 NA
ATOM     11  C   UNL A   1      32.212  20.894  25.003  1.00  0.00     0.252 A 
ATOM     12  C   UNL A   1      34.548  21.202  25.561  1.00  0.00     0.048 A 
ATOM     13  N   UNL A   1      31.086  21.532  25.284  1.00  0.00    -0.192 NA
ATOM     14  N   UNL A   1      33.254  21.662  25.476  1.00  0.00    -0.201 N 
ATOM     15  C   UNL A   1      35.371  22.075  26.414  1.00  0.00     0.067 C 
ATOM     16  C   UNL A   1      31.514  22.699  25.880  1.00  0.00     0.172 A 
ATOM     17  N   UNL A   1      32.829  22.868  25.872  1.00  0.00    -0.148 NA
BRANCH  16  18
ATOM     18  C   UNL A   1      30.679  23.759  26.491  1.00  0.00     0.199 C 
BRANCH  18  19
ATOM     19  N   UNL A   1      30.020  24.501  25.441  1.00  0.00    -0.314 N 
ATOM     20  C   UNL A   1      29.885  25.849  25.453  1.00  0.00     0.408 C 
ATOM     21  H   UNL A   1      29.648  24.002  24.679  1.00  0.00     0.167 HD
ATOM     22  O   UNL A   1      29.220  26.443  24.618  1.00  0.00    -0.225 OA
BRANCH  20  23
ATOM     23  O   UNL A   1      30.539  26.389  26.500  1.00  0.00    -0.444 OA
BRANCH  23  24
ATOM     24  C   UNL A   1      31.637  27.306  26.319  1.00  0.00     0.106 C 
ATOM     25  C   UNL A   1      32.969  26.576  26.140  1.00  0.00     0.056 C 
ATOM     26  C   UNL A   1      31.319  28.249  25.156  1.00  0.00     0.056 C 
ATOM     27  C   UNL A   1      31.680  28.115  27.624  1.00  0.00     0.056 C 
ENDBRANCH  23  24
ENDBRANCH  20  23
ENDBRANCH  18  19
ENDBRANCH  16  18
ENDBRANCH   6   7
ENDBRANCH   5   6
ENDBRANCH   3   5
ENDBRANCH   2   3
ENDBRANCH   1   2
BRANCH   1  28
ATOM     28  C   UNL A   1      41.907  19.084  26.046  1.00  0.00     0.202 C 
BRANCH  28  29
ATOM     29  O   UNL A   1      42.610  19.976  25.185  1.00  0.00    -0.374 OA
BRANCH  29  30
ATOM     30  C   UNL A   1      43.557  20.846  25.797  1.00  0.00     0.202 C 
BRANCH  30  31
ATOM     31  C   UNL A   1      43.197  22.328  25.761  1.00  0.00     0.261 C 
BRANCH  31  32
ATOM     32  O   UNL A   1      41.917  22.573  26.344  1.00  0.00    -0.460 OA
BRANCH  32  33
ATOM     33  C   UNL A   1      41.882  22.843  27.675  1.00  0.00     0.338 C 
ATOM     34  O   UNL A   1      41.753  22.049  28.573  1.00  0.00    -0.246 OA
BRANCH  33  35
ATOM     35  C   UNL A   1      41.971  24.318  27.825  1.00  0.00     0.060 A 
ATOM     36  C   UNL A   1      42.839  24.836  28.789  1.00  0.00     0.016 A 
ATOM     37  C   UNL A   1      41.136  25.169  27.073  1.00  0.00     0.016 A 
ATOM     38  C   UNL A   1      42.749  26.182  29.108  1.00  0.00     0.010 A 
ATOM     39  C   UNL A   1      41.074  26.511  27.365  1.00  0.00     0.010 A 
ATOM     40  C   UNL A   1      41.812  26.982  28.442  1.00  0.00    -0.014 A 
BRANCH  40  41
ATOM     41  C   UNL A   1      41.587  28.335  28.903  1.00  0.00     0.031 A 
ATOM     42  C   UNL A   1      42.545  29.336  28.389  1.00  0.00     0.074 A 
ATOM     43  C   UNL A   1      40.530  28.665  29.672  1.00  0.00     0.049 A 
ATOM     44  N   UNL A   1      43.513  29.887  29.038  1.00  0.00    -0.248 NA
ATOM     45  C   UNL A   1      42.530  29.649  26.954  1.00  0.00     0.031 C 
ATOM     46  C   UNL A   1      39.366  27.854  30.040  1.00  0.00     0.029 A 
ATOM     47  N   UNL A   1      40.248  29.867  30.235  1.00  0.00    -0.354 N 
ATOM     48  C   UNL A   1      44.086  30.802  28.165  1.00  0.00     0.074 A 
ATOM     49  C   UNL A   1      43.576  30.474  26.859  1.00  0.00     0.031 C 
ATOM     50  C   UNL A   1      38.412  28.655  30.573  1.00  0.00     0.029 A 
ATOM     51  C   UNL A   1      38.952  29.999  30.716  1.00  0.00     0.049 A 
ATOM     52  H   UNL A   1      40.913  30.591  30.298  1.00  0.00     0.167 HD
ATOM     53  C   UNL A   1      44.752  31.895  28.630  1.00  0.00     0.034 A 
ATOM     54  C   UNL A   1      38.367  31.148  31.151  1.00  0.00     0.034 A 
ATOM     55  C   UNL A   1      45.080  31.753  30.031  1.00  0.00     0.049 A 
ATOM     56  C   UNL A   1      39.484  32.035  31.582  1.00  0.00     0.074 A 
ATOM     57  C   UNL A   1      45.807  30.830  30.763  1.00  0.00     0.029 A 
ATOM     58  N   UNL A   1      44.298  32.411  30.954  1.00  0.00    -0.354 N 
ATOM     59  N   UNL A   1      40.280  31.746  32.578  1.00  0.00    -0.248 NA
ATOM     60  C   UNL A   1      40.031  32.962  30.601  1.00  0.00     0.031 C 
ATOM     61  C   UNL A   1      45.043  30.624  31.951  1.00  0.00     0.029 A 
ATOM     62  C   UNL A   1      43.946  31.488  31.911  1.00  0.00     0.049 A 
ATOM     63  H   UNL A   1      44.040  33.361  30.934  1.00  0.00     0.167 HD
ATOM     64  C   UNL A   1      41.548  32.098  32.140  1.00  0.00     0.074 A 
ATOM     65  C   UNL A   1      41.322  32.911  30.943  1.00  0.00     0.031 C 
ATOM     66  C   UNL A   1      42.673  31.477  32.607  1.00  0.00     0.034 A 
BRANCH  53  67
ATOM     67  C   UNL A   1      44.813  33.226  27.923  1.00  0.00     0.023 A 
ATOM     68  C   UNL A   1      43.939  34.240  28.359  1.00  0.00     0.031 A 
ATOM     69  C   UNL A   1      45.470  33.462  26.695  1.00  0.00     0.131 A 
ATOM     70  C   UNL A   1      43.697  35.374  27.563  1.00  0.00     0.055 A 
ATOM     71  C   UNL A   1      45.277  34.622  25.940  1.00  0.00     0.041 A 
ATOM     72  F   UNL A   1      46.252  32.548  26.107  1.00  0.00    -0.206 F 
ATOM     73  C   UNL A   1      44.366  35.575  26.358  1.00  0.00     0.022 A 
BRANCH  70  74
ATOM     74  S   UNL A   1      42.381  36.513  28.062  1.00  0.00     0.124 S 
ATOM     75  O   UNL A   1      42.319  37.413  26.915  1.00  0.00    -0.237 OA
ATOM     76  O   UNL A   1      41.249  35.608  28.233  1.00  0.00    -0.237 OA
ATOM     77  O   UNL A   1      42.894  37.106  29.294  1.00  0.00    -0.744 OA
ENDBRANCH  70  74
ENDBRANCH  53  67
BRANCH  54  78
ATOM     78  C   UNL A   1      37.000  31.644  30.799  1.00  0.00     0.023 A 
ATOM     79  C   UNL A   1      36.188  32.344  31.721  1.00  0.00     0.031 A 
ATOM     80  C   UNL A   1      36.568  31.654  29.452  1.00  0.00     0.131 A 
ATOM     81  C   UNL A   1      35.019  33.014  31.284  1.00  0.00     0.055 A 
ATOM     82  C   UNL A   1      35.413  32.318  29.028  1.00  0.00     0.041 A 
ATOM     83  F   UNL A   1      37.298  31.092  28.477  1.00  0.00    -0.206 F 
ATOM     84  C   UNL A   1      34.638  33.011  29.941  1.00  0.00     0.022 A 
BRANCH  81  85
ATOM     85  S   UNL A   1      34.023  34.007  32.445  1.00  0.00     0.124 S 
ATOM     86  O   UNL A   1      33.290  34.888  31.542  1.00  0.00    -0.237 OA
ATOM     87  O   UNL A   1      33.238  32.994  33.140  1.00  0.00    -0.237 OA
ATOM     88  O   UNL A   1      35.030  34.673  33.272  1.00  0.00    -0.744 OA
ENDBRANCH  81  85
ENDBRANCH  54  78
BRANCH  66  89
ATOM     89  C   UNL A   1      42.561  30.553  33.803  1.00  0.00     0.023 A 
ATOM     90  C   UNL A   1      42.555  29.139  33.742  1.00  0.00     0.031 A 
ATOM     91  C   UNL A   1      42.631  31.150  35.075  1.00  0.00     0.131 A 
ATOM     92  C   UNL A   1      42.620  28.383  34.932  1.00  0.00     0.055 A 
ATOM     93  C   UNL A   1      42.713  30.399  36.246  1.00  0.00     0.041 A 
ATOM     94  F   UNL A   1      42.673  32.487  35.194  1.00  0.00    -0.206 F 
ATOM     95  C   UNL A   1      42.706  29.011  36.180  1.00  0.00     0.022 A 
BRANCH  92  96
ATOM     96  S   UNL A   1      42.624  26.559  34.881  1.00  0.00     0.124 S 
ATOM     97  O   UNL A   1      43.467  26.193  36.013  1.00  0.00    -0.237 OA
ATOM     98  O   UNL A   1      41.206  26.231  35.005  1.00  0.00    -0.237 OA
ATOM     99  O   UNL A   1      43.202  26.252  33.571  1.00  0.00    -0.744 OA
ENDBRANCH  92  96
ENDBRANCH  66  89
ENDBRANCH  40  41
ENDBRANCH  33  35
ENDBRANCH  32  33
ENDBRANCH  31  32
ENDBRANCH  30  31
ENDBRANCH  29  30
ENDBRANCH  28  29
ENDBRANCH   1  28
TORSDOF 23
ENDMDL
MODEL 2
REMARK VINA RESULT:     -10.9      3.226      9.707
REMARK SMILES Cc1nc2nc(CNC(=O)OC(C)(C)C)nn2c(C)c1CCC(=O)OCCOCCOC(=O)c1ccc(-c2c3nc(c(-c4cc(S(=O)(=O)[O-])ccc4F)c4ccc([nH]4)c(-c4cc(S(=O)(=O)[O-])ccc4F)c4nc(c(-c5cc(S(=O)(=O)[O-])ccc5F)c5ccc2[nH]5)C=C4)C=C3)cc1
REMARK SMILES IDX 26 1 25 2 23 3 24 4 22 5 21 6 20 7 1 8 2 9 3 10 4 11 18 12
REMARK SMILES IDX 5 13 17 14 19 15 6 16 16 17 7 18 8 19 9 20 10 22 11 23 12 24
REMARK SMILES IDX 13 25 14 26 15 27 27 28 28 29 29 30 30 31 31 32 32 33 33 34
REMARK SMILES IDX 34 35 35 36 96 37 36 38 95 39 37 40 38 41 39 42 89 43 40 44
REMARK SMILES IDX 94 45 88 46 90 47 41 48 93 49 87 50 86 51 42 53 74 54 54 55
REMARK SMILES IDX 73 56 55 57 58 58 72 59 91 60 56 61 57 62 71 64 92 65 59 66
REMARK SMILES IDX 43 67 44 68 52 69 45 70 51 71 53 72 50 73 46 74 47 75 48 76
REMARK SMILES IDX 49 77 75 78 76 79 84 80 77 81 83 82 85 83 82 84 78 85 79 86
REMARK SMILES IDX 80 87 81 88 60 89 61 90 69 91 62 92 68 93 70 94 67 95 63 96
REMARK SMILES IDX 64 97 65 98 66 99
REMARK H PARENT 8 21 90 52 58 63
REMARK Flexibility Score: inf
ROOT
ATOM      1  C   UNL A   1      32.733  30.020  25.640  1.00  0.00     0.261 C 
ENDROOT
BRANCH   1   2
ATOM      2  O   UNL A   1      31.386  29.535  25.368  1.00  0.00    -0.463 OA
BRANCH   2   3
ATOM      3  C   UNL A   1      30.923  29.443  24.102  1.00  0.00     0.306 C 
ATOM      4  O   UNL A   1      29.897  29.982  23.706  1.00  0.00    -0.252 OA
BRANCH   3   5
ATOM      5  C   UNL A   1      31.792  28.543  23.218  1.00  0.00     0.127 C 
BRANCH   5   6
ATOM      6  C   UNL A   1      31.345  27.086  22.929  1.00  0.00     0.051 C 
BRANCH   6   7
ATOM      7  C   UNL A   1      31.365  26.114  24.099  1.00  0.00    -0.005 A 
ATOM      8  C   UNL A   1      28.816  26.377  24.601  1.00  0.00     0.067 C 
ATOM      9  C   UNL A   1      30.154  25.780  24.981  1.00  0.00     0.046 A 
ATOM     10  N   UNL A   1      30.144  24.947  25.991  1.00  0.00    -0.216 NA
ATOM     11  C   UNL A   1      31.307  24.288  26.274  1.00  0.00     0.252 A 
ATOM     12  C   UNL A   1      32.421  25.338  24.399  1.00  0.00     0.048 A 
ATOM     13  N   UNL A   1      31.595  23.297  27.105  1.00  0.00    -0.192 NA
ATOM     14  N   UNL A   1      32.431  24.534  25.515  1.00  0.00    -0.201 N 
ATOM     15  C   UNL A   1      33.635  25.145  23.589  1.00  0.00     0.067 C 
ATOM     16  C   UNL A   1      32.919  23.023  26.834  1.00  0.00     0.172 A 
ATOM     17  N   UNL A   1      33.489  23.859  25.979  1.00  0.00    -0.148 NA
BRANCH  16  18
ATOM     18  C   UNL A   1      33.747  21.933  27.401  1.00  0.00     0.199 C 
BRANCH  18  19
ATOM     19  N   UNL A   1      33.917  20.903  26.400  1.00  0.00    -0.314 N 
ATOM     20  C   UNL A   1      35.081  20.689  25.744  1.00  0.00     0.408 C 
ATOM     21  H   UNL A   1      33.146  20.330  26.185  1.00  0.00     0.167 HD
ATOM     22  O   UNL A   1      35.168  19.895  24.818  1.00  0.00    -0.225 OA
BRANCH  20  23
ATOM     23  O   UNL A   1      36.061  21.477  26.229  1.00  0.00    -0.444 OA
BRANCH  23  24
ATOM     24  C   UNL A   1      36.889  22.278  25.363  1.00  0.00     0.106 C 
ATOM     25  C   UNL A   1      38.329  21.763  25.312  1.00  0.00     0.056 C 
ATOM     26  C   UNL A   1      36.241  22.359  23.978  1.00  0.00     0.056 C 
ATOM     27  C   UNL A   1      36.879  23.673  26.005  1.00  0.00     0.056 C 
ENDBRANCH  23  24
ENDBRANCH  20  23
ENDBRANCH  18  19
ENDBRANCH  16  18
ENDBRANCH   6   7
ENDBRANCH   5   6
ENDBRANCH   3   5
ENDBRANCH   2   3
ENDBRANCH   1   2
BRANCH   1  28
ATOM     28  C   UNL A   1      33.183  29.947  27.122  1.00  0.00     0.202 C 
BRANCH  28  29
ATOM     29  O   UNL A   1      34.319  30.750  27.433  1.00  0.00    -0.374 OA
BRANCH  29  30
ATOM     30  C   UNL A   1      34.067  32.005  28.056  1.00  0.00     0.202 C 
BRANCH  30  31
ATOM     31  C   UNL A   1      35.150  33.061  27.855  1.00  0.00     0.261 C 
BRANCH  31  32
ATOM     32  O   UNL A   1      36.454  32.527  28.088  1.00  0.00    -0.460 OA
BRANCH  32  33
ATOM     33  C   UNL A   1      37.194  33.103  29.071  1.00  0.00     0.338 C 
ATOM     34  O   UNL A   1      37.169  34.258  29.415  1.00  0.00    -0.246 OA
BRANCH  33  35
ATOM     35  C   UNL A   1      38.096  32.054  29.612  1.00  0.00     0.060 A 
ATOM     36  C   UNL A   1      39.336  32.444  30.120  1.00  0.00     0.016 A 
ATOM     37  C   UNL A   1      37.743  30.692  29.533  1.00  0.00     0.016 A 
ATOM     38  C   UNL A   1      40.278  31.465  30.395  1.00  0.00     0.010 A 
ATOM     39  C   UNL A   1      38.666  29.720  29.842  1.00  0.00     0.010 A 
ATOM     40  C   UNL A   1      39.951  30.120  30.177  1.00  0.00    -0.014 A 
BRANCH  40  41
ATOM     41  C   UNL A   1      40.989  29.117  30.283  1.00  0.00     0.031 A 
ATOM     42  C   UNL A   1      41.421  28.810  31.662  1.00  0.00     0.074 A 
ATOM     43  C   UNL A   1      41.458  28.454  29.207  1.00  0.00     0.049 A 
ATOM     44  N   UNL A   1      42.518  29.180  32.231  1.00  0.00    -0.248 NA
ATOM     45  C   UNL A   1      40.468  28.153  32.566  1.00  0.00     0.031 C 
ATOM     46  C   UNL A   1      40.955  28.453  27.830  1.00  0.00     0.029 A 
ATOM     47  N   UNL A   1      42.475  27.557  29.155  1.00  0.00    -0.354 N 
ATOM     48  C   UNL A   1      42.508  28.598  33.492  1.00  0.00     0.074 A 
ATOM     49  C   UNL A   1      41.157  28.152  33.711  1.00  0.00     0.031 C 
ATOM     50  C   UNL A   1      41.529  27.435  27.144  1.00  0.00     0.029 A 
ATOM     51  C   UNL A   1      42.539  26.811  27.985  1.00  0.00     0.049 A 
ATOM     52  H   UNL A   1      43.119  27.444  29.891  1.00  0.00     0.167 HD
ATOM     53  C   UNL A   1      43.670  28.330  34.150  1.00  0.00     0.034 A 
ATOM     54  C   UNL A   1      43.338  25.733  27.761  1.00  0.00     0.034 A 
ATOM     55  C   UNL A   1      44.784  29.041  33.562  1.00  0.00     0.049 A 
ATOM     56  C   UNL A   1      44.493  25.880  28.690  1.00  0.00     0.074 A 
ATOM     57  C   UNL A   1      45.063  30.377  33.334  1.00  0.00     0.029 A 
ATOM     58  N   UNL A   1      45.635  28.346  32.731  1.00  0.00    -0.354 N 
ATOM     59  N   UNL A   1      45.347  26.867  28.613  1.00  0.00    -0.248 NA
ATOM     60  C   UNL A   1      44.398  25.243  29.996  1.00  0.00     0.031 C 
ATOM     61  C   UNL A   1      45.651  30.409  32.033  1.00  0.00     0.029 A 
ATOM     62  C   UNL A   1      45.770  29.093  31.583  1.00  0.00     0.049 A 
ATOM     63  H   UNL A   1      46.064  27.482  32.921  1.00  0.00     0.167 HD
ATOM     64  C   UNL A   1      45.575  27.250  29.927  1.00  0.00     0.074 A 
ATOM     65  C   UNL A   1      45.019  26.165  30.739  1.00  0.00     0.031 C 
ATOM     66  C   UNL A   1      45.930  28.528  30.256  1.00  0.00     0.034 A 
BRANCH  53  67
ATOM     67  C   UNL A   1      43.868  27.177  35.103  1.00  0.00     0.023 A 
ATOM     68  C   UNL A   1      44.344  27.469  36.395  1.00  0.00     0.031 A 
ATOM     69  C   UNL A   1      43.877  25.813  34.734  1.00  0.00     0.131 A 
ATOM     70  C   UNL A   1      44.862  26.454  37.218  1.00  0.00     0.055 A 
ATOM     71  C   UNL A   1      44.330  24.800  35.582  1.00  0.00     0.041 A 
ATOM     72  F   UNL A   1      43.547  25.395  33.506  1.00  0.00    -0.206 F 
ATOM     73  C   UNL A   1      44.852  25.119  36.822  1.00  0.00     0.022 A 
BRANCH  70  74
ATOM     74  S   UNL A   1      45.684  26.928  38.760  1.00  0.00     0.124 S 
ATOM     75  O   UNL A   1      44.743  27.897  39.312  1.00  0.00    -0.237 OA
ATOM     76  O   UNL A   1      45.778  25.650  39.457  1.00  0.00    -0.237 OA
ATOM     77  O   UNL A   1      46.958  27.484  38.307  1.00  0.00    -0.744 OA
ENDBRANCH  70  74
ENDBRANCH  53  67
BRANCH  54  78
ATOM     78  C   UNL A   1      42.931  24.433  27.141  1.00  0.00     0.023 A 
ATOM     79  C   UNL A   1      43.777  23.715  26.265  1.00  0.00     0.031 A 
ATOM     80  C   UNL A   1      41.785  23.747  27.606  1.00  0.00     0.131 A 
ATOM     81  C   UNL A   1      43.468  22.380  25.901  1.00  0.00     0.055 A 
ATOM     82  C   UNL A   1      41.486  22.430  27.244  1.00  0.00     0.041 A 
ATOM     83  F   UNL A   1      40.953  24.298  28.502  1.00  0.00    -0.206 F 
ATOM     84  C   UNL A   1      42.333  21.736  26.398  1.00  0.00     0.022 A 
BRANCH  81  85
ATOM     85  S   UNL A   1      44.605  21.410  24.857  1.00  0.00     0.124 S 
ATOM     86  O   UNL A   1      44.573  22.150  23.601  1.00  0.00    -0.237 OA
ATOM     87  O   UNL A   1      45.853  21.464  25.608  1.00  0.00    -0.237 OA
ATOM     88  O   UNL A   1      43.977  20.088  24.809  1.00  0.00    -0.744 OA
ENDBRANCH  81  85
ENDBRANCH  54  78
BRANCH  66  89
ATOM     89  C   UNL A   1      46.324  29.491  29.153  1.00  0.00     0.023 A 
ATOM     90  C   UNL A   1      45.423  30.291  28.411  1.00  0.00     0.031 A 
ATOM     91  C   UNL A   1      47.700  29.717  28.969  1.00  0.00     0.131 A 
ATOM     92  C   UNL A   1      45.918  31.275  27.528  1.00  0.00     0.055 A 
ATOM     93  C   UNL A   1      48.183  30.701  28.109  1.00  0.00     0.041 A 
ATOM     94  F   UNL A   1      48.603  29.011  29.669  1.00  0.00    -0.206 F 
ATOM     95  C   UNL A   1      47.294  31.484  27.383  1.00  0.00     0.022 A 
BRANCH  92  96
ATOM     96  S   UNL A   1      44.778  32.327  26.568  1.00  0.00     0.124 S 
ATOM     97  O   UNL A   1      43.826  31.371  26.013  1.00  0.00    -0.237 OA
ATOM     98  O   UNL A   1      44.253  33.240  27.580  1.00  0.00    -0.237 OA
ATOM     99  O   UNL A   1      45.648  32.962  25.575  1.00  0.00    -0.744 OA
ENDBRANCH  92  96
ENDBRANCH  66  89
ENDBRANCH  40  41
ENDBRANCH  33  35
ENDBRANCH  32  33
ENDBRANCH  31  32
ENDBRANCH  30  31
ENDBRANCH  29  30
ENDBRANCH  28  29
ENDBRANCH   1  28
TORSDOF 23
ENDMDL
MODEL 3
REMARK VINA RESULT:     -10.6      3.439      9.346
REMARK SMILES Cc1nc2nc(CNC(=O)OC(C)(C)C)nn2c(C)c1CCC(=O)OCCOCCOC(=O)c1ccc(-c2c3nc(c(-c4cc(S(=O)(=O)[O-])ccc4F)c4ccc([nH]4)c(-c4cc(S(=O)(=O)[O-])ccc4F)c4nc(c(-c5cc(S(=O)(=O)[O-])ccc5F)c5ccc2[nH]5)C=C4)C=C3)cc1
REMARK SMILES IDX 26 1 25 2 23 3 24 4 22 5 21 6 20 7 1 8 2 9 3 10 4 11 18 12
REMARK SMILES IDX 5 13 17 14 19 15 6 16 16 17 7 18 8 19 9 20 10 22 11 23 12 24
REMARK SMILES IDX 13 25 14 26 15 27 27 28 28 29 29 30 30 31 31 32 32 33 33 34
REMARK SMILES IDX 34 35 35 36 96 37 36 38 95 39 37 40 38 41 39 42 89 43 40 44
REMARK SMILES IDX 94 45 88 46 90 47 41 48 93 49 87 50 86 51 42 53 74 54 54 55
REMARK SMILES IDX 73 56 55 57 58 58 72 59 91 60 56 61 57 62 71 64 92 65 59 66
REMARK SMILES IDX 43 67 44 68 52 69 45 70 51 71 53 72 50 73 46 74 47 75 48 76
REMARK SMILES IDX 49 77 75 78 76 79 84 80 77 81 83 82 85 83 82 84 78 85 79 86
REMARK SMILES IDX 80 87 81 88 60 89 61 90 69 91 62 92 68 93 70 94 67 95 63 96
REMARK SMILES IDX 64 97 65 98 66 99
REMARK H PARENT 8 21 90 52 58 63
REMARK Flexibility Score: inf
ROOT
ATOM      1  C   UNL A   1      32.653  28.474  25.472  1.00  0.00     0.261 C 
ENDROOT
BRANCH   1   2
ATOM      2  O   UNL A   1      31.486  27.602  25.510  1.00  0.00    -0.463 OA
BRANCH   2   3
ATOM      3  C   UNL A   1      30.753  27.372  24.398  1.00  0.00     0.306 C 
ATOM      4  O   UNL A   1      30.682  28.144  23.451  1.00  0.00    -0.252 OA
BRANCH   3   5
ATOM      5  C   UNL A   1      29.971  26.056  24.468  1.00  0.00     0.127 C 
BRANCH   5   6
ATOM      6  C   UNL A   1      30.336  24.894  23.508  1.00  0.00     0.051 C 
BRANCH   6   7
ATOM      7  C   UNL A   1      31.784  24.427  23.510  1.00  0.00    -0.005 A 
ATOM      8  C   UNL A   1      32.406  25.758  21.350  1.00  0.00     0.067 C 
ATOM      9  C   UNL A   1      32.820  24.786  22.435  1.00  0.00     0.046 A 
ATOM     10  N   UNL A   1      34.071  24.400  22.413  1.00  0.00    -0.216 NA
ATOM     11  C   UNL A   1      34.509  23.632  23.455  1.00  0.00     0.252 A 
ATOM     12  C   UNL A   1      32.345  23.759  24.531  1.00  0.00     0.048 A 
ATOM     13  N   UNL A   1      35.714  23.211  23.810  1.00  0.00    -0.192 NA
ATOM     14  N   UNL A   1      33.633  23.282  24.459  1.00  0.00    -0.201 N 
ATOM     15  C   UNL A   1      31.760  23.521  25.861  1.00  0.00     0.067 C 
ATOM     16  C   UNL A   1      35.492  22.571  25.011  1.00  0.00     0.172 A 
ATOM     17  N   UNL A   1      34.214  22.471  25.351  1.00  0.00    -0.148 NA
BRANCH  16  18
ATOM     18  C   UNL A   1      36.503  21.985  25.921  1.00  0.00     0.199 C 
BRANCH  18  19
ATOM     19  N   UNL A   1      37.296  23.051  26.491  1.00  0.00    -0.314 N 
ATOM     20  C   UNL A   1      38.650  23.059  26.481  1.00  0.00     0.408 C 
ATOM     21  H   UNL A   1      36.827  23.809  26.909  1.00  0.00     0.167 HD
ATOM     22  O   UNL A   1      39.298  23.908  27.074  1.00  0.00    -0.225 OA
BRANCH  20  23
ATOM     23  O   UNL A   1      39.133  22.015  25.780  1.00  0.00    -0.444 OA
BRANCH  23  24
ATOM     24  C   UNL A   1      40.266  21.250  26.240  1.00  0.00     0.106 C 
ATOM     25  C   UNL A   1      40.004  19.745  26.174  1.00  0.00     0.056 C 
ATOM     26  C   UNL A   1      41.509  21.669  25.450  1.00  0.00     0.056 C 
ATOM     27  C   UNL A   1      40.439  21.666  27.708  1.00  0.00     0.056 C 
ENDBRANCH  23  24
ENDBRANCH  20  23
ENDBRANCH  18  19
ENDBRANCH  16  18
ENDBRANCH   6   7
ENDBRANCH   5   6
ENDBRANCH   3   5
ENDBRANCH   2   3
ENDBRANCH   1   2
BRANCH   1  28
ATOM     28  C   UNL A   1      32.481  29.852  26.161  1.00  0.00     0.202 C 
BRANCH  28  29
ATOM     29  O   UNL A   1      33.210  29.998  27.377  1.00  0.00    -0.374 OA
BRANCH  29  30
ATOM     30  C   UNL A   1      34.528  30.528  27.275  1.00  0.00     0.202 C 
BRANCH  30  31
ATOM     31  C   UNL A   1      35.117  31.060  28.579  1.00  0.00     0.261 C 
BRANCH  31  32
ATOM     32  O   UNL A   1      36.483  30.674  28.735  1.00  0.00    -0.460 OA
BRANCH  32  33
ATOM     33  C   UNL A   1      36.748  29.668  29.608  1.00  0.00     0.338 C 
ATOM     34  O   UNL A   1      36.112  29.372  30.588  1.00  0.00    -0.246 OA
BRANCH  33  35
ATOM     35  C   UNL A   1      38.015  29.029  29.169  1.00  0.00     0.060 A 
ATOM     36  C   UNL A   1      38.599  28.072  30.002  1.00  0.00     0.016 A 
ATOM     37  C   UNL A   1      38.655  29.441  27.983  1.00  0.00     0.016 A 
ATOM     38  C   UNL A   1      39.892  27.655  29.728  1.00  0.00     0.010 A 
ATOM     39  C   UNL A   1      39.924  28.998  27.692  1.00  0.00     0.010 A 
ATOM     40  C   UNL A   1      40.562  28.184  28.618  1.00  0.00    -0.014 A 
BRANCH  40  41
ATOM     41  C   UNL A   1      41.968  27.895  28.439  1.00  0.00     0.031 A 
ATOM     42  C   UNL A   1      42.259  26.649  27.698  1.00  0.00     0.074 A 
ATOM     43  C   UNL A   1      42.933  28.745  28.844  1.00  0.00     0.049 A 
ATOM     44  N   UNL A   1      42.680  25.535  28.191  1.00  0.00    -0.248 NA
ATOM     45  C   UNL A   1      41.897  26.579  26.276  1.00  0.00     0.031 C 
ATOM     46  C   UNL A   1      42.806  30.116  29.345  1.00  0.00     0.029 A 
ATOM     47  N   UNL A   1      44.277  28.561  28.812  1.00  0.00    -0.354 N 
ATOM     48  C   UNL A   1      42.870  24.687  27.108  1.00  0.00     0.074 A 
ATOM     49  C   UNL A   1      42.195  25.307  25.998  1.00  0.00     0.031 C 
ATOM     50  C   UNL A   1      44.026  30.704  29.357  1.00  0.00     0.029 A 
ATOM     51  C   UNL A   1      45.030  29.712  29.005  1.00  0.00     0.049 A 
ATOM     52  H   UNL A   1      44.687  27.679  28.662  1.00  0.00     0.167 HD
ATOM     53  C   UNL A   1      43.764  23.661  27.169  1.00  0.00     0.034 A 
ATOM     54  C   UNL A   1      46.375  29.832  28.837  1.00  0.00     0.034 A 
ATOM     55  C   UNL A   1      44.150  23.379  28.533  1.00  0.00     0.049 A 
ATOM     56  C   UNL A   1      46.932  28.461  29.015  1.00  0.00     0.074 A 
ATOM     57  C   UNL A   1      43.457  23.022  29.677  1.00  0.00     0.029 A 
ATOM     58  N   UNL A   1      45.365  23.852  28.979  1.00  0.00    -0.354 N 
ATOM     59  N   UNL A   1      46.860  27.805  30.143  1.00  0.00    -0.248 NA
ATOM     60  C   UNL A   1      47.094  27.635  27.826  1.00  0.00     0.031 C 
ATOM     61  C   UNL A   1      44.059  23.785  30.721  1.00  0.00     0.029 A 
ATOM     62  C   UNL A   1      45.129  24.495  30.172  1.00  0.00     0.049 A 
ATOM     63  H   UNL A   1      46.234  23.748  28.530  1.00  0.00     0.167 HD
ATOM     64  C   UNL A   1      46.540  26.504  29.784  1.00  0.00     0.074 A 
ATOM     65  C   UNL A   1      46.769  26.444  28.339  1.00  0.00     0.031 C 
ATOM     66  C   UNL A   1      45.850  25.672  30.621  1.00  0.00     0.034 A 
BRANCH  53  67
ATOM     67  C   UNL A   1      44.546  23.137  25.990  1.00  0.00     0.023 A 
ATOM     68  C   UNL A   1      44.496  21.754  25.732  1.00  0.00     0.031 A 
ATOM     69  C   UNL A   1      45.535  23.861  25.286  1.00  0.00     0.131 A 
ATOM     70  C   UNL A   1      45.434  21.145  24.880  1.00  0.00     0.055 A 
ATOM     71  C   UNL A   1      46.421  23.261  24.388  1.00  0.00     0.041 A 
ATOM     72  F   UNL A   1      45.766  25.161  25.501  1.00  0.00    -0.206 F 
ATOM     73  C   UNL A   1      46.393  21.891  24.201  1.00  0.00     0.022 A 
BRANCH  70  74
ATOM     74  S   UNL A   1      45.470  19.337  24.789  1.00  0.00     0.124 S 
ATOM     75  O   UNL A   1      46.149  19.118  23.516  1.00  0.00    -0.237 OA
ATOM     76  O   UNL A   1      46.225  18.990  25.989  1.00  0.00    -0.237 OA
ATOM     77  O   UNL A   1      44.057  18.967  24.815  1.00  0.00    -0.744 OA
ENDBRANCH  70  74
ENDBRANCH  53  67
BRANCH  54  78
ATOM     78  C   UNL A   1      47.091  30.933  28.120  1.00  0.00     0.023 A 
ATOM     79  C   UNL A   1      46.420  31.848  27.275  1.00  0.00     0.031 A 
ATOM     80  C   UNL A   1      48.425  31.259  28.459  1.00  0.00     0.131 A 
ATOM     81  C   UNL A   1      47.076  33.019  26.820  1.00  0.00     0.055 A 
ATOM     82  C   UNL A   1      49.066  32.416  28.007  1.00  0.00     0.041 A 
ATOM     83  F   UNL A   1      49.133  30.508  29.316  1.00  0.00    -0.206 F 
ATOM     84  C   UNL A   1      48.390  33.308  27.193  1.00  0.00     0.022 A 
BRANCH  81  85
ATOM     85  S   UNL A   1      46.188  34.256  25.817  1.00  0.00     0.124 S 
ATOM     86  O   UNL A   1      47.242  34.751  24.939  1.00  0.00    -0.237 OA
ATOM     87  O   UNL A   1      45.140  33.463  25.186  1.00  0.00    -0.237 OA
ATOM     88  O   UNL A   1      45.711  35.219  26.811  1.00  0.00    -0.744 OA
ENDBRANCH  81  85
ENDBRANCH  54  78
BRANCH  66  89
ATOM     89  C   UNL A   1      45.640  26.087  32.063  1.00  0.00     0.023 A 
ATOM     90  C   UNL A   1      44.469  26.700  32.571  1.00  0.00     0.031 A 
ATOM     91  C   UNL A   1      46.619  25.685  32.988  1.00  0.00     0.131 A 
ATOM     92  C   UNL A   1      44.319  26.884  33.963  1.00  0.00     0.055 A 
ATOM     93  C   UNL A   1      46.459  25.854  34.363  1.00  0.00     0.041 A 
ATOM     94  F   UNL A   1      47.736  25.068  32.569  1.00  0.00    -0.206 F 
ATOM     95  C   UNL A   1      45.307  26.456  34.856  1.00  0.00     0.022 A 
BRANCH  92  96
ATOM     96  S   UNL A   1      42.816  27.663  34.645  1.00  0.00     0.124 S 
ATOM     97  O   UNL A   1      43.202  27.997  36.011  1.00  0.00    -0.237 OA
ATOM     98  O   UNL A   1      42.602  28.792  33.745  1.00  0.00    -0.237 OA
ATOM     99  O   UNL A   1      41.805  26.608  34.542  1.00  0.00    -0.744 OA
ENDBRANCH  92  96
ENDBRANCH  66  89
ENDBRANCH  40  41
ENDBRANCH  33  35
ENDBRANCH  32  33
ENDBRANCH  31  32
ENDBRANCH  30  31
ENDBRANCH  29  30
ENDBRANCH  28  29
ENDBRANCH   1  28
TORSDOF 23
ENDMDL
