MODEL 1
REMARK VINA RESULT:     -12.8      0.000      0.000
REMARK SMILES Cc1c(C(=O)Nc2ccc(C(=O)Nc3ccccc3C(=O)OCCOCCOC(=O)c3ccc(-c4c5nc(c(-c6cc(S(=O)(=O)[O-])ccc6F)c6ccc([nH]6)c(-c6cc(S(=O)(=O)[O-])ccc6F)c6nc(c(-c7cc(S(=O)(=O)[O-])ccc7F)c7ccc4[nH]7)C=C6)C=C5)cc3)cc2)cccc1[N+](=O)[O-]
REMARK SMILES IDX 24 1 23 2 22 3 20 4 21 5 19 6 14 7 15 8 16 9 18 10 17 11
REMARK SMILES IDX 13 12 11 13 12 14 10 16 7 17 8 18 95 19 9 20 94 21 6 22 4 23
REMARK SMILES IDX 5 24 3 26 1 27 2 28 99 29 96 30 98 31 97 32 100 33 101 34
REMARK SMILES IDX 102 35 25 36 26 37 27 38 28 39 29 40 30 41 31 42 32 43 93 44
REMARK SMILES IDX 33 45 92 46 34 47 35 48 36 49 86 50 37 51 91 52 85 53 87 54
REMARK SMILES IDX 38 55 90 56 84 57 83 58 39 60 71 61 51 62 70 63 52 64 55 65
REMARK SMILES IDX 69 66 88 67 53 68 54 69 68 71 89 72 56 73 40 74 41 75 49 76
REMARK SMILES IDX 42 77 48 78 50 79 47 80 43 81 44 82 45 83 46 84 72 85 73 86
REMARK SMILES IDX 81 87 74 88 80 89 82 90 79 91 75 92 76 93 77 94 78 95 57 96
REMARK SMILES IDX 58 97 66 98 59 99 65 100 67 101 64 102 60 103 61 104 62 105
REMARK SMILES IDX 63 106
REMARK H PARENT 13 15 6 25 87 59 55 70
REMARK Flexibility Score: inf
ROOT
ATOM      1  C   UNL A   1      42.694  20.713  25.948  1.00  0.00     0.202 C 
ENDROOT
BRANCH   1   2
ATOM      2  C   UNL A   1      41.673  20.142  26.903  1.00  0.00     0.261 C 
BRANCH   2   3
ATOM      3  O   UNL A   1      40.307  20.584  26.947  1.00  0.00    -0.460 OA
BRANCH   3   4
ATOM      4  C   UNL A   1      39.415  20.343  25.950  1.00  0.00     0.340 C 
ATOM      5  O   UNL A   1      39.198  19.300  25.410  1.00  0.00    -0.246 OA
BRANCH   4   6
ATOM      6  C   UNL A   1      38.602  21.592  25.755  1.00  0.00     0.083 A 
ATOM      7  C   UNL A   1      37.298  21.515  25.220  1.00  0.00     0.056 A 
ATOM      8  C   UNL A   1      36.500  22.669  25.150  1.00  0.00     0.027 A 
ATOM      9  C   UNL A   1      36.944  23.870  25.699  1.00  0.00     0.002 A 
ATOM     10  C   UNL A   1      39.060  22.833  26.239  1.00  0.00     0.018 A 
ATOM     11  C   UNL A   1      38.223  23.953  26.239  1.00  0.00     0.001 A 
BRANCH   7  12
ATOM     12  N   UNL A   1      36.640  20.333  24.852  1.00  0.00    -0.321 N 
ATOM     13  C   UNL A   1      35.310  19.972  24.944  1.00  0.00     0.255 C 
ATOM     14  O   UNL A   1      34.996  18.842  24.554  1.00  0.00    -0.269 OA
ATOM     15  H   UNL A   1      37.225  19.645  24.462  1.00  0.00     0.170 HD
BRANCH  13  16
ATOM     16  C   UNL A   1      34.213  20.879  25.421  1.00  0.00     0.040 A 
ATOM     17  C   UNL A   1      31.917  22.343  26.208  1.00  0.00     0.041 A 
ATOM     18  C   UNL A   1      32.943  22.079  27.109  1.00  0.00     0.027 A 
ATOM     19  C   UNL A   1      32.046  21.894  24.896  1.00  0.00     0.027 A 
ATOM     20  C   UNL A   1      34.101  21.406  26.706  1.00  0.00     0.016 A 
ATOM     21  C   UNL A   1      33.193  21.190  24.504  1.00  0.00     0.016 A 
BRANCH  17  22
ATOM     22  N   UNL A   1      30.817  23.151  26.535  1.00  0.00    -0.322 N 
ATOM     23  C   UNL A   1      30.653  24.508  26.303  1.00  0.00     0.256 C 
ATOM     24  O   UNL A   1      29.637  25.089  26.678  1.00  0.00    -0.269 OA
ATOM     25  H   UNL A   1      30.067  22.697  26.983  1.00  0.00     0.170 HD
BRANCH  23  26
ATOM     26  C   UNL A   1      31.678  25.269  25.523  1.00  0.00     0.049 A 
ATOM     27  C   UNL A   1      30.522  24.933  23.282  1.00  0.00     0.053 C 
ATOM     28  C   UNL A   1      31.744  25.254  24.107  1.00  0.00     0.039 A 
ATOM     29  C   UNL A   1      33.003  25.533  23.531  1.00  0.00     0.273 A 
ATOM     30  C   UNL A   1      32.687  25.883  26.278  1.00  0.00     0.014 A 
ATOM     31  C   UNL A   1      34.024  26.123  24.297  1.00  0.00     0.086 A 
ATOM     32  C   UNL A   1      33.833  26.365  25.655  1.00  0.00     0.008 A 
BRANCH  29  33
ATOM     33  N   UNL A   1      33.374  25.056  22.178  1.00  0.00     0.063 N 
ATOM     34  O   UNL A   1      33.670  23.856  22.058  1.00  0.00    -0.258 OA
ATOM     35  O   UNL A   1      33.363  25.854  21.234  1.00  0.00    -0.258 OA
ENDBRANCH  29  33
ENDBRANCH  23  26
ENDBRANCH  17  22
ENDBRANCH  13  16
ENDBRANCH   7  12
ENDBRANCH   4   6
ENDBRANCH   3   4
ENDBRANCH   2   3
ENDBRANCH   1   2
BRANCH   1  36
ATOM     36  O   UNL A   1      42.453  21.995  25.420  1.00  0.00    -0.374 OA
BRANCH  36  37
ATOM     37  C   UNL A   1      43.531  22.731  24.880  1.00  0.00     0.202 C 
BRANCH  37  38
ATOM     38  C   UNL A   1      43.538  24.236  25.186  1.00  0.00     0.261 C 
BRANCH  38  39
ATOM     39  O   UNL A   1      42.729  24.604  26.327  1.00  0.00    -0.460 OA
BRANCH  39  40
ATOM     40  C   UNL A   1      42.646  25.935  26.616  1.00  0.00     0.338 C 
ATOM     41  O   UNL A   1      43.581  26.715  26.573  1.00  0.00    -0.246 OA
BRANCH  40  42
ATOM     42  C   UNL A   1      41.273  26.254  27.106  1.00  0.00     0.060 A 
ATOM     43  C   UNL A   1      40.645  27.425  26.665  1.00  0.00     0.016 A 
ATOM     44  C   UNL A   1      40.836  25.633  28.268  1.00  0.00     0.016 A 
ATOM     45  C   UNL A   1      39.889  28.170  27.584  1.00  0.00     0.010 A 
ATOM     46  C   UNL A   1      40.087  26.379  29.162  1.00  0.00     0.010 A 
ATOM     47  C   UNL A   1      39.821  27.738  28.907  1.00  0.00    -0.014 A 
BRANCH  47  48
ATOM     48  C   UNL A   1      39.793  28.661  30.081  1.00  0.00     0.031 A 
ATOM     49  C   UNL A   1      38.724  29.657  30.093  1.00  0.00     0.074 A 
ATOM     50  C   UNL A   1      40.505  28.604  31.232  1.00  0.00     0.049 A 
ATOM     51  N   UNL A   1      38.794  30.832  29.560  1.00  0.00    -0.248 NA
ATOM     52  C   UNL A   1      37.406  29.263  30.605  1.00  0.00     0.031 C 
ATOM     53  C   UNL A   1      40.345  29.430  32.434  1.00  0.00     0.029 A 
ATOM     54  N   UNL A   1      41.565  27.769  31.567  1.00  0.00    -0.354 N 
ATOM     55  C   UNL A   1      37.605  31.427  29.918  1.00  0.00     0.074 A 
ATOM     56  C   UNL A   1      36.696  30.333  30.247  1.00  0.00     0.031 C 
ATOM     57  C   UNL A   1      41.419  29.269  33.232  1.00  0.00     0.029 A 
ATOM     58  C   UNL A   1      42.346  28.361  32.571  1.00  0.00     0.049 A 
ATOM     59  H   UNL A   1      41.743  26.891  31.157  1.00  0.00     0.167 HD
ATOM     60  C   UNL A   1      37.573  32.600  30.615  1.00  0.00     0.034 A 
ATOM     61  C   UNL A   1      43.678  28.526  32.354  1.00  0.00     0.034 A 
ATOM     62  C   UNL A   1      38.816  32.831  31.359  1.00  0.00     0.049 A 
ATOM     63  C   UNL A   1      43.895  29.967  31.972  1.00  0.00     0.074 A 
ATOM     64  C   UNL A   1      39.091  32.802  32.719  1.00  0.00     0.029 A 
ATOM     65  N   UNL A   1      40.051  32.873  30.719  1.00  0.00    -0.354 N 
ATOM     66  N   UNL A   1      42.895  30.782  31.770  1.00  0.00    -0.248 NA
ATOM     67  C   UNL A   1      45.181  30.639  31.852  1.00  0.00     0.031 C 
ATOM     68  C   UNL A   1      40.501  32.811  32.888  1.00  0.00     0.029 A 
ATOM     69  C   UNL A   1      41.088  32.871  31.635  1.00  0.00     0.049 A 
ATOM     70  H   UNL A   1      40.171  32.902  29.742  1.00  0.00     0.167 HD
ATOM     71  C   UNL A   1      43.343  32.028  31.493  1.00  0.00     0.074 A 
ATOM     72  C   UNL A   1      44.791  31.898  31.570  1.00  0.00     0.031 C 
ATOM     73  C   UNL A   1      42.472  33.039  31.204  1.00  0.00     0.034 A 
BRANCH  60  74
ATOM     74  C   UNL A   1      36.257  33.270  30.940  1.00  0.00     0.023 A 
ATOM     75  C   UNL A   1      35.542  33.944  29.936  1.00  0.00     0.031 A 
ATOM     76  C   UNL A   1      35.622  33.198  32.203  1.00  0.00     0.131 A 
ATOM     77  C   UNL A   1      34.318  34.577  30.216  1.00  0.00     0.055 A 
ATOM     78  C   UNL A   1      34.435  33.878  32.499  1.00  0.00     0.041 A 
ATOM     79  F   UNL A   1      36.115  32.439  33.197  1.00  0.00    -0.206 F 
ATOM     80  C   UNL A   1      33.778  34.578  31.500  1.00  0.00     0.022 A 
BRANCH  77  81
ATOM     81  S   UNL A   1      33.400  35.339  28.853  1.00  0.00     0.124 S 
ATOM     82  O   UNL A   1      34.452  36.055  28.139  1.00  0.00    -0.237 OA
ATOM     83  O   UNL A   1      32.833  34.179  28.174  1.00  0.00    -0.237 OA
ATOM     84  O   UNL A   1      32.426  36.188  29.535  1.00  0.00    -0.744 OA
ENDBRANCH  77  81
ENDBRANCH  60  74
BRANCH  61  85
ATOM     85  C   UNL A   1      44.287  27.269  31.798  1.00  0.00     0.023 A 
ATOM     86  C   UNL A   1      44.517  26.226  32.735  1.00  0.00     0.031 A 
ATOM     87  C   UNL A   1      44.150  26.897  30.451  1.00  0.00     0.131 A 
ATOM     88  C   UNL A   1      44.437  24.873  32.353  1.00  0.00     0.055 A 
ATOM     89  C   UNL A   1      44.079  25.544  30.070  1.00  0.00     0.041 A 
ATOM     90  F   UNL A   1      43.916  27.823  29.510  1.00  0.00    -0.206 F 
ATOM     91  C   UNL A   1      44.176  24.528  31.025  1.00  0.00     0.022 A 
BRANCH  88  92
ATOM     92  S   UNL A   1      44.337  23.571  33.643  1.00  0.00     0.124 S 
ATOM     93  O   UNL A   1      45.643  22.932  33.548  1.00  0.00    -0.237 OA
ATOM     94  O   UNL A   1      44.087  24.330  34.867  1.00  0.00    -0.237 OA
ATOM     95  O   UNL A   1      43.201  22.759  33.207  1.00  0.00    -0.744 OA
ENDBRANCH  88  92
ENDBRANCH  61  85
BRANCH  73  96
ATOM     96  C   UNL A   1      42.888  34.320  30.553  1.00  0.00     0.023 A 
ATOM     97  C   UNL A   1      42.934  34.448  29.162  1.00  0.00     0.031 A 
ATOM     98  C   UNL A   1      43.150  35.488  31.301  1.00  0.00     0.131 A 
ATOM     99  C   UNL A   1      43.347  35.640  28.563  1.00  0.00     0.055 A 
ATOM    100  C   UNL A   1      43.445  36.711  30.698  1.00  0.00     0.041 A 
ATOM    101  F   UNL A   1      43.121  35.493  32.642  1.00  0.00    -0.206 F 
ATOM    102  C   UNL A   1      43.572  36.787  29.317  1.00  0.00     0.022 A 
BRANCH  99 103
ATOM    103  S   UNL A   1      43.691  35.593  26.791  1.00  0.00     0.124 S 
ATOM    104  O   UNL A   1      44.938  36.352  26.712  1.00  0.00    -0.237 OA
ATOM    105  O   UNL A   1      43.807  34.162  26.528  1.00  0.00    -0.237 OA
ATOM    106  O   UNL A   1      42.527  36.247  26.199  1.00  0.00    -0.744 OA
ENDBRANCH  99 103
ENDBRANCH  73  96
ENDBRANCH  47  48
ENDBRANCH  40  42
ENDBRANCH  39  40
ENDBRANCH  38  39
ENDBRANCH  37  38
ENDBRANCH  36  37
ENDBRANCH   1  36
TORSDOF 22
ENDMDL
MODEL 2
REMARK VINA RESULT:     -12.7      3.153      9.949
REMARK SMILES Cc1c(C(=O)Nc2ccc(C(=O)Nc3ccccc3C(=O)OCCOCCOC(=O)c3ccc(-c4c5nc(c(-c6cc(S(=O)(=O)[O-])ccc6F)c6ccc([nH]6)c(-c6cc(S(=O)(=O)[O-])ccc6F)c6nc(c(-c7cc(S(=O)(=O)[O-])ccc7F)c7ccc4[nH]7)C=C6)C=C5)cc3)cc2)cccc1[N+](=O)[O-]
REMARK SMILES IDX 24 1 23 2 22 3 20 4 21 5 19 6 14 7 15 8 16 9 18 10 17 11
REMARK SMILES IDX 13 12 11 13 12 14 10 16 7 17 8 18 95 19 9 20 94 21 6 22 4 23
REMARK SMILES IDX 5 24 3 26 1 27 2 28 99 29 96 30 98 31 97 32 100 33 101 34
REMARK SMILES IDX 102 35 25 36 26 37 27 38 28 39 29 40 30 41 31 42 32 43 93 44
REMARK SMILES IDX 33 45 92 46 34 47 35 48 36 49 86 50 37 51 91 52 85 53 87 54
REMARK SMILES IDX 38 55 90 56 84 57 83 58 39 60 71 61 51 62 70 63 52 64 55 65
REMARK SMILES IDX 69 66 88 67 53 68 54 69 68 71 89 72 56 73 40 74 41 75 49 76
REMARK SMILES IDX 42 77 48 78 50 79 47 80 43 81 44 82 45 83 46 84 72 85 73 86
REMARK SMILES IDX 81 87 74 88 80 89 82 90 79 91 75 92 76 93 77 94 78 95 57 96
REMARK SMILES IDX 58 97 66 98 59 99 65 100 67 101 64 102 60 103 61 104 62 105
REMARK SMILES IDX 63 106
REMARK H PARENT 13 15 6 25 87 59 55 70
REMARK Flexibility Score: inf
ROOT
ATOM      1  C   UNL A   1      33.906  34.306  28.792  1.00  0.00     0.202 C 
ENDROOT
BRANCH   1   2
ATOM      2  C   UNL A   1      32.917  33.562  27.925  1.00  0.00     0.261 C 
BRANCH   2   3
ATOM      3  O   UNL A   1      33.072  32.180  27.570  1.00  0.00    -0.460 OA
BRANCH   3   4
ATOM      4  C   UNL A   1      32.142  31.487  26.859  1.00  0.00     0.340 C 
ATOM      5  O   UNL A   1      31.118  31.903  26.410  1.00  0.00    -0.246 OA
BRANCH   4   6
ATOM      6  C   UNL A   1      32.712  30.126  26.572  1.00  0.00     0.083 A 
ATOM      7  C   UNL A   1      32.287  29.403  25.436  1.00  0.00     0.056 A 
ATOM      8  C   UNL A   1      32.906  28.185  25.107  1.00  0.00     0.027 A 
ATOM      9  C   UNL A   1      34.007  27.733  25.833  1.00  0.00     0.002 A 
ATOM     10  C   UNL A   1      33.780  29.615  27.335  1.00  0.00     0.018 A 
ATOM     11  C   UNL A   1      34.440  28.445  26.947  1.00  0.00     0.001 A 
BRANCH   7  12
ATOM     12  N   UNL A   1      31.357  29.853  24.488  1.00  0.00    -0.321 N 
ATOM     13  C   UNL A   1      30.627  29.164  23.540  1.00  0.00     0.255 C 
ATOM     14  O   UNL A   1      29.879  29.820  22.807  1.00  0.00    -0.269 OA
ATOM     15  H   UNL A   1      31.198  30.824  24.501  1.00  0.00     0.170 HD
BRANCH  13  16
ATOM     16  C   UNL A   1      30.630  27.671  23.382  1.00  0.00     0.040 A 
ATOM     17  C   UNL A   1      30.986  24.875  23.091  1.00  0.00     0.041 A 
ATOM     18  C   UNL A   1      30.172  25.394  24.093  1.00  0.00     0.027 A 
ATOM     19  C   UNL A   1      31.608  25.755  22.211  1.00  0.00     0.027 A 
ATOM     20  C   UNL A   1      29.952  26.770  24.201  1.00  0.00     0.016 A 
ATOM     21  C   UNL A   1      31.412  27.137  22.343  1.00  0.00     0.016 A 
BRANCH  17  22
ATOM     22  N   UNL A   1      31.102  23.496  22.854  1.00  0.00    -0.322 N 
ATOM     23  C   UNL A   1      31.900  22.577  23.519  1.00  0.00     0.256 C 
ATOM     24  O   UNL A   1      31.917  21.397  23.174  1.00  0.00    -0.269 OA
ATOM     25  H   UNL A   1      30.546  23.135  22.126  1.00  0.00     0.170 HD
BRANCH  23  26
ATOM     26  C   UNL A   1      32.693  22.996  24.717  1.00  0.00     0.049 A 
ATOM     27  C   UNL A   1      34.662  23.869  23.364  1.00  0.00     0.053 C 
ATOM     28  C   UNL A   1      34.061  23.363  24.652  1.00  0.00     0.039 A 
ATOM     29  C   UNL A   1      34.812  23.209  25.838  1.00  0.00     0.273 A 
ATOM     30  C   UNL A   1      32.050  22.852  25.954  1.00  0.00     0.014 A 
ATOM     31  C   UNL A   1      34.166  23.037  27.075  1.00  0.00     0.086 A 
ATOM     32  C   UNL A   1      32.779  22.934  27.135  1.00  0.00     0.008 A 
BRANCH  29  33
ATOM     33  N   UNL A   1      36.283  23.032  25.821  1.00  0.00     0.063 N 
ATOM     34  O   UNL A   1      36.981  24.050  25.952  1.00  0.00    -0.258 OA
ATOM     35  O   UNL A   1      36.751  21.895  25.690  1.00  0.00    -0.258 OA
ENDBRANCH  29  33
ENDBRANCH  23  26
ENDBRANCH  17  22
ENDBRANCH  13  16
ENDBRANCH   7  12
ENDBRANCH   4   6
ENDBRANCH   3   4
ENDBRANCH   2   3
ENDBRANCH   1   2
BRANCH   1  36
ATOM     36  O   UNL A   1      33.778  34.182  30.187  1.00  0.00    -0.374 OA
BRANCH  36  37
ATOM     37  C   UNL A   1      34.941  34.028  30.974  1.00  0.00     0.202 C 
BRANCH  37  38
ATOM     38  C   UNL A   1      35.378  32.582  31.251  1.00  0.00     0.261 C 
BRANCH  38  39
ATOM     39  O   UNL A   1      35.666  31.819  30.057  1.00  0.00    -0.460 OA
BRANCH  39  40
ATOM     40  C   UNL A   1      36.982  31.579  29.783  1.00  0.00     0.338 C 
ATOM     41  O   UNL A   1      37.866  32.416  29.841  1.00  0.00    -0.246 OA
BRANCH  40  42
ATOM     42  C   UNL A   1      37.143  30.181  29.291  1.00  0.00     0.060 A 
ATOM     43  C   UNL A   1      37.455  29.166  30.203  1.00  0.00     0.016 A 
ATOM     44  C   UNL A   1      37.391  29.992  27.938  1.00  0.00     0.016 A 
ATOM     45  C   UNL A   1      38.370  28.174  29.819  1.00  0.00     0.010 A 
ATOM     46  C   UNL A   1      38.292  29.006  27.574  1.00  0.00     0.010 A 
ATOM     47  C   UNL A   1      38.960  28.254  28.559  1.00  0.00    -0.014 A 
BRANCH  47  48
ATOM     48  C   UNL A   1      40.376  27.866  28.281  1.00  0.00     0.031 A 
ATOM     49  C   UNL A   1      40.606  26.462  27.952  1.00  0.00     0.074 A 
ATOM     50  C   UNL A   1      41.462  28.657  28.111  1.00  0.00     0.049 A 
ATOM     51  N   UNL A   1      40.842  25.524  28.810  1.00  0.00    -0.248 NA
ATOM     52  C   UNL A   1      40.408  26.025  26.565  1.00  0.00     0.031 C 
ATOM     53  C   UNL A   1      42.809  28.262  27.681  1.00  0.00     0.029 A 
ATOM     54  N   UNL A   1      41.589  30.027  28.308  1.00  0.00    -0.354 N 
ATOM     55  C   UNL A   1      41.094  24.419  28.028  1.00  0.00     0.074 A 
ATOM     56  C   UNL A   1      40.494  24.705  26.729  1.00  0.00     0.031 C 
ATOM     57  C   UNL A   1      43.668  29.271  27.920  1.00  0.00     0.029 A 
ATOM     58  C   UNL A   1      42.931  30.357  28.551  1.00  0.00     0.049 A 
ATOM     59  H   UNL A   1      40.845  30.672  28.283  1.00  0.00     0.167 HD
ATOM     60  C   UNL A   1      42.267  23.728  28.123  1.00  0.00     0.034 A 
ATOM     61  C   UNL A   1      43.243  31.042  29.683  1.00  0.00     0.034 A 
ATOM     62  C   UNL A   1      43.346  24.551  28.681  1.00  0.00     0.049 A 
ATOM     63  C   UNL A   1      43.784  30.046  30.675  1.00  0.00     0.074 A 
ATOM     64  C   UNL A   1      44.483  25.092  28.098  1.00  0.00     0.029 A 
ATOM     65  N   UNL A   1      43.230  25.154  29.929  1.00  0.00    -0.354 N 
ATOM     66  N   UNL A   1      43.769  28.763  30.437  1.00  0.00    -0.248 NA
ATOM     67  C   UNL A   1      44.433  30.360  31.940  1.00  0.00     0.031 C 
ATOM     68  C   UNL A   1      45.038  26.037  29.001  1.00  0.00     0.029 A 
ATOM     69  C   UNL A   1      44.257  26.056  30.145  1.00  0.00     0.049 A 
ATOM     70  H   UNL A   1      42.511  24.964  30.575  1.00  0.00     0.167 HD
ATOM     71  C   UNL A   1      44.357  28.082  31.449  1.00  0.00     0.074 A 
ATOM     72  C   UNL A   1      44.775  29.129  32.369  1.00  0.00     0.031 C 
ATOM     73  C   UNL A   1      44.418  26.719  31.435  1.00  0.00     0.034 A 
BRANCH  60  74
ATOM     74  C   UNL A   1      42.496  22.477  27.303  1.00  0.00     0.023 A 
ATOM     75  C   UNL A   1      43.534  22.434  26.358  1.00  0.00     0.031 A 
ATOM     76  C   UNL A   1      41.775  21.272  27.479  1.00  0.00     0.131 A 
ATOM     77  C   UNL A   1      43.763  21.284  25.582  1.00  0.00     0.055 A 
ATOM     78  C   UNL A   1      41.961  20.148  26.666  1.00  0.00     0.041 A 
ATOM     79  F   UNL A   1      40.875  21.127  28.467  1.00  0.00    -0.206 F 
ATOM     80  C   UNL A   1      42.960  20.152  25.706  1.00  0.00     0.022 A 
BRANCH  77  81
ATOM     81  S   UNL A   1      45.182  21.262  24.456  1.00  0.00     0.124 S 
ATOM     82  O   UNL A   1      44.766  20.281  23.459  1.00  0.00    -0.237 OA
ATOM     83  O   UNL A   1      45.247  22.649  24.011  1.00  0.00    -0.237 OA
ATOM     84  O   UNL A   1      46.288  20.841  25.315  1.00  0.00    -0.744 OA
ENDBRANCH  77  81
ENDBRANCH  60  74
BRANCH  61  85
ATOM     85  C   UNL A   1      42.306  32.202  29.880  1.00  0.00     0.023 A 
ATOM     86  C   UNL A   1      41.298  32.022  30.866  1.00  0.00     0.031 A 
ATOM     87  C   UNL A   1      42.667  33.522  29.570  1.00  0.00     0.131 A 
ATOM     88  C   UNL A   1      40.812  33.110  31.617  1.00  0.00     0.055 A 
ATOM     89  C   UNL A   1      42.172  34.609  30.317  1.00  0.00     0.041 A 
ATOM     90  F   UNL A   1      43.621  33.772  28.662  1.00  0.00    -0.206 F 
ATOM     91  C   UNL A   1      41.280  34.402  31.372  1.00  0.00     0.022 A 
BRANCH  88  92
ATOM     92  S   UNL A   1      39.826  32.796  33.133  1.00  0.00     0.124 S 
ATOM     93  O   UNL A   1      39.744  31.342  33.160  1.00  0.00    -0.237 OA
ATOM     94  O   UNL A   1      40.632  33.408  34.189  1.00  0.00    -0.237 OA
ATOM     95  O   UNL A   1      38.571  33.498  32.865  1.00  0.00    -0.744 OA
ENDBRANCH  88  92
ENDBRANCH  61  85
BRANCH  73  96
ATOM     96  C   UNL A   1      44.720  25.898  32.649  1.00  0.00     0.023 A 
ATOM     97  C   UNL A   1      43.770  25.714  33.657  1.00  0.00     0.031 A 
ATOM     98  C   UNL A   1      45.930  25.185  32.787  1.00  0.00     0.131 A 
ATOM     99  C   UNL A   1      44.068  24.967  34.799  1.00  0.00     0.055 A 
ATOM    100  C   UNL A   1      46.181  24.342  33.871  1.00  0.00     0.041 A 
ATOM    101  F   UNL A   1      46.911  25.269  31.876  1.00  0.00    -0.206 F 
ATOM    102  C   UNL A   1      45.256  24.249  34.902  1.00  0.00     0.022 A 
BRANCH  99 103
ATOM    103  S   UNL A   1      42.907  25.071  36.177  1.00  0.00     0.124 S 
ATOM    104  O   UNL A   1      43.748  24.675  37.304  1.00  0.00    -0.237 OA
ATOM    105  O   UNL A   1      42.509  26.475  36.151  1.00  0.00    -0.237 OA
ATOM    106  O   UNL A   1      41.861  24.117  35.816  1.00  0.00    -0.744 OA
ENDBRANCH  99 103
ENDBRANCH  73  96
ENDBRANCH  47  48
ENDBRANCH  40  42
ENDBRANCH  39  40
ENDBRANCH  38  39
ENDBRANCH  37  38
ENDBRANCH  36  37
ENDBRANCH   1  36
TORSDOF 22
ENDMDL
MODEL 3
REMARK VINA RESULT:     -12.2      3.351      9.702
REMARK SMILES Cc1c(C(=O)Nc2ccc(C(=O)Nc3ccccc3C(=O)OCCOCCOC(=O)c3ccc(-c4c5nc(c(-c6cc(S(=O)(=O)[O-])ccc6F)c6ccc([nH]6)c(-c6cc(S(=O)(=O)[O-])ccc6F)c6nc(c(-c7cc(S(=O)(=O)[O-])ccc7F)c7ccc4[nH]7)C=C6)C=C5)cc3)cc2)cccc1[N+](=O)[O-]
REMARK SMILES IDX 24 1 23 2 22 3 20 4 21 5 19 6 14 7 15 8 16 9 18 10 17 11
REMARK SMILES IDX 13 12 11 13 12 14 10 16 7 17 8 18 95 19 9 20 94 21 6 22 4 23
REMARK SMILES IDX 5 24 3 26 1 27 2 28 99 29 96 30 98 31 97 32 100 33 101 34
REMARK SMILES IDX 102 35 25 36 26 37 27 38 28 39 29 40 30 41 31 42 32 43 93 44
REMARK SMILES IDX 33 45 92 46 34 47 35 48 36 49 86 50 37 51 91 52 85 53 87 54
REMARK SMILES IDX 38 55 90 56 84 57 83 58 39 60 71 61 51 62 70 63 52 64 55 65
REMARK SMILES IDX 69 66 88 67 53 68 54 69 68 71 89 72 56 73 40 74 41 75 49 76
REMARK SMILES IDX 42 77 48 78 50 79 47 80 43 81 44 82 45 83 46 84 72 85 73 86
REMARK SMILES IDX 81 87 74 88 80 89 82 90 79 91 75 92 76 93 77 94 78 95 57 96
REMARK SMILES IDX 58 97 66 98 59 99 65 100 67 101 64 102 60 103 61 104 62 105
REMARK SMILES IDX 63 106
REMARK H PARENT 13 15 6 25 87 59 55 70
REMARK Flexibility Score: inf
ROOT
ATOM      1  C   UNL A   1      33.747  34.432  28.864  1.00  0.00     0.202 C 
ENDROOT
BRANCH   1   2
ATOM      2  C   UNL A   1      32.946  33.705  27.811  1.00  0.00     0.261 C 
BRANCH   2   3
ATOM      3  O   UNL A   1      33.069  32.295  27.567  1.00  0.00    -0.460 OA
BRANCH   3   4
ATOM      4  C   UNL A   1      32.112  31.564  26.934  1.00  0.00     0.340 C 
ATOM      5  O   UNL A   1      31.042  31.941  26.563  1.00  0.00    -0.246 OA
BRANCH   4   6
ATOM      6  C   UNL A   1      32.706  30.221  26.611  1.00  0.00     0.083 A 
ATOM      7  C   UNL A   1      32.222  29.475  25.514  1.00  0.00     0.056 A 
ATOM      8  C   UNL A   1      32.857  28.278  25.146  1.00  0.00     0.027 A 
ATOM      9  C   UNL A   1      34.024  27.870  25.788  1.00  0.00     0.002 A 
ATOM     10  C   UNL A   1      33.846  29.754  27.293  1.00  0.00     0.018 A 
ATOM     11  C   UNL A   1      34.515  28.605  26.862  1.00  0.00     0.001 A 
BRANCH   7  12
ATOM     12  N   UNL A   1      31.208  29.886  24.637  1.00  0.00    -0.321 N 
ATOM     13  C   UNL A   1      30.437  29.166  23.746  1.00  0.00     0.255 C 
ATOM     14  O   UNL A   1      29.612  29.790  23.070  1.00  0.00    -0.269 OA
ATOM     15  H   UNL A   1      31.013  30.850  24.661  1.00  0.00     0.170 HD
BRANCH  13  16
ATOM     16  C   UNL A   1      30.486  27.674  23.590  1.00  0.00     0.040 A 
ATOM     17  C   UNL A   1      30.927  24.893  23.268  1.00  0.00     0.041 A 
ATOM     18  C   UNL A   1      30.190  25.383  24.341  1.00  0.00     0.027 A 
ATOM     19  C   UNL A   1      31.430  25.794  22.334  1.00  0.00     0.027 A 
ATOM     20  C   UNL A   1      29.924  26.749  24.468  1.00  0.00     0.016 A 
ATOM     21  C   UNL A   1      31.190  27.167  22.483  1.00  0.00     0.016 A 
BRANCH  17  22
ATOM     22  N   UNL A   1      31.077  23.519  23.023  1.00  0.00    -0.322 N 
ATOM     23  C   UNL A   1      31.983  22.640  23.597  1.00  0.00     0.256 C 
ATOM     24  O   UNL A   1      32.014  21.460  23.255  1.00  0.00    -0.269 OA
ATOM     25  H   UNL A   1      30.462  23.130  22.360  1.00  0.00     0.170 HD
BRANCH  23  26
ATOM     26  C   UNL A   1      32.884  23.100  24.701  1.00  0.00     0.049 A 
ATOM     27  C   UNL A   1      34.538  24.250  23.148  1.00  0.00     0.053 C 
ATOM     28  C   UNL A   1      34.180  23.627  24.475  1.00  0.00     0.039 A 
ATOM     29  C   UNL A   1      35.100  23.515  25.540  1.00  0.00     0.273 A 
ATOM     30  C   UNL A   1      32.437  22.833  26.002  1.00  0.00     0.014 A 
ATOM     31  C   UNL A   1      34.655  23.220  26.840  1.00  0.00     0.086 A 
ATOM     32  C   UNL A   1      33.309  22.954  27.079  1.00  0.00     0.008 A 
BRANCH  29  33
ATOM     33  N   UNL A   1      36.566  23.511  25.318  1.00  0.00     0.063 N 
ATOM     34  O   UNL A   1      37.285  23.895  26.254  1.00  0.00    -0.258 OA
ATOM     35  O   UNL A   1      37.010  23.121  24.232  1.00  0.00    -0.258 OA
ENDBRANCH  29  33
ENDBRANCH  23  26
ENDBRANCH  17  22
ENDBRANCH  13  16
ENDBRANCH   7  12
ENDBRANCH   4   6
ENDBRANCH   3   4
ENDBRANCH   2   3
ENDBRANCH   1   2
BRANCH   1  36
ATOM     36  O   UNL A   1      33.213  34.499  30.164  1.00  0.00    -0.374 OA
BRANCH  36  37
ATOM     37  C   UNL A   1      33.665  35.509  31.043  1.00  0.00     0.202 C 
BRANCH  37  38
ATOM     38  C   UNL A   1      34.531  35.038  32.220  1.00  0.00     0.261 C 
BRANCH  38  39
ATOM     39  O   UNL A   1      35.577  34.114  31.843  1.00  0.00    -0.460 OA
BRANCH  39  40
ATOM     40  C   UNL A   1      35.514  32.861  32.382  1.00  0.00     0.338 C 
ATOM     41  O   UNL A   1      35.275  32.620  33.552  1.00  0.00    -0.246 OA
BRANCH  40  42
ATOM     42  C   UNL A   1      35.899  31.854  31.351  1.00  0.00     0.060 A 
ATOM     43  C   UNL A   1      36.148  30.534  31.744  1.00  0.00     0.016 A 
ATOM     44  C   UNL A   1      36.397  32.319  30.141  1.00  0.00     0.016 A 
ATOM     45  C   UNL A   1      37.211  29.843  31.143  1.00  0.00     0.010 A 
ATOM     46  C   UNL A   1      37.443  31.624  29.558  1.00  0.00     0.010 A 
ATOM     47  C   UNL A   1      38.001  30.505  30.206  1.00  0.00    -0.014 A 
BRANCH  47  48
ATOM     48  C   UNL A   1      39.475  30.303  30.073  1.00  0.00     0.031 A 
ATOM     49  C   UNL A   1      39.900  29.178  29.243  1.00  0.00     0.074 A 
ATOM     50  C   UNL A   1      40.488  31.114  30.461  1.00  0.00     0.049 A 
ATOM     51  N   UNL A   1      40.083  27.970  29.663  1.00  0.00    -0.248 NA
ATOM     52  C   UNL A   1      39.981  29.370  27.790  1.00  0.00     0.031 C 
ATOM     53  C   UNL A   1      41.921  30.969  30.177  1.00  0.00     0.029 A 
ATOM     54  N   UNL A   1      40.440  32.272  31.229  1.00  0.00    -0.354 N 
ATOM     55  C   UNL A   1      40.573  27.309  28.559  1.00  0.00     0.074 A 
ATOM     56  C   UNL A   1      40.172  28.109  27.406  1.00  0.00     0.031 C 
ATOM     57  C   UNL A   1      42.621  31.798  30.975  1.00  0.00     0.029 A 
ATOM     58  C   UNL A   1      41.682  32.496  31.843  1.00  0.00     0.049 A 
ATOM     59  H   UNL A   1      39.649  32.850  31.328  1.00  0.00     0.167 HD
ATOM     60  C   UNL A   1      41.778  26.669  28.585  1.00  0.00     0.034 A 
ATOM     61  C   UNL A   1      41.729  32.640  33.194  1.00  0.00     0.034 A 
ATOM     62  C   UNL A   1      42.659  27.198  29.633  1.00  0.00     0.049 A 
ATOM     63  C   UNL A   1      42.195  31.328  33.768  1.00  0.00     0.074 A 
ATOM     64  C   UNL A   1      43.816  27.960  29.560  1.00  0.00     0.029 A 
ATOM     65  N   UNL A   1      42.275  27.209  30.970  1.00  0.00    -0.354 N 
ATOM     66  N   UNL A   1      42.352  30.268  33.022  1.00  0.00    -0.248 NA
ATOM     67  C   UNL A   1      42.589  31.087  35.149  1.00  0.00     0.031 C 
ATOM     68  C   UNL A   1      44.113  28.442  30.862  1.00  0.00     0.029 A 
ATOM     69  C   UNL A   1      43.154  27.955  31.735  1.00  0.00     0.049 A 
ATOM     70  H   UNL A   1      41.481  26.747  31.325  1.00  0.00     0.167 HD
ATOM     71  C   UNL A   1      42.828  29.234  33.753  1.00  0.00     0.074 A 
ATOM     72  C   UNL A   1      42.978  29.797  35.087  1.00  0.00     0.031 C 
ATOM     73  C   UNL A   1      43.029  28.008  33.188  1.00  0.00     0.034 A 
BRANCH  60  74
ATOM     74  C   UNL A   1      42.267  25.892  27.383  1.00  0.00     0.023 A 
ATOM     75  C   UNL A   1      42.080  24.502  27.318  1.00  0.00     0.031 A 
ATOM     76  C   UNL A   1      42.844  26.489  26.236  1.00  0.00     0.131 A 
ATOM     77  C   UNL A   1      42.529  23.760  26.211  1.00  0.00     0.055 A 
ATOM     78  C   UNL A   1      43.346  25.745  25.162  1.00  0.00     0.041 A 
ATOM     79  F   UNL A   1      42.920  27.824  26.099  1.00  0.00    -0.206 F 
ATOM     80  C   UNL A   1      43.193  24.368  25.149  1.00  0.00     0.022 A 
BRANCH  77  81
ATOM     81  S   UNL A   1      42.163  21.987  26.147  1.00  0.00     0.124 S 
ATOM     82  O   UNL A   1      42.571  21.541  27.475  1.00  0.00    -0.237 OA
ATOM     83  O   UNL A   1      40.731  21.975  25.873  1.00  0.00    -0.237 OA
ATOM     84  O   UNL A   1      43.002  21.508  25.049  1.00  0.00    -0.744 OA
ENDBRANCH  77  81
ENDBRANCH  60  74
BRANCH  61  85
ATOM     85  C   UNL A   1      40.659  33.584  33.667  1.00  0.00     0.023 A 
ATOM     86  C   UNL A   1      39.588  32.993  34.391  1.00  0.00     0.031 A 
ATOM     87  C   UNL A   1      40.903  34.948  33.890  1.00  0.00     0.131 A 
ATOM     88  C   UNL A   1      38.920  33.701  35.409  1.00  0.00     0.055 A 
ATOM     89  C   UNL A   1      40.228  35.656  34.903  1.00  0.00     0.041 A 
ATOM     90  F   UNL A   1      41.906  35.572  33.255  1.00  0.00    -0.206 F 
ATOM     91  C   UNL A   1      39.268  35.022  35.696  1.00  0.00     0.022 A 
BRANCH  88  92
ATOM     92  S   UNL A   1      37.836  32.794  36.581  1.00  0.00     0.124 S 
ATOM     93  O   UNL A   1      38.520  32.984  37.854  1.00  0.00    -0.237 OA
ATOM     94  O   UNL A   1      36.550  33.474  36.442  1.00  0.00    -0.237 OA
ATOM     95  O   UNL A   1      37.845  31.430  36.054  1.00  0.00    -0.744 OA
ENDBRANCH  88  92
ENDBRANCH  61  85
BRANCH  73  96
ATOM     96  C   UNL A   1      43.206  26.755  33.986  1.00  0.00     0.023 A 
ATOM     97  C   UNL A   1      44.434  26.089  34.032  1.00  0.00     0.031 A 
ATOM     98  C   UNL A   1      42.182  26.244  34.812  1.00  0.00     0.131 A 
ATOM     99  C   UNL A   1      44.584  24.907  34.761  1.00  0.00     0.055 A 
ATOM    100  C   UNL A   1      42.369  25.131  35.633  1.00  0.00     0.041 A 
ATOM    101  F   UNL A   1      40.965  26.807  34.864  1.00  0.00    -0.206 F 
ATOM    102  C   UNL A   1      43.571  24.437  35.591  1.00  0.00     0.022 A 
BRANCH  99 103
ATOM    103  S   UNL A   1      46.094  23.957  34.484  1.00  0.00     0.124 S 
ATOM    104  O   UNL A   1      46.712  24.697  33.386  1.00  0.00    -0.237 OA
ATOM    105  O   UNL A   1      46.773  24.059  35.772  1.00  0.00    -0.237 OA
ATOM    106  O   UNL A   1      45.603  22.626  34.138  1.00  0.00    -0.744 OA
ENDBRANCH  99 103
ENDBRANCH  73  96
ENDBRANCH  47  48
ENDBRANCH  40  42
ENDBRANCH  39  40
ENDBRANCH  38  39
ENDBRANCH  37  38
ENDBRANCH  36  37
ENDBRANCH   1  36
TORSDOF 22
ENDMDL
