MODEL 1
REMARK VINA RESULT:     -12.1      0.000      0.000
REMARK SMILES CCc1cc(N2CCC[C@H](C(=O)OCCOCCOC(=O)c3ccc(-c4c5nc(c(-c6cc(S(=O)(=O)[O-])ccc6F)c6ccc([nH]6)c(-c6cc(S(=O)(=O)[O-])ccc6F)c6nc(c(-c7cc(S(=O)(=O)[O-])ccc7F)c7ccc4[nH]7)C=C6)C=C5)cc3)C2)nc(-c2ccc(Cl)cc2)n1
REMARK SMILES IDX 17 1 16 2 15 3 14 4 13 5 11 6 12 7 10 8 6 9 7 10 85 11 8 12
REMARK SMILES IDX 9 13 5 14 3 15 4 16 95 17 87 18 86 19 2 20 1 21 88 22 89 23
REMARK SMILES IDX 94 24 90 25 93 26 91 27 92 28 18 29 19 30 20 31 21 32 22 33
REMARK SMILES IDX 23 34 84 35 24 36 83 37 25 38 26 39 27 40 77 41 28 42 82 43
REMARK SMILES IDX 76 44 78 45 29 46 81 47 75 48 74 49 30 51 62 52 42 53 61 54
REMARK SMILES IDX 43 55 46 56 60 57 79 58 44 59 45 60 59 62 80 63 47 64 31 65
REMARK SMILES IDX 32 66 40 67 33 68 39 69 41 70 38 71 34 72 35 73 36 74 37 75
REMARK SMILES IDX 63 76 64 77 72 78 65 79 71 80 73 81 70 82 66 83 67 84 68 85
REMARK SMILES IDX 69 86 48 87 49 88 57 89 50 90 56 91 58 92 55 93 51 94 52 95
REMARK SMILES IDX 53 96 54 97
REMARK H PARENT 78 50 46 61
REMARK Flexibility Score: inf
ROOT
ATOM      1  C   UNL A   1      32.573  29.706  25.012  1.00  0.00     0.202 C 
ENDROOT
BRANCH   1   2
ATOM      2  O   UNL A   1      32.079  28.415  24.655  1.00  0.00    -0.374 OA
BRANCH   2   3
ATOM      3  C   UNL A   1      31.420  27.668  25.670  1.00  0.00     0.202 C 
BRANCH   3   4
ATOM      4  C   UNL A   1      32.196  26.497  26.270  1.00  0.00     0.261 C 
BRANCH   4   5
ATOM      5  O   UNL A   1      32.432  25.436  25.341  1.00  0.00    -0.463 OA
BRANCH   5   6
ATOM      6  C   UNL A   1      31.440  24.524  25.194  1.00  0.00     0.310 C 
ATOM      7  O   UNL A   1      30.985  23.821  26.092  1.00  0.00    -0.252 OA
BRANCH   6   8
ATOM      8  C   UNL A   1      30.918  24.439  23.772  1.00  0.00     0.118 C 
ATOM      9  N   UNL A   1      32.627  22.960  22.833  1.00  0.00    -0.356 N 
ATOM     10  C   UNL A   1      33.140  23.937  21.883  1.00  0.00     0.118 C 
ATOM     11  C   UNL A   1      31.228  23.046  23.232  1.00  0.00     0.133 C 
ATOM     12  C   UNL A   1      32.828  25.362  22.327  1.00  0.00     0.022 C 
ATOM     13  C   UNL A   1      31.380  25.529  22.793  1.00  0.00     0.019 C 
BRANCH   9  14
ATOM     14  C   UNL A   1      33.501  22.149  23.538  1.00  0.00     0.132 A 
ATOM     15  C   UNL A   1      35.549  21.878  24.700  1.00  0.00     0.046 A 
ATOM     16  C   UNL A   1      34.706  22.683  23.967  1.00  0.00     0.070 A 
ATOM     17  N   UNL A   1      35.223  20.616  25.010  1.00  0.00    -0.233 NA
ATOM     18  C   UNL A   1      34.052  20.154  24.537  1.00  0.00     0.161 A 
ATOM     19  N   UNL A   1      33.168  20.872  23.809  1.00  0.00    -0.211 NA
BRANCH  15  20
ATOM     20  C   UNL A   1      36.848  22.411  25.242  1.00  0.00     0.053 C 
ATOM     21  C   UNL A   1      36.668  23.716  26.007  1.00  0.00     0.011 C 
ENDBRANCH  15  20
BRANCH  18  22
ATOM     22  C   UNL A   1      33.801  18.728  24.783  1.00  0.00     0.019 A 
ATOM     23  C   UNL A   1      34.465  17.734  24.044  1.00  0.00     0.013 A 
ATOM     24  C   UNL A   1      32.812  18.310  25.686  1.00  0.00     0.013 A 
ATOM     25  C   UNL A   1      34.161  16.377  24.217  1.00  0.00     0.021 A 
ATOM     26  C   UNL A   1      32.516  16.956  25.878  1.00  0.00     0.021 A 
ATOM     27  C   UNL A   1      33.199  15.993  25.145  1.00  0.00     0.041 A 
ATOM     28  Cl  UNL A   1      32.837  14.331  25.382  1.00  0.00    -0.084 Cl
ENDBRANCH  18  22
ENDBRANCH   9  14
ENDBRANCH   6   8
ENDBRANCH   5   6
ENDBRANCH   4   5
ENDBRANCH   3   4
ENDBRANCH   2   3
ENDBRANCH   1   2
BRANCH   1  29
ATOM     29  C   UNL A   1      31.693  30.573  25.924  1.00  0.00     0.261 C 
BRANCH  29  30
ATOM     30  O   UNL A   1      32.233  30.771  27.249  1.00  0.00    -0.460 OA
BRANCH  30  31
ATOM     31  C   UNL A   1      33.061  31.837  27.368  1.00  0.00     0.338 C 
ATOM     32  O   UNL A   1      32.737  33.023  27.286  1.00  0.00    -0.246 OA
BRANCH  31  33
ATOM     33  C   UNL A   1      34.428  31.442  27.746  1.00  0.00     0.060 A 
ATOM     34  C   UNL A   1      34.683  30.081  27.958  1.00  0.00     0.016 A 
ATOM     35  C   UNL A   1      35.398  32.397  28.063  1.00  0.00     0.016 A 
ATOM     36  C   UNL A   1      35.887  29.673  28.536  1.00  0.00     0.010 A 
ATOM     37  C   UNL A   1      36.603  31.985  28.652  1.00  0.00     0.010 A 
ATOM     38  C   UNL A   1      36.838  30.626  28.928  1.00  0.00    -0.014 A 
BRANCH  38  39
ATOM     39  C   UNL A   1      38.009  30.201  29.743  1.00  0.00     0.031 A 
ATOM     40  C   UNL A   1      39.014  29.246  29.158  1.00  0.00     0.074 A 
ATOM     41  C   UNL A   1      38.192  30.683  30.986  1.00  0.00     0.049 A 
ATOM     42  N   UNL A   1      40.096  28.744  29.698  1.00  0.00    -0.248 NA
ATOM     43  C   UNL A   1      38.754  28.781  27.788  1.00  0.00     0.031 C 
ATOM     44  C   UNL A   1      37.287  31.606  31.662  1.00  0.00     0.029 A 
ATOM     45  N   UNL A   1      39.196  30.465  31.898  1.00  0.00    -0.354 N 
ATOM     46  C   UNL A   1      40.638  27.890  28.744  1.00  0.00     0.074 A 
ATOM     47  C   UNL A   1      39.752  27.929  27.599  1.00  0.00     0.031 C 
ATOM     48  C   UNL A   1      37.786  31.885  32.878  1.00  0.00     0.029 A 
ATOM     49  C   UNL A   1      39.039  31.164  33.073  1.00  0.00     0.049 A 
ATOM     50  H   UNL A   1      39.958  29.866  31.727  1.00  0.00     0.167 HD
ATOM     51  C   UNL A   1      41.766  27.140  28.818  1.00  0.00     0.034 A 
ATOM     52  C   UNL A   1      39.810  31.219  34.178  1.00  0.00     0.034 A 
ATOM     53  C   UNL A   1      42.640  27.103  29.967  1.00  0.00     0.049 A 
ATOM     54  C   UNL A   1      41.063  30.378  34.234  1.00  0.00     0.074 A 
ATOM     55  C   UNL A   1      43.802  26.372  30.145  1.00  0.00     0.029 A 
ATOM     56  N   UNL A   1      42.447  27.825  31.137  1.00  0.00    -0.354 N 
ATOM     57  N   UNL A   1      41.558  29.571  33.323  1.00  0.00    -0.248 NA
ATOM     58  C   UNL A   1      41.855  30.447  35.469  1.00  0.00     0.031 C 
ATOM     59  C   UNL A   1      44.278  26.605  31.440  1.00  0.00     0.029 A 
ATOM     60  C   UNL A   1      43.454  27.537  32.048  1.00  0.00     0.049 A 
ATOM     61  H   UNL A   1      41.704  28.450  31.299  1.00  0.00     0.167 HD
ATOM     62  C   UNL A   1      42.723  29.045  33.876  1.00  0.00     0.074 A 
ATOM     63  C   UNL A   1      42.875  29.651  35.182  1.00  0.00     0.031 C 
ATOM     64  C   UNL A   1      43.583  28.133  33.356  1.00  0.00     0.034 A 
BRANCH  51  65
ATOM     65  C   UNL A   1      42.081  26.248  27.642  1.00  0.00     0.023 A 
ATOM     66  C   UNL A   1      41.640  24.915  27.581  1.00  0.00     0.031 A 
ATOM     67  C   UNL A   1      42.856  26.737  26.574  1.00  0.00     0.131 A 
ATOM     68  C   UNL A   1      42.029  24.100  26.506  1.00  0.00     0.055 A 
ATOM     69  C   UNL A   1      43.178  25.941  25.473  1.00  0.00     0.041 A 
ATOM     70  F   UNL A   1      43.324  27.995  26.589  1.00  0.00    -0.206 F 
ATOM     71  C   UNL A   1      42.775  24.610  25.441  1.00  0.00     0.022 A 
BRANCH  68  72
ATOM     72  S   UNL A   1      41.653  22.326  26.581  1.00  0.00     0.124 S 
ATOM     73  O   UNL A   1      40.193  22.334  26.565  1.00  0.00    -0.237 OA
ATOM     74  O   UNL A   1      42.303  21.814  25.380  1.00  0.00    -0.237 OA
ATOM     75  O   UNL A   1      42.253  21.901  27.844  1.00  0.00    -0.744 OA
ENDBRANCH  68  72
ENDBRANCH  51  65
BRANCH  52  76
ATOM     76  C   UNL A   1      39.426  32.078  35.338  1.00  0.00     0.023 A 
ATOM     77  C   UNL A   1      38.720  31.545  36.431  1.00  0.00     0.031 A 
ATOM     78  C   UNL A   1      39.703  33.456  35.347  1.00  0.00     0.131 A 
ATOM     79  C   UNL A   1      38.272  32.392  37.459  1.00  0.00     0.055 A 
ATOM     80  C   UNL A   1      39.313  34.283  36.403  1.00  0.00     0.041 A 
ATOM     81  F   UNL A   1      40.368  34.022  34.329  1.00  0.00    -0.206 F 
ATOM     82  C   UNL A   1      38.579  33.754  37.460  1.00  0.00     0.022 A 
BRANCH  79  83
ATOM     83  S   UNL A   1      37.187  31.709  38.743  1.00  0.00     0.124 S 
ATOM     84  O   UNL A   1      36.019  32.576  38.637  1.00  0.00    -0.237 OA
ATOM     85  O   UNL A   1      37.011  30.334  38.288  1.00  0.00    -0.237 OA
ATOM     86  O   UNL A   1      37.969  31.863  39.967  1.00  0.00    -0.744 OA
ENDBRANCH  79  83
ENDBRANCH  52  76
BRANCH  64  87
ATOM     87  C   UNL A   1      44.775  27.757  34.203  1.00  0.00     0.023 A 
ATOM     88  C   UNL A   1      44.735  26.664  35.087  1.00  0.00     0.031 A 
ATOM     89  C   UNL A   1      45.960  28.511  34.135  1.00  0.00     0.131 A 
ATOM     90  C   UNL A   1      45.839  26.387  35.908  1.00  0.00     0.055 A 
ATOM     91  C   UNL A   1      47.074  28.198  34.916  1.00  0.00     0.041 A 
ATOM     92  F   UNL A   1      46.053  29.565  33.309  1.00  0.00    -0.206 F 
ATOM     93  C   UNL A   1      47.013  27.138  35.817  1.00  0.00     0.022 A 
BRANCH  90  94
ATOM     94  S   UNL A   1      45.692  25.079  37.157  1.00  0.00     0.124 S 
ATOM     95  O   UNL A   1      44.912  25.738  38.199  1.00  0.00    -0.237 OA
ATOM     96  O   UNL A   1      45.007  24.021  36.422  1.00  0.00    -0.237 OA
ATOM     97  O   UNL A   1      47.080  24.786  37.512  1.00  0.00    -0.744 OA
ENDBRANCH  90  94
ENDBRANCH  64  87
ENDBRANCH  38  39
ENDBRANCH  31  33
ENDBRANCH  30  31
ENDBRANCH  29  30
ENDBRANCH   1  29
TORSDOF 20
ENDMDL
MODEL 2
REMARK VINA RESULT:     -11.9      5.214     10.403
REMARK SMILES CCc1cc(N2CCC[C@H](C(=O)OCCOCCOC(=O)c3ccc(-c4c5nc(c(-c6cc(S(=O)(=O)[O-])ccc6F)c6ccc([nH]6)c(-c6cc(S(=O)(=O)[O-])ccc6F)c6nc(c(-c7cc(S(=O)(=O)[O-])ccc7F)c7ccc4[nH]7)C=C6)C=C5)cc3)C2)nc(-c2ccc(Cl)cc2)n1
REMARK SMILES IDX 17 1 16 2 15 3 14 4 13 5 11 6 12 7 10 8 6 9 7 10 85 11 8 12
REMARK SMILES IDX 9 13 5 14 3 15 4 16 95 17 87 18 86 19 2 20 1 21 88 22 89 23
REMARK SMILES IDX 94 24 90 25 93 26 91 27 92 28 18 29 19 30 20 31 21 32 22 33
REMARK SMILES IDX 23 34 84 35 24 36 83 37 25 38 26 39 27 40 77 41 28 42 82 43
REMARK SMILES IDX 76 44 78 45 29 46 81 47 75 48 74 49 30 51 62 52 42 53 61 54
REMARK SMILES IDX 43 55 46 56 60 57 79 58 44 59 45 60 59 62 80 63 47 64 31 65
REMARK SMILES IDX 32 66 40 67 33 68 39 69 41 70 38 71 34 72 35 73 36 74 37 75
REMARK SMILES IDX 63 76 64 77 72 78 65 79 71 80 73 81 70 82 66 83 67 84 68 85
REMARK SMILES IDX 69 86 48 87 49 88 57 89 50 90 56 91 58 92 55 93 51 94 52 95
REMARK SMILES IDX 53 96 54 97
REMARK H PARENT 78 50 46 61
REMARK Flexibility Score: inf
ROOT
ATOM      1  C   UNL A   1      36.330  20.724  25.006  1.00  0.00     0.202 C 
ENDROOT
BRANCH   1   2
ATOM      2  O   UNL A   1      36.481  22.120  24.752  1.00  0.00    -0.374 OA
BRANCH   2   3
ATOM      3  C   UNL A   1      35.775  22.660  23.641  1.00  0.00     0.202 C 
BRANCH   3   4
ATOM      4  C   UNL A   1      35.174  24.052  23.825  1.00  0.00     0.261 C 
BRANCH   4   5
ATOM      5  O   UNL A   1      33.745  24.055  23.868  1.00  0.00    -0.463 OA
BRANCH   5   6
ATOM      6  C   UNL A   1      33.102  23.648  22.747  1.00  0.00     0.310 C 
ATOM      7  O   UNL A   1      33.355  24.028  21.607  1.00  0.00    -0.252 OA
BRANCH   6   8
ATOM      8  C   UNL A   1      31.999  22.645  23.027  1.00  0.00     0.118 C 
ATOM      9  N   UNL A   1      30.673  23.974  24.597  1.00  0.00    -0.356 N 
ATOM     10  C   UNL A   1      30.868  23.078  25.728  1.00  0.00     0.118 C 
ATOM     11  C   UNL A   1      30.700  23.413  23.252  1.00  0.00     0.133 C 
ATOM     12  C   UNL A   1      32.126  22.234  25.557  1.00  0.00     0.022 C 
ATOM     13  C   UNL A   1      32.246  21.632  24.155  1.00  0.00     0.019 C 
BRANCH   9  14
ATOM     14  C   UNL A   1      30.730  25.346  24.777  1.00  0.00     0.132 A 
ATOM     15  C   UNL A   1      31.427  27.209  26.068  1.00  0.00     0.046 A 
ATOM     16  C   UNL A   1      31.342  25.842  25.918  1.00  0.00     0.070 A 
ATOM     17  N   UNL A   1      30.949  28.048  25.140  1.00  0.00    -0.233 NA
ATOM     18  C   UNL A   1      30.344  27.499  24.074  1.00  0.00     0.161 A 
ATOM     19  N   UNL A   1      30.212  26.173  23.849  1.00  0.00    -0.211 NA
BRANCH  15  20
ATOM     20  C   UNL A   1      32.127  27.813  27.256  1.00  0.00     0.053 C 
ATOM     21  C   UNL A   1      32.052  29.333  27.266  1.00  0.00     0.011 C 
ENDBRANCH  15  20
BRANCH  18  22
ATOM     22  C   UNL A   1      29.714  28.456  23.154  1.00  0.00     0.019 A 
ATOM     23  C   UNL A   1      30.487  29.338  22.381  1.00  0.00     0.013 A 
ATOM     24  C   UNL A   1      28.320  28.597  23.095  1.00  0.00     0.013 A 
ATOM     25  C   UNL A   1      29.887  30.310  21.569  1.00  0.00     0.021 A 
ATOM     26  C   UNL A   1      27.711  29.552  22.274  1.00  0.00     0.021 A 
ATOM     27  C   UNL A   1      28.500  30.402  21.508  1.00  0.00     0.041 A 
ATOM     28  Cl  UNL A   1      27.752  31.574  20.498  1.00  0.00    -0.084 Cl
ENDBRANCH  18  22
ENDBRANCH   9  14
ENDBRANCH   6   8
ENDBRANCH   5   6
ENDBRANCH   4   5
ENDBRANCH   3   4
ENDBRANCH   2   3
ENDBRANCH   1   2
BRANCH   1  29
ATOM     29  C   UNL A   1      37.606  19.908  25.259  1.00  0.00     0.261 C 
BRANCH  29  30
ATOM     30  O   UNL A   1      38.827  20.666  25.123  1.00  0.00    -0.460 OA
BRANCH  30  31
ATOM     31  C   UNL A   1      39.687  20.546  26.163  1.00  0.00     0.338 C 
ATOM     32  O   UNL A   1      40.231  19.508  26.541  1.00  0.00    -0.246 OA
BRANCH  31  33
ATOM     33  C   UNL A   1      40.029  21.850  26.758  1.00  0.00     0.060 A 
ATOM     34  C   UNL A   1      39.442  22.996  26.207  1.00  0.00     0.016 A 
ATOM     35  C   UNL A   1      41.039  21.967  27.716  1.00  0.00     0.016 A 
ATOM     36  C   UNL A   1      39.899  24.264  26.574  1.00  0.00     0.010 A 
ATOM     37  C   UNL A   1      41.503  23.241  28.075  1.00  0.00     0.010 A 
ATOM     38  C   UNL A   1      40.963  24.395  27.478  1.00  0.00    -0.014 A 
BRANCH  38  39
ATOM     39  C   UNL A   1      41.588  25.730  27.686  1.00  0.00     0.031 A 
ATOM     40  C   UNL A   1      40.861  26.773  28.491  1.00  0.00     0.074 A 
ATOM     41  C   UNL A   1      42.807  26.003  27.185  1.00  0.00     0.049 A 
ATOM     42  N   UNL A   1      41.222  27.997  28.785  1.00  0.00    -0.248 NA
ATOM     43  C   UNL A   1      39.545  26.390  29.021  1.00  0.00     0.031 C 
ATOM     44  C   UNL A   1      43.604  25.080  26.385  1.00  0.00     0.029 A 
ATOM     45  N   UNL A   1      43.585  27.133  27.274  1.00  0.00    -0.354 N 
ATOM     46  C   UNL A   1      40.171  28.539  29.517  1.00  0.00     0.074 A 
ATOM     47  C   UNL A   1      39.152  27.514  29.605  1.00  0.00     0.031 C 
ATOM     48  C   UNL A   1      44.765  25.677  26.068  1.00  0.00     0.029 A 
ATOM     49  C   UNL A   1      44.798  27.021  26.635  1.00  0.00     0.049 A 
ATOM     50  H   UNL A   1      43.301  27.945  27.752  1.00  0.00     0.167 HD
ATOM     51  C   UNL A   1      40.065  29.778  30.060  1.00  0.00     0.034 A 
ATOM     52  C   UNL A   1      45.818  27.896  26.516  1.00  0.00     0.034 A 
ATOM     53  C   UNL A   1      41.084  30.795  29.961  1.00  0.00     0.049 A 
ATOM     54  C   UNL A   1      45.677  29.266  27.135  1.00  0.00     0.074 A 
ATOM     55  C   UNL A   1      41.071  32.083  30.471  1.00  0.00     0.029 A 
ATOM     56  N   UNL A   1      42.299  30.644  29.306  1.00  0.00    -0.354 N 
ATOM     57  N   UNL A   1      44.673  29.764  27.820  1.00  0.00    -0.248 NA
ATOM     58  C   UNL A   1      46.800  30.196  26.955  1.00  0.00     0.031 C 
ATOM     59  C   UNL A   1      42.248  32.728  30.074  1.00  0.00     0.029 A 
ATOM     60  C   UNL A   1      43.030  31.822  29.378  1.00  0.00     0.049 A 
ATOM     61  H   UNL A   1      42.599  29.822  28.856  1.00  0.00     0.167 HD
ATOM     62  C   UNL A   1      45.051  31.061  28.158  1.00  0.00     0.074 A 
ATOM     63  C   UNL A   1      46.386  31.257  27.632  1.00  0.00     0.031 C 
ATOM     64  C   UNL A   1      44.353  32.011  28.831  1.00  0.00     0.034 A 
BRANCH  51  65
ATOM     65  C   UNL A   1      38.769  30.117  30.756  1.00  0.00     0.023 A 
ATOM     66  C   UNL A   1      37.732  30.802  30.102  1.00  0.00     0.031 A 
ATOM     67  C   UNL A   1      38.582  29.768  32.107  1.00  0.00     0.131 A 
ATOM     68  C   UNL A   1      36.580  31.171  30.815  1.00  0.00     0.055 A 
ATOM     69  C   UNL A   1      37.403  30.073  32.790  1.00  0.00     0.041 A 
ATOM     70  F   UNL A   1      39.548  29.133  32.789  1.00  0.00    -0.206 F 
ATOM     71  C   UNL A   1      36.398  30.791  32.147  1.00  0.00     0.022 A 
BRANCH  68  72
ATOM     72  S   UNL A   1      35.374  32.264  30.013  1.00  0.00     0.124 S 
ATOM     73  O   UNL A   1      34.910  31.430  28.908  1.00  0.00    -0.237 OA
ATOM     74  O   UNL A   1      34.409  32.507  31.079  1.00  0.00    -0.237 OA
ATOM     75  O   UNL A   1      36.171  33.423  29.618  1.00  0.00    -0.744 OA
ENDBRANCH  68  72
ENDBRANCH  51  65
BRANCH  52  76
ATOM     76  C   UNL A   1      47.059  27.529  25.771  1.00  0.00     0.023 A 
ATOM     77  C   UNL A   1      47.214  27.863  24.414  1.00  0.00     0.031 A 
ATOM     78  C   UNL A   1      48.084  26.787  26.383  1.00  0.00     0.131 A 
ATOM     79  C   UNL A   1      48.339  27.412  23.703  1.00  0.00     0.055 A 
ATOM     80  C   UNL A   1      49.232  26.396  25.690  1.00  0.00     0.041 A 
ATOM     81  F   UNL A   1      47.990  26.434  27.675  1.00  0.00    -0.206 F 
ATOM     82  C   UNL A   1      49.357  26.696  24.337  1.00  0.00     0.022 A 
BRANCH  79  83
ATOM     83  S   UNL A   1      48.404  27.679  21.910  1.00  0.00     0.124 S 
ATOM     84  O   UNL A   1      47.086  28.246  21.646  1.00  0.00    -0.237 OA
ATOM     85  O   UNL A   1      49.534  28.593  21.782  1.00  0.00    -0.237 OA
ATOM     86  O   UNL A   1      48.625  26.338  21.374  1.00  0.00    -0.744 OA
ENDBRANCH  79  83
ENDBRANCH  52  76
BRANCH  64  87
ATOM     87  C   UNL A   1      45.039  33.338  29.049  1.00  0.00     0.023 A 
ATOM     88  C   UNL A   1      45.847  33.573  30.176  1.00  0.00     0.031 A 
ATOM     89  C   UNL A   1      44.869  34.384  28.125  1.00  0.00     0.131 A 
ATOM     90  C   UNL A   1      46.412  34.841  30.379  1.00  0.00     0.055 A 
ATOM     91  C   UNL A   1      45.478  35.628  28.305  1.00  0.00     0.041 A 
ATOM     92  F   UNL A   1      44.108  34.214  27.032  1.00  0.00    -0.206 F 
ATOM     93  C   UNL A   1      46.245  35.865  29.443  1.00  0.00     0.022 A 
BRANCH  90  94
ATOM     94  S   UNL A   1      47.306  35.160  31.925  1.00  0.00     0.124 S 
ATOM     95  O   UNL A   1      46.737  36.435  32.349  1.00  0.00    -0.237 OA
ATOM     96  O   UNL A   1      46.950  34.002  32.737  1.00  0.00    -0.237 OA
ATOM     97  O   UNL A   1      48.706  35.215  31.507  1.00  0.00    -0.744 OA
ENDBRANCH  90  94
ENDBRANCH  64  87
ENDBRANCH  38  39
ENDBRANCH  31  33
ENDBRANCH  30  31
ENDBRANCH  29  30
ENDBRANCH   1  29
TORSDOF 20
ENDMDL
MODEL 3
REMARK VINA RESULT:     -11.9      5.305      8.346
REMARK SMILES CCc1cc(N2CCC[C@H](C(=O)OCCOCCOC(=O)c3ccc(-c4c5nc(c(-c6cc(S(=O)(=O)[O-])ccc6F)c6ccc([nH]6)c(-c6cc(S(=O)(=O)[O-])ccc6F)c6nc(c(-c7cc(S(=O)(=O)[O-])ccc7F)c7ccc4[nH]7)C=C6)C=C5)cc3)C2)nc(-c2ccc(Cl)cc2)n1
REMARK SMILES IDX 17 1 16 2 15 3 14 4 13 5 11 6 12 7 10 8 6 9 7 10 85 11 8 12
REMARK SMILES IDX 9 13 5 14 3 15 4 16 95 17 87 18 86 19 2 20 1 21 88 22 89 23
REMARK SMILES IDX 94 24 90 25 93 26 91 27 92 28 18 29 19 30 20 31 21 32 22 33
REMARK SMILES IDX 23 34 84 35 24 36 83 37 25 38 26 39 27 40 77 41 28 42 82 43
REMARK SMILES IDX 76 44 78 45 29 46 81 47 75 48 74 49 30 51 62 52 42 53 61 54
REMARK SMILES IDX 43 55 46 56 60 57 79 58 44 59 45 60 59 62 80 63 47 64 31 65
REMARK SMILES IDX 32 66 40 67 33 68 39 69 41 70 38 71 34 72 35 73 36 74 37 75
REMARK SMILES IDX 63 76 64 77 72 78 65 79 71 80 73 81 70 82 66 83 67 84 68 85
REMARK SMILES IDX 69 86 48 87 49 88 57 89 50 90 56 91 58 92 55 93 51 94 52 95
REMARK SMILES IDX 53 96 54 97
REMARK H PARENT 78 50 46 61
REMARK Flexibility Score: inf
ROOT
ATOM      1  C   UNL A   1      37.104  21.538  24.321  1.00  0.00     0.202 C 
ENDROOT
BRANCH   1   2
ATOM      2  O   UNL A   1      37.204  22.954  24.467  1.00  0.00    -0.374 OA
BRANCH   2   3
ATOM      3  C   UNL A   1      36.085  23.632  25.026  1.00  0.00     0.202 C 
BRANCH   3   4
ATOM      4  C   UNL A   1      35.004  24.087  24.047  1.00  0.00     0.261 C 
BRANCH   4   5
ATOM      5  O   UNL A   1      34.262  23.007  23.476  1.00  0.00    -0.463 OA
BRANCH   5   6
ATOM      6  C   UNL A   1      33.100  23.328  22.857  1.00  0.00     0.310 C 
ATOM      7  O   UNL A   1      32.945  24.270  22.084  1.00  0.00    -0.252 OA
BRANCH   6   8
ATOM      8  C   UNL A   1      31.960  22.393  23.214  1.00  0.00     0.118 C 
ATOM      9  N   UNL A   1      30.751  23.849  24.766  1.00  0.00    -0.356 N 
ATOM     10  C   UNL A   1      30.940  22.992  25.927  1.00  0.00     0.118 C 
ATOM     11  C   UNL A   1      30.707  23.232  23.446  1.00  0.00     0.133 C 
ATOM     12  C   UNL A   1      32.151  22.081  25.754  1.00  0.00     0.022 C 
ATOM     13  C   UNL A   1      32.195  21.417  24.376  1.00  0.00     0.019 C 
BRANCH   9  14
ATOM     14  C   UNL A   1      30.880  25.223  24.885  1.00  0.00     0.132 A 
ATOM     15  C   UNL A   1      31.761  27.099  26.037  1.00  0.00     0.046 A 
ATOM     16  C   UNL A   1      31.608  25.733  25.949  1.00  0.00     0.070 A 
ATOM     17  N   UNL A   1      31.239  27.924  25.120  1.00  0.00    -0.233 NA
ATOM     18  C   UNL A   1      30.522  27.364  24.131  1.00  0.00     0.161 A 
ATOM     19  N   UNL A   1      30.317  26.038  23.972  1.00  0.00    -0.211 NA
BRANCH  15  20
ATOM     20  C   UNL A   1      32.585  27.714  27.135  1.00  0.00     0.053 C 
ATOM     21  C   UNL A   1      33.900  28.289  26.626  1.00  0.00     0.011 C 
ENDBRANCH  15  20
BRANCH  18  22
ATOM     22  C   UNL A   1      29.855  28.313  23.231  1.00  0.00     0.019 A 
ATOM     23  C   UNL A   1      30.595  29.205  22.436  1.00  0.00     0.013 A 
ATOM     24  C   UNL A   1      28.457  28.438  23.212  1.00  0.00     0.013 A 
ATOM     25  C   UNL A   1      29.959  30.170  21.643  1.00  0.00     0.021 A 
ATOM     26  C   UNL A   1      27.814  29.386  22.410  1.00  0.00     0.021 A 
ATOM     27  C   UNL A   1      28.570  30.245  21.622  1.00  0.00     0.041 A 
ATOM     28  Cl  UNL A   1      27.780  31.409  20.635  1.00  0.00    -0.084 Cl
ENDBRANCH  18  22
ENDBRANCH   9  14
ENDBRANCH   6   8
ENDBRANCH   5   6
ENDBRANCH   4   5
ENDBRANCH   3   4
ENDBRANCH   2   3
ENDBRANCH   1   2
BRANCH   1  29
ATOM     29  C   UNL A   1      38.164  20.677  25.024  1.00  0.00     0.261 C 
BRANCH  29  30
ATOM     30  O   UNL A   1      38.512  21.136  26.348  1.00  0.00    -0.460 OA
BRANCH  30  31
ATOM     31  C   UNL A   1      39.839  21.325  26.550  1.00  0.00     0.338 C 
ATOM     32  O   UNL A   1      40.748  20.609  26.130  1.00  0.00    -0.246 OA
BRANCH  31  33
ATOM     33  C   UNL A   1      40.122  22.593  27.245  1.00  0.00     0.060 A 
ATOM     34  C   UNL A   1      39.330  23.705  26.930  1.00  0.00     0.016 A 
ATOM     35  C   UNL A   1      41.252  22.740  28.054  1.00  0.00     0.016 A 
ATOM     36  C   UNL A   1      39.695  24.976  27.379  1.00  0.00     0.010 A 
ATOM     37  C   UNL A   1      41.621  24.019  28.496  1.00  0.00     0.010 A 
ATOM     38  C   UNL A   1      40.867  25.149  28.129  1.00  0.00    -0.014 A 
BRANCH  38  39
ATOM     39  C   UNL A   1      41.364  26.524  28.407  1.00  0.00     0.031 A 
ATOM     40  C   UNL A   1      42.741  26.923  27.952  1.00  0.00     0.074 A 
ATOM     41  C   UNL A   1      40.584  27.421  29.038  1.00  0.00     0.049 A 
ATOM     42  N   UNL A   1      43.367  28.064  28.099  1.00  0.00    -0.248 NA
ATOM     43  C   UNL A   1      43.523  25.893  27.252  1.00  0.00     0.031 C 
ATOM     44  C   UNL A   1      39.238  27.152  29.532  1.00  0.00     0.029 A 
ATOM     45  N   UNL A   1      40.809  28.736  29.370  1.00  0.00    -0.354 N 
ATOM     46  C   UNL A   1      44.624  27.885  27.529  1.00  0.00     0.074 A 
ATOM     47  C   UNL A   1      44.674  26.519  27.051  1.00  0.00     0.031 C 
ATOM     48  C   UNL A   1      38.753  28.273  30.093  1.00  0.00     0.029 A 
ATOM     49  C   UNL A   1      39.747  29.338  30.003  1.00  0.00     0.049 A 
ATOM     50  H   UNL A   1      41.652  29.203  29.172  1.00  0.00     0.167 HD
ATOM     51  C   UNL A   1      45.641  28.776  27.419  1.00  0.00     0.034 A 
ATOM     52  C   UNL A   1      39.588  30.596  30.461  1.00  0.00     0.034 A 
ATOM     53  C   UNL A   1      45.583  30.135  27.905  1.00  0.00     0.049 A 
ATOM     54  C   UNL A   1      40.733  31.571  30.322  1.00  0.00     0.074 A 
ATOM     55  C   UNL A   1      46.560  31.114  27.849  1.00  0.00     0.029 A 
ATOM     56  N   UNL A   1      44.489  30.707  28.541  1.00  0.00    -0.354 N 
ATOM     57  N   UNL A   1      41.917  31.383  29.784  1.00  0.00    -0.248 NA
ATOM     58  C   UNL A   1      40.527  32.921  30.861  1.00  0.00     0.031 C 
ATOM     59  C   UNL A   1      46.081  32.256  28.501  1.00  0.00     0.029 A 
ATOM     60  C   UNL A   1      44.777  32.016  28.902  1.00  0.00     0.049 A 
ATOM     61  H   UNL A   1      43.633  30.252  28.711  1.00  0.00     0.167 HD
ATOM     62  C   UNL A   1      42.589  32.596  29.914  1.00  0.00     0.074 A 
ATOM     63  C   UNL A   1      41.669  33.516  30.549  1.00  0.00     0.031 C 
ATOM     64  C   UNL A   1      43.858  32.917  29.554  1.00  0.00     0.034 A 
BRANCH  51  65
ATOM     65  C   UNL A   1      46.927  28.283  26.803  1.00  0.00     0.023 A 
ATOM     66  C   UNL A   1      47.115  28.240  25.411  1.00  0.00     0.031 A 
ATOM     67  C   UNL A   1      47.974  27.825  27.624  1.00  0.00     0.131 A 
ATOM     68  C   UNL A   1      48.295  27.694  24.881  1.00  0.00     0.055 A 
ATOM     69  C   UNL A   1      49.174  27.351  27.093  1.00  0.00     0.041 A 
ATOM     70  F   UNL A   1      47.841  27.821  28.960  1.00  0.00    -0.206 F 
ATOM     71  C   UNL A   1      49.335  27.271  25.713  1.00  0.00     0.022 A 
BRANCH  68  72
ATOM     72  S   UNL A   1      48.402  27.427  23.090  1.00  0.00     0.124 S 
ATOM     73  O   UNL A   1      47.212  28.129  22.616  1.00  0.00    -0.237 OA
ATOM     74  O   UNL A   1      49.682  28.040  22.755  1.00  0.00    -0.237 OA
ATOM     75  O   UNL A   1      48.353  25.973  22.957  1.00  0.00    -0.744 OA
ENDBRANCH  68  72
ENDBRANCH  51  65
BRANCH  52  76
ATOM     76  C   UNL A   1      38.312  31.020  31.112  1.00  0.00     0.023 A 
ATOM     77  C   UNL A   1      37.285  31.625  30.367  1.00  0.00     0.031 A 
ATOM     78  C   UNL A   1      38.122  30.884  32.498  1.00  0.00     0.131 A 
ATOM     79  C   UNL A   1      36.140  32.116  31.017  1.00  0.00     0.055 A 
ATOM     80  C   UNL A   1      36.954  31.315  33.132  1.00  0.00     0.041 A 
ATOM     81  F   UNL A   1      39.070  30.320  33.262  1.00  0.00    -0.206 F 
ATOM     82  C   UNL A   1      35.962  31.950  32.392  1.00  0.00     0.022 A 
BRANCH  79  83
ATOM     83  S   UNL A   1      34.936  33.076  30.058  1.00  0.00     0.124 S 
ATOM     84  O   UNL A   1      34.470  32.088  29.091  1.00  0.00    -0.237 OA
ATOM     85  O   UNL A   1      33.979  33.471  31.086  1.00  0.00    -0.237 OA
ATOM     86  O   UNL A   1      35.735  34.165  29.501  1.00  0.00    -0.744 OA
ENDBRANCH  79  83
ENDBRANCH  52  76
BRANCH  64  87
ATOM     87  C   UNL A   1      44.308  34.333  29.824  1.00  0.00     0.023 A 
ATOM     88  C   UNL A   1      44.199  35.339  28.848  1.00  0.00     0.031 A 
ATOM     89  C   UNL A   1      44.864  34.674  31.069  1.00  0.00     0.131 A 
ATOM     90  C   UNL A   1      44.691  36.626  29.113  1.00  0.00     0.055 A 
ATOM     91  C   UNL A   1      45.303  35.971  31.346  1.00  0.00     0.041 A 
ATOM     92  F   UNL A   1      44.991  33.753  32.037  1.00  0.00    -0.206 F 
ATOM     93  C   UNL A   1      45.229  36.952  30.360  1.00  0.00     0.022 A 
BRANCH  90  94
ATOM     94  S   UNL A   1      44.692  37.852  27.775  1.00  0.00     0.124 S 
ATOM     95  O   UNL A   1      45.109  39.064  28.472  1.00  0.00    -0.237 OA
ATOM     96  O   UNL A   1      45.659  37.292  26.838  1.00  0.00    -0.237 OA
ATOM     97  O   UNL A   1      43.306  37.851  27.308  1.00  0.00    -0.744 OA
ENDBRANCH  90  94
ENDBRANCH  64  87
ENDBRANCH  38  39
ENDBRANCH  31  33
ENDBRANCH  30  31
ENDBRANCH  29  30
ENDBRANCH   1  29
TORSDOF 20
ENDMDL
