MODEL 1
REMARK VINA RESULT:     -12.3      0.000      0.000
REMARK SMILES Cc1cccc(-c2cccc(O)c2)c1C(=O)OCCOCCOC(=O)c1ccc(-c2c3nc(c(-c4cc(S(=O)(=O)[O-])ccc4F)c4ccc([nH]4)c(-c4cc(S(=O)(=O)[O-])ccc4F)c4nc(c(-c5cc(S(=O)(=O)[O-])ccc5F)c5ccc2[nH]5)C=C4)C=C3)cc1
REMARK SMILES IDX 21 1 20 2 19 3 18 4 17 5 15 6 16 7 14 8 1 9 2 10 3 11 4 12
REMARK SMILES IDX 6 13 5 14 7 15 8 16 13 17 9 18 11 19 10 20 12 21 22 23 23 24
REMARK SMILES IDX 24 25 25 26 26 27 27 28 88 29 28 30 87 31 29 32 30 33 31 34
REMARK SMILES IDX 81 35 32 36 86 37 80 38 82 39 33 40 85 41 79 42 78 43 34 45
REMARK SMILES IDX 66 46 46 47 65 48 47 49 50 50 64 51 83 52 48 53 49 54 63 56
REMARK SMILES IDX 84 57 51 58 35 59 36 60 44 61 37 62 43 63 45 64 42 65 38 66
REMARK SMILES IDX 39 67 40 68 41 69 67 70 68 71 76 72 69 73 75 74 77 75 74 76
REMARK SMILES IDX 70 77 71 78 72 79 73 80 52 81 53 82 61 83 54 84 60 85 62 86
REMARK SMILES IDX 59 87 55 88 56 89 57 90 58 91
REMARK H PARENT 12 22 82 44 50 55
REMARK Flexibility Score: inf
ROOT
ATOM      1  C   UNL A   1      32.474  30.286  26.145  1.00  0.00     0.202 C 
ENDROOT
BRANCH   1   2
ATOM      2  O   UNL A   1      32.977  29.457  25.134  1.00  0.00    -0.374 OA
BRANCH   2   3
ATOM      3  C   UNL A   1      34.008  28.560  25.544  1.00  0.00     0.202 C 
BRANCH   3   4
ATOM      4  C   UNL A   1      33.514  27.265  25.030  1.00  0.00     0.261 C 
BRANCH   4   5
ATOM      5  O   UNL A   1      32.870  26.587  26.113  1.00  0.00    -0.460 OA
BRANCH   5   6
ATOM      6  C   UNL A   1      31.542  26.347  26.144  1.00  0.00     0.339 C 
ATOM      7  O   UNL A   1      30.694  27.007  26.689  1.00  0.00    -0.246 OA
BRANCH   6   8
ATOM      8  C   UNL A   1      31.328  25.162  25.261  1.00  0.00     0.070 A 
ATOM      9  C   UNL A   1      32.391  23.457  26.961  1.00  0.00     0.045 C 
ATOM     10  C   UNL A   1      31.814  23.870  25.621  1.00  0.00    -0.036 A 
ATOM     11  C   UNL A   1      31.769  22.846  24.666  1.00  0.00     0.004 A 
ATOM     12  C   UNL A   1      31.215  23.059  23.410  1.00  0.00     0.001 A 
ATOM     13  C   UNL A   1      30.718  25.380  23.993  1.00  0.00    -0.003 A 
ATOM     14  C   UNL A   1      30.675  24.302  23.088  1.00  0.00     0.009 A 
BRANCH  13  15
ATOM     15  C   UNL A   1      30.168  26.676  23.539  1.00  0.00    -0.014 A 
ATOM     16  C   UNL A   1      28.813  26.997  23.739  1.00  0.00     0.009 A 
ATOM     17  C   UNL A   1      30.978  27.625  22.893  1.00  0.00     0.055 A 
ATOM     18  C   UNL A   1      28.274  28.197  23.263  1.00  0.00     0.004 A 
ATOM     19  C   UNL A   1      30.436  28.826  22.435  1.00  0.00     0.116 A 
ATOM     20  C   UNL A   1      29.086  29.115  22.602  1.00  0.00     0.046 A 
BRANCH  19  21
ATOM     21  O   UNL A   1      31.275  29.713  21.828  1.00  0.00    -0.508 OA
ATOM     22  H   UNL A   1      32.063  29.411  21.420  1.00  0.00     0.293 HD
ENDBRANCH  19  21
ENDBRANCH  13  15
ENDBRANCH   6   8
ENDBRANCH   5   6
ENDBRANCH   4   5
ENDBRANCH   3   4
ENDBRANCH   2   3
ENDBRANCH   1   2
BRANCH   1  23
ATOM     23  C   UNL A   1      33.308  30.160  27.418  1.00  0.00     0.261 C 
BRANCH  23  24
ATOM     24  O   UNL A   1      34.211  31.288  27.519  1.00  0.00    -0.460 OA
BRANCH  24  25
ATOM     25  C   UNL A   1      34.924  31.380  28.681  1.00  0.00     0.338 C 
ATOM     26  O   UNL A   1      34.817  32.289  29.488  1.00  0.00    -0.246 OA
BRANCH  25  27
ATOM     27  C   UNL A   1      35.952  30.296  28.762  1.00  0.00     0.060 A 
ATOM     28  C   UNL A   1      36.267  29.698  29.999  1.00  0.00     0.016 A 
ATOM     29  C   UNL A   1      36.788  30.099  27.668  1.00  0.00     0.016 A 
ATOM     30  C   UNL A   1      37.499  29.045  30.177  1.00  0.00     0.010 A 
ATOM     31  C   UNL A   1      38.043  29.570  27.883  1.00  0.00     0.010 A 
ATOM     32  C   UNL A   1      38.425  29.066  29.138  1.00  0.00    -0.014 A 
BRANCH  32  33
ATOM     33  C   UNL A   1      39.840  28.679  29.217  1.00  0.00     0.031 A 
ATOM     34  C   UNL A   1      40.175  27.296  28.811  1.00  0.00     0.074 A 
ATOM     35  C   UNL A   1      40.823  29.610  29.347  1.00  0.00     0.049 A 
ATOM     36  N   UNL A   1      41.342  26.783  28.928  1.00  0.00    -0.248 NA
ATOM     37  C   UNL A   1      39.209  26.335  28.267  1.00  0.00     0.031 C 
ATOM     38  C   UNL A   1      42.235  29.536  28.952  1.00  0.00     0.029 A 
ATOM     39  N   UNL A   1      40.745  30.911  29.853  1.00  0.00    -0.354 N 
ATOM     40  C   UNL A   1      41.381  25.634  28.177  1.00  0.00     0.074 A 
ATOM     41  C   UNL A   1      40.005  25.321  27.912  1.00  0.00     0.031 C 
ATOM     42  C   UNL A   1      42.919  30.557  29.507  1.00  0.00     0.029 A 
ATOM     43  C   UNL A   1      41.993  31.276  30.372  1.00  0.00     0.049 A 
ATOM     44  H   UNL A   1      39.942  31.480  29.846  1.00  0.00     0.167 HD
ATOM     45  C   UNL A   1      42.603  25.183  27.783  1.00  0.00     0.034 A 
ATOM     46  C   UNL A   1      42.110  31.561  31.696  1.00  0.00     0.034 A 
ATOM     47  C   UNL A   1      43.661  25.957  28.453  1.00  0.00     0.049 A 
ATOM     48  C   UNL A   1      42.923  30.428  32.279  1.00  0.00     0.074 A 
ATOM     49  C   UNL A   1      44.568  26.913  28.030  1.00  0.00     0.029 A 
ATOM     50  N   UNL A   1      43.645  26.031  29.846  1.00  0.00    -0.354 N 
ATOM     51  N   UNL A   1      42.977  29.239  31.731  1.00  0.00    -0.248 NA
ATOM     52  C   UNL A   1      43.876  30.586  33.370  1.00  0.00     0.031 C 
ATOM     53  C   UNL A   1      44.993  27.641  29.187  1.00  0.00     0.029 A 
ATOM     54  C   UNL A   1      44.374  27.107  30.310  1.00  0.00     0.049 A 
ATOM     55  H   UNL A   1      43.171  25.392  30.427  1.00  0.00     0.167 HD
ATOM     56  C   UNL A   1      44.035  28.553  32.242  1.00  0.00     0.074 A 
ATOM     57  C   UNL A   1      44.528  29.410  33.313  1.00  0.00     0.031 C 
ATOM     58  C   UNL A   1      44.479  27.359  31.744  1.00  0.00     0.034 A 
BRANCH  45  59
ATOM     59  C   UNL A   1      42.880  24.162  26.698  1.00  0.00     0.023 A 
ATOM     60  C   UNL A   1      42.335  22.869  26.849  1.00  0.00     0.031 A 
ATOM     61  C   UNL A   1      43.700  24.333  25.560  1.00  0.00     0.131 A 
ATOM     62  C   UNL A   1      42.596  21.842  25.921  1.00  0.00     0.055 A 
ATOM     63  C   UNL A   1      43.922  23.324  24.612  1.00  0.00     0.041 A 
ATOM     64  F   UNL A   1      44.378  25.458  25.317  1.00  0.00    -0.206 F 
ATOM     65  C   UNL A   1      43.372  22.068  24.789  1.00  0.00     0.022 A 
BRANCH  62  66
ATOM     66  S   UNL A   1      41.926  20.187  26.228  1.00  0.00     0.124 S 
ATOM     67  O   UNL A   1      42.561  19.398  25.177  1.00  0.00    -0.237 OA
ATOM     68  O   UNL A   1      42.365  19.923  27.593  1.00  0.00    -0.237 OA
ATOM     69  O   UNL A   1      40.483  20.372  26.071  1.00  0.00    -0.744 OA
ENDBRANCH  62  66
ENDBRANCH  45  59
BRANCH  46  70
ATOM     70  C   UNL A   1      40.878  32.260  32.218  1.00  0.00     0.023 A 
ATOM     71  C   UNL A   1      40.077  31.576  33.182  1.00  0.00     0.031 A 
ATOM     72  C   UNL A   1      40.759  33.658  32.178  1.00  0.00     0.131 A 
ATOM     73  C   UNL A   1      39.307  32.289  34.131  1.00  0.00     0.055 A 
ATOM     74  C   UNL A   1      39.991  34.360  33.125  1.00  0.00     0.041 A 
ATOM     75  F   UNL A   1      41.496  34.380  31.323  1.00  0.00    -0.206 F 
ATOM     76  C   UNL A   1      39.298  33.684  34.128  1.00  0.00     0.022 A 
BRANCH  73  77
ATOM     77  S   UNL A   1      38.571  31.415  35.567  1.00  0.00     0.124 S 
ATOM     78  O   UNL A   1      37.343  32.168  35.793  1.00  0.00    -0.237 OA
ATOM     79  O   UNL A   1      38.398  30.054  35.072  1.00  0.00    -0.237 OA
ATOM     80  O   UNL A   1      39.593  31.546  36.604  1.00  0.00    -0.744 OA
ENDBRANCH  73  77
ENDBRANCH  46  70
BRANCH  58  81
ATOM     81  C   UNL A   1      45.113  26.331  32.639  1.00  0.00     0.023 A 
ATOM     82  C   UNL A   1      44.330  25.438  33.378  1.00  0.00     0.031 A 
ATOM     83  C   UNL A   1      46.507  26.116  32.689  1.00  0.00     0.131 A 
ATOM     84  C   UNL A   1      44.910  24.506  34.237  1.00  0.00     0.055 A 
ATOM     85  C   UNL A   1      47.082  25.089  33.440  1.00  0.00     0.041 A 
ATOM     86  F   UNL A   1      47.372  26.872  31.999  1.00  0.00    -0.206 F 
ATOM     87  C   UNL A   1      46.283  24.296  34.252  1.00  0.00     0.022 A 
BRANCH  84  88
ATOM     88  S   UNL A   1      43.813  23.704  35.425  1.00  0.00     0.124 S 
ATOM     89  O   UNL A   1      43.589  24.780  36.390  1.00  0.00    -0.237 OA
ATOM     90  O   UNL A   1      42.661  23.346  34.605  1.00  0.00    -0.237 OA
ATOM     91  O   UNL A   1      44.605  22.581  35.919  1.00  0.00    -0.744 OA
ENDBRANCH  84  88
ENDBRANCH  58  81
ENDBRANCH  32  33
ENDBRANCH  25  27
ENDBRANCH  24  25
ENDBRANCH  23  24
ENDBRANCH   1  23
TORSDOF 19
ENDMDL
MODEL 2
REMARK VINA RESULT:     -12.0      0.921      2.559
REMARK SMILES Cc1cccc(-c2cccc(O)c2)c1C(=O)OCCOCCOC(=O)c1ccc(-c2c3nc(c(-c4cc(S(=O)(=O)[O-])ccc4F)c4ccc([nH]4)c(-c4cc(S(=O)(=O)[O-])ccc4F)c4nc(c(-c5cc(S(=O)(=O)[O-])ccc5F)c5ccc2[nH]5)C=C4)C=C3)cc1
REMARK SMILES IDX 21 1 20 2 19 3 18 4 17 5 15 6 16 7 14 8 1 9 2 10 3 11 4 12
REMARK SMILES IDX 6 13 5 14 7 15 8 16 13 17 9 18 11 19 10 20 12 21 22 23 23 24
REMARK SMILES IDX 24 25 25 26 26 27 27 28 88 29 28 30 87 31 29 32 30 33 31 34
REMARK SMILES IDX 81 35 32 36 86 37 80 38 82 39 33 40 85 41 79 42 78 43 34 45
REMARK SMILES IDX 66 46 46 47 65 48 47 49 50 50 64 51 83 52 48 53 49 54 63 56
REMARK SMILES IDX 84 57 51 58 35 59 36 60 44 61 37 62 43 63 45 64 42 65 38 66
REMARK SMILES IDX 39 67 40 68 41 69 67 70 68 71 76 72 69 73 75 74 77 75 74 76
REMARK SMILES IDX 70 77 71 78 72 79 73 80 52 81 53 82 61 83 54 84 60 85 62 86
REMARK SMILES IDX 59 87 55 88 56 89 57 90 58 91
REMARK H PARENT 12 22 82 44 50 55
REMARK Flexibility Score: inf
ROOT
ATOM      1  C   UNL A   1      33.043  30.586  27.211  1.00  0.00     0.202 C 
ENDROOT
BRANCH   1   2
ATOM      2  O   UNL A   1      33.997  29.729  26.648  1.00  0.00    -0.374 OA
BRANCH   2   3
ATOM      3  C   UNL A   1      33.515  28.895  25.596  1.00  0.00     0.202 C 
BRANCH   3   4
ATOM      4  C   UNL A   1      32.417  29.710  25.033  1.00  0.00     0.261 C 
BRANCH   4   5
ATOM      5  O   UNL A   1      31.341  28.824  24.709  1.00  0.00    -0.460 OA
BRANCH   5   6
ATOM      6  C   UNL A   1      31.114  28.371  23.459  1.00  0.00     0.339 C 
ATOM      7  O   UNL A   1      31.936  28.043  22.641  1.00  0.00    -0.246 OA
BRANCH   6   8
ATOM      8  C   UNL A   1      29.631  28.244  23.342  1.00  0.00     0.070 A 
ATOM      9  C   UNL A   1      29.303  30.671  22.377  1.00  0.00     0.045 C 
ATOM     10  C   UNL A   1      28.821  29.346  22.935  1.00  0.00    -0.036 A 
ATOM     11  C   UNL A   1      27.428  29.232  23.045  1.00  0.00     0.004 A 
ATOM     12  C   UNL A   1      26.837  28.056  23.488  1.00  0.00     0.001 A 
ATOM     13  C   UNL A   1      29.034  27.019  23.755  1.00  0.00    -0.003 A 
ATOM     14  C   UNL A   1      27.629  26.957  23.814  1.00  0.00     0.009 A 
BRANCH  13  15
ATOM     15  C   UNL A   1      29.790  25.818  24.174  1.00  0.00    -0.014 A 
ATOM     16  C   UNL A   1      30.244  24.883  23.227  1.00  0.00     0.009 A 
ATOM     17  C   UNL A   1      30.075  25.573  25.528  1.00  0.00     0.055 A 
ATOM     18  C   UNL A   1      30.911  23.717  23.621  1.00  0.00     0.004 A 
ATOM     19  C   UNL A   1      30.753  24.416  25.911  1.00  0.00     0.116 A 
ATOM     20  C   UNL A   1      31.162  23.477  24.970  1.00  0.00     0.046 A 
BRANCH  19  21
ATOM     21  O   UNL A   1      31.013  24.239  27.238  1.00  0.00    -0.508 OA
ATOM     22  H   UNL A   1      30.351  23.892  27.804  1.00  0.00     0.293 HD
ENDBRANCH  19  21
ENDBRANCH  13  15
ENDBRANCH   6   8
ENDBRANCH   5   6
ENDBRANCH   4   5
ENDBRANCH   3   4
ENDBRANCH   2   3
ENDBRANCH   1   2
BRANCH   1  23
ATOM     23  C   UNL A   1      33.653  31.952  27.521  1.00  0.00     0.261 C 
BRANCH  23  24
ATOM     24  O   UNL A   1      35.063  31.797  27.813  1.00  0.00    -0.460 OA
BRANCH  24  25
ATOM     25  C   UNL A   1      35.371  31.420  29.090  1.00  0.00     0.338 C 
ATOM     26  O   UNL A   1      34.976  31.989  30.094  1.00  0.00    -0.246 OA
BRANCH  25  27
ATOM     27  C   UNL A   1      36.371  30.307  29.089  1.00  0.00     0.060 A 
ATOM     28  C   UNL A   1      36.683  29.623  30.281  1.00  0.00     0.016 A 
ATOM     29  C   UNL A   1      37.190  30.159  27.974  1.00  0.00     0.016 A 
ATOM     30  C   UNL A   1      37.900  28.929  30.402  1.00  0.00     0.010 A 
ATOM     31  C   UNL A   1      38.433  29.586  28.140  1.00  0.00     0.010 A 
ATOM     32  C   UNL A   1      38.815  28.993  29.356  1.00  0.00    -0.014 A 
BRANCH  32  33
ATOM     33  C   UNL A   1      40.220  28.566  29.393  1.00  0.00     0.031 A 
ATOM     34  C   UNL A   1      40.506  27.183  28.949  1.00  0.00     0.074 A 
ATOM     35  C   UNL A   1      41.232  29.466  29.520  1.00  0.00     0.049 A 
ATOM     36  N   UNL A   1      41.662  26.636  29.027  1.00  0.00    -0.248 NA
ATOM     37  C   UNL A   1      39.502  26.262  28.407  1.00  0.00     0.031 C 
ATOM     38  C   UNL A   1      42.631  29.362  29.090  1.00  0.00     0.029 A 
ATOM     39  N   UNL A   1      41.201  30.757  30.056  1.00  0.00    -0.354 N 
ATOM     40  C   UNL A   1      41.652  25.504  28.251  1.00  0.00     0.074 A 
ATOM     41  C   UNL A   1      40.261  25.234  28.012  1.00  0.00     0.031 C 
ATOM     42  C   UNL A   1      43.356  30.351  29.651  1.00  0.00     0.029 A 
ATOM     43  C   UNL A   1      42.471  31.076  30.553  1.00  0.00     0.049 A 
ATOM     44  H   UNL A   1      40.414  31.347  30.080  1.00  0.00     0.167 HD
ATOM     45  C   UNL A   1      42.850  25.028  27.818  1.00  0.00     0.034 A 
ATOM     46  C   UNL A   1      42.627  31.328  31.879  1.00  0.00     0.034 A 
ATOM     47  C   UNL A   1      43.945  25.758  28.479  1.00  0.00     0.049 A 
ATOM     48  C   UNL A   1      43.421  30.160  32.418  1.00  0.00     0.074 A 
ATOM     49  C   UNL A   1      44.869  26.697  28.055  1.00  0.00     0.029 A 
ATOM     50  N   UNL A   1      43.963  25.800  29.874  1.00  0.00    -0.354 N 
ATOM     51  N   UNL A   1      43.429  28.983  31.843  1.00  0.00    -0.248 NA
ATOM     52  C   UNL A   1      44.403  30.267  33.489  1.00  0.00     0.031 C 
ATOM     53  C   UNL A   1      45.340  27.388  29.218  1.00  0.00     0.029 A 
ATOM     54  C   UNL A   1      44.732  26.846  30.343  1.00  0.00     0.049 A 
ATOM     55  H   UNL A   1      43.485  25.163  30.452  1.00  0.00     0.167 HD
ATOM     56  C   UNL A   1      44.478  28.256  32.314  1.00  0.00     0.074 A 
ATOM     57  C   UNL A   1      45.020  29.076  33.391  1.00  0.00     0.031 C 
ATOM     58  C   UNL A   1      44.878  27.063  31.780  1.00  0.00     0.034 A 
BRANCH  45  59
ATOM     59  C   UNL A   1      43.073  24.024  26.705  1.00  0.00     0.023 A 
ATOM     60  C   UNL A   1      42.660  22.693  26.920  1.00  0.00     0.031 A 
ATOM     61  C   UNL A   1      43.730  24.253  25.475  1.00  0.00     0.131 A 
ATOM     62  C   UNL A   1      42.887  21.683  25.964  1.00  0.00     0.055 A 
ATOM     63  C   UNL A   1      43.915  23.258  24.503  1.00  0.00     0.041 A 
ATOM     64  F   UNL A   1      44.278  25.427  25.151  1.00  0.00    -0.206 F 
ATOM     65  C   UNL A   1      43.496  21.962  24.745  1.00  0.00     0.022 A 
BRANCH  62  66
ATOM     66  S   UNL A   1      42.398  19.981  26.348  1.00  0.00     0.124 S 
ATOM     67  O   UNL A   1      43.589  19.227  25.971  1.00  0.00    -0.237 OA
ATOM     68  O   UNL A   1      42.102  20.057  27.774  1.00  0.00    -0.237 OA
ATOM     69  O   UNL A   1      41.234  19.762  25.489  1.00  0.00    -0.744 OA
ENDBRANCH  62  66
ENDBRANCH  45  59
BRANCH  46  70
ATOM     70  C   UNL A   1      41.427  32.049  32.445  1.00  0.00     0.023 A 
ATOM     71  C   UNL A   1      40.413  31.267  33.078  1.00  0.00     0.031 A 
ATOM     72  C   UNL A   1      41.489  33.405  32.800  1.00  0.00     0.131 A 
ATOM     73  C   UNL A   1      39.604  31.811  34.104  1.00  0.00     0.055 A 
ATOM     74  C   UNL A   1      40.682  33.939  33.821  1.00  0.00     0.041 A 
ATOM     75  F   UNL A   1      42.430  34.203  32.276  1.00  0.00    -0.206 F 
ATOM     76  C   UNL A   1      39.768  33.137  34.504  1.00  0.00     0.022 A 
BRANCH  73  77
ATOM     77  S   UNL A   1      38.560  30.711  35.136  1.00  0.00     0.124 S 
ATOM     78  O   UNL A   1      39.510  30.222  36.129  1.00  0.00    -0.237 OA
ATOM     79  O   UNL A   1      37.526  31.610  35.638  1.00  0.00    -0.237 OA
ATOM     80  O   UNL A   1      38.071  29.714  34.184  1.00  0.00    -0.744 OA
ENDBRANCH  73  77
ENDBRANCH  46  70
BRANCH  58  81
ATOM     81  C   UNL A   1      45.503  25.998  32.637  1.00  0.00     0.023 A 
ATOM     82  C   UNL A   1      44.715  25.055  33.304  1.00  0.00     0.031 A 
ATOM     83  C   UNL A   1      46.899  25.802  32.716  1.00  0.00     0.131 A 
ATOM     84  C   UNL A   1      45.286  24.087  34.129  1.00  0.00     0.055 A 
ATOM     85  C   UNL A   1      47.469  24.745  33.428  1.00  0.00     0.041 A 
ATOM     86  F   UNL A   1      47.770  26.607  32.092  1.00  0.00    -0.206 F 
ATOM     87  C   UNL A   1      46.661  23.898  34.173  1.00  0.00     0.022 A 
BRANCH  84  88
ATOM     88  S   UNL A   1      44.169  23.206  35.241  1.00  0.00     0.124 S 
ATOM     89  O   UNL A   1      44.809  21.895  35.322  1.00  0.00    -0.237 OA
ATOM     90  O   UNL A   1      44.229  24.011  36.456  1.00  0.00    -0.237 OA
ATOM     91  O   UNL A   1      42.892  23.232  34.534  1.00  0.00    -0.744 OA
ENDBRANCH  84  88
ENDBRANCH  58  81
ENDBRANCH  32  33
ENDBRANCH  25  27
ENDBRANCH  24  25
ENDBRANCH  23  24
ENDBRANCH   1  23
TORSDOF 19
ENDMDL
MODEL 3
REMARK VINA RESULT:     -11.9      3.972      9.537
REMARK SMILES Cc1cccc(-c2cccc(O)c2)c1C(=O)OCCOCCOC(=O)c1ccc(-c2c3nc(c(-c4cc(S(=O)(=O)[O-])ccc4F)c4ccc([nH]4)c(-c4cc(S(=O)(=O)[O-])ccc4F)c4nc(c(-c5cc(S(=O)(=O)[O-])ccc5F)c5ccc2[nH]5)C=C4)C=C3)cc1
REMARK SMILES IDX 21 1 20 2 19 3 18 4 17 5 15 6 16 7 14 8 1 9 2 10 3 11 4 12
REMARK SMILES IDX 6 13 5 14 7 15 8 16 13 17 9 18 11 19 10 20 12 21 22 23 23 24
REMARK SMILES IDX 24 25 25 26 26 27 27 28 88 29 28 30 87 31 29 32 30 33 31 34
REMARK SMILES IDX 81 35 32 36 86 37 80 38 82 39 33 40 85 41 79 42 78 43 34 45
REMARK SMILES IDX 66 46 46 47 65 48 47 49 50 50 64 51 83 52 48 53 49 54 63 56
REMARK SMILES IDX 84 57 51 58 35 59 36 60 44 61 37 62 43 63 45 64 42 65 38 66
REMARK SMILES IDX 39 67 40 68 41 69 67 70 68 71 76 72 69 73 75 74 77 75 74 76
REMARK SMILES IDX 70 77 71 78 72 79 73 80 52 81 53 82 61 83 54 84 60 85 62 86
REMARK SMILES IDX 59 87 55 88 56 89 57 90 58 91
REMARK H PARENT 12 22 82 44 50 55
REMARK Flexibility Score: inf
ROOT
ATOM      1  C   UNL A   1      37.309  21.215  24.953  1.00  0.00     0.202 C 
ENDROOT
BRANCH   1   2
ATOM      2  O   UNL A   1      36.669  22.452  24.804  1.00  0.00    -0.374 OA
BRANCH   2   3
ATOM      3  C   UNL A   1      36.604  22.942  23.466  1.00  0.00     0.202 C 
BRANCH   3   4
ATOM      4  C   UNL A   1      35.147  22.990  23.224  1.00  0.00     0.261 C 
BRANCH   4   5
ATOM      5  O   UNL A   1      34.764  24.367  23.153  1.00  0.00    -0.460 OA
BRANCH   5   6
ATOM      6  C   UNL A   1      33.479  24.775  23.195  1.00  0.00     0.339 C 
ATOM      7  O   UNL A   1      32.516  24.200  22.756  1.00  0.00    -0.246 OA
BRANCH   6   8
ATOM      8  C   UNL A   1      33.484  26.030  24.005  1.00  0.00     0.070 A 
ATOM      9  C   UNL A   1      33.735  27.611  21.915  1.00  0.00     0.045 C 
ATOM     10  C   UNL A   1      33.699  27.304  23.400  1.00  0.00    -0.036 A 
ATOM     11  C   UNL A   1      33.900  28.416  24.230  1.00  0.00     0.004 A 
ATOM     12  C   UNL A   1      33.840  28.299  25.613  1.00  0.00     0.001 A 
ATOM     13  C   UNL A   1      33.375  25.908  25.420  1.00  0.00    -0.003 A 
ATOM     14  C   UNL A   1      33.556  27.068  26.197  1.00  0.00     0.009 A 
BRANCH  13  15
ATOM     15  C   UNL A   1      33.133  24.636  26.135  1.00  0.00    -0.014 A 
ATOM     16  C   UNL A   1      31.828  24.234  26.473  1.00  0.00     0.009 A 
ATOM     17  C   UNL A   1      34.195  23.792  26.501  1.00  0.00     0.055 A 
ATOM     18  C   UNL A   1      31.597  23.059  27.198  1.00  0.00     0.004 A 
ATOM     19  C   UNL A   1      33.955  22.616  27.210  1.00  0.00     0.116 A 
ATOM     20  C   UNL A   1      32.665  22.248  27.575  1.00  0.00     0.046 A 
BRANCH  19  21
ATOM     21  O   UNL A   1      35.024  21.831  27.525  1.00  0.00    -0.508 OA
ATOM     22  H   UNL A   1      35.597  22.077  28.225  1.00  0.00     0.293 HD
ENDBRANCH  19  21
ENDBRANCH  13  15
ENDBRANCH   6   8
ENDBRANCH   5   6
ENDBRANCH   4   5
ENDBRANCH   3   4
ENDBRANCH   2   3
ENDBRANCH   1   2
BRANCH   1  23
ATOM     23  C   UNL A   1      38.610  21.365  25.740  1.00  0.00     0.261 C 
BRANCH  23  24
ATOM     24  O   UNL A   1      39.084  22.729  25.635  1.00  0.00    -0.460 OA
BRANCH  24  25
ATOM     25  C   UNL A   1      39.934  23.144  26.622  1.00  0.00     0.338 C 
ATOM     26  O   UNL A   1      40.701  22.413  27.226  1.00  0.00    -0.246 OA
BRANCH  25  27
ATOM     27  C   UNL A   1      39.695  24.581  26.959  1.00  0.00     0.060 A 
ATOM     28  C   UNL A   1      40.413  25.601  26.302  1.00  0.00     0.016 A 
ATOM     29  C   UNL A   1      38.984  24.876  28.118  1.00  0.00     0.016 A 
ATOM     30  C   UNL A   1      40.551  26.867  26.896  1.00  0.00     0.010 A 
ATOM     31  C   UNL A   1      39.227  26.075  28.754  1.00  0.00     0.010 A 
ATOM     32  C   UNL A   1      40.032  27.069  28.172  1.00  0.00    -0.014 A 
BRANCH  32  33
ATOM     33  C   UNL A   1      40.296  28.213  29.054  1.00  0.00     0.031 A 
ATOM     34  C   UNL A   1      39.283  29.293  29.064  1.00  0.00     0.074 A 
ATOM     35  C   UNL A   1      41.237  28.151  30.034  1.00  0.00     0.049 A 
ATOM     36  N   UNL A   1      39.426  30.397  29.697  1.00  0.00    -0.248 NA
ATOM     37  C   UNL A   1      38.018  29.250  28.323  1.00  0.00     0.031 C 
ATOM     38  C   UNL A   1      41.326  28.904  31.290  1.00  0.00     0.029 A 
ATOM     39  N   UNL A   1      42.355  27.316  30.131  1.00  0.00    -0.354 N 
ATOM     40  C   UNL A   1      38.202  31.014  29.762  1.00  0.00     0.074 A 
ATOM     41  C   UNL A   1      37.401  30.346  28.775  1.00  0.00     0.031 C 
ATOM     42  C   UNL A   1      42.549  28.741  31.835  1.00  0.00     0.029 A 
ATOM     43  C   UNL A   1      43.338  27.956  30.895  1.00  0.00     0.049 A 
ATOM     44  H   UNL A   1      42.437  26.422  29.727  1.00  0.00     0.167 HD
ATOM     45  C   UNL A   1      38.013  31.934  30.746  1.00  0.00     0.034 A 
ATOM     46  C   UNL A   1      44.536  28.257  30.328  1.00  0.00     0.034 A 
ATOM     47  C   UNL A   1      39.292  32.210  31.422  1.00  0.00     0.049 A 
ATOM     48  C   UNL A   1      44.559  29.765  30.218  1.00  0.00     0.074 A 
ATOM     49  C   UNL A   1      39.809  31.900  32.668  1.00  0.00     0.029 A 
ATOM     50  N   UNL A   1      40.378  32.613  30.643  1.00  0.00    -0.354 N 
ATOM     51  N   UNL A   1      43.467  30.489  30.165  1.00  0.00    -0.248 NA
ATOM     52  C   UNL A   1      45.761  30.575  30.366  1.00  0.00     0.031 C 
ATOM     53  C   UNL A   1      41.235  32.001  32.576  1.00  0.00     0.029 A 
ATOM     54  C   UNL A   1      41.578  32.405  31.292  1.00  0.00     0.049 A 
ATOM     55  H   UNL A   1      40.297  32.998  29.740  1.00  0.00     0.167 HD
ATOM     56  C   UNL A   1      43.772  31.787  30.433  1.00  0.00     0.074 A 
ATOM     57  C   UNL A   1      45.229  31.804  30.486  1.00  0.00     0.031 C 
ATOM     58  C   UNL A   1      42.835  32.761  30.642  1.00  0.00     0.034 A 
BRANCH  45  59
ATOM     59  C   UNL A   1      36.685  32.486  31.222  1.00  0.00     0.023 A 
ATOM     60  C   UNL A   1      35.947  33.298  30.335  1.00  0.00     0.031 A 
ATOM     61  C   UNL A   1      36.116  32.340  32.508  1.00  0.00     0.131 A 
ATOM     62  C   UNL A   1      34.734  33.903  30.718  1.00  0.00     0.055 A 
ATOM     63  C   UNL A   1      34.886  32.905  32.875  1.00  0.00     0.041 A 
ATOM     64  F   UNL A   1      36.729  31.693  33.503  1.00  0.00    -0.206 F 
ATOM     65  C   UNL A   1      34.188  33.695  31.980  1.00  0.00     0.022 A 
BRANCH  62  66
ATOM     66  S   UNL A   1      33.888  34.997  29.548  1.00  0.00     0.124 S 
ATOM     67  O   UNL A   1      32.739  34.190  29.149  1.00  0.00    -0.237 OA
ATOM     68  O   UNL A   1      33.605  36.169  30.368  1.00  0.00    -0.237 OA
ATOM     69  O   UNL A   1      34.886  35.207  28.499  1.00  0.00    -0.744 OA
ENDBRANCH  62  66
ENDBRANCH  45  59
BRANCH  46  70
ATOM     70  C   UNL A   1      44.962  27.192  29.346  1.00  0.00     0.023 A 
ATOM     71  C   UNL A   1      44.823  27.470  27.953  1.00  0.00     0.031 A 
ATOM     72  C   UNL A   1      45.891  26.201  29.701  1.00  0.00     0.131 A 
ATOM     73  C   UNL A   1      45.675  26.867  26.998  1.00  0.00     0.055 A 
ATOM     74  C   UNL A   1      46.735  25.606  28.746  1.00  0.00     0.041 A 
ATOM     75  F   UNL A   1      46.105  25.900  30.989  1.00  0.00    -0.206 F 
ATOM     76  C   UNL A   1      46.660  25.965  27.401  1.00  0.00     0.022 A 
BRANCH  73  77
ATOM     77  S   UNL A   1      45.717  27.491  25.273  1.00  0.00     0.124 S 
ATOM     78  O   UNL A   1      46.285  26.361  24.547  1.00  0.00    -0.237 OA
ATOM     79  O   UNL A   1      44.316  27.785  24.993  1.00  0.00    -0.237 OA
ATOM     80  O   UNL A   1      46.568  28.678  25.362  1.00  0.00    -0.744 OA
ENDBRANCH  73  77
ENDBRANCH  46  70
BRANCH  58  81
ATOM     81  C   UNL A   1      43.099  34.190  30.257  1.00  0.00     0.023 A 
ATOM     82  C   UNL A   1      42.899  34.632  28.946  1.00  0.00     0.031 A 
ATOM     83  C   UNL A   1      43.431  35.187  31.200  1.00  0.00     0.131 A 
ATOM     84  C   UNL A   1      43.176  35.947  28.574  1.00  0.00     0.055 A 
ATOM     85  C   UNL A   1      43.570  36.532  30.853  1.00  0.00     0.041 A 
ATOM     86  F   UNL A   1      43.614  34.910  32.499  1.00  0.00    -0.206 F 
ATOM     87  C   UNL A   1      43.478  36.915  29.523  1.00  0.00     0.022 A 
BRANCH  84  88
ATOM     88  S   UNL A   1      43.273  36.287  26.804  1.00  0.00     0.124 S 
ATOM     89  O   UNL A   1      44.684  36.633  26.648  1.00  0.00    -0.237 OA
ATOM     90  O   UNL A   1      42.868  35.016  26.212  1.00  0.00    -0.237 OA
ATOM     91  O   UNL A   1      42.337  37.392  26.617  1.00  0.00    -0.744 OA
ENDBRANCH  84  88
ENDBRANCH  58  81
ENDBRANCH  32  33
ENDBRANCH  25  27
ENDBRANCH  24  25
ENDBRANCH  23  24
ENDBRANCH   1  23
TORSDOF 19
ENDMDL
