MODEL 1
REMARK VINA RESULT:     -10.5      0.000      0.000
REMARK SMILES C[C@@H]1C[N@@H+]([C@@H](C)CC(=O)OCCOCCOC(=O)c2ccc(-c3c4nc(c(-c5cc(S(=O)(=O)[O-])ccc5F)c5ccc([nH]5)c(-c5cc(S(=O)(=O)[O-])ccc5F)c5nc(c(-c6cc(S(=O)(=O)[O-])ccc6F)c6ccc3[nH]6)C=C5)C=C4)cc2)C[C@H](C)O1
REMARK SMILES IDX 14 1 13 2 12 3 11 4 10 5 8 6 9 7 7 8 5 9 6 10 4 11 1 12 2 13
REMARK SMILES IDX 3 14 85 15 83 16 82 17 84 19 15 20 16 21 17 22 18 23 19 24
REMARK SMILES IDX 20 25 81 26 21 27 80 28 22 29 23 30 24 31 74 32 25 33 79 34
REMARK SMILES IDX 73 35 75 36 26 37 78 38 72 39 71 40 27 42 59 43 39 44 58 45
REMARK SMILES IDX 40 46 43 47 57 48 76 49 41 50 42 51 56 53 77 54 44 55 28 56
REMARK SMILES IDX 29 57 37 58 30 59 36 60 38 61 35 62 31 63 32 64 33 65 34 66
REMARK SMILES IDX 60 67 61 68 69 69 62 70 68 71 70 72 67 73 63 74 64 75 65 76
REMARK SMILES IDX 66 77 45 78 46 79 54 80 47 81 53 82 55 83 52 84 48 85 49 86
REMARK SMILES IDX 50 87 51 88
REMARK H PARENT 4 18 75 41 43 52
REMARK Flexibility Score: inf
ROOT
ATOM      1  C   UNL A   1      34.954  20.372  24.999  1.00  0.00     0.202 C 
ENDROOT
BRANCH   1   2
ATOM      2  O   UNL A   1      34.338  20.814  26.207  1.00  0.00    -0.374 OA
BRANCH   2   3
ATOM      3  C   UNL A   1      33.460  21.936  26.097  1.00  0.00     0.202 C 
BRANCH   3   4
ATOM      4  C   UNL A   1      32.058  21.655  25.556  1.00  0.00     0.261 C 
BRANCH   4   5
ATOM      5  O   UNL A   1      31.320  22.875  25.359  1.00  0.00    -0.463 OA
BRANCH   5   6
ATOM      6  C   UNL A   1      31.118  23.632  26.460  1.00  0.00     0.311 C 
ATOM      7  O   UNL A   1      30.391  23.318  27.399  1.00  0.00    -0.252 OA
BRANCH   6   8
ATOM      8  C   UNL A   1      31.831  24.964  26.441  1.00  0.00     0.187 C 
BRANCH   8   9
ATOM      9  C   UNL A   1      32.554  25.455  25.162  1.00  0.00     0.192 C 
ATOM     10  C   UNL A   1      34.055  25.560  25.503  1.00  0.00     0.076 C 
BRANCH   9  11
ATOM     11  N   UNL A   1      32.002  26.666  24.522  1.00  0.00    -0.328 N 
ATOM     12  C   UNL A   1      29.335  28.044  23.129  1.00  0.00     0.045 C 
ATOM     13  C   UNL A   1      30.699  27.683  22.577  1.00  0.00     0.170 C 
ATOM     14  C   UNL A   1      31.308  26.419  23.237  1.00  0.00     0.294 C 
ATOM     15  O   UNL A   1      31.581  28.813  22.597  1.00  0.00    -0.364 OA
ATOM     16  C   UNL A   1      32.248  29.043  23.844  1.00  0.00     0.170 C 
ATOM     17  C   UNL A   1      32.960  27.766  24.324  1.00  0.00     0.294 C 
ATOM     18  H   UNL A   1      31.320  26.962  25.221  1.00  0.00     0.348 HD
ATOM     19  C   UNL A   1      31.344  29.657  24.914  1.00  0.00     0.045 C 
ENDBRANCH   9  11
ENDBRANCH   8   9
ENDBRANCH   6   8
ENDBRANCH   5   6
ENDBRANCH   4   5
ENDBRANCH   3   4
ENDBRANCH   2   3
ENDBRANCH   1   2
BRANCH   1  20
ATOM     20  C   UNL A   1      36.333  20.951  24.655  1.00  0.00     0.261 C 
BRANCH  20  21
ATOM     21  O   UNL A   1      37.015  21.515  25.787  1.00  0.00    -0.460 OA
BRANCH  21  22
ATOM     22  C   UNL A   1      38.350  21.269  25.841  1.00  0.00     0.338 C 
ATOM     23  O   UNL A   1      38.942  20.313  25.369  1.00  0.00    -0.246 OA
BRANCH  22  24
ATOM     24  C   UNL A   1      39.025  22.449  26.416  1.00  0.00     0.060 A 
ATOM     25  C   UNL A   1      38.507  23.727  26.168  1.00  0.00     0.016 A 
ATOM     26  C   UNL A   1      40.169  22.294  27.192  1.00  0.00     0.016 A 
ATOM     27  C   UNL A   1      39.140  24.859  26.694  1.00  0.00     0.010 A 
ATOM     28  C   UNL A   1      40.780  23.422  27.741  1.00  0.00     0.010 A 
ATOM     29  C   UNL A   1      40.294  24.719  27.475  1.00  0.00    -0.014 A 
BRANCH  29  30
ATOM     30  C   UNL A   1      41.137  25.884  27.865  1.00  0.00     0.031 A 
ATOM     31  C   UNL A   1      40.482  26.979  28.671  1.00  0.00     0.074 A 
ATOM     32  C   UNL A   1      42.426  26.014  27.491  1.00  0.00     0.049 A 
ATOM     33  N   UNL A   1      40.894  28.192  28.928  1.00  0.00    -0.248 NA
ATOM     34  C   UNL A   1      39.153  26.663  29.217  1.00  0.00     0.031 C 
ATOM     35  C   UNL A   1      43.204  25.020  26.757  1.00  0.00     0.029 A 
ATOM     36  N   UNL A   1      43.303  27.059  27.669  1.00  0.00    -0.354 N 
ATOM     37  C   UNL A   1      39.852  28.800  29.622  1.00  0.00     0.074 A 
ATOM     38  C   UNL A   1      38.770  27.840  29.681  1.00  0.00     0.031 C 
ATOM     39  C   UNL A   1      44.444  25.500  26.551  1.00  0.00     0.029 A 
ATOM     40  C   UNL A   1      44.533  26.861  27.081  1.00  0.00     0.049 A 
ATOM     41  H   UNL A   1      43.073  27.875  28.170  1.00  0.00     0.167 HD
ATOM     42  C   UNL A   1      39.806  30.034  30.180  1.00  0.00     0.034 A 
ATOM     43  C   UNL A   1      45.590  27.692  26.955  1.00  0.00     0.034 A 
ATOM     44  C   UNL A   1      40.904  30.964  30.143  1.00  0.00     0.049 A 
ATOM     45  C   UNL A   1      45.496  29.097  27.516  1.00  0.00     0.074 A 
ATOM     46  C   UNL A   1      40.978  32.230  30.695  1.00  0.00     0.029 A 
ATOM     47  N   UNL A   1      42.123  30.727  29.524  1.00  0.00    -0.354 N 
ATOM     48  N   UNL A   1      44.498  29.672  28.146  1.00  0.00    -0.248 NA
ATOM     49  C   UNL A   1      46.672  29.965  27.346  1.00  0.00     0.031 C 
ATOM     50  C   UNL A   1      42.211  32.787  30.346  1.00  0.00     0.029 A 
ATOM     51  C   UNL A   1      42.946  31.833  29.660  1.00  0.00     0.049 A 
ATOM     52  H   UNL A   1      42.368  29.896  29.056  1.00  0.00     0.167 HD
ATOM     53  C   UNL A   1      44.946  30.946  28.493  1.00  0.00     0.074 A 
ATOM     54  C   UNL A   1      46.300  31.061  27.993  1.00  0.00     0.031 C 
ATOM     55  C   UNL A   1      44.303  31.926  29.176  1.00  0.00     0.034 A 
BRANCH  42  56
ATOM     56  C   UNL A   1      38.510  30.448  30.838  1.00  0.00     0.023 A 
ATOM     57  C   UNL A   1      37.477  31.064  30.110  1.00  0.00     0.031 A 
ATOM     58  C   UNL A   1      38.329  30.281  32.221  1.00  0.00     0.131 A 
ATOM     59  C   UNL A   1      36.365  31.588  30.783  1.00  0.00     0.055 A 
ATOM     60  C   UNL A   1      37.169  30.710  32.869  1.00  0.00     0.041 A 
ATOM     61  F   UNL A   1      39.288  29.721  32.975  1.00  0.00    -0.206 F 
ATOM     62  C   UNL A   1      36.187  31.389  32.153  1.00  0.00     0.022 A 
BRANCH  59  63
ATOM     63  S   UNL A   1      35.256  32.699  29.873  1.00  0.00     0.124 S 
ATOM     64  O   UNL A   1      34.280  33.047  30.904  1.00  0.00    -0.237 OA
ATOM     65  O   UNL A   1      36.154  33.769  29.458  1.00  0.00    -0.237 OA
ATOM     66  O   UNL A   1      34.740  31.860  28.794  1.00  0.00    -0.744 OA
ENDBRANCH  59  63
ENDBRANCH  42  56
BRANCH  43  67
ATOM     67  C   UNL A   1      46.831  27.249  26.250  1.00  0.00     0.023 A 
ATOM     68  C   UNL A   1      47.101  27.666  24.936  1.00  0.00     0.031 A 
ATOM     69  C   UNL A   1      47.732  26.350  26.850  1.00  0.00     0.131 A 
ATOM     70  C   UNL A   1      48.211  27.147  24.248  1.00  0.00     0.055 A 
ATOM     71  C   UNL A   1      48.867  25.885  26.183  1.00  0.00     0.041 A 
ATOM     72  F   UNL A   1      47.521  25.911  28.100  1.00  0.00    -0.206 F 
ATOM     73  C   UNL A   1      49.105  26.273  24.868  1.00  0.00     0.022 A 
BRANCH  70  74
ATOM     74  S   UNL A   1      48.413  27.556  22.492  1.00  0.00     0.124 S 
ATOM     75  O   UNL A   1      49.641  28.343  22.511  1.00  0.00    -0.237 OA
ATOM     76  O   UNL A   1      48.509  26.233  21.882  1.00  0.00    -0.237 OA
ATOM     77  O   UNL A   1      47.197  28.300  22.173  1.00  0.00    -0.744 OA
ENDBRANCH  70  74
ENDBRANCH  43  67
BRANCH  55  78
ATOM     78  C   UNL A   1      45.074  33.177  29.521  1.00  0.00     0.023 A 
ATOM     79  C   UNL A   1      45.841  33.293  30.693  1.00  0.00     0.031 A 
ATOM     80  C   UNL A   1      45.085  34.253  28.613  1.00  0.00     0.131 A 
ATOM     81  C   UNL A   1      46.571  34.469  30.934  1.00  0.00     0.055 A 
ATOM     82  C   UNL A   1      45.856  35.394  28.832  1.00  0.00     0.041 A 
ATOM     83  F   UNL A   1      44.368  34.196  27.480  1.00  0.00    -0.206 F 
ATOM     84  C   UNL A   1      46.600  35.510  30.000  1.00  0.00     0.022 A 
BRANCH  81  85
ATOM     85  S   UNL A   1      47.451  34.648  32.511  1.00  0.00     0.124 S 
ATOM     86  O   UNL A   1      48.798  34.215  32.158  1.00  0.00    -0.237 OA
ATOM     87  O   UNL A   1      47.293  36.070  32.799  1.00  0.00    -0.237 OA
ATOM     88  O   UNL A   1      46.727  33.752  33.411  1.00  0.00    -0.744 OA
ENDBRANCH  81  85
ENDBRANCH  55  78
ENDBRANCH  29  30
ENDBRANCH  22  24
ENDBRANCH  21  22
ENDBRANCH  20  21
ENDBRANCH   1  20
TORSDOF 19
ENDMDL
MODEL 2
REMARK VINA RESULT:     -10.5      1.746      2.176
REMARK SMILES C[C@@H]1C[N@@H+]([C@@H](C)CC(=O)OCCOCCOC(=O)c2ccc(-c3c4nc(c(-c5cc(S(=O)(=O)[O-])ccc5F)c5ccc([nH]5)c(-c5cc(S(=O)(=O)[O-])ccc5F)c5nc(c(-c6cc(S(=O)(=O)[O-])ccc6F)c6ccc3[nH]6)C=C5)C=C4)cc2)C[C@H](C)O1
REMARK SMILES IDX 14 1 13 2 12 3 11 4 10 5 8 6 9 7 7 8 5 9 6 10 4 11 1 12 2 13
REMARK SMILES IDX 3 14 85 15 83 16 82 17 84 19 15 20 16 21 17 22 18 23 19 24
REMARK SMILES IDX 20 25 81 26 21 27 80 28 22 29 23 30 24 31 74 32 25 33 79 34
REMARK SMILES IDX 73 35 75 36 26 37 78 38 72 39 71 40 27 42 59 43 39 44 58 45
REMARK SMILES IDX 40 46 43 47 57 48 76 49 41 50 42 51 56 53 77 54 44 55 28 56
REMARK SMILES IDX 29 57 37 58 30 59 36 60 38 61 35 62 31 63 32 64 33 65 34 66
REMARK SMILES IDX 60 67 61 68 69 69 62 70 68 71 70 72 67 73 63 74 64 75 65 76
REMARK SMILES IDX 66 77 45 78 46 79 54 80 47 81 53 82 55 83 52 84 48 85 49 86
REMARK SMILES IDX 50 87 51 88
REMARK H PARENT 4 18 75 41 43 52
REMARK Flexibility Score: inf
ROOT
ATOM      1  C   UNL A   1      35.432  21.034  25.036  1.00  0.00     0.202 C 
ENDROOT
BRANCH   1   2
ATOM      2  O   UNL A   1      34.742  21.484  26.200  1.00  0.00    -0.374 OA
BRANCH   2   3
ATOM      3  C   UNL A   1      34.811  22.883  26.476  1.00  0.00     0.202 C 
BRANCH   3   4
ATOM      4  C   UNL A   1      34.257  23.820  25.402  1.00  0.00     0.261 C 
BRANCH   4   5
ATOM      5  O   UNL A   1      34.516  25.199  25.727  1.00  0.00    -0.463 OA
BRANCH   5   6
ATOM      6  C   UNL A   1      33.441  25.935  26.087  1.00  0.00     0.311 C 
ATOM      7  O   UNL A   1      32.308  25.489  26.240  1.00  0.00    -0.252 OA
BRANCH   6   8
ATOM      8  C   UNL A   1      33.723  27.412  26.247  1.00  0.00     0.187 C 
BRANCH   8   9
ATOM      9  C   UNL A   1      33.182  28.435  25.218  1.00  0.00     0.192 C 
ATOM     10  C   UNL A   1      32.736  29.681  26.011  1.00  0.00     0.076 C 
BRANCH   9  11
ATOM     11  N   UNL A   1      32.165  27.935  24.271  1.00  0.00    -0.328 N 
ATOM     12  C   UNL A   1      31.452  25.654  21.982  1.00  0.00     0.045 C 
ATOM     13  C   UNL A   1      31.610  27.158  21.904  1.00  0.00     0.170 C 
ATOM     14  C   UNL A   1      32.666  27.713  22.894  1.00  0.00     0.294 C 
ATOM     15  O   UNL A   1      30.339  27.817  22.001  1.00  0.00    -0.364 OA
ATOM     16  C   UNL A   1      29.864  28.029  23.337  1.00  0.00     0.170 C 
ATOM     17  C   UNL A   1      30.933  28.737  24.189  1.00  0.00     0.294 C 
ATOM     18  H   UNL A   1      31.931  27.036  24.692  1.00  0.00     0.348 HD
ATOM     19  C   UNL A   1      29.323  26.760  23.998  1.00  0.00     0.045 C 
ENDBRANCH   9  11
ENDBRANCH   8   9
ENDBRANCH   6   8
ENDBRANCH   5   6
ENDBRANCH   4   5
ENDBRANCH   3   4
ENDBRANCH   2   3
ENDBRANCH   1   2
BRANCH   1  20
ATOM     20  C   UNL A   1      36.913  20.662  25.190  1.00  0.00     0.261 C 
BRANCH  20  21
ATOM     21  O   UNL A   1      37.759  21.789  25.470  1.00  0.00    -0.460 OA
BRANCH  21  22
ATOM     22  C   UNL A   1      38.937  21.492  26.078  1.00  0.00     0.338 C 
ATOM     23  O   UNL A   1      39.533  20.429  26.048  1.00  0.00    -0.246 OA
BRANCH  22  24
ATOM     24  C   UNL A   1      39.499  22.731  26.650  1.00  0.00     0.060 A 
ATOM     25  C   UNL A   1      38.923  23.965  26.318  1.00  0.00     0.016 A 
ATOM     26  C   UNL A   1      40.595  22.676  27.504  1.00  0.00     0.016 A 
ATOM     27  C   UNL A   1      39.449  25.152  26.840  1.00  0.00     0.010 A 
ATOM     28  C   UNL A   1      41.098  23.859  28.049  1.00  0.00     0.010 A 
ATOM     29  C   UNL A   1      40.553  25.112  27.701  1.00  0.00    -0.014 A 
BRANCH  29  30
ATOM     30  C   UNL A   1      41.296  26.341  28.099  1.00  0.00     0.031 A 
ATOM     31  C   UNL A   1      40.529  27.408  28.841  1.00  0.00     0.074 A 
ATOM     32  C   UNL A   1      42.591  26.549  27.787  1.00  0.00     0.049 A 
ATOM     33  N   UNL A   1      40.846  28.652  29.085  1.00  0.00    -0.248 NA
ATOM     34  C   UNL A   1      39.198  27.016  29.330  1.00  0.00     0.031 C 
ATOM     35  C   UNL A   1      43.470  25.593  27.120  1.00  0.00     0.029 A 
ATOM     36  N   UNL A   1      43.386  27.655  27.979  1.00  0.00    -0.354 N 
ATOM     37  C   UNL A   1      39.731  29.204  29.710  1.00  0.00     0.074 A 
ATOM     38  C   UNL A   1      38.714  28.176  29.741  1.00  0.00     0.031 C 
ATOM     39  C   UNL A   1      44.684  26.151  26.963  1.00  0.00     0.029 A 
ATOM     40  C   UNL A   1      44.655  27.526  27.458  1.00  0.00     0.049 A 
ATOM     41  H   UNL A   1      43.077  28.466  28.445  1.00  0.00     0.167 HD
ATOM     42  C   UNL A   1      39.575  30.445  30.230  1.00  0.00     0.034 A 
ATOM     43  C   UNL A   1      45.660  28.424  27.363  1.00  0.00     0.034 A 
ATOM     44  C   UNL A   1      40.608  31.447  30.222  1.00  0.00     0.049 A 
ATOM     45  C   UNL A   1      45.444  29.832  27.879  1.00  0.00     0.074 A 
ATOM     46  C   UNL A   1      40.570  32.728  30.743  1.00  0.00     0.029 A 
ATOM     47  N   UNL A   1      41.871  31.279  29.671  1.00  0.00    -0.354 N 
ATOM     48  N   UNL A   1      44.378  30.354  28.443  1.00  0.00    -0.248 NA
ATOM     49  C   UNL A   1      46.567  30.774  27.744  1.00  0.00     0.031 C 
ATOM     50  C   UNL A   1      41.780  33.359  30.439  1.00  0.00     0.029 A 
ATOM     51  C   UNL A   1      42.611  32.440  29.817  1.00  0.00     0.049 A 
ATOM     52  H   UNL A   1      42.194  30.454  29.240  1.00  0.00     0.167 HD
ATOM     53  C   UNL A   1      44.723  31.663  28.776  1.00  0.00     0.074 A 
ATOM     54  C   UNL A   1      46.090  31.857  28.341  1.00  0.00     0.031 C 
ATOM     55  C   UNL A   1      43.982  32.614  29.399  1.00  0.00     0.034 A 
BRANCH  42  56
ATOM     56  C   UNL A   1      38.222  30.786  30.811  1.00  0.00     0.023 A 
ATOM     57  C   UNL A   1      37.211  31.376  30.032  1.00  0.00     0.031 A 
ATOM     58  C   UNL A   1      37.960  30.578  32.176  1.00  0.00     0.131 A 
ATOM     59  C   UNL A   1      36.035  31.834  30.643  1.00  0.00     0.055 A 
ATOM     60  C   UNL A   1      36.743  30.940  32.756  1.00  0.00     0.041 A 
ATOM     61  F   UNL A   1      38.894  30.041  32.978  1.00  0.00    -0.206 F 
ATOM     62  C   UNL A   1      35.780  31.594  31.993  1.00  0.00     0.022 A 
BRANCH  59  63
ATOM     63  S   UNL A   1      34.939  32.919  29.687  1.00  0.00     0.124 S 
ATOM     64  O   UNL A   1      34.032  33.406  30.725  1.00  0.00    -0.237 OA
ATOM     65  O   UNL A   1      35.866  33.900  29.138  1.00  0.00    -0.237 OA
ATOM     66  O   UNL A   1      34.330  32.017  28.712  1.00  0.00    -0.744 OA
ENDBRANCH  59  63
ENDBRANCH  42  56
BRANCH  43  67
ATOM     67  C   UNL A   1      46.962  28.049  26.732  1.00  0.00     0.023 A 
ATOM     68  C   UNL A   1      47.119  28.068  25.336  1.00  0.00     0.031 A 
ATOM     69  C   UNL A   1      48.048  27.603  27.507  1.00  0.00     0.131 A 
ATOM     70  C   UNL A   1      48.310  27.601  24.757  1.00  0.00     0.055 A 
ATOM     71  C   UNL A   1      49.252  27.198  26.928  1.00  0.00     0.041 A 
ATOM     72  F   UNL A   1      47.953  27.556  28.845  1.00  0.00    -0.206 F 
ATOM     73  C   UNL A   1      49.384  27.183  25.543  1.00  0.00     0.022 A 
BRANCH  70  74
ATOM     74  S   UNL A   1      48.398  27.455  22.950  1.00  0.00     0.124 S 
ATOM     75  O   UNL A   1      48.372  26.008  22.770  1.00  0.00    -0.237 OA
ATOM     76  O   UNL A   1      47.202  28.176  22.528  1.00  0.00    -0.237 OA
ATOM     77  O   UNL A   1      49.664  28.104  22.618  1.00  0.00    -0.744 OA
ENDBRANCH  70  74
ENDBRANCH  43  67
BRANCH  55  78
ATOM     78  C   UNL A   1      44.649  33.922  29.748  1.00  0.00     0.023 A 
ATOM     79  C   UNL A   1      44.544  35.064  28.936  1.00  0.00     0.031 A 
ATOM     80  C   UNL A   1      45.354  34.035  30.961  1.00  0.00     0.131 A 
ATOM     81  C   UNL A   1      45.152  36.264  29.339  1.00  0.00     0.055 A 
ATOM     82  C   UNL A   1      45.908  35.244  31.382  1.00  0.00     0.041 A 
ATOM     83  F   UNL A   1      45.487  32.975  31.773  1.00  0.00    -0.206 F 
ATOM     84  C   UNL A   1      45.814  36.366  30.566  1.00  0.00     0.022 A 
BRANCH  81  85
ATOM     85  S   UNL A   1      45.112  37.689  28.216  1.00  0.00     0.124 S 
ATOM     86  O   UNL A   1      43.853  38.329  28.582  1.00  0.00    -0.237 OA
ATOM     87  O   UNL A   1      46.325  38.412  28.583  1.00  0.00    -0.237 OA
ATOM     88  O   UNL A   1      45.135  37.080  26.887  1.00  0.00    -0.744 OA
ENDBRANCH  81  85
ENDBRANCH  55  78
ENDBRANCH  29  30
ENDBRANCH  22  24
ENDBRANCH  21  22
ENDBRANCH  20  21
ENDBRANCH   1  20
TORSDOF 19
ENDMDL
MODEL 3
REMARK VINA RESULT:     -10.5      2.009      2.526
REMARK SMILES C[C@@H]1C[N@@H+]([C@@H](C)CC(=O)OCCOCCOC(=O)c2ccc(-c3c4nc(c(-c5cc(S(=O)(=O)[O-])ccc5F)c5ccc([nH]5)c(-c5cc(S(=O)(=O)[O-])ccc5F)c5nc(c(-c6cc(S(=O)(=O)[O-])ccc6F)c6ccc3[nH]6)C=C5)C=C4)cc2)C[C@H](C)O1
REMARK SMILES IDX 14 1 13 2 12 3 11 4 10 5 8 6 9 7 7 8 5 9 6 10 4 11 1 12 2 13
REMARK SMILES IDX 3 14 85 15 83 16 82 17 84 19 15 20 16 21 17 22 18 23 19 24
REMARK SMILES IDX 20 25 81 26 21 27 80 28 22 29 23 30 24 31 74 32 25 33 79 34
REMARK SMILES IDX 73 35 75 36 26 37 78 38 72 39 71 40 27 42 59 43 39 44 58 45
REMARK SMILES IDX 40 46 43 47 57 48 76 49 41 50 42 51 56 53 77 54 44 55 28 56
REMARK SMILES IDX 29 57 37 58 30 59 36 60 38 61 35 62 31 63 32 64 33 65 34 66
REMARK SMILES IDX 60 67 61 68 69 69 62 70 68 71 70 72 67 73 63 74 64 75 65 76
REMARK SMILES IDX 66 77 45 78 46 79 54 80 47 81 53 82 55 83 52 84 48 85 49 86
REMARK SMILES IDX 50 87 51 88
REMARK H PARENT 4 18 75 41 43 52
REMARK Flexibility Score: inf
ROOT
ATOM      1  C   UNL A   1      35.042  20.762  25.192  1.00  0.00     0.202 C 
ENDROOT
BRANCH   1   2
ATOM      2  O   UNL A   1      34.002  19.991  24.593  1.00  0.00    -0.374 OA
BRANCH   2   3
ATOM      3  C   UNL A   1      32.733  20.022  25.247  1.00  0.00     0.202 C 
BRANCH   3   4
ATOM      4  C   UNL A   1      31.837  21.224  24.943  1.00  0.00     0.261 C 
BRANCH   4   5
ATOM      5  O   UNL A   1      32.082  22.305  25.861  1.00  0.00    -0.463 OA
BRANCH   5   6
ATOM      6  C   UNL A   1      32.476  23.474  25.310  1.00  0.00     0.311 C 
ATOM      7  O   UNL A   1      32.896  23.599  24.163  1.00  0.00    -0.252 OA
BRANCH   6   8
ATOM      8  C   UNL A   1      32.410  24.658  26.247  1.00  0.00     0.187 C 
BRANCH   8   9
ATOM      9  C   UNL A   1      31.462  25.847  25.952  1.00  0.00     0.192 C 
ATOM     10  C   UNL A   1      30.019  25.327  26.119  1.00  0.00     0.076 C 
BRANCH   9  11
ATOM     11  N   UNL A   1      31.693  26.569  24.684  1.00  0.00    -0.328 N 
ATOM     12  C   UNL A   1      33.790  28.465  22.963  1.00  0.00     0.045 C 
ATOM     13  C   UNL A   1      32.406  28.727  23.522  1.00  0.00     0.170 C 
ATOM     14  C   UNL A   1      32.132  27.975  24.850  1.00  0.00     0.294 C 
ATOM     15  O   UNL A   1      31.397  28.508  22.527  1.00  0.00    -0.364 OA
ATOM     16  C   UNL A   1      30.977  27.146  22.376  1.00  0.00     0.170 C 
ATOM     17  C   UNL A   1      30.568  26.547  23.734  1.00  0.00     0.294 C 
ATOM     18  H   UNL A   1      32.456  26.024  24.285  1.00  0.00     0.348 HD
ATOM     19  C   UNL A   1      31.988  26.277  21.624  1.00  0.00     0.045 C 
ENDBRANCH   9  11
ENDBRANCH   8   9
ENDBRANCH   6   8
ENDBRANCH   5   6
ENDBRANCH   4   5
ENDBRANCH   3   4
ENDBRANCH   2   3
ENDBRANCH   1   2
BRANCH   1  20
ATOM     20  C   UNL A   1      36.485  20.273  25.000  1.00  0.00     0.261 C 
BRANCH  20  21
ATOM     21  O   UNL A   1      37.464  21.315  25.142  1.00  0.00    -0.460 OA
BRANCH  21  22
ATOM     22  C   UNL A   1      38.617  20.947  25.758  1.00  0.00     0.338 C 
ATOM     23  O   UNL A   1      39.133  19.842  25.754  1.00  0.00    -0.246 OA
BRANCH  22  24
ATOM     24  C   UNL A   1      39.269  22.154  26.302  1.00  0.00     0.060 A 
ATOM     25  C   UNL A   1      38.739  23.416  26.002  1.00  0.00     0.016 A 
ATOM     26  C   UNL A   1      40.402  22.040  27.100  1.00  0.00     0.016 A 
ATOM     27  C   UNL A   1      39.350  24.573  26.499  1.00  0.00     0.010 A 
ATOM     28  C   UNL A   1      40.990  23.195  27.620  1.00  0.00     0.010 A 
ATOM     29  C   UNL A   1      40.492  24.475  27.302  1.00  0.00    -0.014 A 
BRANCH  29  30
ATOM     30  C   UNL A   1      41.315  25.664  27.664  1.00  0.00     0.031 A 
ATOM     31  C   UNL A   1      40.648  26.754  28.466  1.00  0.00     0.074 A 
ATOM     32  C   UNL A   1      42.595  25.817  27.270  1.00  0.00     0.049 A 
ATOM     33  N   UNL A   1      41.036  27.979  28.702  1.00  0.00    -0.248 NA
ATOM     34  C   UNL A   1      39.334  26.416  29.037  1.00  0.00     0.031 C 
ATOM     35  C   UNL A   1      43.385  24.831  26.537  1.00  0.00     0.029 A 
ATOM     36  N   UNL A   1      43.451  26.883  27.421  1.00  0.00    -0.354 N 
ATOM     37  C   UNL A   1      39.991  28.572  29.404  1.00  0.00     0.074 A 
ATOM     38  C   UNL A   1      38.932  27.590  29.491  1.00  0.00     0.031 C 
ATOM     39  C   UNL A   1      44.610  25.336  26.306  1.00  0.00     0.029 A 
ATOM     40  C   UNL A   1      44.676  26.705  26.817  1.00  0.00     0.049 A 
ATOM     41  H   UNL A   1      43.211  27.701  27.915  1.00  0.00     0.167 HD
ATOM     42  C   UNL A   1      39.926  29.812  29.947  1.00  0.00     0.034 A 
ATOM     43  C   UNL A   1      45.713  27.558  26.666  1.00  0.00     0.034 A 
ATOM     44  C   UNL A   1      41.002  30.766  29.882  1.00  0.00     0.049 A 
ATOM     45  C   UNL A   1      45.596  28.967  27.210  1.00  0.00     0.074 A 
ATOM     46  C   UNL A   1      41.056  32.040  30.417  1.00  0.00     0.029 A 
ATOM     47  N   UNL A   1      42.217  30.548  29.248  1.00  0.00    -0.354 N 
ATOM     48  N   UNL A   1      44.594  29.528  27.848  1.00  0.00    -0.248 NA
ATOM     49  C   UNL A   1      46.749  29.859  27.012  1.00  0.00     0.031 C 
ATOM     50  C   UNL A   1      42.271  32.620  30.042  1.00  0.00     0.029 A 
ATOM     51  C   UNL A   1      43.017  31.673  29.357  1.00  0.00     0.049 A 
ATOM     52  H   UNL A   1      42.473  29.716  28.787  1.00  0.00     0.167 HD
ATOM     53  C   UNL A   1      45.019  30.816  28.171  1.00  0.00     0.074 A 
ATOM     54  C   UNL A   1      46.362  30.955  27.650  1.00  0.00     0.031 C 
ATOM     55  C   UNL A   1      44.365  31.790  28.852  1.00  0.00     0.034 A 
BRANCH  42  56
ATOM     56  C   UNL A   1      38.631  30.205  30.619  1.00  0.00     0.023 A 
ATOM     57  C   UNL A   1      37.605  30.862  29.917  1.00  0.00     0.031 A 
ATOM     58  C   UNL A   1      38.444  29.978  31.993  1.00  0.00     0.131 A 
ATOM     59  C   UNL A   1      36.494  31.364  30.610  1.00  0.00     0.055 A 
ATOM     60  C   UNL A   1      37.285  30.386  32.656  1.00  0.00     0.041 A 
ATOM     61  F   UNL A   1      39.397  29.377  32.724  1.00  0.00    -0.206 F 
ATOM     62  C   UNL A   1      36.311  31.104  31.969  1.00  0.00     0.022 A 
BRANCH  59  63
ATOM     63  S   UNL A   1      35.397  32.523  29.748  1.00  0.00     0.124 S 
ATOM     64  O   UNL A   1      35.040  31.757  28.556  1.00  0.00    -0.237 OA
ATOM     65  O   UNL A   1      34.330  32.728  30.718  1.00  0.00    -0.237 OA
ATOM     66  O   UNL A   1      36.251  33.683  29.501  1.00  0.00    -0.744 OA
ENDBRANCH  59  63
ENDBRANCH  42  56
BRANCH  43  67
ATOM     67  C   UNL A   1      46.953  27.133  25.947  1.00  0.00     0.023 A 
ATOM     68  C   UNL A   1      48.011  26.518  26.637  1.00  0.00     0.031 A 
ATOM     69  C   UNL A   1      47.129  27.395  24.576  1.00  0.00     0.131 A 
ATOM     70  C   UNL A   1      49.213  26.232  25.968  1.00  0.00     0.055 A 
ATOM     71  C   UNL A   1      48.304  27.053  23.903  1.00  0.00     0.041 A 
ATOM     72  F   UNL A   1      46.156  27.989  23.867  1.00  0.00    -0.206 F 
ATOM     73  C   UNL A   1      49.360  26.479  24.603  1.00  0.00     0.022 A 
BRANCH  70  74
ATOM     74  S   UNL A   1      50.621  25.622  26.937  1.00  0.00     0.124 S 
ATOM     75  O   UNL A   1      51.597  25.338  25.891  1.00  0.00    -0.237 OA
ATOM     76  O   UNL A   1      50.915  26.764  27.797  1.00  0.00    -0.237 OA
ATOM     77  O   UNL A   1      50.080  24.451  27.622  1.00  0.00    -0.744 OA
ENDBRANCH  70  74
ENDBRANCH  43  67
BRANCH  55  78
ATOM     78  C   UNL A   1      45.112  33.063  29.170  1.00  0.00     0.023 A 
ATOM     79  C   UNL A   1      45.095  34.181  28.320  1.00  0.00     0.031 A 
ATOM     80  C   UNL A   1      45.805  33.169  30.391  1.00  0.00     0.131 A 
ATOM     81  C   UNL A   1      45.777  35.352  28.695  1.00  0.00     0.055 A 
ATOM     82  C   UNL A   1      46.432  34.351  30.783  1.00  0.00     0.041 A 
ATOM     83  F   UNL A   1      45.855  32.129  31.239  1.00  0.00    -0.206 F 
ATOM     84  C   UNL A   1      46.425  35.449  29.930  1.00  0.00     0.022 A 
BRANCH  81  85
ATOM     85  S   UNL A   1      45.848  36.739  27.528  1.00  0.00     0.124 S 
ATOM     86  O   UNL A   1      46.595  37.736  28.286  1.00  0.00    -0.237 OA
ATOM     87  O   UNL A   1      46.543  36.152  26.386  1.00  0.00    -0.237 OA
ATOM     88  O   UNL A   1      44.442  37.063  27.294  1.00  0.00    -0.744 OA
ENDBRANCH  81  85
ENDBRANCH  55  78
ENDBRANCH  29  30
ENDBRANCH  22  24
ENDBRANCH  21  22
ENDBRANCH  20  21
ENDBRANCH   1  20
TORSDOF 19
ENDMDL
