MODEL 1
REMARK VINA RESULT:     -10.8      0.000      0.000
REMARK SMILES Cn1cc(S[C@@H]2CCC[C@]([NH2+]C3CC3)(C(=O)OCCOCCOC(=O)c3ccc(-c4c5nc(c(-c6cc(S(=O)(=O)[O-])ccc6F)c6ccc([nH]6)c(-c6cc(S(=O)(=O)[O-])ccc6F)c6nc(c(-c7cc(S(=O)(=O)[O-])ccc7F)c7ccc4[nH]7)C=C6)C=C5)cc3)C2)cn1
REMARK SMILES IDX 21 1 20 2 19 3 18 4 17 5 15 6 16 7 10 8 6 9 7 10 89 11 8 12
REMARK SMILES IDX 9 13 5 14 4 15 1 16 2 17 3 18 91 19 90 20 11 21 12 24 13 25
REMARK SMILES IDX 14 26 22 27 23 28 24 29 25 30 26 31 27 32 88 33 28 34 87 35
REMARK SMILES IDX 29 36 30 37 31 38 81 39 32 40 86 41 80 42 82 43 33 44 85 45
REMARK SMILES IDX 79 46 78 47 34 49 66 50 46 51 65 52 47 53 50 54 64 55 83 56
REMARK SMILES IDX 48 57 49 58 63 60 84 61 51 62 35 63 36 64 44 65 37 66 43 67
REMARK SMILES IDX 45 68 42 69 38 70 39 71 40 72 41 73 67 74 68 75 76 76 69 77
REMARK SMILES IDX 75 78 77 79 74 80 70 81 71 82 72 83 73 84 52 85 53 86 61 87
REMARK SMILES IDX 54 88 60 89 62 90 59 91 55 92 56 93 57 94 58 95
REMARK H PARENT 11 22 11 23 82 48 50 59
REMARK Flexibility Score: inf
ROOT
ATOM      1  C   UNL A   1      31.438  29.921  24.956  1.00  0.00     0.202 C 
ENDROOT
BRANCH   1   2
ATOM      2  O   UNL A   1      32.727  29.419  24.619  1.00  0.00    -0.374 OA
BRANCH   2   3
ATOM      3  C   UNL A   1      32.788  28.424  23.598  1.00  0.00     0.202 C 
BRANCH   3   4
ATOM      4  C   UNL A   1      33.391  27.064  23.971  1.00  0.00     0.261 C 
BRANCH   4   5
ATOM      5  O   UNL A   1      32.578  25.945  23.554  1.00  0.00    -0.459 OA
BRANCH   5   6
ATOM      6  C   UNL A   1      33.281  24.860  23.134  1.00  0.00     0.368 C 
ATOM      7  O   UNL A   1      33.980  24.854  22.121  1.00  0.00    -0.245 OA
BRANCH   6   8
ATOM      8  C   UNL A   1      33.237  23.634  24.125  1.00  0.00     0.195 C 
ATOM      9  C   UNL A   1      32.649  21.140  24.328  1.00  0.00     0.058 C 
ATOM     10  C   UNL A   1      31.631  21.427  25.441  1.00  0.00     0.015 C 
ATOM     11  C   UNL A   1      32.909  22.322  23.381  1.00  0.00     0.096 C 
ATOM     12  C   UNL A   1      31.823  22.779  26.129  1.00  0.00     0.008 C 
ATOM     13  C   UNL A   1      32.117  23.913  25.153  1.00  0.00     0.081 C 
BRANCH   9  14
ATOM     14  S   UNL A   1      32.400  19.592  23.393  1.00  0.00    -0.119 SA
BRANCH  14  15
ATOM     15  C   UNL A   1      33.146  18.290  24.261  1.00  0.00     0.046 A 
ATOM     16  C   UNL A   1      35.382  15.643  25.227  1.00  0.00     0.173 C 
ATOM     17  N   UNL A   1      34.372  16.661  25.055  1.00  0.00    -0.275 N 
ATOM     18  C   UNL A   1      34.365  17.672  24.133  1.00  0.00     0.123 A 
ATOM     19  N   UNL A   1      33.271  16.629  25.826  1.00  0.00    -0.181 NA
ATOM     20  C   UNL A   1      32.538  17.642  25.357  1.00  0.00     0.150 A 
ENDBRANCH  14  15
ENDBRANCH   9  14
BRANCH   8  21
ATOM     21  N   UNL A   1      34.592  23.680  24.724  1.00  0.00    -0.330 N 
ATOM     22  H   UNL A   1      34.444  23.653  25.732  1.00  0.00     0.347 HD
ATOM     23  H   UNL A   1      34.969  24.503  24.254  1.00  0.00     0.347 HD
BRANCH  21  24
ATOM     24  C   UNL A   1      35.649  22.732  24.467  1.00  0.00     0.183 C 
ATOM     25  C   UNL A   1      36.995  23.250  24.048  1.00  0.00     0.071 C 
ATOM     26  C   UNL A   1      36.805  22.714  25.433  1.00  0.00     0.071 C 
ENDBRANCH  21  24
ENDBRANCH   8  21
ENDBRANCH   6   8
ENDBRANCH   5   6
ENDBRANCH   4   5
ENDBRANCH   3   4
ENDBRANCH   2   3
ENDBRANCH   1   2
BRANCH   1  27
ATOM     27  C   UNL A   1      31.363  30.999  26.045  1.00  0.00     0.261 C 
BRANCH  27  28
ATOM     28  O   UNL A   1      32.365  30.821  27.062  1.00  0.00    -0.460 OA
BRANCH  28  29
ATOM     29  C   UNL A   1      33.084  31.937  27.330  1.00  0.00     0.338 C 
ATOM     30  O   UNL A   1      32.663  33.086  27.372  1.00  0.00    -0.246 OA
BRANCH  29  31
ATOM     31  C   UNL A   1      34.448  31.580  27.763  1.00  0.00     0.060 A 
ATOM     32  C   UNL A   1      34.705  30.225  28.012  1.00  0.00     0.016 A 
ATOM     33  C   UNL A   1      35.435  32.542  27.992  1.00  0.00     0.016 A 
ATOM     34  C   UNL A   1      35.926  29.832  28.553  1.00  0.00     0.010 A 
ATOM     35  C   UNL A   1      36.660  32.145  28.545  1.00  0.00     0.010 A 
ATOM     36  C   UNL A   1      36.892  30.794  28.867  1.00  0.00    -0.014 A 
BRANCH  36  37
ATOM     37  C   UNL A   1      38.056  30.405  29.703  1.00  0.00     0.031 A 
ATOM     38  C   UNL A   1      39.047  29.419  29.144  1.00  0.00     0.074 A 
ATOM     39  C   UNL A   1      38.257  30.957  30.914  1.00  0.00     0.049 A 
ATOM     40  N   UNL A   1      40.111  28.902  29.700  1.00  0.00    -0.248 NA
ATOM     41  C   UNL A   1      38.796  28.952  27.772  1.00  0.00     0.031 C 
ATOM     42  C   UNL A   1      37.401  31.968  31.533  1.00  0.00     0.029 A 
ATOM     43  N   UNL A   1      39.247  30.743  31.839  1.00  0.00    -0.354 N 
ATOM     44  C   UNL A   1      40.656  28.044  28.749  1.00  0.00     0.074 A 
ATOM     45  C   UNL A   1      39.781  28.085  27.596  1.00  0.00     0.031 C 
ATOM     46  C   UNL A   1      37.899  32.278  32.744  1.00  0.00     0.029 A 
ATOM     47  C   UNL A   1      39.084  31.461  33.000  1.00  0.00     0.049 A 
ATOM     48  H   UNL A   1      40.004  30.131  31.686  1.00  0.00     0.167 HD
ATOM     49  C   UNL A   1      41.787  27.300  28.827  1.00  0.00     0.034 A 
ATOM     50  C   UNL A   1      39.794  31.439  34.148  1.00  0.00     0.034 A 
ATOM     51  C   UNL A   1      42.645  27.266  29.986  1.00  0.00     0.049 A 
ATOM     52  C   UNL A   1      40.999  30.532  34.247  1.00  0.00     0.074 A 
ATOM     53  C   UNL A   1      43.817  26.553  30.170  1.00  0.00     0.029 A 
ATOM     54  N   UNL A   1      42.421  27.971  31.162  1.00  0.00    -0.354 N 
ATOM     55  N   UNL A   1      41.501  29.723  33.341  1.00  0.00    -0.248 NA
ATOM     56  C   UNL A   1      41.735  30.542  35.517  1.00  0.00     0.031 C 
ATOM     57  C   UNL A   1      44.261  26.769  31.479  1.00  0.00     0.029 A 
ATOM     58  C   UNL A   1      43.413  27.682  32.087  1.00  0.00     0.049 A 
ATOM     59  H   UNL A   1      41.668  28.585  31.317  1.00  0.00     0.167 HD
ATOM     60  C   UNL A   1      42.632  29.155  33.925  1.00  0.00     0.074 A 
ATOM     61  C   UNL A   1      42.742  29.724  35.253  1.00  0.00     0.031 C 
ATOM     62  C   UNL A   1      43.506  28.253  33.410  1.00  0.00     0.034 A 
BRANCH  49  63
ATOM     63  C   UNL A   1      42.121  26.420  27.646  1.00  0.00     0.023 A 
ATOM     64  C   UNL A   1      41.669  25.092  27.558  1.00  0.00     0.031 A 
ATOM     65  C   UNL A   1      42.929  26.912  26.606  1.00  0.00     0.131 A 
ATOM     66  C   UNL A   1      42.085  24.282  26.490  1.00  0.00     0.055 A 
ATOM     67  C   UNL A   1      43.273  26.125  25.506  1.00  0.00     0.041 A 
ATOM     68  F   UNL A   1      43.410  28.164  26.648  1.00  0.00    -0.206 F 
ATOM     69  C   UNL A   1      42.862  24.797  25.450  1.00  0.00     0.022 A 
BRANCH  66  70
ATOM     70  S   UNL A   1      41.710  22.508  26.548  1.00  0.00     0.124 S 
ATOM     71  O   UNL A   1      42.507  22.003  25.433  1.00  0.00    -0.237 OA
ATOM     72  O   UNL A   1      42.166  22.133  27.882  1.00  0.00    -0.237 OA
ATOM     73  O   UNL A   1      40.264  22.456  26.344  1.00  0.00    -0.744 OA
ENDBRANCH  66  70
ENDBRANCH  49  63
BRANCH  50  74
ATOM     74  C   UNL A   1      39.367  32.260  35.318  1.00  0.00     0.023 A 
ATOM     75  C   UNL A   1      39.779  33.594  35.463  1.00  0.00     0.031 A 
ATOM     76  C   UNL A   1      38.591  31.696  36.346  1.00  0.00     0.131 A 
ATOM     77  C   UNL A   1      39.457  34.304  36.631  1.00  0.00     0.055 A 
ATOM     78  C   UNL A   1      38.225  32.423  37.481  1.00  0.00     0.041 A 
ATOM     79  F   UNL A   1      38.173  30.422  36.261  1.00  0.00    -0.206 F 
ATOM     80  C   UNL A   1      38.672  33.730  37.634  1.00  0.00     0.022 A 
BRANCH  77  81
ATOM     81  S   UNL A   1      40.158  35.960  36.863  1.00  0.00     0.124 S 
ATOM     82  O   UNL A   1      41.564  35.656  37.103  1.00  0.00    -0.237 OA
ATOM     83  O   UNL A   1      39.849  36.600  35.589  1.00  0.00    -0.237 OA
ATOM     84  O   UNL A   1      39.426  36.482  38.015  1.00  0.00    -0.744 OA
ENDBRANCH  77  81
ENDBRANCH  50  74
BRANCH  62  85
ATOM     85  C   UNL A   1      44.688  27.870  34.268  1.00  0.00     0.023 A 
ATOM     86  C   UNL A   1      44.650  26.766  35.137  1.00  0.00     0.031 A 
ATOM     87  C   UNL A   1      45.872  28.628  34.214  1.00  0.00     0.131 A 
ATOM     88  C   UNL A   1      45.753  26.483  35.956  1.00  0.00     0.055 A 
ATOM     89  C   UNL A   1      46.988  28.307  34.988  1.00  0.00     0.041 A 
ATOM     90  F   UNL A   1      45.963  29.694  33.402  1.00  0.00    -0.206 F 
ATOM     91  C   UNL A   1      46.928  27.236  35.874  1.00  0.00     0.022 A 
BRANCH  88  92
ATOM     92  S   UNL A   1      45.606  25.166  37.195  1.00  0.00     0.124 S 
ATOM     93  O   UNL A   1      46.139  24.012  36.477  1.00  0.00    -0.237 OA
ATOM     94  O   UNL A   1      46.429  25.673  38.288  1.00  0.00    -0.237 OA
ATOM     95  O   UNL A   1      44.172  25.115  37.474  1.00  0.00    -0.744 OA
ENDBRANCH  88  92
ENDBRANCH  62  85
ENDBRANCH  36  37
ENDBRANCH  29  31
ENDBRANCH  28  29
ENDBRANCH  27  28
ENDBRANCH   1  27
TORSDOF 21
ENDMDL
MODEL 2
REMARK VINA RESULT:     -10.4      1.928      7.954
REMARK SMILES Cn1cc(S[C@@H]2CCC[C@]([NH2+]C3CC3)(C(=O)OCCOCCOC(=O)c3ccc(-c4c5nc(c(-c6cc(S(=O)(=O)[O-])ccc6F)c6ccc([nH]6)c(-c6cc(S(=O)(=O)[O-])ccc6F)c6nc(c(-c7cc(S(=O)(=O)[O-])ccc7F)c7ccc4[nH]7)C=C6)C=C5)cc3)C2)cn1
REMARK SMILES IDX 21 1 20 2 19 3 18 4 17 5 15 6 16 7 10 8 6 9 7 10 89 11 8 12
REMARK SMILES IDX 9 13 5 14 4 15 1 16 2 17 3 18 91 19 90 20 11 21 12 24 13 25
REMARK SMILES IDX 14 26 22 27 23 28 24 29 25 30 26 31 27 32 88 33 28 34 87 35
REMARK SMILES IDX 29 36 30 37 31 38 81 39 32 40 86 41 80 42 82 43 33 44 85 45
REMARK SMILES IDX 79 46 78 47 34 49 66 50 46 51 65 52 47 53 50 54 64 55 83 56
REMARK SMILES IDX 48 57 49 58 63 60 84 61 51 62 35 63 36 64 44 65 37 66 43 67
REMARK SMILES IDX 45 68 42 69 38 70 39 71 40 72 41 73 67 74 68 75 76 76 69 77
REMARK SMILES IDX 75 78 77 79 74 80 70 81 71 82 72 83 73 84 52 85 53 86 61 87
REMARK SMILES IDX 54 88 60 89 62 90 59 91 55 92 56 93 57 94 58 95
REMARK H PARENT 11 22 11 23 82 48 50 59
REMARK Flexibility Score: inf
ROOT
ATOM      1  C   UNL A   1      31.105  31.845  26.783  1.00  0.00     0.202 C 
ENDROOT
BRANCH   1   2
ATOM      2  O   UNL A   1      31.205  31.145  25.547  1.00  0.00    -0.374 OA
BRANCH   2   3
ATOM      3  C   UNL A   1      31.734  29.820  25.594  1.00  0.00     0.202 C 
BRANCH   3   4
ATOM      4  C   UNL A   1      33.261  29.667  25.582  1.00  0.00     0.261 C 
BRANCH   4   5
ATOM      5  O   UNL A   1      33.699  28.332  25.246  1.00  0.00    -0.459 OA
BRANCH   5   6
ATOM      6  C   UNL A   1      33.661  28.042  23.918  1.00  0.00     0.368 C 
ATOM      7  O   UNL A   1      34.086  28.798  23.044  1.00  0.00    -0.245 OA
BRANCH   6   8
ATOM      8  C   UNL A   1      33.143  26.590  23.586  1.00  0.00     0.195 C 
ATOM      9  C   UNL A   1      33.712  24.089  23.742  1.00  0.00     0.058 C 
ATOM     10  C   UNL A   1      33.606  23.926  22.220  1.00  0.00     0.015 C 
ATOM     11  C   UNL A   1      34.055  25.512  24.210  1.00  0.00     0.096 C 
ATOM     12  C   UNL A   1      32.824  25.042  21.526  1.00  0.00     0.008 C 
ATOM     13  C   UNL A   1      33.168  26.432  22.050  1.00  0.00     0.081 C 
BRANCH   9  14
ATOM     14  S   UNL A   1      34.733  22.850  24.613  1.00  0.00    -0.119 SA
BRANCH  14  15
ATOM     15  C   UNL A   1      33.773  21.433  24.891  1.00  0.00     0.046 A 
ATOM     16  C   UNL A   1      32.764  18.039  25.525  1.00  0.00     0.173 C 
ATOM     17  N   UNL A   1      32.928  19.453  25.284  1.00  0.00    -0.275 N 
ATOM     18  C   UNL A   1      34.092  20.171  25.325  1.00  0.00     0.123 A 
ATOM     19  N   UNL A   1      31.858  20.186  24.929  1.00  0.00    -0.181 NA
ATOM     20  C   UNL A   1      32.373  21.400  24.716  1.00  0.00     0.150 A 
ENDBRANCH  14  15
ENDBRANCH   9  14
BRANCH   8  21
ATOM     21  N   UNL A   1      31.767  26.627  24.138  1.00  0.00    -0.330 N 
ATOM     22  H   UNL A   1      31.645  27.572  24.500  1.00  0.00     0.347 HD
ATOM     23  H   UNL A   1      31.797  25.812  24.751  1.00  0.00     0.347 HD
BRANCH  21  24
ATOM     24  C   UNL A   1      30.563  26.344  23.395  1.00  0.00     0.183 C 
ATOM     25  C   UNL A   1      29.297  26.062  24.154  1.00  0.00     0.071 C 
ATOM     26  C   UNL A   1      29.465  27.373  23.449  1.00  0.00     0.071 C 
ENDBRANCH  21  24
ENDBRANCH   8  21
ENDBRANCH   6   8
ENDBRANCH   5   6
ENDBRANCH   4   5
ENDBRANCH   3   4
ENDBRANCH   2   3
ENDBRANCH   1   2
BRANCH   1  27
ATOM     27  C   UNL A   1      32.063  33.021  27.007  1.00  0.00     0.261 C 
BRANCH  27  28
ATOM     28  O   UNL A   1      33.436  32.601  27.089  1.00  0.00    -0.460 OA
BRANCH  28  29
ATOM     29  C   UNL A   1      34.136  33.190  28.090  1.00  0.00     0.338 C 
ATOM     30  O   UNL A   1      33.745  34.090  28.822  1.00  0.00    -0.246 OA
BRANCH  29  31
ATOM     31  C   UNL A   1      35.402  32.472  28.326  1.00  0.00     0.060 A 
ATOM     32  C   UNL A   1      35.317  31.098  28.589  1.00  0.00     0.016 A 
ATOM     33  C   UNL A   1      36.636  33.127  28.364  1.00  0.00     0.016 A 
ATOM     34  C   UNL A   1      36.456  30.384  28.955  1.00  0.00     0.010 A 
ATOM     35  C   UNL A   1      37.778  32.408  28.741  1.00  0.00     0.010 A 
ATOM     36  C   UNL A   1      37.683  31.045  29.080  1.00  0.00    -0.014 A 
BRANCH  36  37
ATOM     37  C   UNL A   1      38.814  30.351  29.746  1.00  0.00     0.031 A 
ATOM     38  C   UNL A   1      39.170  30.744  31.155  1.00  0.00     0.074 A 
ATOM     39  C   UNL A   1      39.478  29.354  29.131  1.00  0.00     0.049 A 
ATOM     40  N   UNL A   1      40.137  30.311  31.922  1.00  0.00    -0.248 NA
ATOM     41  C   UNL A   1      38.320  31.770  31.779  1.00  0.00     0.031 C 
ATOM     42  C   UNL A   1      39.183  28.845  27.793  1.00  0.00     0.029 A 
ATOM     43  N   UNL A   1      40.538  28.594  29.555  1.00  0.00    -0.354 N 
ATOM     44  C   UNL A   1      40.016  31.013  33.117  1.00  0.00     0.074 A 
ATOM     45  C   UNL A   1      38.905  31.927  32.957  1.00  0.00     0.031 C 
ATOM     46  C   UNL A   1      40.052  27.861  27.501  1.00  0.00     0.029 A 
ATOM     47  C   UNL A   1      40.987  27.698  28.613  1.00  0.00     0.049 A 
ATOM     48  H   UNL A   1      40.941  28.682  30.449  1.00  0.00     0.167 HD
ATOM     49  C   UNL A   1      40.757  30.899  34.246  1.00  0.00     0.034 A 
ATOM     50  C   UNL A   1      42.047  26.864  28.637  1.00  0.00     0.034 A 
ATOM     51  C   UNL A   1      41.866  29.986  34.389  1.00  0.00     0.049 A 
ATOM     52  C   UNL A   1      42.916  26.818  29.872  1.00  0.00     0.074 A 
ATOM     53  C   UNL A   1      42.680  29.784  35.489  1.00  0.00     0.029 A 
ATOM     54  N   UNL A   1      42.321  29.128  33.395  1.00  0.00    -0.354 N 
ATOM     55  N   UNL A   1      42.794  27.491  30.995  1.00  0.00    -0.248 NA
ATOM     56  C   UNL A   1      44.059  25.897  29.847  1.00  0.00     0.031 C 
ATOM     57  C   UNL A   1      43.669  28.859  35.138  1.00  0.00     0.029 A 
ATOM     58  C   UNL A   1      43.425  28.421  33.846  1.00  0.00     0.049 A 
ATOM     59  H   UNL A   1      41.919  29.036  32.502  1.00  0.00     0.167 HD
ATOM     60  C   UNL A   1      43.825  27.046  31.818  1.00  0.00     0.074 A 
ATOM     61  C   UNL A   1      44.551  26.042  31.068  1.00  0.00     0.031 C 
ATOM     62  C   UNL A   1      44.141  27.426  33.083  1.00  0.00     0.034 A 
BRANCH  49  63
ATOM     63  C   UNL A   1      40.425  31.826  35.391  1.00  0.00     0.023 A 
ATOM     64  C   UNL A   1      39.358  31.568  36.269  1.00  0.00     0.031 A 
ATOM     65  C   UNL A   1      41.170  33.002  35.587  1.00  0.00     0.131 A 
ATOM     66  C   UNL A   1      39.025  32.506  37.258  1.00  0.00     0.055 A 
ATOM     67  C   UNL A   1      40.883  33.892  36.623  1.00  0.00     0.041 A 
ATOM     68  F   UNL A   1      42.184  33.313  34.764  1.00  0.00    -0.206 F 
ATOM     69  C   UNL A   1      39.796  33.654  37.457  1.00  0.00     0.022 A 
BRANCH  66  70
ATOM     70  S   UNL A   1      37.487  32.275  38.192  1.00  0.00     0.124 S 
ATOM     71  O   UNL A   1      37.858  32.802  39.503  1.00  0.00    -0.237 OA
ATOM     72  O   UNL A   1      36.532  33.071  37.429  1.00  0.00    -0.237 OA
ATOM     73  O   UNL A   1      37.273  30.830  38.148  1.00  0.00    -0.744 OA
ENDBRANCH  66  70
ENDBRANCH  49  63
BRANCH  50  74
ATOM     74  C   UNL A   1      42.386  26.035  27.444  1.00  0.00     0.023 A 
ATOM     75  C   UNL A   1      42.047  24.674  27.379  1.00  0.00     0.031 A 
ATOM     76  C   UNL A   1      43.116  26.582  26.373  1.00  0.00     0.131 A 
ATOM     77  C   UNL A   1      42.481  23.895  26.295  1.00  0.00     0.055 A 
ATOM     78  C   UNL A   1      43.498  25.816  25.270  1.00  0.00     0.041 A 
ATOM     79  F   UNL A   1      43.470  27.878  26.384  1.00  0.00    -0.206 F 
ATOM     80  C   UNL A   1      43.192  24.460  25.234  1.00  0.00     0.022 A 
BRANCH  77  81
ATOM     81  S   UNL A   1      42.181  22.107  26.336  1.00  0.00     0.124 S 
ATOM     82  O   UNL A   1      40.751  22.039  26.062  1.00  0.00    -0.237 OA
ATOM     83  O   UNL A   1      43.061  21.629  25.274  1.00  0.00    -0.237 OA
ATOM     84  O   UNL A   1      42.577  21.725  27.690  1.00  0.00    -0.744 OA
ENDBRANCH  77  81
ENDBRANCH  50  74
BRANCH  62  85
ATOM     85  C   UNL A   1      45.290  26.708  33.752  1.00  0.00     0.023 A 
ATOM     86  C   UNL A   1      45.103  25.519  34.477  1.00  0.00     0.031 A 
ATOM     87  C   UNL A   1      46.594  27.230  33.661  1.00  0.00     0.131 A 
ATOM     88  C   UNL A   1      46.193  24.920  35.128  1.00  0.00     0.055 A 
ATOM     89  C   UNL A   1      47.683  26.597  34.261  1.00  0.00     0.041 A 
ATOM     90  F   UNL A   1      46.829  28.364  32.981  1.00  0.00    -0.206 F 
ATOM     91  C   UNL A   1      47.484  25.442  35.010  1.00  0.00     0.022 A 
BRANCH  88  92
ATOM     92  S   UNL A   1      45.888  23.492  36.205  1.00  0.00     0.124 S 
ATOM     93  O   UNL A   1      45.944  24.095  37.532  1.00  0.00    -0.237 OA
ATOM     94  O   UNL A   1      44.572  23.043  35.763  1.00  0.00    -0.237 OA
ATOM     95  O   UNL A   1      46.989  22.583  35.889  1.00  0.00    -0.744 OA
ENDBRANCH  88  92
ENDBRANCH  62  85
ENDBRANCH  36  37
ENDBRANCH  29  31
ENDBRANCH  28  29
ENDBRANCH  27  28
ENDBRANCH   1  27
TORSDOF 21
ENDMDL
MODEL 3
REMARK VINA RESULT:     -10.4      1.567      7.879
REMARK SMILES Cn1cc(S[C@@H]2CCC[C@]([NH2+]C3CC3)(C(=O)OCCOCCOC(=O)c3ccc(-c4c5nc(c(-c6cc(S(=O)(=O)[O-])ccc6F)c6ccc([nH]6)c(-c6cc(S(=O)(=O)[O-])ccc6F)c6nc(c(-c7cc(S(=O)(=O)[O-])ccc7F)c7ccc4[nH]7)C=C6)C=C5)cc3)C2)cn1
REMARK SMILES IDX 21 1 20 2 19 3 18 4 17 5 15 6 16 7 10 8 6 9 7 10 89 11 8 12
REMARK SMILES IDX 9 13 5 14 4 15 1 16 2 17 3 18 91 19 90 20 11 21 12 24 13 25
REMARK SMILES IDX 14 26 22 27 23 28 24 29 25 30 26 31 27 32 88 33 28 34 87 35
REMARK SMILES IDX 29 36 30 37 31 38 81 39 32 40 86 41 80 42 82 43 33 44 85 45
REMARK SMILES IDX 79 46 78 47 34 49 66 50 46 51 65 52 47 53 50 54 64 55 83 56
REMARK SMILES IDX 48 57 49 58 63 60 84 61 51 62 35 63 36 64 44 65 37 66 43 67
REMARK SMILES IDX 45 68 42 69 38 70 39 71 40 72 41 73 67 74 68 75 76 76 69 77
REMARK SMILES IDX 75 78 77 79 74 80 70 81 71 82 72 83 73 84 52 85 53 86 61 87
REMARK SMILES IDX 54 88 60 89 62 90 59 91 55 92 56 93 57 94 58 95
REMARK H PARENT 11 22 11 23 82 48 50 59
REMARK Flexibility Score: inf
ROOT
ATOM      1  C   UNL A   1      32.011  31.028  26.393  1.00  0.00     0.202 C 
ENDROOT
BRANCH   1   2
ATOM      2  O   UNL A   1      31.836  29.973  27.332  1.00  0.00    -0.374 OA
BRANCH   2   3
ATOM      3  C   UNL A   1      32.323  28.684  26.957  1.00  0.00     0.202 C 
BRANCH   3   4
ATOM      4  C   UNL A   1      32.533  28.416  25.461  1.00  0.00     0.261 C 
BRANCH   4   5
ATOM      5  O   UNL A   1      32.006  27.142  25.030  1.00  0.00    -0.459 OA
BRANCH   5   6
ATOM      6  C   UNL A   1      32.913  26.330  24.424  1.00  0.00     0.368 C 
ATOM      7  O   UNL A   1      33.690  26.712  23.549  1.00  0.00    -0.245 OA
BRANCH   6   8
ATOM      8  C   UNL A   1      32.985  24.874  25.027  1.00  0.00     0.195 C 
ATOM      9  C   UNL A   1      32.510  22.395  24.546  1.00  0.00     0.058 C 
ATOM     10  C   UNL A   1      31.562  22.300  25.750  1.00  0.00     0.015 C 
ATOM     11  C   UNL A   1      32.657  23.808  23.960  1.00  0.00     0.096 C 
ATOM     12  C   UNL A   1      31.750  23.413  26.781  1.00  0.00     0.008 C 
ATOM     13  C   UNL A   1      31.931  24.790  26.153  1.00  0.00     0.081 C 
BRANCH   9  14
ATOM     14  S   UNL A   1      32.256  21.161  23.225  1.00  0.00    -0.119 SA
BRANCH  14  15
ATOM     15  C   UNL A   1      32.845  19.626  23.774  1.00  0.00     0.046 A 
ATOM     16  C   UNL A   1      33.079  16.133  24.598  1.00  0.00     0.173 C 
ATOM     17  N   UNL A   1      33.222  17.545  24.338  1.00  0.00    -0.275 N 
ATOM     18  C   UNL A   1      32.370  18.347  23.628  1.00  0.00     0.123 A 
ATOM     19  N   UNL A   1      34.263  18.208  24.870  1.00  0.00    -0.181 NA
ATOM     20  C   UNL A   1      34.045  19.473  24.501  1.00  0.00     0.150 A 
ENDBRANCH  14  15
ENDBRANCH   9  14
BRANCH   8  21
ATOM     21  N   UNL A   1      34.377  24.827  25.537  1.00  0.00    -0.330 N 
ATOM     22  H   UNL A   1      34.292  24.710  26.546  1.00  0.00     0.347 HD
ATOM     23  H   UNL A   1      34.751  25.679  25.120  1.00  0.00     0.347 HD
BRANCH  21  24
ATOM     24  C   UNL A   1      35.383  23.879  25.126  1.00  0.00     0.183 C 
ATOM     25  C   UNL A   1      36.701  23.867  25.847  1.00  0.00     0.071 C 
ATOM     26  C   UNL A   1      35.713  22.767  26.087  1.00  0.00     0.071 C 
ENDBRANCH  21  24
ENDBRANCH   8  21
ENDBRANCH   6   8
ENDBRANCH   5   6
ENDBRANCH   4   5
ENDBRANCH   3   4
ENDBRANCH   2   3
ENDBRANCH   1   2
BRANCH   1  27
ATOM     27  C   UNL A   1      31.671  32.449  26.857  1.00  0.00     0.261 C 
BRANCH  27  28
ATOM     28  O   UNL A   1      32.809  33.328  26.811  1.00  0.00    -0.460 OA
BRANCH  28  29
ATOM     29  C   UNL A   1      33.302  33.658  28.029  1.00  0.00     0.338 C 
ATOM     30  O   UNL A   1      32.740  34.325  28.889  1.00  0.00    -0.246 OA
BRANCH  29  31
ATOM     31  C   UNL A   1      34.565  32.941  28.286  1.00  0.00     0.060 A 
ATOM     32  C   UNL A   1      34.467  31.616  28.734  1.00  0.00     0.016 A 
ATOM     33  C   UNL A   1      35.813  33.558  28.166  1.00  0.00     0.016 A 
ATOM     34  C   UNL A   1      35.610  30.924  29.125  1.00  0.00     0.010 A 
ATOM     35  C   UNL A   1      36.960  32.862  28.569  1.00  0.00     0.010 A 
ATOM     36  C   UNL A   1      36.857  31.559  29.090  1.00  0.00    -0.014 A 
BRANCH  36  37
ATOM     37  C   UNL A   1      38.011  30.926  29.777  1.00  0.00     0.031 A 
ATOM     38  C   UNL A   1      38.296  31.307  31.205  1.00  0.00     0.074 A 
ATOM     39  C   UNL A   1      38.759  29.991  29.161  1.00  0.00     0.049 A 
ATOM     40  N   UNL A   1      39.266  30.920  31.993  1.00  0.00    -0.248 NA
ATOM     41  C   UNL A   1      37.360  32.258  31.824  1.00  0.00     0.031 C 
ATOM     42  C   UNL A   1      38.540  29.497  27.803  1.00  0.00     0.029 A 
ATOM     43  N   UNL A   1      39.855  29.293  29.601  1.00  0.00    -0.354 N 
ATOM     44  C   UNL A   1      39.061  31.582  33.199  1.00  0.00     0.074 A 
ATOM     45  C   UNL A   1      37.896  32.424  33.024  1.00  0.00     0.031 C 
ATOM     46  C   UNL A   1      39.483  28.580  27.517  1.00  0.00     0.029 A 
ATOM     47  C   UNL A   1      40.392  28.453  28.655  1.00  0.00     0.049 A 
ATOM     48  H   UNL A   1      40.223  29.386  30.511  1.00  0.00     0.167 HD
ATOM     49  C   UNL A   1      39.773  31.490  34.349  1.00  0.00     0.034 A 
ATOM     50  C   UNL A   1      41.505  27.691  28.694  1.00  0.00     0.034 A 
ATOM     51  C   UNL A   1      40.936  30.650  34.506  1.00  0.00     0.049 A 
ATOM     52  C   UNL A   1      42.337  27.673  29.955  1.00  0.00     0.074 A 
ATOM     53  C   UNL A   1      41.728  30.476  35.627  1.00  0.00     0.029 A 
ATOM     54  N   UNL A   1      41.478  29.849  33.509  1.00  0.00    -0.354 N 
ATOM     55  N   UNL A   1      42.135  28.308  31.089  1.00  0.00    -0.248 NA
ATOM     56  C   UNL A   1      43.540  26.832  29.946  1.00  0.00     0.031 C 
ATOM     57  C   UNL A   1      42.788  29.627  35.288  1.00  0.00     0.029 A 
ATOM     58  C   UNL A   1      42.613  29.207  33.979  1.00  0.00     0.049 A 
ATOM     59  H   UNL A   1      41.111  29.753  32.601  1.00  0.00     0.167 HD
ATOM     60  C   UNL A   1      43.168  27.913  31.935  1.00  0.00     0.074 A 
ATOM     61  C   UNL A   1      43.983  26.979  31.185  1.00  0.00     0.031 C 
ATOM     62  C   UNL A   1      43.419  28.281  33.218  1.00  0.00     0.034 A 
BRANCH  49  63
ATOM     63  C   UNL A   1      39.344  32.363  35.503  1.00  0.00     0.023 A 
ATOM     64  C   UNL A   1      39.749  33.706  35.610  1.00  0.00     0.031 A 
ATOM     65  C   UNL A   1      38.539  31.835  36.528  1.00  0.00     0.131 A 
ATOM     66  C   UNL A   1      39.406  34.451  36.748  1.00  0.00     0.055 A 
ATOM     67  C   UNL A   1      38.135  32.606  37.619  1.00  0.00     0.041 A 
ATOM     68  F   UNL A   1      38.143  30.553  36.493  1.00  0.00    -0.206 F 
ATOM     69  C   UNL A   1      38.580  33.918  37.741  1.00  0.00     0.022 A 
BRANCH  66  70
ATOM     70  S   UNL A   1      40.167  36.080  36.982  1.00  0.00     0.124 S 
ATOM     71  O   UNL A   1      39.887  36.722  35.699  1.00  0.00    -0.237 OA
ATOM     72  O   UNL A   1      39.441  36.607  38.132  1.00  0.00    -0.237 OA
ATOM     73  O   UNL A   1      41.575  35.771  37.219  1.00  0.00    -0.744 OA
ENDBRANCH  66  70
ENDBRANCH  49  63
BRANCH  50  74
ATOM     74  C   UNL A   1      41.936  26.918  27.494  1.00  0.00     0.023 A 
ATOM     75  C   UNL A   1      41.713  25.535  27.398  1.00  0.00     0.031 A 
ATOM     76  C   UNL A   1      42.640  27.544  26.450  1.00  0.00     0.131 A 
ATOM     77  C   UNL A   1      42.232  24.815  26.309  1.00  0.00     0.055 A 
ATOM     78  C   UNL A   1      43.106  26.834  25.341  1.00  0.00     0.041 A 
ATOM     79  F   UNL A   1      42.885  28.864  26.491  1.00  0.00    -0.206 F 
ATOM     80  C   UNL A   1      42.915  25.459  25.274  1.00  0.00     0.022 A 
BRANCH  77  81
ATOM     81  S   UNL A   1      42.081  23.008  26.311  1.00  0.00     0.124 S 
ATOM     82  O   UNL A   1      42.675  22.659  25.026  1.00  0.00    -0.237 OA
ATOM     83  O   UNL A   1      42.852  22.642  27.495  1.00  0.00    -0.237 OA
ATOM     84  O   UNL A   1      40.640  22.786  26.414  1.00  0.00    -0.744 OA
ENDBRANCH  77  81
ENDBRANCH  50  74
BRANCH  62  85
ATOM     85  C   UNL A   1      44.592  27.626  33.907  1.00  0.00     0.023 A 
ATOM     86  C   UNL A   1      45.869  28.212  33.919  1.00  0.00     0.031 A 
ATOM     87  C   UNL A   1      44.424  26.390  34.559  1.00  0.00     0.131 A 
ATOM     88  C   UNL A   1      46.941  27.538  34.524  1.00  0.00     0.055 A 
ATOM     89  C   UNL A   1      45.481  25.753  35.210  1.00  0.00     0.041 A 
ATOM     90  F   UNL A   1      43.226  25.785  34.577  1.00  0.00    -0.206 F 
ATOM     91  C   UNL A   1      46.752  26.320  35.185  1.00  0.00     0.022 A 
BRANCH  88  92
ATOM     92  S   UNL A   1      48.610  28.232  34.365  1.00  0.00     0.124 S 
ATOM     93  O   UNL A   1      48.362  29.445  33.593  1.00  0.00    -0.237 OA
ATOM     94  O   UNL A   1      48.999  28.429  35.757  1.00  0.00    -0.237 OA
ATOM     95  O   UNL A   1      49.350  27.187  33.659  1.00  0.00    -0.744 OA
ENDBRANCH  88  92
ENDBRANCH  62  85
ENDBRANCH  36  37
ENDBRANCH  29  31
ENDBRANCH  28  29
ENDBRANCH  27  28
ENDBRANCH   1  27
TORSDOF 21
ENDMDL
