MODEL 1
REMARK VINA RESULT:     -12.0      0.000      0.000
REMARK SMILES O=C(OCCOCCOC(=O)[C@H]1CS[C@]2(c3ccccc3)CCC(=O)N12)c1ccc(-c2c3nc(c(-c4cc(S(=O)(=O)[O-])ccc4F)c4ccc([nH]4)c(-c4cc(S(=O)(=O)[O-])ccc4F)c4nc(c(-c5cc(S(=O)(=O)[O-])ccc5F)c5ccc2[nH]5)C=C4)C=C3)cc1
REMARK SMILES IDX 5 1 4 2 3 3 2 4 1 5 27 6 28 7 89 8 29 9 88 10 30 11 31 12
REMARK SMILES IDX 32 13 82 14 33 15 87 16 81 17 83 18 34 19 86 20 80 21 79 22
REMARK SMILES IDX 35 24 67 25 47 26 66 27 48 28 51 29 65 30 84 31 49 32 50 33
REMARK SMILES IDX 64 35 85 36 52 37 36 38 37 39 45 40 38 41 44 42 46 43 43 44
REMARK SMILES IDX 39 45 40 46 41 47 42 48 68 49 69 50 77 51 70 52 76 53 78 54
REMARK SMILES IDX 75 55 71 56 72 57 73 58 74 59 53 60 54 61 62 62 55 63 61 64
REMARK SMILES IDX 63 65 60 66 56 67 57 68 58 69 59 70 6 71 7 72 8 73 9 74
REMARK SMILES IDX 10 75 11 76 12 77 13 78 26 79 14 80 15 81 24 82 22 83 23 84
REMARK SMILES IDX 25 85 16 86 17 87 21 88 18 89 20 90 19 91
REMARK H PARENT 83 23 51 34
REMARK Flexibility Score: inf
ROOT
ATOM      1  C   UNL A   1      34.803  20.731  25.285  1.00  0.00     0.202 C 
ENDROOT
BRANCH   1   2
ATOM      2  C   UNL A   1      36.302  20.637  24.975  1.00  0.00     0.261 C 
BRANCH   2   3
ATOM      3  O   UNL A   1      37.045  21.624  25.698  1.00  0.00    -0.460 OA
BRANCH   3   4
ATOM      4  C   UNL A   1      38.378  21.610  25.930  1.00  0.00     0.338 C 
ATOM      5  O   UNL A   1      39.002  20.569  25.732  1.00  0.00    -0.246 OA
BRANCH   4   6
ATOM      6  C   UNL A   1      39.136  22.812  26.387  1.00  0.00     0.060 A 
ATOM      7  C   UNL A   1      38.819  24.134  26.059  1.00  0.00     0.016 A 
ATOM      8  C   UNL A   1      40.191  22.589  27.282  1.00  0.00     0.016 A 
ATOM      9  C   UNL A   1      39.512  25.207  26.578  1.00  0.00     0.010 A 
ATOM     10  C   UNL A   1      40.884  23.665  27.835  1.00  0.00     0.010 A 
ATOM     11  C   UNL A   1      40.532  24.973  27.483  1.00  0.00    -0.014 A 
BRANCH  11  12
ATOM     12  C   UNL A   1      41.304  26.126  27.944  1.00  0.00     0.031 A 
ATOM     13  C   UNL A   1      40.595  27.125  28.788  1.00  0.00     0.074 A 
ATOM     14  C   UNL A   1      42.615  26.198  27.667  1.00  0.00     0.049 A 
ATOM     15  N   UNL A   1      40.962  28.322  29.136  1.00  0.00    -0.248 NA
ATOM     16  C   UNL A   1      39.280  26.712  29.302  1.00  0.00     0.031 C 
ATOM     17  C   UNL A   1      43.394  25.154  26.995  1.00  0.00     0.029 A 
ATOM     18  N   UNL A   1      43.521  27.190  27.914  1.00  0.00    -0.354 N 
ATOM     19  C   UNL A   1      39.895  28.837  29.862  1.00  0.00     0.074 A 
ATOM     20  C   UNL A   1      38.871  27.816  29.903  1.00  0.00     0.031 C 
ATOM     21  C   UNL A   1      44.661  25.576  26.861  1.00  0.00     0.029 A 
ATOM     22  C   UNL A   1      44.750  26.946  27.350  1.00  0.00     0.049 A 
ATOM     23  H   UNL A   1      43.315  27.994  28.441  1.00  0.00     0.167 HD
ATOM     24  C   UNL A   1      39.797  30.068  30.411  1.00  0.00     0.034 A 
ATOM     25  C   UNL A   1      45.791  27.781  27.180  1.00  0.00     0.034 A 
ATOM     26  C   UNL A   1      40.859  31.036  30.296  1.00  0.00     0.049 A 
ATOM     27  C   UNL A   1      45.625  29.190  27.689  1.00  0.00     0.074 A 
ATOM     28  C   UNL A   1      40.897  32.346  30.727  1.00  0.00     0.029 A 
ATOM     29  N   UNL A   1      42.085  30.781  29.681  1.00  0.00    -0.354 N 
ATOM     30  N   UNL A   1      44.582  29.731  28.284  1.00  0.00    -0.248 NA
ATOM     31  C   UNL A   1      46.755  30.102  27.503  1.00  0.00     0.031 C 
ATOM     32  C   UNL A   1      42.111  32.902  30.306  1.00  0.00     0.029 A 
ATOM     33  C   UNL A   1      42.875  31.914  29.699  1.00  0.00     0.049 A 
ATOM     34  H   UNL A   1      42.350  29.916  29.290  1.00  0.00     0.167 HD
ATOM     35  C   UNL A   1      44.942  31.040  28.574  1.00  0.00     0.074 A 
ATOM     36  C   UNL A   1      46.300  31.205  28.083  1.00  0.00     0.031 C 
ATOM     37  C   UNL A   1      44.231  32.016  29.197  1.00  0.00     0.034 A 
BRANCH  24  38
ATOM     38  C   UNL A   1      38.467  30.428  31.031  1.00  0.00     0.023 A 
ATOM     39  C   UNL A   1      37.422  30.992  30.276  1.00  0.00     0.031 A 
ATOM     40  C   UNL A   1      38.301  30.355  32.426  1.00  0.00     0.131 A 
ATOM     41  C   UNL A   1      36.323  31.574  30.929  1.00  0.00     0.055 A 
ATOM     42  C   UNL A   1      37.154  30.838  33.059  1.00  0.00     0.041 A 
ATOM     43  F   UNL A   1      39.276  29.861  33.206  1.00  0.00    -0.206 F 
ATOM     44  C   UNL A   1      36.169  31.477  32.313  1.00  0.00     0.022 A 
BRANCH  41  45
ATOM     45  S   UNL A   1      35.224  32.656  29.970  1.00  0.00     0.124 S 
ATOM     46  O   UNL A   1      34.697  31.730  28.970  1.00  0.00    -0.237 OA
ATOM     47  O   UNL A   1      34.274  33.116  30.976  1.00  0.00    -0.237 OA
ATOM     48  O   UNL A   1      36.122  33.681  29.444  1.00  0.00    -0.744 OA
ENDBRANCH  41  45
ENDBRANCH  24  38
BRANCH  25  49
ATOM     49  C   UNL A   1      47.001  27.332  26.435  1.00  0.00     0.023 A 
ATOM     50  C   UNL A   1      47.183  27.642  25.080  1.00  0.00     0.031 A 
ATOM     51  C   UNL A   1      48.013  26.594  27.082  1.00  0.00     0.131 A 
ATOM     52  C   UNL A   1      48.337  27.201  24.409  1.00  0.00     0.055 A 
ATOM     53  C   UNL A   1      49.180  26.201  26.424  1.00  0.00     0.041 A 
ATOM     54  F   UNL A   1      47.894  26.268  28.379  1.00  0.00    -0.206 F 
ATOM     55  C   UNL A   1      49.343  26.497  25.077  1.00  0.00     0.022 A 
BRANCH  52  56
ATOM     56  S   UNL A   1      48.480  27.510  22.628  1.00  0.00     0.124 S 
ATOM     57  O   UNL A   1      47.250  28.243  22.354  1.00  0.00    -0.237 OA
ATOM     58  O   UNL A   1      49.717  28.280  22.552  1.00  0.00    -0.237 OA
ATOM     59  O   UNL A   1      48.549  26.169  22.054  1.00  0.00    -0.744 OA
ENDBRANCH  52  56
ENDBRANCH  25  49
BRANCH  37  60
ATOM     60  C   UNL A   1      44.944  33.316  29.454  1.00  0.00     0.023 A 
ATOM     61  C   UNL A   1      44.920  34.375  28.532  1.00  0.00     0.031 A 
ATOM     62  C   UNL A   1      45.614  33.504  30.675  1.00  0.00     0.131 A 
ATOM     63  C   UNL A   1      45.584  35.571  28.838  1.00  0.00     0.055 A 
ATOM     64  C   UNL A   1      46.219  34.717  30.999  1.00  0.00     0.041 A 
ATOM     65  F   UNL A   1      45.666  32.518  31.585  1.00  0.00    -0.206 F 
ATOM     66  C   UNL A   1      46.212  35.756  30.074  1.00  0.00     0.022 A 
BRANCH  63  67
ATOM     67  S   UNL A   1      45.673  36.864  27.572  1.00  0.00     0.124 S 
ATOM     68  O   UNL A   1      46.941  37.514  27.893  1.00  0.00    -0.237 OA
ATOM     69  O   UNL A   1      45.646  36.094  26.333  1.00  0.00    -0.237 OA
ATOM     70  O   UNL A   1      44.481  37.672  27.825  1.00  0.00    -0.744 OA
ENDBRANCH  63  67
ENDBRANCH  37  60
ENDBRANCH  11  12
ENDBRANCH   4   6
ENDBRANCH   3   4
ENDBRANCH   2   3
ENDBRANCH   1   2
BRANCH   1  71
ATOM     71  O   UNL A   1      34.186  21.992  25.017  1.00  0.00    -0.374 OA
BRANCH  71  72
ATOM     72  C   UNL A   1      33.689  22.143  23.693  1.00  0.00     0.202 C 
BRANCH  72  73
ATOM     73  C   UNL A   1      33.967  23.548  23.168  1.00  0.00     0.261 C 
BRANCH  73  74
ATOM     74  O   UNL A   1      33.448  23.678  21.824  1.00  0.00    -0.462 OA
BRANCH  74  75
ATOM     75  C   UNL A   1      33.048  24.933  21.492  1.00  0.00     0.329 C 
ATOM     76  O   UNL A   1      33.154  25.395  20.358  1.00  0.00    -0.250 OA
BRANCH  75  77
ATOM     77  C   UNL A   1      32.624  25.818  22.687  1.00  0.00     0.206 C 
ATOM     78  C   UNL A   1      33.628  26.957  22.883  1.00  0.00     0.109 C 
ATOM     79  N   UNL A   1      31.252  26.292  23.051  1.00  0.00    -0.309 N 
ATOM     80  S   UNL A   1      32.703  28.497  22.966  1.00  0.00    -0.126 SA
ATOM     81  C   UNL A   1      31.128  27.702  23.485  1.00  0.00     0.116 C 
ATOM     82  C   UNL A   1      30.673  25.468  24.030  1.00  0.00     0.224 C 
ATOM     83  C   UNL A   1      31.129  27.599  25.032  1.00  0.00     0.055 C 
ATOM     84  C   UNL A   1      30.972  26.122  25.355  1.00  0.00     0.104 C 
ATOM     85  O   UNL A   1      30.328  24.310  23.895  1.00  0.00    -0.275 OA
BRANCH  81  86
ATOM     86  C   UNL A   1      29.916  28.505  22.911  1.00  0.00    -0.012 A 
ATOM     87  C   UNL A   1      30.110  29.620  22.068  1.00  0.00     0.007 A 
ATOM     88  C   UNL A   1      28.572  28.290  23.289  1.00  0.00     0.007 A 
ATOM     89  C   UNL A   1      29.063  30.436  21.608  1.00  0.00     0.000 A 
ATOM     90  C   UNL A   1      27.521  29.136  22.880  1.00  0.00     0.000 A 
ATOM     91  C   UNL A   1      27.764  30.203  22.026  1.00  0.00     0.000 A 
ENDBRANCH  81  86
ENDBRANCH  75  77
ENDBRANCH  74  75
ENDBRANCH  73  74
ENDBRANCH  72  73
ENDBRANCH  71  72
ENDBRANCH   1  71
TORSDOF 18
ENDMDL
MODEL 2
REMARK VINA RESULT:     -12.0      5.126     10.272
REMARK SMILES O=C(OCCOCCOC(=O)[C@H]1CS[C@]2(c3ccccc3)CCC(=O)N12)c1ccc(-c2c3nc(c(-c4cc(S(=O)(=O)[O-])ccc4F)c4ccc([nH]4)c(-c4cc(S(=O)(=O)[O-])ccc4F)c4nc(c(-c5cc(S(=O)(=O)[O-])ccc5F)c5ccc2[nH]5)C=C4)C=C3)cc1
REMARK SMILES IDX 5 1 4 2 3 3 2 4 1 5 27 6 28 7 89 8 29 9 88 10 30 11 31 12
REMARK SMILES IDX 32 13 82 14 33 15 87 16 81 17 83 18 34 19 86 20 80 21 79 22
REMARK SMILES IDX 35 24 67 25 47 26 66 27 48 28 51 29 65 30 84 31 49 32 50 33
REMARK SMILES IDX 64 35 85 36 52 37 36 38 37 39 45 40 38 41 44 42 46 43 43 44
REMARK SMILES IDX 39 45 40 46 41 47 42 48 68 49 69 50 77 51 70 52 76 53 78 54
REMARK SMILES IDX 75 55 71 56 72 57 73 58 74 59 53 60 54 61 62 62 55 63 61 64
REMARK SMILES IDX 63 65 60 66 56 67 57 68 58 69 59 70 6 71 7 72 8 73 9 74
REMARK SMILES IDX 10 75 11 76 12 77 13 78 26 79 14 80 15 81 24 82 22 83 23 84
REMARK SMILES IDX 25 85 16 86 17 87 21 88 18 89 20 90 19 91
REMARK H PARENT 83 23 51 34
REMARK Flexibility Score: inf
ROOT
ATOM      1  C   UNL A   1      31.974  28.051  25.977  1.00  0.00     0.202 C 
ENDROOT
BRANCH   1   2
ATOM      2  C   UNL A   1      31.680  29.548  25.828  1.00  0.00     0.261 C 
BRANCH   2   3
ATOM      3  O   UNL A   1      32.881  30.323  25.886  1.00  0.00    -0.460 OA
BRANCH   3   4
ATOM      4  C   UNL A   1      33.291  31.089  26.924  1.00  0.00     0.338 C 
ATOM      5  O   UNL A   1      32.588  32.035  27.273  1.00  0.00    -0.246 OA
BRANCH   4   6
ATOM      6  C   UNL A   1      34.544  30.819  27.689  1.00  0.00     0.060 A 
ATOM      7  C   UNL A   1      34.889  29.589  28.257  1.00  0.00     0.016 A 
ATOM      8  C   UNL A   1      35.475  31.864  27.761  1.00  0.00     0.016 A 
ATOM      9  C   UNL A   1      36.099  29.382  28.884  1.00  0.00     0.010 A 
ATOM     10  C   UNL A   1      36.713  31.662  28.369  1.00  0.00     0.010 A 
ATOM     11  C   UNL A   1      37.020  30.414  28.922  1.00  0.00    -0.014 A 
BRANCH  11  12
ATOM     12  C   UNL A   1      38.256  30.189  29.672  1.00  0.00     0.031 A 
ATOM     13  C   UNL A   1      39.272  29.294  29.056  1.00  0.00     0.074 A 
ATOM     14  C   UNL A   1      38.460  30.849  30.823  1.00  0.00     0.049 A 
ATOM     15  N   UNL A   1      40.328  28.756  29.587  1.00  0.00    -0.248 NA
ATOM     16  C   UNL A   1      39.053  28.955  27.641  1.00  0.00     0.031 C 
ATOM     17  C   UNL A   1      37.569  31.873  31.378  1.00  0.00     0.029 A 
ATOM     18  N   UNL A   1      39.476  30.757  31.730  1.00  0.00    -0.354 N 
ATOM     19  C   UNL A   1      40.874  27.959  28.589  1.00  0.00     0.074 A 
ATOM     20  C   UNL A   1      40.029  28.091  27.423  1.00  0.00     0.031 C 
ATOM     21  C   UNL A   1      38.071  32.297  32.549  1.00  0.00     0.029 A 
ATOM     22  C   UNL A   1      39.255  31.506  32.861  1.00  0.00     0.049 A 
ATOM     23  H   UNL A   1      40.282  30.211  31.589  1.00  0.00     0.167 HD
ATOM     24  C   UNL A   1      41.973  27.175  28.677  1.00  0.00     0.034 A 
ATOM     25  C   UNL A   1      39.901  31.480  34.041  1.00  0.00     0.034 A 
ATOM     26  C   UNL A   1      42.742  27.082  29.892  1.00  0.00     0.049 A 
ATOM     27  C   UNL A   1      41.050  30.513  34.167  1.00  0.00     0.074 A 
ATOM     28  C   UNL A   1      43.833  26.285  30.176  1.00  0.00     0.029 A 
ATOM     29  N   UNL A   1      42.475  27.821  31.045  1.00  0.00    -0.354 N 
ATOM     30  N   UNL A   1      41.517  29.670  33.270  1.00  0.00    -0.248 NA
ATOM     31  C   UNL A   1      41.752  30.479  35.452  1.00  0.00     0.031 C 
ATOM     32  C   UNL A   1      44.175  26.489  31.518  1.00  0.00     0.029 A 
ATOM     33  C   UNL A   1      43.363  27.484  32.047  1.00  0.00     0.049 A 
ATOM     34  H   UNL A   1      41.756  28.490  31.131  1.00  0.00     0.167 HD
ATOM     35  C   UNL A   1      42.592  29.027  33.871  1.00  0.00     0.074 A 
ATOM     36  C   UNL A   1      42.698  29.581  35.210  1.00  0.00     0.031 C 
ATOM     37  C   UNL A   1      43.424  28.078  33.367  1.00  0.00     0.034 A 
BRANCH  24  38
ATOM     38  C   UNL A   1      42.274  26.296  27.485  1.00  0.00     0.023 A 
ATOM     39  C   UNL A   1      41.711  25.014  27.344  1.00  0.00     0.031 A 
ATOM     40  C   UNL A   1      43.260  26.684  26.560  1.00  0.00     0.131 A 
ATOM     41  C   UNL A   1      42.230  24.124  26.389  1.00  0.00     0.055 A 
ATOM     42  C   UNL A   1      43.694  25.831  25.543  1.00  0.00     0.041 A 
ATOM     43  F   UNL A   1      43.862  27.879  26.662  1.00  0.00    -0.206 F 
ATOM     44  C   UNL A   1      43.198  24.533  25.470  1.00  0.00     0.022 A 
BRANCH  41  45
ATOM     45  S   UNL A   1      41.788  22.367  26.518  1.00  0.00     0.124 S 
ATOM     46  O   UNL A   1      42.367  22.011  27.811  1.00  0.00    -0.237 OA
ATOM     47  O   UNL A   1      40.332  22.401  26.458  1.00  0.00    -0.237 OA
ATOM     48  O   UNL A   1      42.446  21.762  25.363  1.00  0.00    -0.744 OA
ENDBRANCH  41  45
ENDBRANCH  24  38
BRANCH  25  49
ATOM     49  C   UNL A   1      39.419  32.310  35.180  1.00  0.00     0.023 A 
ATOM     50  C   UNL A   1      38.687  31.749  36.237  1.00  0.00     0.031 A 
ATOM     51  C   UNL A   1      39.703  33.690  35.238  1.00  0.00     0.131 A 
ATOM     52  C   UNL A   1      38.248  32.564  37.295  1.00  0.00     0.055 A 
ATOM     53  C   UNL A   1      39.307  34.485  36.314  1.00  0.00     0.041 A 
ATOM     54  F   UNL A   1      40.400  34.282  34.255  1.00  0.00    -0.206 F 
ATOM     55  C   UNL A   1      38.567  33.924  37.348  1.00  0.00     0.022 A 
BRANCH  52  56
ATOM     56  S   UNL A   1      37.197  31.832  38.579  1.00  0.00     0.124 S 
ATOM     57  O   UNL A   1      36.010  32.675  38.507  1.00  0.00    -0.237 OA
ATOM     58  O   UNL A   1      37.042  30.463  38.100  1.00  0.00    -0.237 OA
ATOM     59  O   UNL A   1      37.994  31.978  39.795  1.00  0.00    -0.744 OA
ENDBRANCH  52  56
ENDBRANCH  25  49
BRANCH  37  60
ATOM     60  C   UNL A   1      44.569  27.647  34.244  1.00  0.00     0.023 A 
ATOM     61  C   UNL A   1      44.461  26.568  35.135  1.00  0.00     0.031 A 
ATOM     62  C   UNL A   1      45.806  28.307  34.135  1.00  0.00     0.131 A 
ATOM     63  C   UNL A   1      45.570  26.198  35.909  1.00  0.00     0.055 A 
ATOM     64  C   UNL A   1      46.921  27.894  34.861  1.00  0.00     0.041 A 
ATOM     65  F   UNL A   1      45.955  29.346  33.298  1.00  0.00    -0.206 F 
ATOM     66  C   UNL A   1      46.804  26.839  35.759  1.00  0.00     0.022 A 
BRANCH  63  67
ATOM     67  S   UNL A   1      45.364  24.907  37.163  1.00  0.00     0.124 S 
ATOM     68  O   UNL A   1      44.293  24.097  36.589  1.00  0.00    -0.237 OA
ATOM     69  O   UNL A   1      46.684  24.288  37.197  1.00  0.00    -0.237 OA
ATOM     70  O   UNL A   1      45.000  25.655  38.366  1.00  0.00    -0.744 OA
ENDBRANCH  63  67
ENDBRANCH  37  60
ENDBRANCH  11  12
ENDBRANCH   4   6
ENDBRANCH   3   4
ENDBRANCH   2   3
ENDBRANCH   1   2
BRANCH   1  71
ATOM     71  O   UNL A   1      31.575  27.222  24.882  1.00  0.00    -0.374 OA
BRANCH  71  72
ATOM     72  C   UNL A   1      32.297  27.439  23.676  1.00  0.00     0.202 C 
BRANCH  72  73
ATOM     73  C   UNL A   1      31.796  26.512  22.573  1.00  0.00     0.261 C 
BRANCH  73  74
ATOM     74  O   UNL A   1      31.808  25.144  23.044  1.00  0.00    -0.462 OA
BRANCH  74  75
ATOM     75  C   UNL A   1      32.916  24.438  22.699  1.00  0.00     0.329 C 
ATOM     76  O   UNL A   1      33.273  24.273  21.534  1.00  0.00    -0.250 OA
BRANCH  75  77
ATOM     77  C   UNL A   1      33.600  23.689  23.866  1.00  0.00     0.206 C 
ATOM     78  C   UNL A   1      32.737  23.774  25.127  1.00  0.00     0.109 C 
ATOM     79  N   UNL A   1      34.310  22.372  23.835  1.00  0.00    -0.309 N 
ATOM     80  S   UNL A   1      32.530  22.107  25.767  1.00  0.00    -0.126 SA
ATOM     81  C   UNL A   1      34.040  21.443  24.955  1.00  0.00     0.116 C 
ATOM     82  C   UNL A   1      35.699  22.546  23.720  1.00  0.00     0.224 C 
ATOM     83  C   UNL A   1      35.241  21.679  25.909  1.00  0.00     0.055 C 
ATOM     84  C   UNL A   1      36.240  22.516  25.127  1.00  0.00     0.104 C 
ATOM     85  O   UNL A   1      36.300  22.988  22.760  1.00  0.00    -0.275 OA
BRANCH  81  86
ATOM     86  C   UNL A   1      33.823  19.942  24.581  1.00  0.00    -0.012 A 
ATOM     87  C   UNL A   1      34.875  19.005  24.665  1.00  0.00     0.007 A 
ATOM     88  C   UNL A   1      32.638  19.431  24.003  1.00  0.00     0.007 A 
ATOM     89  C   UNL A   1      34.761  17.669  24.245  1.00  0.00     0.000 A 
ATOM     90  C   UNL A   1      32.531  18.109  23.527  1.00  0.00     0.000 A 
ATOM     91  C   UNL A   1      33.589  17.222  23.661  1.00  0.00     0.000 A 
ENDBRANCH  81  86
ENDBRANCH  75  77
ENDBRANCH  74  75
ENDBRANCH  73  74
ENDBRANCH  72  73
ENDBRANCH  71  72
ENDBRANCH   1  71
TORSDOF 18
ENDMDL
MODEL 3
REMARK VINA RESULT:     -11.9      4.985     10.063
REMARK SMILES O=C(OCCOCCOC(=O)[C@H]1CS[C@]2(c3ccccc3)CCC(=O)N12)c1ccc(-c2c3nc(c(-c4cc(S(=O)(=O)[O-])ccc4F)c4ccc([nH]4)c(-c4cc(S(=O)(=O)[O-])ccc4F)c4nc(c(-c5cc(S(=O)(=O)[O-])ccc5F)c5ccc2[nH]5)C=C4)C=C3)cc1
REMARK SMILES IDX 5 1 4 2 3 3 2 4 1 5 27 6 28 7 89 8 29 9 88 10 30 11 31 12
REMARK SMILES IDX 32 13 82 14 33 15 87 16 81 17 83 18 34 19 86 20 80 21 79 22
REMARK SMILES IDX 35 24 67 25 47 26 66 27 48 28 51 29 65 30 84 31 49 32 50 33
REMARK SMILES IDX 64 35 85 36 52 37 36 38 37 39 45 40 38 41 44 42 46 43 43 44
REMARK SMILES IDX 39 45 40 46 41 47 42 48 68 49 69 50 77 51 70 52 76 53 78 54
REMARK SMILES IDX 75 55 71 56 72 57 73 58 74 59 53 60 54 61 62 62 55 63 61 64
REMARK SMILES IDX 63 65 60 66 56 67 57 68 58 69 59 70 6 71 7 72 8 73 9 74
REMARK SMILES IDX 10 75 11 76 12 77 13 78 26 79 14 80 15 81 24 82 22 83 23 84
REMARK SMILES IDX 25 85 16 86 17 87 21 88 18 89 20 90 19 91
REMARK H PARENT 83 23 51 34
REMARK Flexibility Score: inf
ROOT
ATOM      1  C   UNL A   1      30.787  30.280  24.546  1.00  0.00     0.202 C 
ENDROOT
BRANCH   1   2
ATOM      2  C   UNL A   1      31.644  29.656  25.653  1.00  0.00     0.261 C 
BRANCH   2   3
ATOM      3  O   UNL A   1      32.889  30.346  25.800  1.00  0.00    -0.460 OA
BRANCH   3   4
ATOM      4  C   UNL A   1      33.276  31.081  26.868  1.00  0.00     0.338 C 
ATOM      5  O   UNL A   1      32.557  32.007  27.239  1.00  0.00    -0.246 OA
BRANCH   4   6
ATOM      6  C   UNL A   1      34.522  30.800  27.641  1.00  0.00     0.060 A 
ATOM      7  C   UNL A   1      34.959  29.529  28.025  1.00  0.00     0.016 A 
ATOM      8  C   UNL A   1      35.350  31.896  27.919  1.00  0.00     0.016 A 
ATOM      9  C   UNL A   1      36.162  29.329  28.669  1.00  0.00     0.010 A 
ATOM     10  C   UNL A   1      36.580  31.706  28.546  1.00  0.00     0.010 A 
ATOM     11  C   UNL A   1      36.982  30.416  28.911  1.00  0.00    -0.014 A 
BRANCH  11  12
ATOM     12  C   UNL A   1      38.207  30.180  29.675  1.00  0.00     0.031 A 
ATOM     13  C   UNL A   1      39.238  29.306  29.054  1.00  0.00     0.074 A 
ATOM     14  C   UNL A   1      38.390  30.814  30.844  1.00  0.00     0.049 A 
ATOM     15  N   UNL A   1      40.290  28.761  29.589  1.00  0.00    -0.248 NA
ATOM     16  C   UNL A   1      39.044  28.999  27.629  1.00  0.00     0.031 C 
ATOM     17  C   UNL A   1      37.485  31.819  31.409  1.00  0.00     0.029 A 
ATOM     18  N   UNL A   1      39.392  30.706  31.765  1.00  0.00    -0.354 N 
ATOM     19  C   UNL A   1      40.856  27.991  28.581  1.00  0.00     0.074 A 
ATOM     20  C   UNL A   1      40.028  28.146  27.405  1.00  0.00     0.031 C 
ATOM     21  C   UNL A   1      37.966  32.218  32.597  1.00  0.00     0.029 A 
ATOM     22  C   UNL A   1      39.150  31.427  32.909  1.00  0.00     0.049 A 
ATOM     23  H   UNL A   1      40.204  30.168  31.624  1.00  0.00     0.167 HD
ATOM     24  C   UNL A   1      41.957  27.211  28.667  1.00  0.00     0.034 A 
ATOM     25  C   UNL A   1      39.777  31.376  34.098  1.00  0.00     0.034 A 
ATOM     26  C   UNL A   1      42.708  27.094  29.892  1.00  0.00     0.049 A 
ATOM     27  C   UNL A   1      40.930  30.413  34.220  1.00  0.00     0.074 A 
ATOM     28  C   UNL A   1      43.799  26.297  30.174  1.00  0.00     0.029 A 
ATOM     29  N   UNL A   1      42.419  27.804  31.057  1.00  0.00    -0.354 N 
ATOM     30  N   UNL A   1      41.416  29.594  33.310  1.00  0.00    -0.248 NA
ATOM     31  C   UNL A   1      41.612  30.353  35.514  1.00  0.00     0.031 C 
ATOM     32  C   UNL A   1      44.119  26.470  31.526  1.00  0.00     0.029 A 
ATOM     33  C   UNL A   1      43.294  27.448  32.065  1.00  0.00     0.049 A 
ATOM     34  H   UNL A   1      41.695  28.466  31.148  1.00  0.00     0.167 HD
ATOM     35  C   UNL A   1      42.485  28.943  33.912  1.00  0.00     0.074 A 
ATOM     36  C   UNL A   1      42.567  29.466  35.266  1.00  0.00     0.031 C 
ATOM     37  C   UNL A   1      43.331  28.012  33.400  1.00  0.00     0.034 A 
BRANCH  24  38
ATOM     38  C   UNL A   1      42.282  26.363  27.460  1.00  0.00     0.023 A 
ATOM     39  C   UNL A   1      41.959  24.995  27.402  1.00  0.00     0.031 A 
ATOM     40  C   UNL A   1      43.067  26.894  26.421  1.00  0.00     0.131 A 
ATOM     41  C   UNL A   1      42.525  24.184  26.405  1.00  0.00     0.055 A 
ATOM     42  C   UNL A   1      43.536  26.102  25.371  1.00  0.00     0.041 A 
ATOM     43  F   UNL A   1      43.441  28.183  26.436  1.00  0.00    -0.206 F 
ATOM     44  C   UNL A   1      43.289  24.733  25.373  1.00  0.00     0.022 A 
BRANCH  41  45
ATOM     45  S   UNL A   1      42.439  22.381  26.607  1.00  0.00     0.124 S 
ATOM     46  O   UNL A   1      42.417  22.248  28.062  1.00  0.00    -0.237 OA
ATOM     47  O   UNL A   1      41.200  22.042  25.917  1.00  0.00    -0.237 OA
ATOM     48  O   UNL A   1      43.662  21.904  25.965  1.00  0.00    -0.744 OA
ENDBRANCH  41  45
ENDBRANCH  24  38
BRANCH  25  49
ATOM     49  C   UNL A   1      39.273  32.177  35.249  1.00  0.00     0.023 A 
ATOM     50  C   UNL A   1      39.751  33.470  35.507  1.00  0.00     0.031 A 
ATOM     51  C   UNL A   1      38.281  31.661  36.108  1.00  0.00     0.131 A 
ATOM     52  C   UNL A   1      39.254  34.195  36.603  1.00  0.00     0.055 A 
ATOM     53  C   UNL A   1      37.755  32.404  37.165  1.00  0.00     0.041 A 
ATOM     54  F   UNL A   1      37.786  30.429  35.910  1.00  0.00    -0.206 F 
ATOM     55  C   UNL A   1      38.247  33.677  37.423  1.00  0.00     0.022 A 
BRANCH  52  56
ATOM     56  S   UNL A   1      39.984  35.812  36.982  1.00  0.00     0.124 S 
ATOM     57  O   UNL A   1      39.281  36.176  38.206  1.00  0.00    -0.237 OA
ATOM     58  O   UNL A   1      41.397  35.479  37.127  1.00  0.00    -0.237 OA
ATOM     59  O   UNL A   1      39.654  36.618  35.809  1.00  0.00    -0.744 OA
ENDBRANCH  52  56
ENDBRANCH  25  49
BRANCH  37  60
ATOM     60  C   UNL A   1      44.465  27.566  34.284  1.00  0.00     0.023 A 
ATOM     61  C   UNL A   1      44.364  26.439  35.114  1.00  0.00     0.031 A 
ATOM     62  C   UNL A   1      45.684  28.264  34.243  1.00  0.00     0.131 A 
ATOM     63  C   UNL A   1      45.463  26.059  35.898  1.00  0.00     0.055 A 
ATOM     64  C   UNL A   1      46.792  27.845  34.977  1.00  0.00     0.041 A 
ATOM     65  F   UNL A   1      45.825  29.350  33.466  1.00  0.00    -0.206 F 
ATOM     66  C   UNL A   1      46.682  26.740  35.815  1.00  0.00     0.022 A 
BRANCH  63  67
ATOM     67  S   UNL A   1      45.262  24.699  37.077  1.00  0.00     0.124 S 
ATOM     68  O   UNL A   1      44.820  23.610  36.209  1.00  0.00    -0.237 OA
ATOM     69  O   UNL A   1      46.603  24.566  37.636  1.00  0.00    -0.237 OA
ATOM     70  O   UNL A   1      44.250  25.200  38.007  1.00  0.00    -0.744 OA
ENDBRANCH  63  67
ENDBRANCH  37  60
ENDBRANCH  11  12
ENDBRANCH   4   6
ENDBRANCH   3   4
ENDBRANCH   2   3
ENDBRANCH   1   2
BRANCH   1  71
ATOM     71  O   UNL A   1      30.227  29.369  23.598  1.00  0.00    -0.374 OA
BRANCH  71  72
ATOM     72  C   UNL A   1      31.180  28.686  22.792  1.00  0.00     0.202 C 
BRANCH  72  73
ATOM     73  C   UNL A   1      30.726  27.257  22.512  1.00  0.00     0.261 C 
BRANCH  73  74
ATOM     74  O   UNL A   1      31.406  26.751  21.339  1.00  0.00    -0.462 OA
BRANCH  74  75
ATOM     75  C   UNL A   1      32.482  25.967  21.606  1.00  0.00     0.329 C 
ATOM     76  O   UNL A   1      33.262  25.577  20.738  1.00  0.00    -0.250 OA
BRANCH  75  77
ATOM     77  C   UNL A   1      32.557  25.435  23.055  1.00  0.00     0.206 C 
ATOM     78  C   UNL A   1      31.716  24.163  23.195  1.00  0.00     0.109 C 
ATOM     79  N   UNL A   1      33.751  25.345  23.952  1.00  0.00    -0.309 N 
ATOM     80  S   UNL A   1      32.746  22.903  23.959  1.00  0.00    -0.126 SA
ATOM     81  C   UNL A   1      33.899  24.102  24.742  1.00  0.00     0.116 C 
ATOM     82  C   UNL A   1      33.816  26.443  24.825  1.00  0.00     0.224 C 
ATOM     83  C   UNL A   1      33.319  24.491  26.127  1.00  0.00     0.055 C 
ATOM     84  C   UNL A   1      33.145  26.001  26.100  1.00  0.00     0.104 C 
ATOM     85  O   UNL A   1      34.026  27.602  24.522  1.00  0.00    -0.275 OA
BRANCH  81  86
ATOM     86  C   UNL A   1      35.333  23.486  24.815  1.00  0.00    -0.012 A 
ATOM     87  C   UNL A   1      35.718  22.424  23.969  1.00  0.00     0.007 A 
ATOM     88  C   UNL A   1      36.293  23.822  25.797  1.00  0.00     0.007 A 
ATOM     89  C   UNL A   1      36.957  21.768  24.062  1.00  0.00     0.000 A 
ATOM     90  C   UNL A   1      37.514  23.133  25.935  1.00  0.00     0.000 A 
ATOM     91  C   UNL A   1      37.854  22.114  25.058  1.00  0.00     0.000 A 
ENDBRANCH  81  86
ENDBRANCH  75  77
ENDBRANCH  74  75
ENDBRANCH  73  74
ENDBRANCH  72  73
ENDBRANCH  71  72
ENDBRANCH   1  71
TORSDOF 18
ENDMDL
