MODEL 1
REMARK VINA RESULT:     -11.7      0.000      0.000
REMARK SMILES Cc1cccc(O[C@H](C)C(=O)N2CCC[C@@H](C(=O)OCCOCCOC(=O)c3ccc(-c4c5nc(c(-c6cc(S(=O)(=O)[O-])ccc6F)c6ccc([nH]6)c(-c6cc(S(=O)(=O)[O-])ccc6F)c6nc(c(-c7cc(S(=O)(=O)[O-])ccc7F)c7ccc4[nH]7)C=C6)C=C5)cc3)C2)c1
REMARK SMILES IDX 21 1 20 2 19 3 17 4 18 5 16 6 12 7 13 8 91 9 14 10 15 11
REMARK SMILES IDX 10 12 11 13 8 14 9 15 7 16 6 17 1 18 2 19 3 20 92 21 4 22
REMARK SMILES IDX 5 23 22 24 23 25 24 26 25 27 26 28 27 29 28 30 29 31 90 32
REMARK SMILES IDX 30 33 89 34 31 35 32 36 33 37 83 38 34 39 88 40 82 41 84 42
REMARK SMILES IDX 35 43 87 44 81 45 80 46 36 48 68 49 48 50 67 51 49 52 52 53
REMARK SMILES IDX 66 54 85 55 50 56 51 57 65 59 86 60 53 61 37 62 38 63 46 64
REMARK SMILES IDX 39 65 45 66 47 67 44 68 40 69 41 70 42 71 43 72 69 73 70 74
REMARK SMILES IDX 78 75 71 76 77 77 79 78 76 79 72 80 73 81 74 82 75 83 54 84
REMARK SMILES IDX 55 85 63 86 56 87 62 88 64 89 61 90 57 91 58 92 59 93 60 94
REMARK H PARENT 84 47 52 58
REMARK Flexibility Score: inf
ROOT
ATOM      1  C   UNL A   1      33.345  28.138  24.828  1.00  0.00     0.202 C 
ENDROOT
BRANCH   1   2
ATOM      2  C   UNL A   1      32.042  27.910  24.215  1.00  0.00     0.261 C 
BRANCH   2   3
ATOM      3  O   UNL A   1      31.142  27.019  24.884  1.00  0.00    -0.463 OA
BRANCH   3   4
ATOM      4  C   UNL A   1      31.450  26.255  25.951  1.00  0.00     0.310 C 
ATOM      5  O   UNL A   1      31.488  26.587  27.123  1.00  0.00    -0.252 OA
BRANCH   4   6
ATOM      6  C   UNL A   1      31.820  24.910  25.425  1.00  0.00     0.119 C 
ATOM      7  N   UNL A   1      32.436  22.708  26.216  1.00  0.00    -0.339 N 
ATOM      8  C   UNL A   1      31.635  22.031  25.211  1.00  0.00     0.119 C 
ATOM      9  C   UNL A   1      31.954  23.980  26.628  1.00  0.00     0.134 C 
ATOM     10  C   UNL A   1      31.256  22.942  24.033  1.00  0.00     0.022 C 
ATOM     11  C   UNL A   1      30.777  24.325  24.485  1.00  0.00     0.019 C 
BRANCH   7  12
ATOM     12  C   UNL A   1      33.583  22.196  26.768  1.00  0.00     0.263 C 
ATOM     13  O   UNL A   1      33.794  22.280  27.982  1.00  0.00    -0.271 OA
BRANCH  12  14
ATOM     14  C   UNL A   1      34.618  21.519  25.800  1.00  0.00     0.259 C 
ATOM     15  C   UNL A   1      34.292  20.088  25.371  1.00  0.00     0.064 C 
BRANCH  14  16
ATOM     16  O   UNL A   1      35.342  22.317  24.867  1.00  0.00    -0.481 OA
BRANCH  16  17
ATOM     17  C   UNL A   1      36.730  22.447  24.788  1.00  0.00     0.120 A 
ATOM     18  C   UNL A   1      39.008  24.968  27.889  1.00  0.00     0.044 C 
ATOM     19  C   UNL A   1      38.994  23.992  26.689  1.00  0.00    -0.047 A 
ATOM     20  C   UNL A   1      39.990  22.349  26.977  1.00  0.00     0.003 A 
ATOM     21  C   UNL A   1      37.315  24.011  25.740  1.00  0.00     0.049 A 
ATOM     22  C   UNL A   1      39.384  20.759  26.012  1.00  0.00     0.004 A 
ATOM     23  C   UNL A   1      37.882  20.903  24.797  1.00  0.00     0.046 A 
ENDBRANCH  16  17
ENDBRANCH  14  16
ENDBRANCH  12  14
ENDBRANCH   7  12
ENDBRANCH   4   6
ENDBRANCH   3   4
ENDBRANCH   2   3
ENDBRANCH   1   2
BRANCH   1  24
ATOM     24  O   UNL A   1      33.424  29.452  25.298  1.00  0.00    -0.374 OA
BRANCH  24  25
ATOM     25  C   UNL A   1      32.172  30.086  25.316  1.00  0.00     0.202 C 
BRANCH  25  26
ATOM     26  C   UNL A   1      31.955  30.841  26.641  1.00  0.00     0.261 C 
BRANCH  26  27
ATOM     27  O   UNL A   1      32.998  30.522  27.615  1.00  0.00    -0.460 OA
BRANCH  27  28
ATOM     28  C   UNL A   1      33.898  31.493  27.999  1.00  0.00     0.338 C 
ATOM     29  O   UNL A   1      33.598  32.641  28.285  1.00  0.00    -0.246 OA
BRANCH  28  30
ATOM     30  C   UNL A   1      35.320  31.022  27.794  1.00  0.00     0.060 A 
ATOM     31  C   UNL A   1      35.740  29.703  28.106  1.00  0.00     0.016 A 
ATOM     32  C   UNL A   1      36.262  32.026  27.771  1.00  0.00     0.016 A 
ATOM     33  C   UNL A   1      37.034  29.462  28.634  1.00  0.00     0.010 A 
ATOM     34  C   UNL A   1      37.386  31.824  28.539  1.00  0.00     0.010 A 
ATOM     35  C   UNL A   1      37.813  30.557  28.982  1.00  0.00    -0.014 A 
BRANCH  35  36
ATOM     36  C   UNL A   1      39.092  30.626  29.733  1.00  0.00     0.031 A 
ATOM     37  C   UNL A   1      40.128  29.761  29.096  1.00  0.00     0.074 A 
ATOM     38  C   UNL A   1      39.378  31.569  30.694  1.00  0.00     0.049 A 
ATOM     39  N   UNL A   1      41.195  29.368  29.679  1.00  0.00    -0.248 NA
ATOM     40  C   UNL A   1      40.009  29.111  27.766  1.00  0.00     0.031 C 
ATOM     41  C   UNL A   1      40.645  32.226  31.084  1.00  0.00     0.029 A 
ATOM     42  N   UNL A   1      38.489  32.259  31.519  1.00  0.00    -0.354 N 
ATOM     43  C   UNL A   1      42.046  28.957  28.676  1.00  0.00     0.074 A 
ATOM     44  C   UNL A   1      41.206  28.556  27.600  1.00  0.00     0.031 C 
ATOM     45  C   UNL A   1      40.478  33.016  32.179  1.00  0.00     0.029 A 
ATOM     46  C   UNL A   1      39.082  32.942  32.590  1.00  0.00     0.049 A 
ATOM     47  H   UNL A   1      37.517  32.267  31.358  1.00  0.00     0.167 HD
ATOM     48  C   UNL A   1      43.362  29.264  28.801  1.00  0.00     0.034 A 
ATOM     49  C   UNL A   1      38.487  32.820  33.803  1.00  0.00     0.034 A 
ATOM     50  C   UNL A   1      43.588  29.868  30.133  1.00  0.00     0.049 A 
ATOM     51  C   UNL A   1      39.376  31.562  34.286  1.00  0.00     0.074 A 
ATOM     52  C   UNL A   1      43.952  31.128  30.568  1.00  0.00     0.029 A 
ATOM     53  N   UNL A   1      43.043  29.233  31.256  1.00  0.00    -0.354 N 
ATOM     54  N   UNL A   1      40.132  30.836  33.472  1.00  0.00    -0.248 NA
ATOM     55  C   UNL A   1      39.710  31.252  35.677  1.00  0.00     0.031 C 
ATOM     56  C   UNL A   1      43.507  31.263  31.931  1.00  0.00     0.029 A 
ATOM     57  C   UNL A   1      42.838  30.104  32.316  1.00  0.00     0.049 A 
ATOM     58  H   UNL A   1      42.828  28.273  31.290  1.00  0.00     0.167 HD
ATOM     59  C   UNL A   1      41.140  30.202  34.141  1.00  0.00     0.074 A 
ATOM     60  C   UNL A   1      40.770  30.427  35.538  1.00  0.00     0.031 C 
ATOM     61  C   UNL A   1      42.249  29.602  33.570  1.00  0.00     0.034 A 
BRANCH  48  62
ATOM     62  C   UNL A   1      44.379  29.246  27.673  1.00  0.00     0.023 A 
ATOM     63  C   UNL A   1      44.663  27.996  27.096  1.00  0.00     0.031 A 
ATOM     64  C   UNL A   1      45.130  30.325  27.141  1.00  0.00     0.131 A 
ATOM     65  C   UNL A   1      45.615  27.850  26.070  1.00  0.00     0.055 A 
ATOM     66  C   UNL A   1      46.052  30.186  26.089  1.00  0.00     0.041 A 
ATOM     67  F   UNL A   1      45.062  31.573  27.616  1.00  0.00    -0.206 F 
ATOM     68  C   UNL A   1      46.301  28.940  25.546  1.00  0.00     0.022 A 
BRANCH  65  69
ATOM     69  S   UNL A   1      45.944  26.188  25.439  1.00  0.00     0.124 S 
ATOM     70  O   UNL A   1      46.845  26.460  24.323  1.00  0.00    -0.237 OA
ATOM     71  O   UNL A   1      46.530  25.529  26.600  1.00  0.00    -0.237 OA
ATOM     72  O   UNL A   1      44.619  25.701  25.057  1.00  0.00    -0.744 OA
ENDBRANCH  65  69
ENDBRANCH  48  62
BRANCH  49  73
ATOM     73  C   UNL A   1      36.890  32.993  33.562  1.00  0.00     0.023 A 
ATOM     74  C   UNL A   1      36.128  34.331  33.340  1.00  0.00     0.031 A 
ATOM     75  C   UNL A   1      36.283  31.853  33.044  1.00  0.00     0.131 A 
ATOM     76  C   UNL A   1      34.835  34.552  32.425  1.00  0.00     0.055 A 
ATOM     77  C   UNL A   1      35.233  31.962  32.137  1.00  0.00     0.041 A 
ATOM     78  F   UNL A   1      36.819  30.636  33.220  1.00  0.00    -0.206 F 
ATOM     79  C   UNL A   1      34.609  33.195  31.783  1.00  0.00     0.022 A 
BRANCH  76  80
ATOM     80  S   UNL A   1      33.493  36.669  32.063  1.00  0.00     0.124 S 
ATOM     81  O   UNL A   1      33.558  37.800  33.033  1.00  0.00    -0.237 OA
ATOM     82  O   UNL A   1      34.689  35.653  31.409  1.00  0.00    -0.237 OA
ATOM     83  O   UNL A   1      32.074  36.748  31.572  1.00  0.00    -0.744 OA
ENDBRANCH  76  80
ENDBRANCH  49  73
BRANCH  61  84
ATOM     84  C   UNL A   1      42.963  28.450  34.248  1.00  0.00     0.023 A 
ATOM     85  C   UNL A   1      42.288  27.262  34.522  1.00  0.00     0.031 A 
ATOM     86  C   UNL A   1      44.349  28.444  34.548  1.00  0.00     0.131 A 
ATOM     87  C   UNL A   1      42.897  26.238  35.248  1.00  0.00     0.055 A 
ATOM     88  C   UNL A   1      44.997  27.349  35.121  1.00  0.00     0.041 A 
ATOM     89  F   UNL A   1      45.151  29.489  34.297  1.00  0.00    -0.206 F 
ATOM     90  C   UNL A   1      44.258  26.252  35.525  1.00  0.00     0.022 A 
BRANCH  87  91
ATOM     91  S   UNL A   1      41.801  24.995  35.956  1.00  0.00     0.124 S 
ATOM     92  O   UNL A   1      42.281  23.778  35.304  1.00  0.00    -0.237 OA
ATOM     93  O   UNL A   1      42.085  25.097  37.384  1.00  0.00    -0.237 OA
ATOM     94  O   UNL A   1      40.471  25.438  35.547  1.00  0.00    -0.744 OA
ENDBRANCH  87  91
ENDBRANCH  61  84
ENDBRANCH  35  36
ENDBRANCH  28  30
ENDBRANCH  27  28
ENDBRANCH  26  27
ENDBRANCH  25  26
ENDBRANCH  24  25
ENDBRANCH   1  24
TORSDOF 21
ENDMDL
MODEL 2
REMARK VINA RESULT:     -11.6      1.617      1.838
REMARK SMILES Cc1cccc(O[C@H](C)C(=O)N2CCC[C@@H](C(=O)OCCOCCOC(=O)c3ccc(-c4c5nc(c(-c6cc(S(=O)(=O)[O-])ccc6F)c6ccc([nH]6)c(-c6cc(S(=O)(=O)[O-])ccc6F)c6nc(c(-c7cc(S(=O)(=O)[O-])ccc7F)c7ccc4[nH]7)C=C6)C=C5)cc3)C2)c1
REMARK SMILES IDX 21 1 20 2 19 3 17 4 18 5 16 6 12 7 13 8 91 9 14 10 15 11
REMARK SMILES IDX 10 12 11 13 8 14 9 15 7 16 6 17 1 18 2 19 3 20 92 21 4 22
REMARK SMILES IDX 5 23 22 24 23 25 24 26 25 27 26 28 27 29 28 30 29 31 90 32
REMARK SMILES IDX 30 33 89 34 31 35 32 36 33 37 83 38 34 39 88 40 82 41 84 42
REMARK SMILES IDX 35 43 87 44 81 45 80 46 36 48 68 49 48 50 67 51 49 52 52 53
REMARK SMILES IDX 66 54 85 55 50 56 51 57 65 59 86 60 53 61 37 62 38 63 46 64
REMARK SMILES IDX 39 65 45 66 47 67 44 68 40 69 41 70 42 71 43 72 69 73 70 74
REMARK SMILES IDX 78 75 71 76 77 77 79 78 76 79 72 80 73 81 74 82 75 83 54 84
REMARK SMILES IDX 55 85 63 86 56 87 62 88 64 89 61 90 57 91 58 92 59 93 60 94
REMARK H PARENT 84 47 52 58
REMARK Flexibility Score: inf
ROOT
ATOM      1  C   UNL A   1      33.652  28.321  25.500  1.00  0.00     0.202 C 
ENDROOT
BRANCH   1   2
ATOM      2  C   UNL A   1      33.249  27.173  26.302  1.00  0.00     0.261 C 
BRANCH   2   3
ATOM      3  O   UNL A   1      32.497  26.142  25.651  1.00  0.00    -0.463 OA
BRANCH   3   4
ATOM      4  C   UNL A   1      32.257  24.915  26.156  1.00  0.00     0.310 C 
ATOM      5  O   UNL A   1      31.593  24.626  27.137  1.00  0.00    -0.252 OA
BRANCH   4   6
ATOM      6  C   UNL A   1      33.028  23.948  25.323  1.00  0.00     0.119 C 
ATOM      7  N   UNL A   1      32.788  21.766  24.303  1.00  0.00    -0.339 N 
ATOM      8  C   UNL A   1      33.459  22.172  23.080  1.00  0.00     0.119 C 
ATOM      9  C   UNL A   1      32.084  22.796  24.986  1.00  0.00     0.134 C 
ATOM     10  C   UNL A   1      34.284  23.458  23.247  1.00  0.00     0.022 C 
ATOM     11  C   UNL A   1      33.533  24.547  24.019  1.00  0.00     0.019 C 
BRANCH   7  12
ATOM     12  C   UNL A   1      32.795  20.490  24.805  1.00  0.00     0.263 C 
ATOM     13  O   UNL A   1      31.751  19.836  24.887  1.00  0.00    -0.271 OA
BRANCH  12  14
ATOM     14  C   UNL A   1      34.172  19.904  25.285  1.00  0.00     0.259 C 
ATOM     15  C   UNL A   1      34.701  18.711  24.489  1.00  0.00     0.064 C 
BRANCH  14  16
ATOM     16  O   UNL A   1      35.145  20.768  25.867  1.00  0.00    -0.481 OA
BRANCH  16  17
ATOM     17  C   UNL A   1      36.367  21.138  25.303  1.00  0.00     0.120 A 
ATOM     18  C   UNL A   1      38.835  24.557  27.143  1.00  0.00     0.044 C 
ATOM     19  C   UNL A   1      38.678  23.395  26.133  1.00  0.00    -0.047 A 
ATOM     20  C   UNL A   1      40.073  22.047  26.234  1.00  0.00     0.003 A 
ATOM     21  C   UNL A   1      36.833  22.930  25.823  1.00  0.00     0.049 A 
ATOM     22  C   UNL A   1      39.590  20.225  25.712  1.00  0.00     0.004 A 
ATOM     23  C   UNL A   1      37.794  19.864  25.080  1.00  0.00     0.046 A 
ENDBRANCH  16  17
ENDBRANCH  14  16
ENDBRANCH  12  14
ENDBRANCH   7  12
ENDBRANCH   4   6
ENDBRANCH   3   4
ENDBRANCH   2   3
ENDBRANCH   1   2
BRANCH   1  24
ATOM     24  O   UNL A   1      32.520  28.965  24.990  1.00  0.00    -0.374 OA
BRANCH  24  25
ATOM     25  C   UNL A   1      31.687  29.459  26.006  1.00  0.00     0.202 C 
BRANCH  25  26
ATOM     26  C   UNL A   1      32.149  30.854  26.468  1.00  0.00     0.261 C 
BRANCH  26  27
ATOM     27  O   UNL A   1      32.976  30.772  27.671  1.00  0.00    -0.460 OA
BRANCH  27  28
ATOM     28  C   UNL A   1      33.867  31.783  27.960  1.00  0.00     0.338 C 
ATOM     29  O   UNL A   1      33.555  32.947  28.158  1.00  0.00    -0.246 OA
BRANCH  28  30
ATOM     30  C   UNL A   1      35.293  31.316  27.769  1.00  0.00     0.060 A 
ATOM     31  C   UNL A   1      35.699  29.981  28.023  1.00  0.00     0.016 A 
ATOM     32  C   UNL A   1      36.239  32.316  27.824  1.00  0.00     0.016 A 
ATOM     33  C   UNL A   1      36.977  29.707  28.572  1.00  0.00     0.010 A 
ATOM     34  C   UNL A   1      37.341  32.068  28.610  1.00  0.00     0.010 A 
ATOM     35  C   UNL A   1      37.751  30.778  28.998  1.00  0.00    -0.014 A 
BRANCH  35  36
ATOM     36  C   UNL A   1      39.009  30.802  29.785  1.00  0.00     0.031 A 
ATOM     37  C   UNL A   1      40.039  29.918  29.165  1.00  0.00     0.074 A 
ATOM     38  C   UNL A   1      39.294  31.723  30.768  1.00  0.00     0.049 A 
ATOM     39  N   UNL A   1      41.079  29.487  29.772  1.00  0.00    -0.248 NA
ATOM     40  C   UNL A   1      39.941  29.289  27.823  1.00  0.00     0.031 C 
ATOM     41  C   UNL A   1      40.566  32.339  31.202  1.00  0.00     0.029 A 
ATOM     42  N   UNL A   1      38.400  32.426  31.577  1.00  0.00    -0.354 N 
ATOM     43  C   UNL A   1      41.946  29.068  28.788  1.00  0.00     0.074 A 
ATOM     44  C   UNL A   1      41.127  28.704  27.683  1.00  0.00     0.031 C 
ATOM     45  C   UNL A   1      40.389  33.119  32.303  1.00  0.00     0.029 A 
ATOM     46  C   UNL A   1      38.981  33.078  32.674  1.00  0.00     0.049 A 
ATOM     47  H   UNL A   1      37.433  32.463  31.390  1.00  0.00     0.167 HD
ATOM     48  C   UNL A   1      43.266  29.336  28.954  1.00  0.00     0.034 A 
ATOM     49  C   UNL A   1      38.349  32.956  33.869  1.00  0.00     0.034 A 
ATOM     50  C   UNL A   1      43.470  29.916  30.300  1.00  0.00     0.049 A 
ATOM     51  C   UNL A   1      39.189  31.667  34.358  1.00  0.00     0.074 A 
ATOM     52  C   UNL A   1      43.855  31.159  30.763  1.00  0.00     0.029 A 
ATOM     53  N   UNL A   1      42.876  29.280  31.399  1.00  0.00    -0.354 N 
ATOM     54  N   UNL A   1      39.948  30.932  33.555  1.00  0.00    -0.248 NA
ATOM     55  C   UNL A   1      39.474  31.329  35.753  1.00  0.00     0.031 C 
ATOM     56  C   UNL A   1      43.376  31.287  32.115  1.00  0.00     0.029 A 
ATOM     57  C   UNL A   1      42.665  30.141  32.464  1.00  0.00     0.049 A 
ATOM     58  H   UNL A   1      42.634  28.326  31.412  1.00  0.00     0.167 HD
ATOM     59  C   UNL A   1      40.919  30.261  34.242  1.00  0.00     0.074 A 
ATOM     60  C   UNL A   1      40.516  30.477  35.631  1.00  0.00     0.031 C 
ATOM     61  C   UNL A   1      42.027  29.639  33.694  1.00  0.00     0.034 A 
BRANCH  48  62
ATOM     62  C   UNL A   1      44.313  29.305  27.855  1.00  0.00     0.023 A 
ATOM     63  C   UNL A   1      44.607  28.051  27.294  1.00  0.00     0.031 A 
ATOM     64  C   UNL A   1      45.085  30.378  27.338  1.00  0.00     0.131 A 
ATOM     65  C   UNL A   1      45.586  27.893  26.295  1.00  0.00     0.055 A 
ATOM     66  C   UNL A   1      46.036  30.227  26.312  1.00  0.00     0.041 A 
ATOM     67  F   UNL A   1      45.010  31.629  27.803  1.00  0.00    -0.206 F 
ATOM     68  C   UNL A   1      46.292  28.976  25.784  1.00  0.00     0.022 A 
BRANCH  65  69
ATOM     69  S   UNL A   1      45.924  26.226  25.683  1.00  0.00     0.124 S 
ATOM     70  O   UNL A   1      46.426  26.492  24.340  1.00  0.00    -0.237 OA
ATOM     71  O   UNL A   1      46.894  25.734  26.654  1.00  0.00    -0.237 OA
ATOM     72  O   UNL A   1      44.615  25.573  25.735  1.00  0.00    -0.744 OA
ENDBRANCH  65  69
ENDBRANCH  48  62
BRANCH  49  73
ATOM     73  C   UNL A   1      36.764  33.175  33.585  1.00  0.00     0.023 A 
ATOM     74  C   UNL A   1      36.050  34.534  33.332  1.00  0.00     0.031 A 
ATOM     75  C   UNL A   1      36.135  32.049  33.062  1.00  0.00     0.131 A 
ATOM     76  C   UNL A   1      34.788  34.786  32.381  1.00  0.00     0.055 A 
ATOM     77  C   UNL A   1      35.113  32.182  32.128  1.00  0.00     0.041 A 
ATOM     78  F   UNL A   1      36.628  30.818  33.263  1.00  0.00    -0.206 F 
ATOM     79  C   UNL A   1      34.536  33.431  31.746  1.00  0.00     0.022 A 
BRANCH  76  80
ATOM     80  S   UNL A   1      33.522  36.940  31.966  1.00  0.00     0.124 S 
ATOM     81  O   UNL A   1      33.311  37.456  30.583  1.00  0.00    -0.237 OA
ATOM     82  O   UNL A   1      33.428  35.378  32.630  1.00  0.00    -0.237 OA
ATOM     83  O   UNL A   1      33.637  38.207  32.768  1.00  0.00    -0.744 OA
ENDBRANCH  76  80
ENDBRANCH  49  73
BRANCH  61  84
ATOM     84  C   UNL A   1      42.690  28.458  34.376  1.00  0.00     0.023 A 
ATOM     85  C   UNL A   1      43.961  28.584  34.932  1.00  0.00     0.031 A 
ATOM     86  C   UNL A   1      42.053  27.210  34.592  1.00  0.00     0.131 A 
ATOM     87  C   UNL A   1      44.630  27.479  35.458  1.00  0.00     0.055 A 
ATOM     88  C   UNL A   1      42.661  26.155  35.273  1.00  0.00     0.041 A 
ATOM     89  F   UNL A   1      40.809  26.946  34.166  1.00  0.00    -0.206 F 
ATOM     90  C   UNL A   1      43.983  26.267  35.666  1.00  0.00     0.022 A 
BRANCH  87  91
ATOM     91  S   UNL A   1      46.410  27.651  35.685  1.00  0.00     0.124 S 
ATOM     92  O   UNL A   1      46.860  26.271  35.511  1.00  0.00    -0.237 OA
ATOM     93  O   UNL A   1      46.779  28.574  34.615  1.00  0.00    -0.237 OA
ATOM     94  O   UNL A   1      46.533  28.180  37.041  1.00  0.00    -0.744 OA
ENDBRANCH  87  91
ENDBRANCH  61  84
ENDBRANCH  35  36
ENDBRANCH  28  30
ENDBRANCH  27  28
ENDBRANCH  26  27
ENDBRANCH  25  26
ENDBRANCH  24  25
ENDBRANCH   1  24
TORSDOF 21
ENDMDL
MODEL 3
REMARK VINA RESULT:     -11.4      2.901      4.355
REMARK SMILES Cc1cccc(O[C@H](C)C(=O)N2CCC[C@@H](C(=O)OCCOCCOC(=O)c3ccc(-c4c5nc(c(-c6cc(S(=O)(=O)[O-])ccc6F)c6ccc([nH]6)c(-c6cc(S(=O)(=O)[O-])ccc6F)c6nc(c(-c7cc(S(=O)(=O)[O-])ccc7F)c7ccc4[nH]7)C=C6)C=C5)cc3)C2)c1
REMARK SMILES IDX 21 1 20 2 19 3 17 4 18 5 16 6 12 7 13 8 91 9 14 10 15 11
REMARK SMILES IDX 10 12 11 13 8 14 9 15 7 16 6 17 1 18 2 19 3 20 92 21 4 22
REMARK SMILES IDX 5 23 22 24 23 25 24 26 25 27 26 28 27 29 28 30 29 31 90 32
REMARK SMILES IDX 30 33 89 34 31 35 32 36 33 37 83 38 34 39 88 40 82 41 84 42
REMARK SMILES IDX 35 43 87 44 81 45 80 46 36 48 68 49 48 50 67 51 49 52 52 53
REMARK SMILES IDX 66 54 85 55 50 56 51 57 65 59 86 60 53 61 37 62 38 63 46 64
REMARK SMILES IDX 39 65 45 66 47 67 44 68 40 69 41 70 42 71 43 72 69 73 70 74
REMARK SMILES IDX 78 75 71 76 77 77 79 78 76 79 72 80 73 81 74 82 75 83 54 84
REMARK SMILES IDX 55 85 63 86 56 87 62 88 64 89 61 90 57 91 58 92 59 93 60 94
REMARK H PARENT 84 47 52 58
REMARK Flexibility Score: inf
ROOT
ATOM      1  C   UNL A   1      31.145  29.413  24.972  1.00  0.00     0.202 C 
ENDROOT
BRANCH   1   2
ATOM      2  C   UNL A   1      31.221  28.082  25.561  1.00  0.00     0.261 C 
BRANCH   2   3
ATOM      3  O   UNL A   1      31.072  26.959  24.683  1.00  0.00    -0.463 OA
BRANCH   3   4
ATOM      4  C   UNL A   1      32.079  26.332  24.042  1.00  0.00     0.310 C 
ATOM      5  O   UNL A   1      32.767  26.759  23.131  1.00  0.00    -0.252 OA
BRANCH   4   6
ATOM      6  C   UNL A   1      32.160  24.956  24.609  1.00  0.00     0.119 C 
ATOM      7  N   UNL A   1      33.170  23.760  26.455  1.00  0.00    -0.339 N 
ATOM      8  C   UNL A   1      31.982  22.959  26.696  1.00  0.00     0.119 C 
ATOM      9  C   UNL A   1      32.937  25.056  25.920  1.00  0.00     0.134 C 
ATOM     10  C   UNL A   1      31.012  22.954  25.505  1.00  0.00     0.022 C 
ATOM     11  C   UNL A   1      30.797  24.348  24.910  1.00  0.00     0.019 C 
BRANCH   7  12
ATOM     12  C   UNL A   1      34.451  23.345  26.715  1.00  0.00     0.263 C 
ATOM     13  O   UNL A   1      34.694  22.594  27.664  1.00  0.00    -0.271 OA
BRANCH  12  14
ATOM     14  C   UNL A   1      35.594  23.876  25.775  1.00  0.00     0.259 C 
ATOM     15  C   UNL A   1      37.021  23.682  26.289  1.00  0.00     0.064 C 
BRANCH  14  16
ATOM     16  O   UNL A   1      35.414  23.859  24.362  1.00  0.00    -0.481 OA
BRANCH  16  17
ATOM     17  C   UNL A   1      34.994  22.771  23.593  1.00  0.00     0.120 A 
ATOM     18  C   UNL A   1      33.321  18.998  25.625  1.00  0.00     0.044 C 
ATOM     19  C   UNL A   1      33.624  19.826  24.354  1.00  0.00    -0.047 A 
ATOM     20  C   UNL A   1      32.078  20.165  23.227  1.00  0.00     0.003 A 
ATOM     21  C   UNL A   1      34.980  21.165  24.651  1.00  0.00     0.049 A 
ATOM     22  C   UNL A   1      32.095  21.804  22.160  1.00  0.00     0.004 A 
ATOM     23  C   UNL A   1      33.643  22.967  22.234  1.00  0.00     0.046 A 
ENDBRANCH  16  17
ENDBRANCH  14  16
ENDBRANCH  12  14
ENDBRANCH   7  12
ENDBRANCH   4   6
ENDBRANCH   3   4
ENDBRANCH   2   3
ENDBRANCH   1   2
BRANCH   1  24
ATOM     24  O   UNL A   1      32.294  30.140  25.294  1.00  0.00    -0.374 OA
BRANCH  24  25
ATOM     25  C   UNL A   1      32.328  30.510  26.647  1.00  0.00     0.202 C 
BRANCH  25  26
ATOM     26  C   UNL A   1      33.674  30.129  27.290  1.00  0.00     0.261 C 
BRANCH  26  27
ATOM     27  O   UNL A   1      34.166  31.188  28.170  1.00  0.00    -0.460 OA
BRANCH  27  28
ATOM     28  C   UNL A   1      35.515  31.466  28.221  1.00  0.00     0.338 C 
ATOM     29  O   UNL A   1      36.010  32.551  27.960  1.00  0.00    -0.246 OA
BRANCH  28  30
ATOM     30  C   UNL A   1      36.319  30.199  28.411  1.00  0.00     0.060 A 
ATOM     31  C   UNL A   1      36.521  29.607  29.683  1.00  0.00     0.016 A 
ATOM     32  C   UNL A   1      37.229  29.939  27.409  1.00  0.00     0.016 A 
ATOM     33  C   UNL A   1      37.752  28.979  30.001  1.00  0.00     0.010 A 
ATOM     34  C   UNL A   1      38.497  29.593  27.816  1.00  0.00     0.010 A 
ATOM     35  C   UNL A   1      38.800  29.098  29.099  1.00  0.00    -0.014 A 
BRANCH  35  36
ATOM     36  C   UNL A   1      40.234  28.741  29.239  1.00  0.00     0.031 A 
ATOM     37  C   UNL A   1      40.455  27.299  28.924  1.00  0.00     0.074 A 
ATOM     38  C   UNL A   1      41.255  29.657  29.350  1.00  0.00     0.049 A 
ATOM     39  N   UNL A   1      41.496  26.639  29.263  1.00  0.00    -0.248 NA
ATOM     40  C   UNL A   1      39.454  26.387  28.313  1.00  0.00     0.031 C 
ATOM     41  C   UNL A   1      42.659  29.630  28.885  1.00  0.00     0.029 A 
ATOM     42  N   UNL A   1      41.200  30.954  29.863  1.00  0.00    -0.354 N 
ATOM     43  C   UNL A   1      41.507  25.514  28.468  1.00  0.00     0.074 A 
ATOM     44  C   UNL A   1      40.147  25.266  28.132  1.00  0.00     0.031 C 
ATOM     45  C   UNL A   1      43.349  30.717  29.325  1.00  0.00     0.029 A 
ATOM     46  C   UNL A   1      42.446  31.547  30.111  1.00  0.00     0.049 A 
ATOM     47  H   UNL A   1      40.348  31.418  30.036  1.00  0.00     0.167 HD
ATOM     48  C   UNL A   1      42.704  25.097  27.984  1.00  0.00     0.034 A 
ATOM     49  C   UNL A   1      42.593  32.202  31.290  1.00  0.00     0.034 A 
ATOM     50  C   UNL A   1      43.777  25.917  28.589  1.00  0.00     0.049 A 
ATOM     51  C   UNL A   1      43.182  30.935  32.099  1.00  0.00     0.074 A 
ATOM     52  C   UNL A   1      44.670  26.848  28.095  1.00  0.00     0.029 A 
ATOM     53  N   UNL A   1      43.763  26.118  29.976  1.00  0.00    -0.354 N 
ATOM     54  N   UNL A   1      43.128  29.685  31.656  1.00  0.00    -0.248 NA
ATOM     55  C   UNL A   1      44.102  31.017  33.234  1.00  0.00     0.031 C 
ATOM     56  C   UNL A   1      45.091  27.674  29.196  1.00  0.00     0.029 A 
ATOM     57  C   UNL A   1      44.428  27.274  30.354  1.00  0.00     0.049 A 
ATOM     58  H   UNL A   1      43.328  25.506  30.612  1.00  0.00     0.167 HD
ATOM     59  C   UNL A   1      44.097  28.902  32.216  1.00  0.00     0.074 A 
ATOM     60  C   UNL A   1      44.622  29.770  33.269  1.00  0.00     0.031 C 
ATOM     61  C   UNL A   1      44.489  27.649  31.778  1.00  0.00     0.034 A 
BRANCH  48  62
ATOM     62  C   UNL A   1      42.896  24.141  26.820  1.00  0.00     0.023 A 
ATOM     63  C   UNL A   1      42.368  22.847  26.968  1.00  0.00     0.031 A 
ATOM     64  C   UNL A   1      43.586  24.359  25.599  1.00  0.00     0.131 A 
ATOM     65  C   UNL A   1      42.515  21.863  25.972  1.00  0.00     0.055 A 
ATOM     66  C   UNL A   1      43.700  23.389  24.587  1.00  0.00     0.041 A 
ATOM     67  F   UNL A   1      44.227  25.496  25.311  1.00  0.00    -0.206 F 
ATOM     68  C   UNL A   1      43.163  22.130  24.771  1.00  0.00     0.022 A 
BRANCH  65  69
ATOM     69  S   UNL A   1      41.846  20.215  26.291  1.00  0.00     0.124 S 
ATOM     70  O   UNL A   1      42.403  19.443  25.185  1.00  0.00    -0.237 OA
ATOM     71  O   UNL A   1      42.373  19.921  27.618  1.00  0.00    -0.237 OA
ATOM     72  O   UNL A   1      40.398  20.419  26.234  1.00  0.00    -0.744 OA
ENDBRANCH  65  69
ENDBRANCH  48  62
BRANCH  49  73
ATOM     73  C   UNL A   1      41.252  33.096  31.500  1.00  0.00     0.023 A 
ATOM     74  C   UNL A   1      39.794  32.565  31.604  1.00  0.00     0.031 A 
ATOM     75  C   UNL A   1      41.497  34.326  32.103  1.00  0.00     0.131 A 
ATOM     76  C   UNL A   1      38.612  33.186  32.484  1.00  0.00     0.055 A 
ATOM     77  C   UNL A   1      40.573  34.875  32.987  1.00  0.00     0.041 A 
ATOM     78  F   UNL A   1      42.703  34.910  32.033  1.00  0.00    -0.206 F 
ATOM     79  C   UNL A   1      39.279  34.326  33.233  1.00  0.00     0.022 A 
BRANCH  76  80
ATOM     80  S   UNL A   1      36.200  32.434  32.658  1.00  0.00     0.124 S 
ATOM     81  O   UNL A   1      35.268  32.557  31.500  1.00  0.00    -0.237 OA
ATOM     82  O   UNL A   1      37.822  31.939  32.772  1.00  0.00    -0.237 OA
ATOM     83  O   UNL A   1      35.285  32.649  33.831  1.00  0.00    -0.744 OA
ENDBRANCH  76  80
ENDBRANCH  49  73
BRANCH  61  84
ATOM     84  C   UNL A   1      45.077  26.626  32.730  1.00  0.00     0.023 A 
ATOM     85  C   UNL A   1      44.347  25.497  33.095  1.00  0.00     0.031 A 
ATOM     86  C   UNL A   1      46.407  26.675  33.221  1.00  0.00     0.131 A 
ATOM     87  C   UNL A   1      44.827  24.609  34.057  1.00  0.00     0.055 A 
ATOM     88  C   UNL A   1      46.946  25.692  34.051  1.00  0.00     0.041 A 
ATOM     89  F   UNL A   1      47.256  27.668  32.920  1.00  0.00    -0.206 F 
ATOM     90  C   UNL A   1      46.136  24.673  34.520  1.00  0.00     0.022 A 
BRANCH  87  91
ATOM     91  S   UNL A   1      43.618  23.494  34.796  1.00  0.00     0.124 S 
ATOM     92  O   UNL A   1      43.334  22.593  33.680  1.00  0.00    -0.237 OA
ATOM     93  O   UNL A   1      44.363  22.908  35.905  1.00  0.00    -0.237 OA
ATOM     94  O   UNL A   1      42.522  24.382  35.175  1.00  0.00    -0.744 OA
ENDBRANCH  87  91
ENDBRANCH  61  84
ENDBRANCH  35  36
ENDBRANCH  28  30
ENDBRANCH  27  28
ENDBRANCH  26  27
ENDBRANCH  25  26
ENDBRANCH  24  25
ENDBRANCH   1  24
TORSDOF 21
ENDMDL
