MODEL 1
REMARK VINA RESULT:      -9.7      0.000      0.000
REMARK SMILES C[N@@H+]1CCC[C@@H](C[NH2+]CC(=O)OCCOCCOC(=O)c2ccc(-c3c4nc(c(-c5cc(S(=O)(=O)[O-])ccc5F)c5ccc([nH]5)c(-c5cc(S(=O)(=O)[O-])ccc5F)c5nc(c(-c6cc(S(=O)(=O)[O-])ccc6F)c6ccc3[nH]6)C=C5)C=C4)cc2)C1
REMARK SMILES IDX 15 1 14 2 13 3 12 4 10 5 11 6 9 7 8 8 7 11 6 12 1 13 2 14
REMARK SMILES IDX 3 15 84 16 4 18 5 19 16 20 17 21 18 22 19 23 20 24 21 25
REMARK SMILES IDX 22 26 83 27 23 28 82 29 24 30 25 31 26 32 76 33 27 34 81 35
REMARK SMILES IDX 75 36 77 37 28 38 80 39 74 40 73 41 29 43 61 44 41 45 60 46
REMARK SMILES IDX 42 47 45 48 59 49 78 50 43 51 44 52 58 54 79 55 46 56 30 57
REMARK SMILES IDX 31 58 39 59 32 60 38 61 40 62 37 63 33 64 34 65 35 66 36 67
REMARK SMILES IDX 62 68 63 69 71 70 64 71 70 72 72 73 69 74 65 75 66 76 67 77
REMARK SMILES IDX 68 78 47 79 48 80 56 81 49 82 55 83 57 84 54 85 50 86 51 87
REMARK SMILES IDX 52 88 53 89
REMARK H PARENT 8 9 8 10 2 17 77 42 45 53
REMARK Flexibility Score: inf
ROOT
ATOM      1  O   UNL A   1      36.306  21.256  25.029  1.00  0.00    -0.374 OA
ENDROOT
BRANCH   1   2
ATOM      2  C   UNL A   1      35.423  21.533  26.112  1.00  0.00     0.202 C 
BRANCH   2   3
ATOM      3  C   UNL A   1      34.090  22.225  25.801  1.00  0.00     0.261 C 
BRANCH   3   4
ATOM      4  O   UNL A   1      33.053  21.975  26.764  1.00  0.00    -0.459 OA
BRANCH   4   5
ATOM      5  C   UNL A   1      32.185  22.999  26.983  1.00  0.00     0.361 C 
ATOM      6  O   UNL A   1      31.178  22.917  27.680  1.00  0.00    -0.245 OA
BRANCH   5   7
ATOM      7  C   UNL A   1      32.531  24.286  26.235  1.00  0.00     0.384 C 
BRANCH   7   8
ATOM      8  N   UNL A   1      31.564  25.403  26.289  1.00  0.00    -0.337 N 
ATOM      9  H   UNL A   1      30.677  25.045  26.643  1.00  0.00     0.346 HD
ATOM     10  H   UNL A   1      31.962  26.117  26.898  1.00  0.00     0.346 HD
BRANCH   8  11
ATOM     11  C   UNL A   1      31.324  26.029  24.987  1.00  0.00     0.270 C 
BRANCH  11  12
ATOM     12  C   UNL A   1      30.995  27.533  25.116  1.00  0.00     0.099 C 
ATOM     13  C   UNL A   1      33.901  29.010  27.085  1.00  0.00     0.332 C 
ATOM     14  N   UNL A   1      33.184  28.389  25.972  1.00  0.00    -0.337 N 
ATOM     15  C   UNL A   1      33.372  29.173  24.743  1.00  0.00     0.262 C 
ATOM     16  C   UNL A   1      31.748  28.253  26.257  1.00  0.00     0.271 C 
ATOM     17  H   UNL A   1      33.570  27.454  25.845  1.00  0.00     0.347 HD
ATOM     18  C   UNL A   1      32.769  28.438  23.550  1.00  0.00     0.062 C 
ATOM     19  C   UNL A   1      31.274  28.238  23.773  1.00  0.00     0.021 C 
ENDBRANCH  11  12
ENDBRANCH   8  11
ENDBRANCH   7   8
ENDBRANCH   5   7
ENDBRANCH   4   5
ENDBRANCH   3   4
ENDBRANCH   2   3
ENDBRANCH   1   2
BRANCH   1  20
ATOM     20  C   UNL A   1      36.904  19.963  24.979  1.00  0.00     0.202 C 
BRANCH  20  21
ATOM     21  C   UNL A   1      38.392  19.833  25.321  1.00  0.00     0.261 C 
BRANCH  21  22
ATOM     22  O   UNL A   1      39.043  21.088  25.553  1.00  0.00    -0.460 OA
BRANCH  22  23
ATOM     23  C   UNL A   1      39.908  21.112  26.600  1.00  0.00     0.338 C 
ATOM     24  O   UNL A   1      40.440  20.166  27.150  1.00  0.00    -0.246 OA
BRANCH  23  25
ATOM     25  C   UNL A   1      40.116  22.513  26.996  1.00  0.00     0.060 A 
ATOM     26  C   UNL A   1      39.342  23.549  26.472  1.00  0.00     0.016 A 
ATOM     27  C   UNL A   1      41.155  22.789  27.873  1.00  0.00     0.016 A 
ATOM     28  C   UNL A   1      39.631  24.876  26.827  1.00  0.00     0.010 A 
ATOM     29  C   UNL A   1      41.366  24.096  28.310  1.00  0.00     0.010 A 
ATOM     30  C   UNL A   1      40.651  25.168  27.747  1.00  0.00    -0.014 A 
BRANCH  30  31
ATOM     31  C   UNL A   1      41.114  26.566  28.020  1.00  0.00     0.031 A 
ATOM     32  C   UNL A   1      42.515  26.960  27.594  1.00  0.00     0.074 A 
ATOM     33  C   UNL A   1      40.347  27.466  28.669  1.00  0.00     0.049 A 
ATOM     34  N   UNL A   1      43.228  28.007  27.921  1.00  0.00    -0.248 NA
ATOM     35  C   UNL A   1      43.229  26.001  26.735  1.00  0.00     0.031 C 
ATOM     36  C   UNL A   1      38.982  27.240  29.143  1.00  0.00     0.029 A 
ATOM     37  N   UNL A   1      40.616  28.761  29.051  1.00  0.00    -0.354 N 
ATOM     38  C   UNL A   1      44.492  27.790  27.373  1.00  0.00     0.074 A 
ATOM     39  C   UNL A   1      44.462  26.478  26.766  1.00  0.00     0.031 C 
ATOM     40  C   UNL A   1      38.524  28.363  29.722  1.00  0.00     0.029 A 
ATOM     41  C   UNL A   1      39.580  29.373  29.722  1.00  0.00     0.049 A 
ATOM     42  H   UNL A   1      41.472  29.209  28.863  1.00  0.00     0.167 HD
ATOM     43  C   UNL A   1      45.566  28.617  27.343  1.00  0.00     0.034 A 
ATOM     44  C   UNL A   1      39.499  30.596  30.289  1.00  0.00     0.034 A 
ATOM     45  C   UNL A   1      45.548  29.960  27.862  1.00  0.00     0.049 A 
ATOM     46  C   UNL A   1      40.697  31.516  30.226  1.00  0.00     0.074 A 
ATOM     47  C   UNL A   1      46.549  30.914  27.820  1.00  0.00     0.029 A 
ATOM     48  N   UNL A   1      44.462  30.548  28.499  1.00  0.00    -0.354 N 
ATOM     49  N   UNL A   1      41.885  31.293  29.711  1.00  0.00    -0.248 NA
ATOM     50  C   UNL A   1      40.543  32.854  30.815  1.00  0.00     0.031 C 
ATOM     51  C   UNL A   1      46.091  32.058  28.481  1.00  0.00     0.029 A 
ATOM     52  C   UNL A   1      44.775  31.848  28.861  1.00  0.00     0.049 A 
ATOM     53  H   UNL A   1      43.599  30.107  28.666  1.00  0.00     0.167 HD
ATOM     54  C   UNL A   1      42.598  32.480  29.870  1.00  0.00     0.074 A 
ATOM     55  C   UNL A   1      41.711  33.413  30.531  1.00  0.00     0.031 C 
ATOM     56  C   UNL A   1      43.869  32.774  29.496  1.00  0.00     0.034 A 
BRANCH  43  57
ATOM     57  C   UNL A   1      46.847  28.086  26.734  1.00  0.00     0.023 A 
ATOM     58  C   UNL A   1      47.132  28.219  25.365  1.00  0.00     0.031 A 
ATOM     59  C   UNL A   1      47.782  27.401  27.531  1.00  0.00     0.131 A 
ATOM     60  C   UNL A   1      48.258  27.588  24.816  1.00  0.00     0.055 A 
ATOM     61  C   UNL A   1      48.956  26.865  26.997  1.00  0.00     0.041 A 
ATOM     62  F   UNL A   1      47.564  27.223  28.845  1.00  0.00    -0.206 F 
ATOM     63  C   UNL A   1      49.189  26.937  25.628  1.00  0.00     0.022 A 
BRANCH  60  64
ATOM     64  S   UNL A   1      48.389  27.479  23.011  1.00  0.00     0.124 S 
ATOM     65  O   UNL A   1      48.343  26.034  22.802  1.00  0.00    -0.237 OA
ATOM     66  O   UNL A   1      47.220  28.227  22.563  1.00  0.00    -0.237 OA
ATOM     67  O   UNL A   1      49.679  28.103  22.723  1.00  0.00    -0.744 OA
ENDBRANCH  60  64
ENDBRANCH  43  57
BRANCH  44  68
ATOM     68  C   UNL A   1      38.246  31.035  30.976  1.00  0.00     0.023 A 
ATOM     69  C   UNL A   1      37.220  31.681  30.266  1.00  0.00     0.031 A 
ATOM     70  C   UNL A   1      38.075  30.863  32.362  1.00  0.00     0.131 A 
ATOM     71  C   UNL A   1      36.097  32.178  30.949  1.00  0.00     0.055 A 
ATOM     72  C   UNL A   1      36.930  31.306  33.026  1.00  0.00     0.041 A 
ATOM     73  F   UNL A   1      39.022  30.253  33.092  1.00  0.00    -0.206 F 
ATOM     74  C   UNL A   1      35.938  31.981  32.322  1.00  0.00     0.022 A 
BRANCH  71  75
ATOM     75  S   UNL A   1      34.891  33.174  30.030  1.00  0.00     0.124 S 
ATOM     76  O   UNL A   1      35.747  34.181  29.414  1.00  0.00    -0.237 OA
ATOM     77  O   UNL A   1      34.309  32.187  29.127  1.00  0.00    -0.237 OA
ATOM     78  O   UNL A   1      33.994  33.669  31.073  1.00  0.00    -0.744 OA
ENDBRANCH  71  75
ENDBRANCH  44  68
BRANCH  56  79
ATOM     79  C   UNL A   1      44.353  34.188  29.702  1.00  0.00     0.023 A 
ATOM     80  C   UNL A   1      44.089  35.213  28.779  1.00  0.00     0.031 A 
ATOM     81  C   UNL A   1      45.056  34.517  30.876  1.00  0.00     0.131 A 
ATOM     82  C   UNL A   1      44.556  36.513  29.029  1.00  0.00     0.055 A 
ATOM     83  C   UNL A   1      45.468  35.822  31.146  1.00  0.00     0.041 A 
ATOM     84  F   UNL A   1      45.335  33.575  31.793  1.00  0.00    -0.206 F 
ATOM     85  C   UNL A   1      45.226  36.827  30.214  1.00  0.00     0.022 A 
BRANCH  82  86
ATOM     86  S   UNL A   1      44.332  37.782  27.753  1.00  0.00     0.124 S 
ATOM     87  O   UNL A   1      43.913  38.936  28.544  1.00  0.00    -0.237 OA
ATOM     88  O   UNL A   1      45.662  37.866  27.158  1.00  0.00    -0.237 OA
ATOM     89  O   UNL A   1      43.300  37.218  26.885  1.00  0.00    -0.744 OA
ENDBRANCH  82  86
ENDBRANCH  56  79
ENDBRANCH  30  31
ENDBRANCH  23  25
ENDBRANCH  22  23
ENDBRANCH  21  22
ENDBRANCH  20  21
ENDBRANCH   1  20
TORSDOF 20
ENDMDL
MODEL 2
REMARK VINA RESULT:      -9.5      2.452      8.281
REMARK SMILES C[N@@H+]1CCC[C@@H](C[NH2+]CC(=O)OCCOCCOC(=O)c2ccc(-c3c4nc(c(-c5cc(S(=O)(=O)[O-])ccc5F)c5ccc([nH]5)c(-c5cc(S(=O)(=O)[O-])ccc5F)c5nc(c(-c6cc(S(=O)(=O)[O-])ccc6F)c6ccc3[nH]6)C=C5)C=C4)cc2)C1
REMARK SMILES IDX 15 1 14 2 13 3 12 4 10 5 11 6 9 7 8 8 7 11 6 12 1 13 2 14
REMARK SMILES IDX 3 15 84 16 4 18 5 19 16 20 17 21 18 22 19 23 20 24 21 25
REMARK SMILES IDX 22 26 83 27 23 28 82 29 24 30 25 31 26 32 76 33 27 34 81 35
REMARK SMILES IDX 75 36 77 37 28 38 80 39 74 40 73 41 29 43 61 44 41 45 60 46
REMARK SMILES IDX 42 47 45 48 59 49 78 50 43 51 44 52 58 54 79 55 46 56 30 57
REMARK SMILES IDX 31 58 39 59 32 60 38 61 40 62 37 63 33 64 34 65 35 66 36 67
REMARK SMILES IDX 62 68 63 69 71 70 64 71 70 72 72 73 69 74 65 75 66 76 67 77
REMARK SMILES IDX 68 78 47 79 48 80 56 81 49 82 55 83 57 84 54 85 50 86 51 87
REMARK SMILES IDX 52 88 53 89
REMARK H PARENT 8 9 8 10 2 17 77 42 45 53
REMARK Flexibility Score: inf
ROOT
ATOM      1  O   UNL A   1      34.862  23.710  24.113  1.00  0.00    -0.374 OA
ENDROOT
BRANCH   1   2
ATOM      2  C   UNL A   1      34.598  24.328  25.368  1.00  0.00     0.202 C 
BRANCH   2   3
ATOM      3  C   UNL A   1      33.963  25.723  25.370  1.00  0.00     0.261 C 
BRANCH   3   4
ATOM      4  O   UNL A   1      33.794  26.300  24.065  1.00  0.00    -0.459 OA
BRANCH   4   5
ATOM      5  C   UNL A   1      33.305  27.569  24.034  1.00  0.00     0.361 C 
ATOM      6  O   UNL A   1      33.548  28.426  24.878  1.00  0.00    -0.245 OA
BRANCH   5   7
ATOM      7  C   UNL A   1      32.359  27.849  22.867  1.00  0.00     0.384 C 
BRANCH   7   8
ATOM      8  N   UNL A   1      30.945  28.150  23.175  1.00  0.00    -0.337 N 
ATOM      9  H   UNL A   1      30.368  27.386  22.822  1.00  0.00     0.346 HD
ATOM     10  H   UNL A   1      30.872  28.252  24.187  1.00  0.00     0.346 HD
BRANCH   8  11
ATOM     11  C   UNL A   1      30.473  29.401  22.579  1.00  0.00     0.270 C 
BRANCH  11  12
ATOM     12  C   UNL A   1      29.103  29.836  23.146  1.00  0.00     0.099 C 
ATOM     13  C   UNL A   1      29.243  33.641  23.247  1.00  0.00     0.332 C 
ATOM     14  N   UNL A   1      29.196  32.293  22.683  1.00  0.00    -0.337 N 
ATOM     15  C   UNL A   1      28.070  32.172  21.746  1.00  0.00     0.262 C 
ATOM     16  C   UNL A   1      29.082  31.267  23.730  1.00  0.00     0.271 C 
ATOM     17  H   UNL A   1      30.073  32.140  22.186  1.00  0.00     0.347 HD
ATOM     18  C   UNL A   1      28.120  30.825  21.030  1.00  0.00     0.062 C 
ATOM     19  C   UNL A   1      28.025  29.698  22.052  1.00  0.00     0.021 C 
ENDBRANCH  11  12
ENDBRANCH   8  11
ENDBRANCH   7   8
ENDBRANCH   5   7
ENDBRANCH   4   5
ENDBRANCH   3   4
ENDBRANCH   2   3
ENDBRANCH   1   2
BRANCH   1  20
ATOM     20  C   UNL A   1      35.088  22.303  24.103  1.00  0.00     0.202 C 
BRANCH  20  21
ATOM     21  C   UNL A   1      36.530  21.792  24.191  1.00  0.00     0.261 C 
BRANCH  21  22
ATOM     22  O   UNL A   1      36.930  21.420  25.516  1.00  0.00    -0.460 OA
BRANCH  22  23
ATOM     23  C   UNL A   1      38.255  21.164  25.674  1.00  0.00     0.338 C 
ATOM     24  O   UNL A   1      38.855  20.142  25.403  1.00  0.00    -0.246 OA
BRANCH  23  25
ATOM     25  C   UNL A   1      38.889  22.357  26.255  1.00  0.00     0.060 A 
ATOM     26  C   UNL A   1      38.334  23.629  26.115  1.00  0.00     0.016 A 
ATOM     27  C   UNL A   1      40.103  22.191  26.906  1.00  0.00     0.016 A 
ATOM     28  C   UNL A   1      39.018  24.743  26.624  1.00  0.00     0.010 A 
ATOM     29  C   UNL A   1      40.723  23.284  27.509  1.00  0.00     0.010 A 
ATOM     30  C   UNL A   1      40.226  24.587  27.324  1.00  0.00    -0.014 A 
BRANCH  30  31
ATOM     31  C   UNL A   1      41.080  25.749  27.728  1.00  0.00     0.031 A 
ATOM     32  C   UNL A   1      40.455  26.850  28.561  1.00  0.00     0.074 A 
ATOM     33  C   UNL A   1      42.367  25.869  27.338  1.00  0.00     0.049 A 
ATOM     34  N   UNL A   1      40.897  28.052  28.832  1.00  0.00    -0.248 NA
ATOM     35  C   UNL A   1      39.114  26.576  29.104  1.00  0.00     0.031 C 
ATOM     36  C   UNL A   1      43.109  24.898  26.536  1.00  0.00     0.029 A 
ATOM     37  N   UNL A   1      43.279  26.875  27.563  1.00  0.00    -0.354 N 
ATOM     38  C   UNL A   1      39.859  28.694  29.504  1.00  0.00     0.074 A 
ATOM     39  C   UNL A   1      38.744  27.774  29.525  1.00  0.00     0.031 C 
ATOM     40  C   UNL A   1      44.367  25.339  26.362  1.00  0.00     0.029 A 
ATOM     41  C   UNL A   1      44.510  26.653  26.984  1.00  0.00     0.049 A 
ATOM     42  H   UNL A   1      43.072  27.680  28.089  1.00  0.00     0.167 HD
ATOM     43  C   UNL A   1      39.842  29.920  30.085  1.00  0.00     0.034 A 
ATOM     44  C   UNL A   1      45.614  27.428  26.940  1.00  0.00     0.034 A 
ATOM     45  C   UNL A   1      40.993  30.784  30.145  1.00  0.00     0.049 A 
ATOM     46  C   UNL A   1      45.589  28.783  27.612  1.00  0.00     0.074 A 
ATOM     47  C   UNL A   1      41.117  32.012  30.770  1.00  0.00     0.029 A 
ATOM     48  N   UNL A   1      42.228  30.499  29.576  1.00  0.00    -0.354 N 
ATOM     49  N   UNL A   1      44.598  29.377  28.237  1.00  0.00    -0.248 NA
ATOM     50  C   UNL A   1      46.831  29.568  27.580  1.00  0.00     0.031 C 
ATOM     51  C   UNL A   1      42.407  32.496  30.531  1.00  0.00     0.029 A 
ATOM     52  C   UNL A   1      43.114  31.533  29.830  1.00  0.00     0.049 A 
ATOM     53  H   UNL A   1      42.442  29.683  29.070  1.00  0.00     0.167 HD
ATOM     54  C   UNL A   1      45.116  30.581  28.713  1.00  0.00     0.074 A 
ATOM     55  C   UNL A   1      46.502  30.630  28.301  1.00  0.00     0.031 C 
ATOM     56  C   UNL A   1      44.502  31.554  29.433  1.00  0.00     0.034 A 
BRANCH  43  57
ATOM     57  C   UNL A   1      38.540  30.395  30.692  1.00  0.00     0.023 A 
ATOM     58  C   UNL A   1      37.595  31.126  29.952  1.00  0.00     0.031 A 
ATOM     59  C   UNL A   1      38.254  30.145  32.047  1.00  0.00     0.131 A 
ATOM     60  C   UNL A   1      36.471  31.670  30.590  1.00  0.00     0.055 A 
ATOM     61  C   UNL A   1      37.080  30.600  32.651  1.00  0.00     0.041 A 
ATOM     62  F   UNL A   1      39.122  29.466  32.816  1.00  0.00    -0.206 F 
ATOM     63  C   UNL A   1      36.190  31.386  31.928  1.00  0.00     0.022 A 
BRANCH  60  64
ATOM     64  S   UNL A   1      35.482  32.896  29.692  1.00  0.00     0.124 S 
ATOM     65  O   UNL A   1      35.787  32.557  28.304  1.00  0.00    -0.237 OA
ATOM     66  O   UNL A   1      34.126  32.599  30.139  1.00  0.00    -0.237 OA
ATOM     67  O   UNL A   1      36.024  34.175  30.147  1.00  0.00    -0.744 OA
ENDBRANCH  60  64
ENDBRANCH  43  57
BRANCH  44  68
ATOM     68  C   UNL A   1      46.845  26.961  26.232  1.00  0.00     0.023 A 
ATOM     69  C   UNL A   1      47.910  26.378  26.940  1.00  0.00     0.031 A 
ATOM     70  C   UNL A   1      46.999  27.135  24.845  1.00  0.00     0.131 A 
ATOM     71  C   UNL A   1      49.098  26.041  26.272  1.00  0.00     0.055 A 
ATOM     72  C   UNL A   1      48.160  26.743  24.175  1.00  0.00     0.041 A 
ATOM     73  F   UNL A   1      46.016  27.687  24.116  1.00  0.00    -0.206 F 
ATOM     74  C   UNL A   1      49.225  26.205  24.890  1.00  0.00     0.022 A 
BRANCH  71  75
ATOM     75  S   UNL A   1      50.516  25.474  27.251  1.00  0.00     0.124 S 
ATOM     76  O   UNL A   1      50.063  24.161  27.694  1.00  0.00    -0.237 OA
ATOM     77  O   UNL A   1      51.590  25.485  26.263  1.00  0.00    -0.237 OA
ATOM     78  O   UNL A   1      50.629  26.484  28.303  1.00  0.00    -0.744 OA
ENDBRANCH  71  75
ENDBRANCH  44  68
BRANCH  56  79
ATOM     79  C   UNL A   1      45.342  32.713  29.908  1.00  0.00     0.023 A 
ATOM     80  C   UNL A   1      45.507  33.881  29.147  1.00  0.00     0.031 A 
ATOM     81  C   UNL A   1      45.953  32.654  31.175  1.00  0.00     0.131 A 
ATOM     82  C   UNL A   1      46.294  34.932  29.646  1.00  0.00     0.055 A 
ATOM     83  C   UNL A   1      46.686  33.723  31.689  1.00  0.00     0.041 A 
ATOM     84  F   UNL A   1      45.827  31.560  31.944  1.00  0.00    -0.206 F 
ATOM     85  C   UNL A   1      46.867  34.868  30.919  1.00  0.00     0.022 A 
BRANCH  82  86
ATOM     86  S   UNL A   1      46.612  36.366  28.582  1.00  0.00     0.124 S 
ATOM     87  O   UNL A   1      46.851  35.736  27.287  1.00  0.00    -0.237 OA
ATOM     88  O   UNL A   1      45.373  37.126  28.702  1.00  0.00    -0.237 OA
ATOM     89  O   UNL A   1      47.784  36.993  29.192  1.00  0.00    -0.744 OA
ENDBRANCH  82  86
ENDBRANCH  56  79
ENDBRANCH  30  31
ENDBRANCH  23  25
ENDBRANCH  22  23
ENDBRANCH  21  22
ENDBRANCH  20  21
ENDBRANCH   1  20
TORSDOF 20
ENDMDL
MODEL 3
REMARK VINA RESULT:      -9.5      1.949      8.013
REMARK SMILES C[N@@H+]1CCC[C@@H](C[NH2+]CC(=O)OCCOCCOC(=O)c2ccc(-c3c4nc(c(-c5cc(S(=O)(=O)[O-])ccc5F)c5ccc([nH]5)c(-c5cc(S(=O)(=O)[O-])ccc5F)c5nc(c(-c6cc(S(=O)(=O)[O-])ccc6F)c6ccc3[nH]6)C=C5)C=C4)cc2)C1
REMARK SMILES IDX 15 1 14 2 13 3 12 4 10 5 11 6 9 7 8 8 7 11 6 12 1 13 2 14
REMARK SMILES IDX 3 15 84 16 4 18 5 19 16 20 17 21 18 22 19 23 20 24 21 25
REMARK SMILES IDX 22 26 83 27 23 28 82 29 24 30 25 31 26 32 76 33 27 34 81 35
REMARK SMILES IDX 75 36 77 37 28 38 80 39 74 40 73 41 29 43 61 44 41 45 60 46
REMARK SMILES IDX 42 47 45 48 59 49 78 50 43 51 44 52 58 54 79 55 46 56 30 57
REMARK SMILES IDX 31 58 39 59 32 60 38 61 40 62 37 63 33 64 34 65 35 66 36 67
REMARK SMILES IDX 62 68 63 69 71 70 64 71 70 72 72 73 69 74 65 75 66 76 67 77
REMARK SMILES IDX 68 78 47 79 48 80 56 81 49 82 55 83 57 84 54 85 50 86 51 87
REMARK SMILES IDX 52 88 53 89
REMARK H PARENT 8 9 8 10 2 17 77 42 45 53
REMARK Flexibility Score: inf
ROOT
ATOM      1  O   UNL A   1      36.293  23.526  24.378  1.00  0.00    -0.374 OA
ENDROOT
BRANCH   1   2
ATOM      2  C   UNL A   1      34.958  23.884  24.722  1.00  0.00     0.202 C 
BRANCH   2   3
ATOM      3  C   UNL A   1      34.369  23.323  26.022  1.00  0.00     0.261 C 
BRANCH   3   4
ATOM      4  O   UNL A   1      33.468  22.219  25.838  1.00  0.00    -0.459 OA
BRANCH   4   5
ATOM      5  C   UNL A   1      32.153  22.479  26.067  1.00  0.00     0.361 C 
ATOM      6  O   UNL A   1      31.227  21.792  25.645  1.00  0.00    -0.245 OA
BRANCH   5   7
ATOM      7  C   UNL A   1      31.896  23.754  26.868  1.00  0.00     0.384 C 
BRANCH   7   8
ATOM      8  N   UNL A   1      30.650  24.504  26.601  1.00  0.00    -0.337 N 
ATOM      9  H   UNL A   1      29.990  23.878  26.139  1.00  0.00     0.346 HD
ATOM     10  H   UNL A   1      30.301  24.838  27.499  1.00  0.00     0.346 HD
BRANCH   8  11
ATOM     11  C   UNL A   1      30.849  25.679  25.750  1.00  0.00     0.270 C 
BRANCH  11  12
ATOM     12  C   UNL A   1      29.986  25.623  24.469  1.00  0.00     0.099 C 
ATOM     13  C   UNL A   1      30.683  28.907  22.671  1.00  0.00     0.332 C 
ATOM     14  N   UNL A   1      30.929  27.575  23.220  1.00  0.00    -0.337 N 
ATOM     15  C   UNL A   1      31.432  26.677  22.171  1.00  0.00     0.262 C 
ATOM     16  C   UNL A   1      29.717  27.002  23.824  1.00  0.00     0.271 C 
ATOM     17  H   UNL A   1      31.631  27.673  23.954  1.00  0.00     0.347 HD
ATOM     18  C   UNL A   1      31.850  25.339  22.776  1.00  0.00     0.062 C 
ATOM     19  C   UNL A   1      30.647  24.681  23.443  1.00  0.00     0.021 C 
ENDBRANCH  11  12
ENDBRANCH   8  11
ENDBRANCH   7   8
ENDBRANCH   5   7
ENDBRANCH   4   5
ENDBRANCH   3   4
ENDBRANCH   2   3
ENDBRANCH   1   2
BRANCH   1  20
ATOM     20  C   UNL A   1      36.505  22.240  23.803  1.00  0.00     0.202 C 
BRANCH  20  21
ATOM     21  C   UNL A   1      37.090  21.132  24.685  1.00  0.00     0.261 C 
BRANCH  21  22
ATOM     22  O   UNL A   1      37.591  21.600  25.944  1.00  0.00    -0.460 OA
BRANCH  22  23
ATOM     23  C   UNL A   1      38.930  21.467  26.124  1.00  0.00     0.338 C 
ATOM     24  O   UNL A   1      39.620  20.490  25.902  1.00  0.00    -0.246 OA
BRANCH  23  25
ATOM     25  C   UNL A   1      39.452  22.734  26.659  1.00  0.00     0.060 A 
ATOM     26  C   UNL A   1      38.845  23.958  26.377  1.00  0.00     0.016 A 
ATOM     27  C   UNL A   1      40.616  22.686  27.413  1.00  0.00     0.016 A 
ATOM     28  C   UNL A   1      39.427  25.144  26.851  1.00  0.00     0.010 A 
ATOM     29  C   UNL A   1      41.127  23.854  27.976  1.00  0.00     0.010 A 
ATOM     30  C   UNL A   1      40.580  25.109  27.653  1.00  0.00    -0.014 A 
BRANCH  30  31
ATOM     31  C   UNL A   1      41.337  26.345  28.031  1.00  0.00     0.031 A 
ATOM     32  C   UNL A   1      40.609  27.431  28.799  1.00  0.00     0.074 A 
ATOM     33  C   UNL A   1      42.623  26.541  27.673  1.00  0.00     0.049 A 
ATOM     34  N   UNL A   1      40.957  28.671  29.030  1.00  0.00    -0.248 NA
ATOM     35  C   UNL A   1      39.276  27.083  29.315  1.00  0.00     0.031 C 
ATOM     36  C   UNL A   1      43.457  25.594  26.934  1.00  0.00     0.029 A 
ATOM     37  N   UNL A   1      43.455  27.619  27.880  1.00  0.00    -0.354 N 
ATOM     38  C   UNL A   1      39.855  29.264  29.645  1.00  0.00     0.074 A 
ATOM     39  C   UNL A   1      38.809  28.267  29.674  1.00  0.00     0.031 C 
ATOM     40  C   UNL A   1      44.685  26.117  26.777  1.00  0.00     0.029 A 
ATOM     41  C   UNL A   1      44.715  27.463  27.346  1.00  0.00     0.049 A 
ATOM     42  H   UNL A   1      43.174  28.427  28.366  1.00  0.00     0.167 HD
ATOM     43  C   UNL A   1      39.735  30.508  30.173  1.00  0.00     0.034 A 
ATOM     44  C   UNL A   1      45.763  28.313  27.301  1.00  0.00     0.034 A 
ATOM     45  C   UNL A   1      40.819  31.454  30.228  1.00  0.00     0.049 A 
ATOM     46  C   UNL A   1      45.621  29.688  27.914  1.00  0.00     0.074 A 
ATOM     47  C   UNL A   1      40.837  32.712  30.804  1.00  0.00     0.029 A 
ATOM     48  N   UNL A   1      42.088  31.236  29.708  1.00  0.00    -0.354 N 
ATOM     49  N   UNL A   1      44.572  30.234  28.485  1.00  0.00    -0.248 NA
ATOM     50  C   UNL A   1      46.805  30.559  27.883  1.00  0.00     0.031 C 
ATOM     51  C   UNL A   1      42.095  33.277  30.582  1.00  0.00     0.029 A 
ATOM     52  C   UNL A   1      42.890  32.340  29.942  1.00  0.00     0.049 A 
ATOM     53  H   UNL A   1      42.375  30.418  29.243  1.00  0.00     0.167 HD
ATOM     54  C   UNL A   1      44.988  31.491  28.924  1.00  0.00     0.074 A 
ATOM     55  C   UNL A   1      46.379  31.622  28.549  1.00  0.00     0.031 C 
ATOM     56  C   UNL A   1      44.285  32.445  29.584  1.00  0.00     0.034 A 
BRANCH  43  57
ATOM     57  C   UNL A   1      38.383  30.912  30.723  1.00  0.00     0.023 A 
ATOM     58  C   UNL A   1      37.393  31.493  29.913  1.00  0.00     0.031 A 
ATOM     59  C   UNL A   1      38.094  30.748  32.090  1.00  0.00     0.131 A 
ATOM     60  C   UNL A   1      36.212  31.984  30.490  1.00  0.00     0.055 A 
ATOM     61  C   UNL A   1      36.873  31.143  32.640  1.00  0.00     0.041 A 
ATOM     62  F   UNL A   1      39.003  30.215  32.923  1.00  0.00    -0.206 F 
ATOM     63  C   UNL A   1      35.931  31.786  31.843  1.00  0.00     0.022 A 
BRANCH  60  64
ATOM     64  S   UNL A   1      35.137  33.040  29.481  1.00  0.00     0.124 S 
ATOM     65  O   UNL A   1      36.009  34.184  29.224  1.00  0.00    -0.237 OA
ATOM     66  O   UNL A   1      34.844  32.189  28.334  1.00  0.00    -0.237 OA
ATOM     67  O   UNL A   1      34.002  33.315  30.361  1.00  0.00    -0.744 OA
ENDBRANCH  60  64
ENDBRANCH  43  57
BRANCH  44  68
ATOM     68  C   UNL A   1      47.045  27.907  26.648  1.00  0.00     0.023 A 
ATOM     69  C   UNL A   1      47.206  27.994  25.255  1.00  0.00     0.031 A 
ATOM     70  C   UNL A   1      48.110  27.376  27.398  1.00  0.00     0.131 A 
ATOM     71  C   UNL A   1      48.378  27.511  24.650  1.00  0.00     0.055 A 
ATOM     72  C   UNL A   1      49.298  26.953  26.797  1.00  0.00     0.041 A 
ATOM     73  F   UNL A   1      48.013  27.268  28.732  1.00  0.00    -0.206 F 
ATOM     74  C   UNL A   1      49.433  27.005  25.414  1.00  0.00     0.022 A 
BRANCH  71  75
ATOM     75  S   UNL A   1      48.467  27.463  22.839  1.00  0.00     0.124 S 
ATOM     76  O   UNL A   1      49.773  28.061  22.591  1.00  0.00    -0.237 OA
ATOM     77  O   UNL A   1      48.353  26.033  22.568  1.00  0.00    -0.237 OA
ATOM     78  O   UNL A   1      47.320  28.268  22.421  1.00  0.00    -0.744 OA
ENDBRANCH  71  75
ENDBRANCH  44  68
BRANCH  56  79
ATOM     79  C   UNL A   1      45.026  33.679  30.033  1.00  0.00     0.023 A 
ATOM     80  C   UNL A   1      45.672  33.756  31.277  1.00  0.00     0.031 A 
ATOM     81  C   UNL A   1      45.119  34.786  29.167  1.00  0.00     0.131 A 
ATOM     82  C   UNL A   1      46.355  34.929  31.636  1.00  0.00     0.055 A 
ATOM     83  C   UNL A   1      45.847  35.926  29.506  1.00  0.00     0.041 A 
ATOM     84  F   UNL A   1      44.520  34.766  27.965  1.00  0.00    -0.206 F 
ATOM     85  C   UNL A   1      46.463  36.005  30.752  1.00  0.00     0.022 A 
BRANCH  82  86
ATOM     86  S   UNL A   1      47.054  35.057  33.305  1.00  0.00     0.124 S 
ATOM     87  O   UNL A   1      48.458  34.734  33.072  1.00  0.00    -0.237 OA
ATOM     88  O   UNL A   1      46.768  36.443  33.658  1.00  0.00    -0.237 OA
ATOM     89  O   UNL A   1      46.306  34.057  34.068  1.00  0.00    -0.744 OA
ENDBRANCH  82  86
ENDBRANCH  56  79
ENDBRANCH  30  31
ENDBRANCH  23  25
ENDBRANCH  22  23
ENDBRANCH  21  22
ENDBRANCH  20  21
ENDBRANCH   1  20
TORSDOF 20
ENDMDL
