MODEL 1
REMARK VINA RESULT:     -11.2      0.000      0.000
REMARK SMILES CC1=Nn2c(nnc(CCC(=O)OCCOCCOC(=O)c3ccc(-c4c5nc(c(-c6cc(S(=O)(=O)[O-])ccc6F)c6ccc([nH]6)c(-c6cc(S(=O)(=O)[O-])ccc6F)c6nc(c(-c7cc(S(=O)(=O)[O-])ccc7F)c7ccc4[nH]7)C=C6)C=C5)cc3)c2=O)SC1
REMARK SMILES IDX 17 1 16 2 15 3 14 4 13 5 11 6 12 7 10 8 9 9 8 10 1 11 2 12
REMARK SMILES IDX 3 13 88 14 4 15 87 16 5 17 85 18 6 19 86 20 7 21 18 22 19 23
REMARK SMILES IDX 20 24 21 25 22 26 23 27 84 28 24 29 83 30 25 31 26 32 27 33
REMARK SMILES IDX 77 34 28 35 82 36 76 37 78 38 29 39 81 40 75 41 74 42 30 44
REMARK SMILES IDX 62 45 42 46 61 47 43 48 46 49 60 50 79 51 44 52 45 53 59 55
REMARK SMILES IDX 80 56 47 57 31 58 32 59 40 60 33 61 39 62 41 63 38 64 34 65
REMARK SMILES IDX 35 66 36 67 37 68 63 69 64 70 72 71 65 72 71 73 73 74 70 75
REMARK SMILES IDX 66 76 67 77 68 78 69 79 48 80 49 81 57 82 50 83 56 84 58 85
REMARK SMILES IDX 55 86 51 87 52 88 53 89 54 90
REMARK H PARENT 78 43 46 54
REMARK Flexibility Score: inf
ROOT
ATOM      1  C   UNL A   1      35.871  19.727  24.823  1.00  0.00     0.202 C 
ENDROOT
BRANCH   1   2
ATOM      2  O   UNL A   1      35.300  18.436  24.620  1.00  0.00    -0.374 OA
BRANCH   2   3
ATOM      3  C   UNL A   1      33.958  18.433  24.127  1.00  0.00     0.202 C 
BRANCH   3   4
ATOM      4  C   UNL A   1      32.883  18.588  25.209  1.00  0.00     0.261 C 
BRANCH   4   5
ATOM      5  O   UNL A   1      31.978  19.682  24.935  1.00  0.00    -0.463 OA
BRANCH   5   6
ATOM      6  C   UNL A   1      32.415  20.939  25.195  1.00  0.00     0.306 C 
ATOM      7  O   UNL A   1      32.772  21.358  26.287  1.00  0.00    -0.252 OA
BRANCH   6   8
ATOM      8  C   UNL A   1      32.365  21.799  23.947  1.00  0.00     0.129 C 
BRANCH   8   9
ATOM      9  C   UNL A   1      33.670  22.515  23.596  1.00  0.00     0.076 C 
BRANCH   9  10
ATOM     10  C   UNL A   1      33.432  23.944  23.158  1.00  0.00     0.131 A 
ATOM     11  C   UNL A   1      34.182  28.639  26.492  1.00  0.00     0.064 C 
ATOM     12  C   UNL A   1      33.668  28.071  25.210  1.00  0.00     0.046 C 
ATOM     13  N   UNL A   1      33.520  26.789  25.207  1.00  0.00    -0.172 NA
ATOM     14  C   UNL A   1      33.247  28.984  24.101  1.00  0.00     0.131 C 
ATOM     15  N   UNL A   1      33.266  26.141  24.043  1.00  0.00    -0.169 N 
ATOM     16  S   UNL A   1      33.674  28.302  22.496  1.00  0.00    -0.078 SA
ATOM     17  C   UNL A   1      33.519  26.588  22.775  1.00  0.00     0.214 A 
ATOM     18  C   UNL A   1      32.831  24.856  24.167  1.00  0.00     0.296 A 
ATOM     19  N   UNL A   1      33.664  25.785  21.761  1.00  0.00    -0.123 NA
ATOM     20  O   UNL A   1      32.031  24.400  24.959  1.00  0.00    -0.265 OA
ATOM     21  N   UNL A   1      33.798  24.391  21.998  1.00  0.00    -0.147 NA
ENDBRANCH   9  10
ENDBRANCH   8   9
ENDBRANCH   6   8
ENDBRANCH   5   6
ENDBRANCH   4   5
ENDBRANCH   3   4
ENDBRANCH   2   3
ENDBRANCH   1   2
BRANCH   1  22
ATOM     22  C   UNL A   1      37.406  19.801  24.726  1.00  0.00     0.261 C 
BRANCH  22  23
ATOM     23  O   UNL A   1      37.972  20.922  25.428  1.00  0.00    -0.460 OA
BRANCH  23  24
ATOM     24  C   UNL A   1      39.168  20.701  26.020  1.00  0.00     0.338 C 
ATOM     25  O   UNL A   1      39.824  19.674  25.951  1.00  0.00    -0.246 OA
BRANCH  24  26
ATOM     26  C   UNL A   1      39.682  21.943  26.664  1.00  0.00     0.060 A 
ATOM     27  C   UNL A   1      39.132  23.160  26.237  1.00  0.00     0.016 A 
ATOM     28  C   UNL A   1      40.697  21.950  27.625  1.00  0.00     0.016 A 
ATOM     29  C   UNL A   1      39.632  24.382  26.705  1.00  0.00     0.010 A 
ATOM     30  C   UNL A   1      41.197  23.178  28.094  1.00  0.00     0.010 A 
ATOM     31  C   UNL A   1      40.696  24.407  27.609  1.00  0.00    -0.014 A 
BRANCH  31  32
ATOM     32  C   UNL A   1      41.439  25.672  27.894  1.00  0.00     0.031 A 
ATOM     33  C   UNL A   1      40.672  26.827  28.477  1.00  0.00     0.074 A 
ATOM     34  C   UNL A   1      42.763  25.829  27.686  1.00  0.00     0.049 A 
ATOM     35  N   UNL A   1      41.075  28.045  28.726  1.00  0.00    -0.248 NA
ATOM     36  C   UNL A   1      39.282  26.555  28.876  1.00  0.00     0.031 C 
ATOM     37  C   UNL A   1      43.710  24.775  27.356  1.00  0.00     0.029 A 
ATOM     38  N   UNL A   1      43.541  26.964  27.683  1.00  0.00    -0.354 N 
ATOM     39  C   UNL A   1      40.017  28.661  29.380  1.00  0.00     0.074 A 
ATOM     40  C   UNL A   1      38.916  27.721  29.384  1.00  0.00     0.031 C 
ATOM     41  C   UNL A   1      44.886  25.318  27.000  1.00  0.00     0.029 A 
ATOM     42  C   UNL A   1      44.801  26.763  27.164  1.00  0.00     0.049 A 
ATOM     43  H   UNL A   1      43.227  27.835  28.017  1.00  0.00     0.167 HD
ATOM     44  C   UNL A   1      39.985  29.870  29.987  1.00  0.00     0.034 A 
ATOM     45  C   UNL A   1      45.787  27.632  26.866  1.00  0.00     0.034 A 
ATOM     46  C   UNL A   1      41.072  30.813  29.975  1.00  0.00     0.049 A 
ATOM     47  C   UNL A   1      45.647  29.060  27.309  1.00  0.00     0.074 A 
ATOM     48  C   UNL A   1      41.130  32.066  30.558  1.00  0.00     0.029 A 
ATOM     49  N   UNL A   1      42.289  30.615  29.339  1.00  0.00    -0.354 N 
ATOM     50  N   UNL A   1      44.643  29.627  27.934  1.00  0.00    -0.248 NA
ATOM     51  C   UNL A   1      46.799  29.942  27.083  1.00  0.00     0.031 C 
ATOM     52  C   UNL A   1      42.352  32.653  30.215  1.00  0.00     0.029 A 
ATOM     53  C   UNL A   1      43.085  31.742  29.473  1.00  0.00     0.049 A 
ATOM     54  H   UNL A   1      42.549  29.794  28.861  1.00  0.00     0.167 HD
ATOM     55  C   UNL A   1      45.069  30.914  28.239  1.00  0.00     0.074 A 
ATOM     56  C   UNL A   1      46.412  31.044  27.711  1.00  0.00     0.031 C 
ATOM     57  C   UNL A   1      44.413  31.884  28.924  1.00  0.00     0.034 A 
BRANCH  44  58
ATOM     58  C   UNL A   1      38.718  30.228  30.715  1.00  0.00     0.023 A 
ATOM     59  C   UNL A   1      37.687  30.932  30.068  1.00  0.00     0.031 A 
ATOM     60  C   UNL A   1      38.549  29.889  32.066  1.00  0.00     0.131 A 
ATOM     61  C   UNL A   1      36.553  31.325  30.791  1.00  0.00     0.055 A 
ATOM     62  C   UNL A   1      37.387  30.226  32.763  1.00  0.00     0.041 A 
ATOM     63  F   UNL A   1      39.515  29.237  32.732  1.00  0.00    -0.206 F 
ATOM     64  C   UNL A   1      36.386  30.957  32.128  1.00  0.00     0.022 A 
BRANCH  61  65
ATOM     65  S   UNL A   1      35.343  32.410  29.987  1.00  0.00     0.124 S 
ATOM     66  O   UNL A   1      34.427  32.693  31.090  1.00  0.00    -0.237 OA
ATOM     67  O   UNL A   1      36.166  33.526  29.537  1.00  0.00    -0.237 OA
ATOM     68  O   UNL A   1      34.789  31.575  28.923  1.00  0.00    -0.744 OA
ENDBRANCH  61  65
ENDBRANCH  44  58
BRANCH  45  69
ATOM     69  C   UNL A   1      47.007  27.176  26.146  1.00  0.00     0.023 A 
ATOM     70  C   UNL A   1      48.075  26.579  26.828  1.00  0.00     0.031 A 
ATOM     71  C   UNL A   1      47.129  27.369  24.758  1.00  0.00     0.131 A 
ATOM     72  C   UNL A   1      49.238  26.221  26.127  1.00  0.00     0.055 A 
ATOM     73  C   UNL A   1      48.281  26.995  24.061  1.00  0.00     0.041 A 
ATOM     74  F   UNL A   1      46.124  27.922  24.059  1.00  0.00    -0.206 F 
ATOM     75  C   UNL A   1      49.347  26.424  24.749  1.00  0.00     0.022 A 
BRANCH  72  76
ATOM     76  S   UNL A   1      50.620  25.498  27.052  1.00  0.00     0.124 S 
ATOM     77  O   UNL A   1      50.954  26.574  27.977  1.00  0.00    -0.237 OA
ATOM     78  O   UNL A   1      49.998  24.314  27.638  1.00  0.00    -0.237 OA
ATOM     79  O   UNL A   1      51.616  25.227  26.018  1.00  0.00    -0.744 OA
ENDBRANCH  72  76
ENDBRANCH  45  69
BRANCH  57  80
ATOM     80  C   UNL A   1      45.150  33.175  29.157  1.00  0.00     0.023 A 
ATOM     81  C   UNL A   1      45.028  34.255  28.267  1.00  0.00     0.031 A 
ATOM     82  C   UNL A   1      45.990  33.330  30.275  1.00  0.00     0.131 A 
ATOM     83  C   UNL A   1      45.777  35.421  28.476  1.00  0.00     0.055 A 
ATOM     84  C   UNL A   1      46.683  34.518  30.514  1.00  0.00     0.041 A 
ATOM     85  F   UNL A   1      46.146  32.329  31.156  1.00  0.00    -0.206 F 
ATOM     86  C   UNL A   1      46.588  35.567  29.604  1.00  0.00     0.022 A 
BRANCH  83  87
ATOM     87  S   UNL A   1      45.737  36.710  27.203  1.00  0.00     0.124 S 
ATOM     88  O   UNL A   1      44.309  36.798  26.912  1.00  0.00    -0.237 OA
ATOM     89  O   UNL A   1      46.317  37.855  27.898  1.00  0.00    -0.237 OA
ATOM     90  O   UNL A   1      46.558  36.156  26.128  1.00  0.00    -0.744 OA
ENDBRANCH  83  87
ENDBRANCH  57  80
ENDBRANCH  31  32
ENDBRANCH  24  26
ENDBRANCH  23  24
ENDBRANCH  22  23
ENDBRANCH   1  22
TORSDOF 19
ENDMDL
MODEL 2
REMARK VINA RESULT:     -11.1      5.025      8.587
REMARK SMILES CC1=Nn2c(nnc(CCC(=O)OCCOCCOC(=O)c3ccc(-c4c5nc(c(-c6cc(S(=O)(=O)[O-])ccc6F)c6ccc([nH]6)c(-c6cc(S(=O)(=O)[O-])ccc6F)c6nc(c(-c7cc(S(=O)(=O)[O-])ccc7F)c7ccc4[nH]7)C=C6)C=C5)cc3)c2=O)SC1
REMARK SMILES IDX 17 1 16 2 15 3 14 4 13 5 11 6 12 7 10 8 9 9 8 10 1 11 2 12
REMARK SMILES IDX 3 13 88 14 4 15 87 16 5 17 85 18 6 19 86 20 7 21 18 22 19 23
REMARK SMILES IDX 20 24 21 25 22 26 23 27 84 28 24 29 83 30 25 31 26 32 27 33
REMARK SMILES IDX 77 34 28 35 82 36 76 37 78 38 29 39 81 40 75 41 74 42 30 44
REMARK SMILES IDX 62 45 42 46 61 47 43 48 46 49 60 50 79 51 44 52 45 53 59 55
REMARK SMILES IDX 80 56 47 57 31 58 32 59 40 60 33 61 39 62 41 63 38 64 34 65
REMARK SMILES IDX 35 66 36 67 37 68 63 69 64 70 72 71 65 72 71 73 73 74 70 75
REMARK SMILES IDX 66 76 67 77 68 78 69 79 48 80 49 81 57 82 50 83 56 84 58 85
REMARK SMILES IDX 55 86 51 87 52 88 53 89 54 90
REMARK H PARENT 78 43 46 54
REMARK Flexibility Score: inf
ROOT
ATOM      1  C   UNL A   1      31.537  31.553  26.760  1.00  0.00     0.202 C 
ENDROOT
BRANCH   1   2
ATOM      2  O   UNL A   1      32.007  30.207  26.720  1.00  0.00    -0.374 OA
BRANCH   2   3
ATOM      3  C   UNL A   1      33.020  29.943  25.746  1.00  0.00     0.202 C 
BRANCH   3   4
ATOM      4  C   UNL A   1      32.726  28.748  24.832  1.00  0.00     0.261 C 
BRANCH   4   5
ATOM      5  O   UNL A   1      31.376  28.769  24.314  1.00  0.00    -0.463 OA
BRANCH   5   6
ATOM      6  C   UNL A   1      30.706  27.592  24.262  1.00  0.00     0.306 C 
ATOM      7  O   UNL A   1      30.090  27.163  23.296  1.00  0.00    -0.252 OA
BRANCH   6   8
ATOM      8  C   UNL A   1      30.775  26.870  25.594  1.00  0.00     0.129 C 
BRANCH   8   9
ATOM      9  C   UNL A   1      29.917  25.608  25.697  1.00  0.00     0.076 C 
BRANCH   9  10
ATOM     10  C   UNL A   1      30.747  24.384  26.020  1.00  0.00     0.131 A 
ATOM     11  C   UNL A   1      35.787  22.994  23.493  1.00  0.00     0.064 C 
ATOM     12  C   UNL A   1      34.672  22.580  24.396  1.00  0.00     0.046 C 
ATOM     13  N   UNL A   1      33.603  23.297  24.300  1.00  0.00    -0.172 NA
ATOM     14  C   UNL A   1      34.799  21.340  25.224  1.00  0.00     0.131 C 
ATOM     15  N   UNL A   1      32.609  23.153  25.211  1.00  0.00    -0.169 N 
ATOM     16  S   UNL A   1      34.029  21.546  26.833  1.00  0.00    -0.078 SA
ATOM     17  C   UNL A   1      32.710  22.627  26.470  1.00  0.00     0.214 A 
ATOM     18  C   UNL A   1      31.414  23.714  24.872  1.00  0.00     0.296 A 
ATOM     19  N   UNL A   1      31.868  22.909  27.420  1.00  0.00    -0.123 NA
ATOM     20  O   UNL A   1      30.854  23.710  23.795  1.00  0.00    -0.265 OA
ATOM     21  N   UNL A   1      30.944  23.972  27.232  1.00  0.00    -0.147 NA
ENDBRANCH   9  10
ENDBRANCH   8   9
ENDBRANCH   6   8
ENDBRANCH   5   6
ENDBRANCH   4   5
ENDBRANCH   3   4
ENDBRANCH   2   3
ENDBRANCH   1   2
BRANCH   1  22
ATOM     22  C   UNL A   1      32.627  32.639  26.831  1.00  0.00     0.261 C 
BRANCH  22  23
ATOM     23  O   UNL A   1      32.268  33.758  27.661  1.00  0.00    -0.460 OA
BRANCH  23  24
ATOM     24  C   UNL A   1      33.302  34.442  28.202  1.00  0.00     0.338 C 
ATOM     25  O   UNL A   1      33.294  35.620  28.523  1.00  0.00    -0.246 OA
BRANCH  24  26
ATOM     26  C   UNL A   1      34.442  33.531  28.509  1.00  0.00     0.060 A 
ATOM     27  C   UNL A   1      34.153  32.367  29.236  1.00  0.00     0.016 A 
ATOM     28  C   UNL A   1      35.764  33.802  28.148  1.00  0.00     0.016 A 
ATOM     29  C   UNL A   1      35.175  31.512  29.666  1.00  0.00     0.010 A 
ATOM     30  C   UNL A   1      36.789  32.941  28.579  1.00  0.00     0.010 A 
ATOM     31  C   UNL A   1      36.509  31.809  29.377  1.00  0.00    -0.014 A 
BRANCH  31  32
ATOM     32  C   UNL A   1      37.627  31.093  30.063  1.00  0.00     0.031 A 
ATOM     33  C   UNL A   1      38.060  31.590  31.415  1.00  0.00     0.074 A 
ATOM     34  C   UNL A   1      38.250  30.010  29.554  1.00  0.00     0.049 A 
ATOM     35  N   UNL A   1      39.056  31.191  32.161  1.00  0.00    -0.248 NA
ATOM     36  C   UNL A   1      37.229  32.640  32.024  1.00  0.00     0.031 C 
ATOM     37  C   UNL A   1      37.829  29.247  28.389  1.00  0.00     0.029 A 
ATOM     38  N   UNL A   1      39.413  29.383  29.938  1.00  0.00    -0.354 N 
ATOM     39  C   UNL A   1      38.926  31.884  33.357  1.00  0.00     0.074 A 
ATOM     40  C   UNL A   1      37.827  32.811  33.192  1.00  0.00     0.031 C 
ATOM     41  C   UNL A   1      38.798  28.385  28.038  1.00  0.00     0.029 A 
ATOM     42  C   UNL A   1      39.877  28.473  29.013  1.00  0.00     0.049 A 
ATOM     43  H   UNL A   1      39.870  29.567  30.791  1.00  0.00     0.167 HD
ATOM     44  C   UNL A   1      39.611  31.715  34.512  1.00  0.00     0.034 A 
ATOM     45  C   UNL A   1      41.028  27.775  28.955  1.00  0.00     0.034 A 
ATOM     46  C   UNL A   1      40.712  30.804  34.678  1.00  0.00     0.049 A 
ATOM     47  C   UNL A   1      41.940  27.789  30.149  1.00  0.00     0.074 A 
ATOM     48  C   UNL A   1      41.471  30.568  35.810  1.00  0.00     0.029 A 
ATOM     49  N   UNL A   1      41.223  29.986  33.680  1.00  0.00    -0.354 N 
ATOM     50  N   UNL A   1      41.800  28.444  31.276  1.00  0.00    -0.248 NA
ATOM     51  C   UNL A   1      43.115  26.911  30.096  1.00  0.00     0.031 C 
ATOM     52  C   UNL A   1      42.483  29.661  35.478  1.00  0.00     0.029 A 
ATOM     53  C   UNL A   1      42.318  29.281  34.157  1.00  0.00     0.049 A 
ATOM     54  H   UNL A   1      40.861  29.916  32.767  1.00  0.00     0.167 HD
ATOM     55  C   UNL A   1      42.832  28.004  32.096  1.00  0.00     0.074 A 
ATOM     56  C   UNL A   1      43.596  27.044  31.324  1.00  0.00     0.031 C 
ATOM     57  C   UNL A   1      43.097  28.345  33.382  1.00  0.00     0.034 A 
BRANCH  44  58
ATOM     58  C   UNL A   1      39.171  32.547  35.686  1.00  0.00     0.023 A 
ATOM     59  C   UNL A   1      39.629  33.867  35.848  1.00  0.00     0.031 A 
ATOM     60  C   UNL A   1      38.314  32.014  36.660  1.00  0.00     0.131 A 
ATOM     61  C   UNL A   1      39.271  34.591  36.993  1.00  0.00     0.055 A 
ATOM     62  C   UNL A   1      37.908  32.765  37.765  1.00  0.00     0.041 A 
ATOM     63  F   UNL A   1      37.869  30.751  36.560  1.00  0.00    -0.206 F 
ATOM     64  C   UNL A   1      38.395  34.057  37.940  1.00  0.00     0.022 A 
BRANCH  61  65
ATOM     65  S   UNL A   1      40.044  36.207  37.275  1.00  0.00     0.124 S 
ATOM     66  O   UNL A   1      41.378  35.817  37.726  1.00  0.00    -0.237 OA
ATOM     67  O   UNL A   1      39.972  36.829  35.959  1.00  0.00    -0.237 OA
ATOM     68  O   UNL A   1      39.199  36.815  38.300  1.00  0.00    -0.744 OA
ENDBRANCH  61  65
ENDBRANCH  44  58
BRANCH  45  69
ATOM     69  C   UNL A   1      41.369  26.975  27.747  1.00  0.00     0.023 A 
ATOM     70  C   UNL A   1      41.213  25.584  27.727  1.00  0.00     0.031 A 
ATOM     71  C   UNL A   1      41.894  27.603  26.602  1.00  0.00     0.131 A 
ATOM     72  C   UNL A   1      41.607  24.855  26.593  1.00  0.00     0.055 A 
ATOM     73  C   UNL A   1      42.269  26.875  25.470  1.00  0.00     0.041 A 
ATOM     74  F   UNL A   1      42.047  28.937  26.570  1.00  0.00    -0.206 F 
ATOM     75  C   UNL A   1      42.131  25.491  25.465  1.00  0.00     0.022 A 
BRANCH  72  76
ATOM     76  S   UNL A   1      41.437  23.050  26.622  1.00  0.00     0.124 S 
ATOM     77  O   UNL A   1      42.200  22.660  25.443  1.00  0.00    -0.237 OA
ATOM     78  O   UNL A   1      42.031  22.715  27.913  1.00  0.00    -0.237 OA
ATOM     79  O   UNL A   1      39.993  22.843  26.533  1.00  0.00    -0.744 OA
ENDBRANCH  72  76
ENDBRANCH  45  69
BRANCH  57  80
ATOM     80  C   UNL A   1      44.261  27.658  34.046  1.00  0.00     0.023 A 
ATOM     81  C   UNL A   1      44.079  26.496  34.813  1.00  0.00     0.031 A 
ATOM     82  C   UNL A   1      45.564  28.171  33.918  1.00  0.00     0.131 A 
ATOM     83  C   UNL A   1      45.172  25.916  35.471  1.00  0.00     0.055 A 
ATOM     84  C   UNL A   1      46.660  27.552  34.522  1.00  0.00     0.041 A 
ATOM     85  F   UNL A   1      45.794  29.282  33.199  1.00  0.00    -0.206 F 
ATOM     86  C   UNL A   1      46.464  26.424  35.315  1.00  0.00     0.022 A 
BRANCH  83  87
ATOM     87  S   UNL A   1      44.862  24.535  36.603  1.00  0.00     0.124 S 
ATOM     88  O   UNL A   1      46.172  23.893  36.656  1.00  0.00    -0.237 OA
ATOM     89  O   UNL A   1      44.438  25.217  37.821  1.00  0.00    -0.237 OA
ATOM     90  O   UNL A   1      43.819  23.765  35.927  1.00  0.00    -0.744 OA
ENDBRANCH  83  87
ENDBRANCH  57  80
ENDBRANCH  31  32
ENDBRANCH  24  26
ENDBRANCH  23  24
ENDBRANCH  22  23
ENDBRANCH   1  22
TORSDOF 19
ENDMDL
MODEL 3
REMARK VINA RESULT:     -11.0      5.229      8.603
REMARK SMILES CC1=Nn2c(nnc(CCC(=O)OCCOCCOC(=O)c3ccc(-c4c5nc(c(-c6cc(S(=O)(=O)[O-])ccc6F)c6ccc([nH]6)c(-c6cc(S(=O)(=O)[O-])ccc6F)c6nc(c(-c7cc(S(=O)(=O)[O-])ccc7F)c7ccc4[nH]7)C=C6)C=C5)cc3)c2=O)SC1
REMARK SMILES IDX 17 1 16 2 15 3 14 4 13 5 11 6 12 7 10 8 9 9 8 10 1 11 2 12
REMARK SMILES IDX 3 13 88 14 4 15 87 16 5 17 85 18 6 19 86 20 7 21 18 22 19 23
REMARK SMILES IDX 20 24 21 25 22 26 23 27 84 28 24 29 83 30 25 31 26 32 27 33
REMARK SMILES IDX 77 34 28 35 82 36 76 37 78 38 29 39 81 40 75 41 74 42 30 44
REMARK SMILES IDX 62 45 42 46 61 47 43 48 46 49 60 50 79 51 44 52 45 53 59 55
REMARK SMILES IDX 80 56 47 57 31 58 32 59 40 60 33 61 39 62 41 63 38 64 34 65
REMARK SMILES IDX 35 66 36 67 37 68 63 69 64 70 72 71 65 72 71 73 73 74 70 75
REMARK SMILES IDX 66 76 67 77 68 78 69 79 48 80 49 81 57 82 50 83 56 84 58 85
REMARK SMILES IDX 55 86 51 87 52 88 53 89 54 90
REMARK H PARENT 78 43 46 54
REMARK Flexibility Score: inf
ROOT
ATOM      1  C   UNL A   1      31.453  31.750  26.886  1.00  0.00     0.202 C 
ENDROOT
BRANCH   1   2
ATOM      2  O   UNL A   1      31.759  30.365  26.732  1.00  0.00    -0.374 OA
BRANCH   2   3
ATOM      3  C   UNL A   1      32.806  30.071  25.803  1.00  0.00     0.202 C 
BRANCH   3   4
ATOM      4  C   UNL A   1      32.382  29.186  24.626  1.00  0.00     0.261 C 
BRANCH   4   5
ATOM      5  O   UNL A   1      30.992  29.368  24.273  1.00  0.00    -0.463 OA
BRANCH   5   6
ATOM      6  C   UNL A   1      30.358  28.334  23.668  1.00  0.00     0.306 C 
ATOM      7  O   UNL A   1      29.409  28.428  22.902  1.00  0.00    -0.252 OA
BRANCH   6   8
ATOM      8  C   UNL A   1      30.951  27.007  24.103  1.00  0.00     0.129 C 
BRANCH   8   9
ATOM      9  C   UNL A   1      29.935  25.954  24.551  1.00  0.00     0.076 C 
BRANCH   9  10
ATOM     10  C   UNL A   1      30.580  24.858  25.369  1.00  0.00     0.131 A 
ATOM     11  C   UNL A   1      35.681  22.349  24.179  1.00  0.00     0.064 C 
ATOM     12  C   UNL A   1      34.433  22.344  24.999  1.00  0.00     0.046 C 
ATOM     13  N   UNL A   1      33.469  23.058  24.523  1.00  0.00    -0.172 NA
ATOM     14  C   UNL A   1      34.326  21.450  26.195  1.00  0.00     0.131 C 
ATOM     15  N   UNL A   1      32.370  23.300  25.280  1.00  0.00    -0.169 N 
ATOM     16  S   UNL A   1      33.411  22.241  27.522  1.00  0.00    -0.078 SA
ATOM     17  C   UNL A   1      32.271  23.225  26.642  1.00  0.00     0.214 A 
ATOM     18  C   UNL A   1      31.291  23.794  24.611  1.00  0.00     0.296 A 
ATOM     19  N   UNL A   1      31.366  23.869  27.319  1.00  0.00    -0.123 NA
ATOM     20  O   UNL A   1      30.857  23.465  23.526  1.00  0.00    -0.265 OA
ATOM     21  N   UNL A   1      30.594  24.867  26.665  1.00  0.00    -0.147 NA
ENDBRANCH   9  10
ENDBRANCH   8   9
ENDBRANCH   6   8
ENDBRANCH   5   6
ENDBRANCH   4   5
ENDBRANCH   3   4
ENDBRANCH   2   3
ENDBRANCH   1   2
BRANCH   1  22
ATOM     22  C   UNL A   1      32.664  32.699  26.944  1.00  0.00     0.261 C 
BRANCH  22  23
ATOM     23  O   UNL A   1      32.520  33.752  27.915  1.00  0.00    -0.460 OA
BRANCH  23  24
ATOM     24  C   UNL A   1      33.663  34.385  28.266  1.00  0.00     0.338 C 
ATOM     25  O   UNL A   1      33.795  35.587  28.435  1.00  0.00    -0.246 OA
BRANCH  24  26
ATOM     26  C   UNL A   1      34.742  33.405  28.578  1.00  0.00     0.060 A 
ATOM     27  C   UNL A   1      34.431  32.377  29.480  1.00  0.00     0.016 A 
ATOM     28  C   UNL A   1      36.034  33.487  28.053  1.00  0.00     0.016 A 
ATOM     29  C   UNL A   1      35.412  31.479  29.917  1.00  0.00     0.010 A 
ATOM     30  C   UNL A   1      37.018  32.584  28.492  1.00  0.00     0.010 A 
ATOM     31  C   UNL A   1      36.727  31.595  29.459  1.00  0.00    -0.014 A 
BRANCH  31  32
ATOM     32  C   UNL A   1      37.845  30.856  30.120  1.00  0.00     0.031 A 
ATOM     33  C   UNL A   1      38.298  31.325  31.476  1.00  0.00     0.074 A 
ATOM     34  C   UNL A   1      38.452  29.776  29.585  1.00  0.00     0.049 A 
ATOM     35  N   UNL A   1      39.298  30.903  32.204  1.00  0.00    -0.248 NA
ATOM     36  C   UNL A   1      37.484  32.373  32.112  1.00  0.00     0.031 C 
ATOM     37  C   UNL A   1      38.011  29.038  28.413  1.00  0.00     0.029 A 
ATOM     38  N   UNL A   1      39.612  29.131  29.946  1.00  0.00    -0.354 N 
ATOM     39  C   UNL A   1      39.188  31.577  33.413  1.00  0.00     0.074 A 
ATOM     40  C   UNL A   1      38.096  32.518  33.277  1.00  0.00     0.031 C 
ATOM     41  C   UNL A   1      38.967  28.172  28.036  1.00  0.00     0.029 A 
ATOM     42  C   UNL A   1      40.057  28.233  29.000  1.00  0.00     0.049 A 
ATOM     43  H   UNL A   1      40.081  29.296  30.797  1.00  0.00     0.167 HD
ATOM     44  C   UNL A   1      39.883  31.381  34.558  1.00  0.00     0.034 A 
ATOM     45  C   UNL A   1      41.200  27.525  28.918  1.00  0.00     0.034 A 
ATOM     46  C   UNL A   1      40.977  30.456  34.695  1.00  0.00     0.049 A 
ATOM     47  C   UNL A   1      42.125  27.509  30.102  1.00  0.00     0.074 A 
ATOM     48  C   UNL A   1      41.745  30.193  35.815  1.00  0.00     0.029 A 
ATOM     49  N   UNL A   1      41.468  29.650  33.678  1.00  0.00    -0.354 N 
ATOM     50  N   UNL A   1      42.004  28.145  31.241  1.00  0.00    -0.248 NA
ATOM     51  C   UNL A   1      43.291  26.620  30.021  1.00  0.00     0.031 C 
ATOM     52  C   UNL A   1      42.744  29.282  35.457  1.00  0.00     0.029 A 
ATOM     53  C   UNL A   1      42.561  28.927  34.130  1.00  0.00     0.049 A 
ATOM     54  H   UNL A   1      41.096  29.601  32.768  1.00  0.00     0.167 HD
ATOM     55  C   UNL A   1      43.040  27.681  32.042  1.00  0.00     0.074 A 
ATOM     56  C   UNL A   1      43.786  26.727  31.246  1.00  0.00     0.031 C 
ATOM     57  C   UNL A   1      43.323  27.996  33.331  1.00  0.00     0.034 A 
BRANCH  44  58
ATOM     58  C   UNL A   1      39.464  32.197  35.750  1.00  0.00     0.023 A 
ATOM     59  C   UNL A   1      38.685  31.631  36.775  1.00  0.00     0.031 A 
ATOM     60  C   UNL A   1      39.820  33.550  35.853  1.00  0.00     0.131 A 
ATOM     61  C   UNL A   1      38.239  32.433  37.833  1.00  0.00     0.055 A 
ATOM     62  C   UNL A   1      39.428  34.327  36.944  1.00  0.00     0.041 A 
ATOM     63  F   UNL A   1      40.544  34.140  34.888  1.00  0.00    -0.206 F 
ATOM     64  C   UNL A   1      38.625  33.772  37.936  1.00  0.00     0.022 A 
BRANCH  61  65
ATOM     65  S   UNL A   1      37.066  31.729  39.024  1.00  0.00     0.124 S 
ATOM     66  O   UNL A   1      36.842  30.400  38.461  1.00  0.00    -0.237 OA
ATOM     67  O   UNL A   1      37.816  31.775  40.273  1.00  0.00    -0.237 OA
ATOM     68  O   UNL A   1      35.921  32.633  38.950  1.00  0.00    -0.744 OA
ENDBRANCH  61  65
ENDBRANCH  44  58
BRANCH  45  69
ATOM     69  C   UNL A   1      41.520  26.743  27.692  1.00  0.00     0.023 A 
ATOM     70  C   UNL A   1      41.349  25.354  27.649  1.00  0.00     0.031 A 
ATOM     71  C   UNL A   1      42.039  27.385  26.553  1.00  0.00     0.131 A 
ATOM     72  C   UNL A   1      41.724  24.640  26.499  1.00  0.00     0.055 A 
ATOM     73  C   UNL A   1      42.395  26.674  25.405  1.00  0.00     0.041 A 
ATOM     74  F   UNL A   1      42.206  28.718  26.542  1.00  0.00    -0.206 F 
ATOM     75  C   UNL A   1      42.243  25.291  25.377  1.00  0.00     0.022 A 
BRANCH  72  76
ATOM     76  S   UNL A   1      41.536  22.837  26.499  1.00  0.00     0.124 S 
ATOM     77  O   UNL A   1      41.957  22.494  27.851  1.00  0.00    -0.237 OA
ATOM     78  O   UNL A   1      40.112  22.686  26.211  1.00  0.00    -0.237 OA
ATOM     79  O   UNL A   1      42.433  22.402  25.431  1.00  0.00    -0.744 OA
ENDBRANCH  72  76
ENDBRANCH  45  69
BRANCH  57  80
ATOM     80  C   UNL A   1      44.486  27.287  33.970  1.00  0.00     0.023 A 
ATOM     81  C   UNL A   1      44.318  26.055  34.623  1.00  0.00     0.031 A 
ATOM     82  C   UNL A   1      45.776  27.847  33.934  1.00  0.00     0.131 A 
ATOM     83  C   UNL A   1      45.408  25.450  35.264  1.00  0.00     0.055 A 
ATOM     84  C   UNL A   1      46.871  27.208  34.517  1.00  0.00     0.041 A 
ATOM     85  F   UNL A   1      45.993  29.025  33.326  1.00  0.00    -0.206 F 
ATOM     86  C   UNL A   1      46.687  26.008  35.198  1.00  0.00     0.022 A 
BRANCH  83  87
ATOM     87  S   UNL A   1      45.107  23.964  36.256  1.00  0.00     0.124 S 
ATOM     88  O   UNL A   1      44.749  24.535  37.550  1.00  0.00    -0.237 OA
ATOM     89  O   UNL A   1      44.024  23.313  35.525  1.00  0.00    -0.237 OA
ATOM     90  O   UNL A   1      46.389  23.262  36.220  1.00  0.00    -0.744 OA
ENDBRANCH  83  87
ENDBRANCH  57  80
ENDBRANCH  31  32
ENDBRANCH  24  26
ENDBRANCH  23  24
ENDBRANCH  22  23
ENDBRANCH   1  22
TORSDOF 19
ENDMDL
