MODEL 1
REMARK VINA RESULT:     -11.7      0.000      0.000
REMARK SMILES Cc1cc(F)c(-c2ccc(F)c(C(=O)OCCOCCOC(=O)c3ccc(-c4c5nc(c(-c6cc(S(=O)(=O)[O-])ccc6F)c6ccc([nH]6)c(-c6cc(S(=O)(=O)[O-])ccc6F)c6nc(c(-c7cc(S(=O)(=O)[O-])ccc7F)c7ccc4[nH]7)C=C6)C=C5)cc3)c2)cc1F
REMARK SMILES IDX 19 1 18 2 17 3 16 4 15 5 13 6 14 7 12 8 7 9 8 10 87 11 9 12
REMARK SMILES IDX 10 13 11 14 6 15 1 16 2 17 3 18 89 19 4 20 88 21 90 22 5 23
REMARK SMILES IDX 20 24 21 25 22 26 23 27 24 28 25 29 86 30 26 31 85 32 27 33
REMARK SMILES IDX 28 34 29 35 79 36 30 37 84 38 78 39 80 40 31 41 83 42 77 43
REMARK SMILES IDX 76 44 32 46 64 47 44 48 63 49 45 50 48 51 62 52 81 53 46 54
REMARK SMILES IDX 47 55 61 57 82 58 49 59 33 60 34 61 42 62 35 63 41 64 43 65
REMARK SMILES IDX 40 66 36 67 37 68 38 69 39 70 65 71 66 72 74 73 67 74 73 75
REMARK SMILES IDX 75 76 72 77 68 78 69 79 70 80 71 81 50 82 51 83 59 84 52 85
REMARK SMILES IDX 58 86 60 87 57 88 53 89 54 90 55 91 56 92
REMARK H PARENT 80 45 48 56
REMARK Flexibility Score: inf
ROOT
ATOM      1  C   UNL A   1      35.193  20.574  25.090  1.00  0.00     0.202 C 
ENDROOT
BRANCH   1   2
ATOM      2  O   UNL A   1      34.217  19.634  24.645  1.00  0.00    -0.374 OA
BRANCH   2   3
ATOM      3  C   UNL A   1      32.864  20.075  24.536  1.00  0.00     0.202 C 
BRANCH   3   4
ATOM      4  C   UNL A   1      32.547  21.113  23.453  1.00  0.00     0.261 C 
BRANCH   4   5
ATOM      5  O   UNL A   1      32.489  22.441  23.998  1.00  0.00    -0.460 OA
BRANCH   5   6
ATOM      6  C   UNL A   1      33.364  23.324  23.453  1.00  0.00     0.341 C 
ATOM      7  O   UNL A   1      34.150  23.112  22.547  1.00  0.00    -0.246 OA
BRANCH   6   8
ATOM      8  C   UNL A   1      33.121  24.663  24.026  1.00  0.00     0.096 A 
ATOM      9  C   UNL A   1      32.002  26.834  24.044  1.00  0.00    -0.014 A 
ATOM     10  C   UNL A   1      32.751  27.164  25.193  1.00  0.00     0.012 A 
ATOM     11  C   UNL A   1      32.211  25.570  23.459  1.00  0.00     0.027 A 
ATOM     12  C   UNL A   1      33.674  26.272  25.740  1.00  0.00     0.041 A 
ATOM     13  C   UNL A   1      33.852  25.027  25.156  1.00  0.00     0.137 A 
ATOM     14  F   UNL A   1      34.775  24.211  25.681  1.00  0.00    -0.206 F 
BRANCH   9  15
ATOM     15  C   UNL A   1      31.001  27.787  23.526  1.00  0.00     0.020 A 
ATOM     16  C   UNL A   1      28.030  30.339  21.656  1.00  0.00     0.047 C 
ATOM     17  C   UNL A   1      29.057  29.471  22.314  1.00  0.00    -0.012 A 
ATOM     18  C   UNL A   1      30.421  29.740  22.167  1.00  0.00     0.046 A 
ATOM     19  C   UNL A   1      28.679  28.397  23.119  1.00  0.00     0.126 A 
ATOM     20  C   UNL A   1      31.370  28.904  22.761  1.00  0.00     0.131 A 
ATOM     21  C   UNL A   1      29.626  27.567  23.720  1.00  0.00     0.051 A 
ATOM     22  F   UNL A   1      27.379  28.126  23.307  1.00  0.00    -0.207 F 
ATOM     23  F   UNL A   1      32.666  29.170  22.539  1.00  0.00    -0.206 F 
ENDBRANCH   9  15
ENDBRANCH   6   8
ENDBRANCH   5   6
ENDBRANCH   4   5
ENDBRANCH   3   4
ENDBRANCH   2   3
ENDBRANCH   1   2
BRANCH   1  24
ATOM     24  C   UNL A   1      36.672  20.178  24.990  1.00  0.00     0.261 C 
BRANCH  24  25
ATOM     25  O   UNL A   1      37.563  21.283  25.214  1.00  0.00    -0.460 OA
BRANCH  25  26
ATOM     26  C   UNL A   1      38.735  20.961  25.820  1.00  0.00     0.338 C 
ATOM     27  O   UNL A   1      39.307  19.883  25.785  1.00  0.00    -0.246 OA
BRANCH  26  28
ATOM     28  C   UNL A   1      39.345  22.187  26.372  1.00  0.00     0.060 A 
ATOM     29  C   UNL A   1      40.482  22.129  27.180  1.00  0.00     0.016 A 
ATOM     30  C   UNL A   1      38.767  23.420  26.045  1.00  0.00     0.016 A 
ATOM     31  C   UNL A   1      41.052  23.319  27.642  1.00  0.00     0.010 A 
ATOM     32  C   UNL A   1      39.336  24.605  26.509  1.00  0.00     0.010 A 
ATOM     33  C   UNL A   1      40.495  24.565  27.296  1.00  0.00    -0.014 A 
BRANCH  33  34
ATOM     34  C   UNL A   1      41.214  25.821  27.627  1.00  0.00     0.031 A 
ATOM     35  C   UNL A   1      42.630  26.060  27.198  1.00  0.00     0.074 A 
ATOM     36  C   UNL A   1      40.568  26.747  28.364  1.00  0.00     0.049 A 
ATOM     37  N   UNL A   1      43.361  27.132  27.354  1.00  0.00    -0.248 NA
ATOM     38  C   UNL A   1      43.319  24.957  26.511  1.00  0.00     0.031 C 
ATOM     39  C   UNL A   1      39.208  26.591  28.880  1.00  0.00     0.029 A 
ATOM     40  N   UNL A   1      40.953  27.988  28.805  1.00  0.00    -0.354 N 
ATOM     41  C   UNL A   1      44.591  26.846  26.776  1.00  0.00     0.074 A 
ATOM     42  C   UNL A   1      44.523  25.478  26.306  1.00  0.00     0.031 C 
ATOM     43  C   UNL A   1      38.862  27.703  29.543  1.00  0.00     0.029 A 
ATOM     44  C   UNL A   1      39.987  28.637  29.536  1.00  0.00     0.049 A 
ATOM     45  H   UNL A   1      41.838  28.376  28.615  1.00  0.00     0.167 HD
ATOM     46  C   UNL A   1      45.664  27.662  26.637  1.00  0.00     0.034 A 
ATOM     47  C   UNL A   1      39.997  29.845  30.139  1.00  0.00     0.034 A 
ATOM     48  C   UNL A   1      45.711  29.021  27.122  1.00  0.00     0.049 A 
ATOM     49  C   UNL A   1      41.211  30.723  29.986  1.00  0.00     0.074 A 
ATOM     50  C   UNL A   1      46.729  29.945  26.968  1.00  0.00     0.029 A 
ATOM     51  N   UNL A   1      44.719  29.646  27.865  1.00  0.00    -0.354 N 
ATOM     52  N   UNL A   1      42.318  30.489  29.321  1.00  0.00    -0.248 NA
ATOM     53  C   UNL A   1      41.180  32.035  30.647  1.00  0.00     0.031 C 
ATOM     54  C   UNL A   1      46.394  31.092  27.686  1.00  0.00     0.029 A 
ATOM     55  C   UNL A   1      45.123  30.928  28.212  1.00  0.00     0.049 A 
ATOM     56  H   UNL A   1      43.855  29.241  28.109  1.00  0.00     0.167 HD
ATOM     57  C   UNL A   1      43.104  31.629  29.465  1.00  0.00     0.074 A 
ATOM     58  C   UNL A   1      42.333  32.565  30.255  1.00  0.00     0.031 C 
ATOM     59  C   UNL A   1      44.352  31.870  28.991  1.00  0.00     0.034 A 
BRANCH  46  60
ATOM     60  C   UNL A   1      46.886  27.150  25.910  1.00  0.00     0.023 A 
ATOM     61  C   UNL A   1      47.946  26.568  26.635  1.00  0.00     0.031 A 
ATOM     62  C   UNL A   1      47.079  27.402  24.541  1.00  0.00     0.131 A 
ATOM     63  C   UNL A   1      49.165  26.307  25.998  1.00  0.00     0.055 A 
ATOM     64  C   UNL A   1      48.281  27.094  23.900  1.00  0.00     0.041 A 
ATOM     65  F   UNL A   1      46.106  27.963  23.806  1.00  0.00    -0.206 F 
ATOM     66  C   UNL A   1      49.336  26.560  24.633  1.00  0.00     0.022 A 
BRANCH  63  67
ATOM     67  S   UNL A   1      50.605  25.719  26.931  1.00  0.00     0.124 S 
ATOM     68  O   UNL A   1      51.617  25.608  25.882  1.00  0.00    -0.237 OA
ATOM     69  O   UNL A   1      50.814  26.804  27.886  1.00  0.00    -0.237 OA
ATOM     70  O   UNL A   1      50.160  24.452  27.501  1.00  0.00    -0.744 OA
ENDBRANCH  63  67
ENDBRANCH  46  60
BRANCH  47  71
ATOM     71  C   UNL A   1      38.781  30.292  30.878  1.00  0.00     0.023 A 
ATOM     72  C   UNL A   1      37.782  31.045  30.231  1.00  0.00     0.031 A 
ATOM     73  C   UNL A   1      38.657  30.083  32.262  1.00  0.00     0.131 A 
ATOM     74  C   UNL A   1      36.753  31.628  30.980  1.00  0.00     0.055 A 
ATOM     75  C   UNL A   1      37.584  30.598  32.991  1.00  0.00     0.041 A 
ATOM     76  F   UNL A   1      39.591  29.386  32.926  1.00  0.00    -0.206 F 
ATOM     77  C   UNL A   1      36.636  31.393  32.354  1.00  0.00     0.022 A 
BRANCH  74  78
ATOM     78  S   UNL A   1      35.624  32.831  30.227  1.00  0.00     0.124 S 
ATOM     79  O   UNL A   1      36.353  34.084  30.401  1.00  0.00    -0.237 OA
ATOM     80  O   UNL A   1      35.536  32.337  28.855  1.00  0.00    -0.237 OA
ATOM     81  O   UNL A   1      34.402  32.698  31.013  1.00  0.00    -0.744 OA
ENDBRANCH  74  78
ENDBRANCH  47  71
BRANCH  59  82
ATOM     82  C   UNL A   1      45.007  33.198  29.296  1.00  0.00     0.023 A 
ATOM     83  C   UNL A   1      44.904  34.262  28.377  1.00  0.00     0.031 A 
ATOM     84  C   UNL A   1      45.866  33.358  30.396  1.00  0.00     0.131 A 
ATOM     85  C   UNL A   1      45.691  35.408  28.542  1.00  0.00     0.055 A 
ATOM     86  C   UNL A   1      46.604  34.527  30.589  1.00  0.00     0.041 A 
ATOM     87  F   UNL A   1      46.010  32.372  31.297  1.00  0.00    -0.206 F 
ATOM     88  C   UNL A   1      46.533  35.551  29.649  1.00  0.00     0.022 A 
BRANCH  85  89
ATOM     89  S   UNL A   1      45.734  36.707  27.276  1.00  0.00     0.124 S 
ATOM     90  O   UNL A   1      46.633  37.688  27.877  1.00  0.00    -0.237 OA
ATOM     91  O   UNL A   1      46.273  35.993  26.121  1.00  0.00    -0.237 OA
ATOM     92  O   UNL A   1      44.342  37.131  27.159  1.00  0.00    -0.744 OA
ENDBRANCH  85  89
ENDBRANCH  59  82
ENDBRANCH  33  34
ENDBRANCH  26  28
ENDBRANCH  25  26
ENDBRANCH  24  25
ENDBRANCH   1  24
TORSDOF 18
ENDMDL
MODEL 2
REMARK VINA RESULT:     -11.6      4.492     10.109
REMARK SMILES Cc1cc(F)c(-c2ccc(F)c(C(=O)OCCOCCOC(=O)c3ccc(-c4c5nc(c(-c6cc(S(=O)(=O)[O-])ccc6F)c6ccc([nH]6)c(-c6cc(S(=O)(=O)[O-])ccc6F)c6nc(c(-c7cc(S(=O)(=O)[O-])ccc7F)c7ccc4[nH]7)C=C6)C=C5)cc3)c2)cc1F
REMARK SMILES IDX 19 1 18 2 17 3 16 4 15 5 13 6 14 7 12 8 7 9 8 10 87 11 9 12
REMARK SMILES IDX 10 13 11 14 6 15 1 16 2 17 3 18 89 19 4 20 88 21 90 22 5 23
REMARK SMILES IDX 20 24 21 25 22 26 23 27 24 28 25 29 86 30 26 31 85 32 27 33
REMARK SMILES IDX 28 34 29 35 79 36 30 37 84 38 78 39 80 40 31 41 83 42 77 43
REMARK SMILES IDX 76 44 32 46 64 47 44 48 63 49 45 50 48 51 62 52 81 53 46 54
REMARK SMILES IDX 47 55 61 57 82 58 49 59 33 60 34 61 42 62 35 63 41 64 43 65
REMARK SMILES IDX 40 66 36 67 37 68 38 69 39 70 65 71 66 72 74 73 67 74 73 75
REMARK SMILES IDX 75 76 72 77 68 78 69 79 70 80 71 81 50 82 51 83 59 84 52 85
REMARK SMILES IDX 58 86 60 87 57 88 53 89 54 90 55 91 56 92
REMARK H PARENT 80 45 48 56
REMARK Flexibility Score: inf
ROOT
ATOM      1  C   UNL A   1      31.480  28.736  24.571  1.00  0.00     0.202 C 
ENDROOT
BRANCH   1   2
ATOM      2  O   UNL A   1      30.683  27.578  24.818  1.00  0.00    -0.374 OA
BRANCH   2   3
ATOM      3  C   UNL A   1      31.098  26.690  25.855  1.00  0.00     0.202 C 
BRANCH   3   4
ATOM      4  C   UNL A   1      30.188  25.497  26.168  1.00  0.00     0.261 C 
BRANCH   4   5
ATOM      5  O   UNL A   1      30.921  24.421  26.774  1.00  0.00    -0.460 OA
BRANCH   5   6
ATOM      6  C   UNL A   1      30.816  23.226  26.140  1.00  0.00     0.341 C 
ATOM      7  O   UNL A   1      29.924  22.405  26.265  1.00  0.00    -0.246 OA
BRANCH   6   8
ATOM      8  C   UNL A   1      31.889  23.116  25.133  1.00  0.00     0.096 A 
ATOM      9  C   UNL A   1      34.223  22.791  24.490  1.00  0.00    -0.014 A 
ATOM     10  C   UNL A   1      33.829  22.933  23.144  1.00  0.00     0.012 A 
ATOM     11  C   UNL A   1      33.232  22.899  25.484  1.00  0.00     0.027 A 
ATOM     12  C   UNL A   1      32.500  23.176  22.797  1.00  0.00     0.041 A 
ATOM     13  C   UNL A   1      31.539  23.263  23.792  1.00  0.00     0.137 A 
ATOM     14  F   UNL A   1      30.278  23.537  23.428  1.00  0.00    -0.206 F 
BRANCH   9  15
ATOM     15  C   UNL A   1      35.632  22.487  24.811  1.00  0.00     0.020 A 
ATOM     16  C   UNL A   1      39.635  21.459  26.138  1.00  0.00     0.047 C 
ATOM     17  C   UNL A   1      38.261  21.821  25.665  1.00  0.00    -0.012 A 
ATOM     18  C   UNL A   1      37.777  23.126  25.805  1.00  0.00     0.046 A 
ATOM     19  C   UNL A   1      37.446  20.878  25.041  1.00  0.00     0.126 A 
ATOM     20  C   UNL A   1      36.482  23.443  25.389  1.00  0.00     0.131 A 
ATOM     21  C   UNL A   1      36.155  21.196  24.617  1.00  0.00     0.051 A 
ATOM     22  F   UNL A   1      37.887  19.624  24.864  1.00  0.00    -0.207 F 
ATOM     23  F   UNL A   1      36.044  24.693  25.600  1.00  0.00    -0.206 F 
ENDBRANCH   9  15
ENDBRANCH   6   8
ENDBRANCH   5   6
ENDBRANCH   4   5
ENDBRANCH   3   4
ENDBRANCH   2   3
ENDBRANCH   1   2
BRANCH   1  24
ATOM     24  C   UNL A   1      31.694  29.723  25.727  1.00  0.00     0.261 C 
BRANCH  24  25
ATOM     25  O   UNL A   1      33.066  30.122  25.876  1.00  0.00    -0.460 OA
BRANCH  25  26
ATOM     26  C   UNL A   1      33.293  31.043  26.847  1.00  0.00     0.338 C 
ATOM     27  O   UNL A   1      32.487  31.832  27.314  1.00  0.00    -0.246 OA
BRANCH  26  28
ATOM     28  C   UNL A   1      34.633  30.814  27.425  1.00  0.00     0.060 A 
ATOM     29  C   UNL A   1      35.486  31.879  27.719  1.00  0.00     0.016 A 
ATOM     30  C   UNL A   1      35.021  29.496  27.694  1.00  0.00     0.016 A 
ATOM     31  C   UNL A   1      36.726  31.617  28.308  1.00  0.00     0.010 A 
ATOM     32  C   UNL A   1      36.260  29.237  28.280  1.00  0.00     0.010 A 
ATOM     33  C   UNL A   1      37.115  30.297  28.609  1.00  0.00    -0.014 A 
BRANCH  33  34
ATOM     34  C   UNL A   1      38.341  30.044  29.407  1.00  0.00     0.031 A 
ATOM     35  C   UNL A   1      38.520  30.606  30.785  1.00  0.00     0.074 A 
ATOM     36  C   UNL A   1      39.324  29.314  28.844  1.00  0.00     0.049 A 
ATOM     37  N   UNL A   1      39.504  30.415  31.624  1.00  0.00    -0.248 NA
ATOM     38  C   UNL A   1      37.467  31.502  31.286  1.00  0.00     0.031 C 
ATOM     39  C   UNL A   1      39.276  28.767  27.488  1.00  0.00     0.029 A 
ATOM     40  N   UNL A   1      40.542  28.905  29.327  1.00  0.00    -0.354 N 
ATOM     41  C   UNL A   1      39.189  31.150  32.759  1.00  0.00     0.074 A 
ATOM     42  C   UNL A   1      37.942  31.832  32.481  1.00  0.00     0.031 C 
ATOM     43  C   UNL A   1      40.398  28.071  27.258  1.00  0.00     0.029 A 
ATOM     44  C   UNL A   1      41.266  28.154  28.430  1.00  0.00     0.049 A 
ATOM     45  H   UNL A   1      40.866  29.128  30.230  1.00  0.00     0.167 HD
ATOM     46  C   UNL A   1      39.873  31.227  33.927  1.00  0.00     0.034 A 
ATOM     47  C   UNL A   1      42.490  27.596  28.532  1.00  0.00     0.034 A 
ATOM     48  C   UNL A   1      41.120  30.544  34.176  1.00  0.00     0.049 A 
ATOM     49  C   UNL A   1      43.238  27.714  29.834  1.00  0.00     0.074 A 
ATOM     50  C   UNL A   1      41.850  30.508  35.351  1.00  0.00     0.029 A 
ATOM     51  N   UNL A   1      41.831  29.797  33.246  1.00  0.00    -0.354 N 
ATOM     52  N   UNL A   1      42.866  28.303  30.946  1.00  0.00    -0.248 NA
ATOM     53  C   UNL A   1      44.563  27.083  29.909  1.00  0.00     0.031 C 
ATOM     54  C   UNL A   1      43.038  29.818  35.109  1.00  0.00     0.029 A 
ATOM     55  C   UNL A   1      43.011  29.336  33.810  1.00  0.00     0.049 A 
ATOM     56  H   UNL A   1      41.539  29.620  32.322  1.00  0.00     0.167 HD
ATOM     57  C   UNL A   1      43.898  28.096  31.857  1.00  0.00     0.074 A 
ATOM     58  C   UNL A   1      44.897  27.300  31.176  1.00  0.00     0.031 C 
ATOM     59  C   UNL A   1      44.006  28.532  33.137  1.00  0.00     0.034 A 
BRANCH  46  60
ATOM     60  C   UNL A   1      39.302  32.049  35.058  1.00  0.00     0.023 A 
ATOM     61  C   UNL A   1      39.718  33.383  35.241  1.00  0.00     0.031 A 
ATOM     62  C   UNL A   1      38.498  31.463  36.052  1.00  0.00     0.131 A 
ATOM     63  C   UNL A   1      39.371  34.067  36.414  1.00  0.00     0.055 A 
ATOM     64  C   UNL A   1      38.115  32.166  37.196  1.00  0.00     0.041 A 
ATOM     65  F   UNL A   1      38.083  30.191  35.932  1.00  0.00    -0.206 F 
ATOM     66  C   UNL A   1      38.565  33.468  37.388  1.00  0.00     0.022 A 
BRANCH  63  67
ATOM     67  S   UNL A   1      40.026  35.721  36.764  1.00  0.00     0.124 S 
ATOM     68  O   UNL A   1      39.653  36.453  35.555  1.00  0.00    -0.237 OA
ATOM     69  O   UNL A   1      39.288  36.092  37.969  1.00  0.00    -0.237 OA
ATOM     70  O   UNL A   1      41.457  35.502  36.941  1.00  0.00    -0.744 OA
ENDBRANCH  63  67
ENDBRANCH  46  60
BRANCH  47  71
ATOM     71  C   UNL A   1      43.030  26.826  27.373  1.00  0.00     0.023 A 
ATOM     72  C   UNL A   1      42.806  25.440  27.264  1.00  0.00     0.031 A 
ATOM     73  C   UNL A   1      43.875  27.434  26.430  1.00  0.00     0.131 A 
ATOM     74  C   UNL A   1      43.484  24.699  26.289  1.00  0.00     0.055 A 
ATOM     75  C   UNL A   1      44.484  26.704  25.409  1.00  0.00     0.041 A 
ATOM     76  F   UNL A   1      44.132  28.749  26.501  1.00  0.00    -0.206 F 
ATOM     77  C   UNL A   1      44.307  25.324  25.347  1.00  0.00     0.022 A 
BRANCH  74  78
ATOM     78  S   UNL A   1      43.442  22.885  26.306  1.00  0.00     0.124 S 
ATOM     79  O   UNL A   1      44.860  22.547  26.356  1.00  0.00    -0.237 OA
ATOM     80  O   UNL A   1      42.685  22.618  27.526  1.00  0.00    -0.237 OA
ATOM     81  O   UNL A   1      42.755  22.545  25.063  1.00  0.00    -0.744 OA
ENDBRANCH  74  78
ENDBRANCH  47  71
BRANCH  59  82
ATOM     82  C   UNL A   1      45.246  28.180  33.928  1.00  0.00     0.023 A 
ATOM     83  C   UNL A   1      45.212  27.123  34.860  1.00  0.00     0.031 A 
ATOM     84  C   UNL A   1      46.396  28.988  33.889  1.00  0.00     0.131 A 
ATOM     85  C   UNL A   1      46.275  26.942  35.753  1.00  0.00     0.055 A 
ATOM     86  C   UNL A   1      47.479  28.766  34.740  1.00  0.00     0.041 A 
ATOM     87  F   UNL A   1      46.478  30.016  33.027  1.00  0.00    -0.206 F 
ATOM     88  C   UNL A   1      47.414  27.751  35.690  1.00  0.00     0.022 A 
BRANCH  85  89
ATOM     89  S   UNL A   1      46.177  25.723  37.093  1.00  0.00     0.124 S 
ATOM     90  O   UNL A   1      44.789  25.857  37.525  1.00  0.00    -0.237 OA
ATOM     91  O   UNL A   1      46.495  24.477  36.398  1.00  0.00    -0.237 OA
ATOM     92  O   UNL A   1      47.174  26.177  38.057  1.00  0.00    -0.744 OA
ENDBRANCH  85  89
ENDBRANCH  59  82
ENDBRANCH  33  34
ENDBRANCH  26  28
ENDBRANCH  25  26
ENDBRANCH  24  25
ENDBRANCH   1  24
TORSDOF 18
ENDMDL
MODEL 3
REMARK VINA RESULT:     -11.5      5.643     11.560
REMARK SMILES Cc1cc(F)c(-c2ccc(F)c(C(=O)OCCOCCOC(=O)c3ccc(-c4c5nc(c(-c6cc(S(=O)(=O)[O-])ccc6F)c6ccc([nH]6)c(-c6cc(S(=O)(=O)[O-])ccc6F)c6nc(c(-c7cc(S(=O)(=O)[O-])ccc7F)c7ccc4[nH]7)C=C6)C=C5)cc3)c2)cc1F
REMARK SMILES IDX 19 1 18 2 17 3 16 4 15 5 13 6 14 7 12 8 7 9 8 10 87 11 9 12
REMARK SMILES IDX 10 13 11 14 6 15 1 16 2 17 3 18 89 19 4 20 88 21 90 22 5 23
REMARK SMILES IDX 20 24 21 25 22 26 23 27 24 28 25 29 86 30 26 31 85 32 27 33
REMARK SMILES IDX 28 34 29 35 79 36 30 37 84 38 78 39 80 40 31 41 83 42 77 43
REMARK SMILES IDX 76 44 32 46 64 47 44 48 63 49 45 50 48 51 62 52 81 53 46 54
REMARK SMILES IDX 47 55 61 57 82 58 49 59 33 60 34 61 42 62 35 63 41 64 43 65
REMARK SMILES IDX 40 66 36 67 37 68 38 69 39 70 65 71 66 72 74 73 67 74 73 75
REMARK SMILES IDX 75 76 72 77 68 78 69 79 70 80 71 81 50 82 51 83 59 84 52 85
REMARK SMILES IDX 58 86 60 87 57 88 53 89 54 90 55 91 56 92
REMARK H PARENT 80 45 48 56
REMARK Flexibility Score: inf
ROOT
ATOM      1  C   UNL A   1      34.092  34.829  28.688  1.00  0.00     0.202 C 
ENDROOT
BRANCH   1   2
ATOM      2  O   UNL A   1      33.215  34.805  29.813  1.00  0.00    -0.374 OA
BRANCH   2   3
ATOM      3  C   UNL A   1      32.655  36.043  30.250  1.00  0.00     0.202 C 
BRANCH   3   4
ATOM      4  C   UNL A   1      32.544  36.272  31.762  1.00  0.00     0.261 C 
BRANCH   4   5
ATOM      5  O   UNL A   1      33.786  36.732  32.317  1.00  0.00    -0.460 OA
BRANCH   5   6
ATOM      6  C   UNL A   1      34.260  35.995  33.353  1.00  0.00     0.341 C 
ATOM      7  O   UNL A   1      33.997  36.137  34.534  1.00  0.00    -0.246 OA
BRANCH   6   8
ATOM      8  C   UNL A   1      35.048  34.865  32.823  1.00  0.00     0.096 A 
ATOM      9  C   UNL A   1      37.018  33.934  31.720  1.00  0.00    -0.014 A 
ATOM     10  C   UNL A   1      36.439  32.656  31.855  1.00  0.00     0.012 A 
ATOM     11  C   UNL A   1      36.295  35.042  32.203  1.00  0.00     0.027 A 
ATOM     12  C   UNL A   1      35.188  32.483  32.447  1.00  0.00     0.041 A 
ATOM     13  C   UNL A   1      34.501  33.587  32.929  1.00  0.00     0.137 A 
ATOM     14  F   UNL A   1      33.284  33.391  33.455  1.00  0.00    -0.206 F 
BRANCH   9  15
ATOM     15  C   UNL A   1      38.365  34.068  31.132  1.00  0.00     0.020 A 
ATOM     16  C   UNL A   1      42.276  34.886  29.435  1.00  0.00     0.047 C 
ATOM     17  C   UNL A   1      40.929  34.586  30.017  1.00  0.00    -0.012 A 
ATOM     18  C   UNL A   1      39.820  34.394  29.188  1.00  0.00     0.046 A 
ATOM     19  C   UNL A   1      40.756  34.454  31.394  1.00  0.00     0.126 A 
ATOM     20  C   UNL A   1      38.563  34.146  29.744  1.00  0.00     0.131 A 
ATOM     21  C   UNL A   1      39.502  34.198  31.949  1.00  0.00     0.051 A 
ATOM     22  F   UNL A   1      41.804  34.604  32.218  1.00  0.00    -0.207 F 
ATOM     23  F   UNL A   1      37.519  34.030  28.908  1.00  0.00    -0.206 F 
ENDBRANCH   9  15
ENDBRANCH   6   8
ENDBRANCH   5   6
ENDBRANCH   4   5
ENDBRANCH   3   4
ENDBRANCH   2   3
ENDBRANCH   1   2
BRANCH   1  24
ATOM     24  C   UNL A   1      34.230  33.547  27.856  1.00  0.00     0.261 C 
BRANCH  24  25
ATOM     25  O   UNL A   1      34.370  32.368  28.665  1.00  0.00    -0.460 OA
BRANCH  25  26
ATOM     26  C   UNL A   1      34.488  31.207  27.970  1.00  0.00     0.338 C 
ATOM     27  O   UNL A   1      33.769  30.818  27.063  1.00  0.00    -0.246 OA
BRANCH  26  28
ATOM     28  C   UNL A   1      35.762  30.555  28.332  1.00  0.00     0.060 A 
ATOM     29  C   UNL A   1      36.956  30.894  27.695  1.00  0.00     0.016 A 
ATOM     30  C   UNL A   1      35.747  29.596  29.354  1.00  0.00     0.016 A 
ATOM     31  C   UNL A   1      38.145  30.283  28.104  1.00  0.00     0.010 A 
ATOM     32  C   UNL A   1      36.935  28.986  29.758  1.00  0.00     0.010 A 
ATOM     33  C   UNL A   1      38.146  29.339  29.149  1.00  0.00    -0.014 A 
BRANCH  33  34
ATOM     34  C   UNL A   1      39.431  28.843  29.704  1.00  0.00     0.031 A 
ATOM     35  C   UNL A   1      40.068  29.469  30.907  1.00  0.00     0.074 A 
ATOM     36  C   UNL A   1      40.041  27.820  29.074  1.00  0.00     0.049 A 
ATOM     37  N   UNL A   1      41.150  29.101  31.543  1.00  0.00    -0.248 NA
ATOM     38  C   UNL A   1      39.418  30.663  31.467  1.00  0.00     0.031 C 
ATOM     39  C   UNL A   1      39.535  27.175  27.863  1.00  0.00     0.029 A 
ATOM     40  N   UNL A   1      41.204  27.145  29.352  1.00  0.00    -0.354 N 
ATOM     41  C   UNL A   1      41.307  30.004  32.587  1.00  0.00     0.074 A 
ATOM     42  C   UNL A   1      40.233  30.968  32.470  1.00  0.00     0.031 C 
ATOM     43  C   UNL A   1      40.365  26.180  27.518  1.00  0.00     0.029 A 
ATOM     44  C   UNL A   1      41.484  26.141  28.456  1.00  0.00     0.049 A 
ATOM     45  H   UNL A   1      41.781  27.360  30.120  1.00  0.00     0.167 HD
ATOM     46  C   UNL A   1      42.251  30.008  33.560  1.00  0.00     0.034 A 
ATOM     47  C   UNL A   1      42.525  25.283  28.388  1.00  0.00     0.034 A 
ATOM     48  C   UNL A   1      43.318  29.039  33.650  1.00  0.00     0.049 A 
ATOM     49  C   UNL A   1      43.571  25.322  29.471  1.00  0.00     0.074 A 
ATOM     50  C   UNL A   1      44.280  28.923  34.638  1.00  0.00     0.029 A 
ATOM     51  N   UNL A   1      43.580  28.039  32.723  1.00  0.00    -0.354 N 
ATOM     52  N   UNL A   1      43.634  26.097  30.527  1.00  0.00    -0.248 NA
ATOM     53  C   UNL A   1      44.681  24.365  29.368  1.00  0.00     0.031 C 
ATOM     54  C   UNL A   1      45.170  27.915  34.267  1.00  0.00     0.029 A 
ATOM     55  C   UNL A   1      44.714  27.332  33.097  1.00  0.00     0.049 A 
ATOM     56  H   UNL A   1      43.039  27.857  31.921  1.00  0.00     0.167 HD
ATOM     57  C   UNL A   1      44.774  25.709  31.226  1.00  0.00     0.074 A 
ATOM     58  C   UNL A   1      45.355  24.608  30.487  1.00  0.00     0.031 C 
ATOM     59  C   UNL A   1      45.291  26.225  32.369  1.00  0.00     0.034 A 
BRANCH  46  60
ATOM     60  C   UNL A   1      42.188  31.062  34.640  1.00  0.00     0.023 A 
ATOM     61  C   UNL A   1      41.085  31.110  35.515  1.00  0.00     0.031 A 
ATOM     62  C   UNL A   1      43.114  32.119  34.682  1.00  0.00     0.131 A 
ATOM     63  C   UNL A   1      40.910  32.215  36.358  1.00  0.00     0.055 A 
ATOM     64  C   UNL A   1      42.961  33.195  35.559  1.00  0.00     0.041 A 
ATOM     65  F   UNL A   1      44.177  32.129  33.862  1.00  0.00    -0.206 F 
ATOM     66  C   UNL A   1      41.847  33.254  36.390  1.00  0.00     0.022 A 
BRANCH  63  67
ATOM     67  S   UNL A   1      39.420  32.394  37.375  1.00  0.00     0.124 S 
ATOM     68  O   UNL A   1      38.738  31.124  37.135  1.00  0.00    -0.237 OA
ATOM     69  O   UNL A   1      39.982  32.555  38.714  1.00  0.00    -0.237 OA
ATOM     70  O   UNL A   1      38.757  33.570  36.823  1.00  0.00    -0.744 OA
ENDBRANCH  63  67
ENDBRANCH  46  60
BRANCH  47  71
ATOM     71  C   UNL A   1      42.564  24.284  27.281  1.00  0.00     0.023 A 
ATOM     72  C   UNL A   1      41.874  23.061  27.390  1.00  0.00     0.031 A 
ATOM     73  C   UNL A   1      43.386  24.480  26.158  1.00  0.00     0.131 A 
ATOM     74  C   UNL A   1      42.084  22.054  26.440  1.00  0.00     0.055 A 
ATOM     75  C   UNL A   1      43.527  23.504  25.171  1.00  0.00     0.041 A 
ATOM     76  F   UNL A   1      44.076  25.621  26.017  1.00  0.00    -0.206 F 
ATOM     77  C   UNL A   1      42.891  22.275  25.320  1.00  0.00     0.022 A 
BRANCH  74  78
ATOM     78  S   UNL A   1      41.441  20.380  26.705  1.00  0.00     0.124 S 
ATOM     79  O   UNL A   1      42.176  19.955  27.892  1.00  0.00    -0.237 OA
ATOM     80  O   UNL A   1      40.017  20.636  26.903  1.00  0.00    -0.237 OA
ATOM     81  O   UNL A   1      41.778  19.680  25.470  1.00  0.00    -0.744 OA
ENDBRANCH  74  78
ENDBRANCH  47  71
BRANCH  59  82
ATOM     82  C   UNL A   1      46.563  25.629  32.930  1.00  0.00     0.023 A 
ATOM     83  C   UNL A   1      47.807  25.950  32.350  1.00  0.00     0.031 A 
ATOM     84  C   UNL A   1      46.532  24.624  33.912  1.00  0.00     0.131 A 
ATOM     85  C   UNL A   1      48.953  25.233  32.712  1.00  0.00     0.055 A 
ATOM     86  C   UNL A   1      47.689  23.954  34.313  1.00  0.00     0.041 A 
ATOM     87  F   UNL A   1      45.372  24.272  34.491  1.00  0.00    -0.206 F 
ATOM     88  C   UNL A   1      48.903  24.243  33.699  1.00  0.00     0.022 A 
BRANCH  85  89
ATOM     89  S   UNL A   1      50.528  25.482  31.845  1.00  0.00     0.124 S 
ATOM     90  O   UNL A   1      51.367  26.050  32.896  1.00  0.00    -0.237 OA
ATOM     91  O   UNL A   1      50.873  24.121  31.439  1.00  0.00    -0.237 OA
ATOM     92  O   UNL A   1      50.191  26.395  30.758  1.00  0.00    -0.744 OA
ENDBRANCH  85  89
ENDBRANCH  59  82
ENDBRANCH  33  34
ENDBRANCH  26  28
ENDBRANCH  25  26
ENDBRANCH  24  25
ENDBRANCH   1  24
TORSDOF 18
ENDMDL
