MODEL 1
REMARK VINA RESULT:     -12.6      0.000      0.000
REMARK SMILES O=C(OCCOCCOC(=O)[C@@H](Cc1ccccc1)N1C(=O)/C(=C/c2ccncc2)SC1=S)c1ccc(-c2c3nc(c(-c4cc(S(=O)(=O)[O-])ccc4F)c4ccc([nH]4)c(-c4cc(S(=O)(=O)[O-])ccc4F)c4nc(c(-c5cc(S(=O)(=O)[O-])ccc5F)c5ccc2[nH]5)C=C4)C=C3)cc1
REMARK SMILES IDX 5 1 4 2 3 3 2 4 1 5 34 6 35 7 96 8 36 9 95 10 37 11 38 12
REMARK SMILES IDX 39 13 89 14 40 15 94 16 88 17 90 18 41 19 93 20 87 21 86 22
REMARK SMILES IDX 42 24 74 25 54 26 73 27 55 28 58 29 72 30 91 31 56 32 57 33
REMARK SMILES IDX 71 35 92 36 59 37 43 38 44 39 52 40 45 41 51 42 53 43 50 44
REMARK SMILES IDX 46 45 47 46 48 47 49 48 75 49 76 50 84 51 77 52 83 53 85 54
REMARK SMILES IDX 82 55 78 56 79 57 80 58 81 59 60 60 61 61 69 62 62 63 68 64
REMARK SMILES IDX 70 65 67 66 63 67 64 68 65 69 66 70 6 71 7 72 8 73 9 74
REMARK SMILES IDX 10 75 11 76 12 77 13 78 14 79 15 80 19 81 16 82 18 83 17 84
REMARK SMILES IDX 20 85 21 86 32 87 22 88 23 89 31 90 33 91 24 92 25 93 26 94
REMARK SMILES IDX 30 95 27 96 29 97 28 98
REMARK H PARENT 90 23 58 34
REMARK Flexibility Score: inf
ROOT
ATOM      1  C   UNL A   1      35.234  21.407  24.699  1.00  0.00     0.202 C 
ENDROOT
BRANCH   1   2
ATOM      2  C   UNL A   1      36.766  21.497  24.549  1.00  0.00     0.261 C 
BRANCH   2   3
ATOM      3  O   UNL A   1      37.430  21.672  25.813  1.00  0.00    -0.460 OA
BRANCH   3   4
ATOM      4  C   UNL A   1      38.757  21.763  26.073  1.00  0.00     0.338 C 
ATOM      5  O   UNL A   1      39.445  20.751  25.937  1.00  0.00    -0.246 OA
BRANCH   4   6
ATOM      6  C   UNL A   1      39.412  23.000  26.598  1.00  0.00     0.060 A 
ATOM      7  C   UNL A   1      39.033  24.300  26.264  1.00  0.00     0.016 A 
ATOM      8  C   UNL A   1      40.420  22.844  27.562  1.00  0.00     0.016 A 
ATOM      9  C   UNL A   1      39.545  25.406  26.892  1.00  0.00     0.010 A 
ATOM     10  C   UNL A   1      41.018  23.961  28.151  1.00  0.00     0.010 A 
ATOM     11  C   UNL A   1      40.567  25.236  27.804  1.00  0.00    -0.014 A 
BRANCH  11  12
ATOM     12  C   UNL A   1      41.290  26.460  28.120  1.00  0.00     0.031 A 
ATOM     13  C   UNL A   1      40.562  27.463  28.950  1.00  0.00     0.074 A 
ATOM     14  C   UNL A   1      42.606  26.519  27.876  1.00  0.00     0.049 A 
ATOM     15  N   UNL A   1      40.916  28.662  29.302  1.00  0.00    -0.248 NA
ATOM     16  C   UNL A   1      39.249  27.039  29.475  1.00  0.00     0.031 C 
ATOM     17  C   UNL A   1      43.403  25.433  27.295  1.00  0.00     0.029 A 
ATOM     18  N   UNL A   1      43.506  27.517  28.102  1.00  0.00    -0.354 N 
ATOM     19  C   UNL A   1      39.851  29.158  30.043  1.00  0.00     0.074 A 
ATOM     20  C   UNL A   1      38.849  28.122  30.113  1.00  0.00     0.031 C 
ATOM     21  C   UNL A   1      44.674  25.847  27.172  1.00  0.00     0.029 A 
ATOM     22  C   UNL A   1      44.745  27.245  27.580  1.00  0.00     0.049 A 
ATOM     23  H   UNL A   1      43.289  28.344  28.589  1.00  0.00     0.167 HD
ATOM     24  C   UNL A   1      39.732  30.397  30.572  1.00  0.00     0.034 A 
ATOM     25  C   UNL A   1      45.777  28.083  27.377  1.00  0.00     0.034 A 
ATOM     26  C   UNL A   1      40.772  31.378  30.406  1.00  0.00     0.049 A 
ATOM     27  C   UNL A   1      45.578  29.509  27.823  1.00  0.00     0.074 A 
ATOM     28  C   UNL A   1      40.786  32.709  30.765  1.00  0.00     0.029 A 
ATOM     29  N   UNL A   1      42.000  31.113  29.794  1.00  0.00    -0.354 N 
ATOM     30  N   UNL A   1      44.525  30.046  28.406  1.00  0.00    -0.248 NA
ATOM     31  C   UNL A   1      46.678  30.442  27.582  1.00  0.00     0.031 C 
ATOM     32  C   UNL A   1      41.984  33.264  30.300  1.00  0.00     0.029 A 
ATOM     33  C   UNL A   1      42.764  32.260  29.735  1.00  0.00     0.049 A 
ATOM     34  H   UNL A   1      42.279  30.233  29.453  1.00  0.00     0.167 HD
ATOM     35  C   UNL A   1      44.844  31.378  28.626  1.00  0.00     0.074 A 
ATOM     36  C   UNL A   1      46.192  31.560  28.109  1.00  0.00     0.031 C 
ATOM     37  C   UNL A   1      44.109  32.364  29.204  1.00  0.00     0.034 A 
BRANCH  24  38
ATOM     38  C   UNL A   1      38.394  30.743  31.181  1.00  0.00     0.023 A 
ATOM     39  C   UNL A   1      37.331  31.255  30.414  1.00  0.00     0.031 A 
ATOM     40  C   UNL A   1      38.244  30.731  32.580  1.00  0.00     0.131 A 
ATOM     41  C   UNL A   1      36.228  31.847  31.053  1.00  0.00     0.055 A 
ATOM     42  C   UNL A   1      37.098  31.227  33.204  1.00  0.00     0.041 A 
ATOM     43  F   UNL A   1      39.237  30.295  33.370  1.00  0.00    -0.206 F 
ATOM     44  C   UNL A   1      36.092  31.812  32.442  1.00  0.00     0.022 A 
BRANCH  41  45
ATOM     45  S   UNL A   1      35.095  32.865  30.062  1.00  0.00     0.124 S 
ATOM     46  O   UNL A   1      34.145  33.321  31.075  1.00  0.00    -0.237 OA
ATOM     47  O   UNL A   1      35.982  33.884  29.514  1.00  0.00    -0.237 OA
ATOM     48  O   UNL A   1      34.547  31.923  29.088  1.00  0.00    -0.744 OA
ENDBRANCH  41  45
ENDBRANCH  24  38
BRANCH  25  49
ATOM     49  C   UNL A   1      46.977  27.619  26.628  1.00  0.00     0.023 A 
ATOM     50  C   UNL A   1      47.112  27.816  25.248  1.00  0.00     0.031 A 
ATOM     51  C   UNL A   1      48.040  26.987  27.308  1.00  0.00     0.131 A 
ATOM     52  C   UNL A   1      48.274  27.377  24.590  1.00  0.00     0.055 A 
ATOM     53  C   UNL A   1      49.212  26.597  26.659  1.00  0.00     0.041 A 
ATOM     54  F   UNL A   1      47.967  26.770  28.631  1.00  0.00    -0.206 F 
ATOM     55  C   UNL A   1      49.331  26.785  25.288  1.00  0.00     0.022 A 
BRANCH  52  56
ATOM     56  S   UNL A   1      48.372  27.545  22.786  1.00  0.00     0.124 S 
ATOM     57  O   UNL A   1      48.478  26.153  22.364  1.00  0.00    -0.237 OA
ATOM     58  O   UNL A   1      47.116  28.217  22.475  1.00  0.00    -0.237 OA
ATOM     59  O   UNL A   1      49.575  28.351  22.583  1.00  0.00    -0.744 OA
ENDBRANCH  52  56
ENDBRANCH  25  49
BRANCH  37  60
ATOM     60  C   UNL A   1      44.780  33.699  29.365  1.00  0.00     0.023 A 
ATOM     61  C   UNL A   1      44.592  34.737  28.442  1.00  0.00     0.031 A 
ATOM     62  C   UNL A   1      45.569  33.941  30.504  1.00  0.00     0.131 A 
ATOM     63  C   UNL A   1      45.212  35.973  28.662  1.00  0.00     0.055 A 
ATOM     64  C   UNL A   1      46.132  35.191  30.747  1.00  0.00     0.041 A 
ATOM     65  F   UNL A   1      45.773  32.972  31.412  1.00  0.00    -0.206 F 
ATOM     66  C   UNL A   1      45.960  36.213  29.819  1.00  0.00     0.022 A 
BRANCH  63  67
ATOM     67  S   UNL A   1      45.074  37.252  27.386  1.00  0.00     0.124 S 
ATOM     68  O   UNL A   1      46.186  36.917  26.503  1.00  0.00    -0.237 OA
ATOM     69  O   UNL A   1      43.739  37.016  26.848  1.00  0.00    -0.237 OA
ATOM     70  O   UNL A   1      45.229  38.498  28.134  1.00  0.00    -0.744 OA
ENDBRANCH  63  67
ENDBRANCH  37  60
ENDBRANCH  11  12
ENDBRANCH   4   6
ENDBRANCH   3   4
ENDBRANCH   2   3
ENDBRANCH   1   2
BRANCH   1  71
ATOM     71  O   UNL A   1      34.422  22.282  23.913  1.00  0.00    -0.374 OA
BRANCH  71  72
ATOM     72  C   UNL A   1      33.012  22.014  23.871  1.00  0.00     0.202 C 
BRANCH  72  73
ATOM     73  C   UNL A   1      32.379  22.689  22.676  1.00  0.00     0.261 C 
BRANCH  73  74
ATOM     74  O   UNL A   1      33.044  23.949  22.572  1.00  0.00    -0.462 OA
BRANCH  74  75
ATOM     75  C   UNL A   1      32.264  25.028  22.362  1.00  0.00     0.329 C 
ATOM     76  O   UNL A   1      32.065  25.569  21.281  1.00  0.00    -0.250 OA
BRANCH  75  77
ATOM     77  C   UNL A   1      31.783  25.607  23.679  1.00  0.00     0.206 C 
BRANCH  77  78
ATOM     78  C   UNL A   1      32.577  25.472  25.001  1.00  0.00     0.073 C 
BRANCH  78  79
ATOM     79  C   UNL A   1      32.669  26.651  25.935  1.00  0.00    -0.045 A 
ATOM     80  C   UNL A   1      33.827  27.440  25.995  1.00  0.00     0.004 A 
ATOM     81  C   UNL A   1      31.604  26.980  26.776  1.00  0.00     0.004 A 
ATOM     82  C   UNL A   1      33.874  28.594  26.775  1.00  0.00     0.000 A 
ATOM     83  C   UNL A   1      31.640  28.144  27.546  1.00  0.00     0.000 A 
ATOM     84  C   UNL A   1      32.767  28.961  27.530  1.00  0.00     0.000 A 
ENDBRANCH  78  79
ENDBRANCH  77  78
BRANCH  77  85
ATOM     85  N   UNL A   1      31.197  26.926  23.432  1.00  0.00    -0.278 N 
ATOM     86  C   UNL A   1      29.818  27.023  23.539  1.00  0.00     0.267 C 
ATOM     87  C   UNL A   1      31.873  28.098  23.129  1.00  0.00     0.149 C 
ATOM     88  O   UNL A   1      29.036  26.137  23.841  1.00  0.00    -0.268 OA
ATOM     89  C   UNL A   1      29.406  28.405  23.238  1.00  0.00     0.081 C 
ATOM     90  S   UNL A   1      30.773  29.444  23.317  1.00  0.00    -0.054 SA
ATOM     91  S   UNL A   1      33.420  28.404  22.594  1.00  0.00    -0.052 S 
ATOM     92  C   UNL A   1      28.169  28.743  22.857  1.00  0.00     0.029 C 
BRANCH  92  93
ATOM     93  C   UNL A   1      27.913  30.126  22.461  1.00  0.00    -0.021 A 
ATOM     94  C   UNL A   1      28.038  30.494  21.120  1.00  0.00     0.028 A 
ATOM     95  C   UNL A   1      27.829  31.108  23.445  1.00  0.00     0.028 A 
ATOM     96  C   UNL A   1      28.120  31.841  20.825  1.00  0.00     0.111 A 
ATOM     97  C   UNL A   1      27.909  32.427  23.042  1.00  0.00     0.111 A 
ATOM     98  N   UNL A   1      28.053  32.817  21.756  1.00  0.00    -0.265 NA
ENDBRANCH  92  93
ENDBRANCH  77  85
ENDBRANCH  75  77
ENDBRANCH  74  75
ENDBRANCH  73  74
ENDBRANCH  72  73
ENDBRANCH  71  72
ENDBRANCH   1  71
TORSDOF 21
ENDMDL
MODEL 2
REMARK VINA RESULT:     -12.3      1.929      2.366
REMARK SMILES O=C(OCCOCCOC(=O)[C@@H](Cc1ccccc1)N1C(=O)/C(=C/c2ccncc2)SC1=S)c1ccc(-c2c3nc(c(-c4cc(S(=O)(=O)[O-])ccc4F)c4ccc([nH]4)c(-c4cc(S(=O)(=O)[O-])ccc4F)c4nc(c(-c5cc(S(=O)(=O)[O-])ccc5F)c5ccc2[nH]5)C=C4)C=C3)cc1
REMARK SMILES IDX 5 1 4 2 3 3 2 4 1 5 34 6 35 7 96 8 36 9 95 10 37 11 38 12
REMARK SMILES IDX 39 13 89 14 40 15 94 16 88 17 90 18 41 19 93 20 87 21 86 22
REMARK SMILES IDX 42 24 74 25 54 26 73 27 55 28 58 29 72 30 91 31 56 32 57 33
REMARK SMILES IDX 71 35 92 36 59 37 43 38 44 39 52 40 45 41 51 42 53 43 50 44
REMARK SMILES IDX 46 45 47 46 48 47 49 48 75 49 76 50 84 51 77 52 83 53 85 54
REMARK SMILES IDX 82 55 78 56 79 57 80 58 81 59 60 60 61 61 69 62 62 63 68 64
REMARK SMILES IDX 70 65 67 66 63 67 64 68 65 69 66 70 6 71 7 72 8 73 9 74
REMARK SMILES IDX 10 75 11 76 12 77 13 78 14 79 15 80 19 81 16 82 18 83 17 84
REMARK SMILES IDX 20 85 21 86 32 87 22 88 23 89 31 90 33 91 24 92 25 93 26 94
REMARK SMILES IDX 30 95 27 96 29 97 28 98
REMARK H PARENT 90 23 58 34
REMARK Flexibility Score: inf
ROOT
ATOM      1  C   UNL A   1      35.443  21.430  24.329  1.00  0.00     0.202 C 
ENDROOT
BRANCH   1   2
ATOM      2  C   UNL A   1      36.978  21.582  24.337  1.00  0.00     0.261 C 
BRANCH   2   3
ATOM      3  O   UNL A   1      37.539  21.399  25.649  1.00  0.00    -0.460 OA
BRANCH   3   4
ATOM      4  C   UNL A   1      38.834  21.471  26.039  1.00  0.00     0.338 C 
ATOM      5  O   UNL A   1      39.496  20.432  26.048  1.00  0.00    -0.246 OA
BRANCH   4   6
ATOM      6  C   UNL A   1      39.477  22.724  26.540  1.00  0.00     0.060 A 
ATOM      7  C   UNL A   1      39.130  24.011  26.130  1.00  0.00     0.016 A 
ATOM      8  C   UNL A   1      40.433  22.603  27.561  1.00  0.00     0.016 A 
ATOM      9  C   UNL A   1      39.622  25.140  26.733  1.00  0.00     0.010 A 
ATOM     10  C   UNL A   1      41.014  23.740  28.128  1.00  0.00     0.010 A 
ATOM     11  C   UNL A   1      40.595  25.002  27.702  1.00  0.00    -0.014 A 
BRANCH  11  12
ATOM     12  C   UNL A   1      41.315  26.233  27.999  1.00  0.00     0.031 A 
ATOM     13  C   UNL A   1      40.592  27.239  28.829  1.00  0.00     0.074 A 
ATOM     14  C   UNL A   1      42.628  26.296  27.738  1.00  0.00     0.049 A 
ATOM     15  N   UNL A   1      40.944  28.443  29.166  1.00  0.00    -0.248 NA
ATOM     16  C   UNL A   1      39.288  26.812  29.373  1.00  0.00     0.031 C 
ATOM     17  C   UNL A   1      43.424  25.209  27.157  1.00  0.00     0.029 A 
ATOM     18  N   UNL A   1      43.525  27.301  27.945  1.00  0.00    -0.354 N 
ATOM     19  C   UNL A   1      39.885  28.939  29.916  1.00  0.00     0.074 A 
ATOM     20  C   UNL A   1      38.890  27.898  30.007  1.00  0.00     0.031 C 
ATOM     21  C   UNL A   1      44.691  25.629  27.016  1.00  0.00     0.029 A 
ATOM     22  C   UNL A   1      44.760  27.030  27.411  1.00  0.00     0.049 A 
ATOM     23  H   UNL A   1      43.310  28.131  28.428  1.00  0.00     0.167 HD
ATOM     24  C   UNL A   1      39.766  30.182  30.435  1.00  0.00     0.034 A 
ATOM     25  C   UNL A   1      45.784  27.873  27.188  1.00  0.00     0.034 A 
ATOM     26  C   UNL A   1      40.798  31.167  30.249  1.00  0.00     0.049 A 
ATOM     27  C   UNL A   1      45.584  29.301  27.625  1.00  0.00     0.074 A 
ATOM     28  C   UNL A   1      40.810  32.501  30.597  1.00  0.00     0.029 A 
ATOM     29  N   UNL A   1      42.020  30.903  29.625  1.00  0.00    -0.354 N 
ATOM     30  N   UNL A   1      44.535  29.838  28.216  1.00  0.00    -0.248 NA
ATOM     31  C   UNL A   1      46.676  30.238  27.363  1.00  0.00     0.031 C 
ATOM     32  C   UNL A   1      42.000  33.058  30.113  1.00  0.00     0.029 A 
ATOM     33  C   UNL A   1      42.778  32.054  29.547  1.00  0.00     0.049 A 
ATOM     34  H   UNL A   1      42.300  30.021  29.288  1.00  0.00     0.167 HD
ATOM     35  C   UNL A   1      44.849  31.173  28.420  1.00  0.00     0.074 A 
ATOM     36  C   UNL A   1      46.190  31.357  27.886  1.00  0.00     0.031 C 
ATOM     37  C   UNL A   1      44.115  32.160  28.999  1.00  0.00     0.034 A 
BRANCH  24  38
ATOM     38  C   UNL A   1      38.434  30.526  31.058  1.00  0.00     0.023 A 
ATOM     39  C   UNL A   1      37.401  31.143  30.326  1.00  0.00     0.031 A 
ATOM     40  C   UNL A   1      38.264  30.401  32.449  1.00  0.00     0.131 A 
ATOM     41  C   UNL A   1      36.312  31.720  31.002  1.00  0.00     0.055 A 
ATOM     42  C   UNL A   1      37.128  30.886  33.101  1.00  0.00     0.041 A 
ATOM     43  F   UNL A   1      39.229  29.861  33.209  1.00  0.00    -0.206 F 
ATOM     44  C   UNL A   1      36.156  31.572  32.381  1.00  0.00     0.022 A 
BRANCH  41  45
ATOM     45  S   UNL A   1      35.232  32.861  30.089  1.00  0.00     0.124 S 
ATOM     46  O   UNL A   1      34.494  33.502  31.176  1.00  0.00    -0.237 OA
ATOM     47  O   UNL A   1      36.188  33.705  29.383  1.00  0.00    -0.237 OA
ATOM     48  O   UNL A   1      34.433  31.978  29.243  1.00  0.00    -0.744 OA
ENDBRANCH  41  45
ENDBRANCH  24  38
BRANCH  25  49
ATOM     49  C   UNL A   1      46.978  27.408  26.429  1.00  0.00     0.023 A 
ATOM     50  C   UNL A   1      48.061  26.782  27.060  1.00  0.00     0.031 A 
ATOM     51  C   UNL A   1      47.035  27.562  25.027  1.00  0.00     0.131 A 
ATOM     52  C   UNL A   1      49.156  26.344  26.297  1.00  0.00     0.055 A 
ATOM     53  C   UNL A   1      48.103  27.082  24.269  1.00  0.00     0.041 A 
ATOM     54  F   UNL A   1      46.028  28.156  24.367  1.00  0.00    -0.206 F 
ATOM     55  C   UNL A   1      49.177  26.473  24.905  1.00  0.00     0.022 A 
BRANCH  52  56
ATOM     56  S   UNL A   1      50.591  25.638  27.154  1.00  0.00     0.124 S 
ATOM     57  O   UNL A   1      50.067  24.353  27.602  1.00  0.00    -0.237 OA
ATOM     58  O   UNL A   1      51.587  25.590  26.089  1.00  0.00    -0.237 OA
ATOM     59  O   UNL A   1      50.864  26.605  28.217  1.00  0.00    -0.744 OA
ENDBRANCH  52  56
ENDBRANCH  25  49
BRANCH  37  60
ATOM     60  C   UNL A   1      44.782  33.499  29.140  1.00  0.00     0.023 A 
ATOM     61  C   UNL A   1      45.573  33.818  30.252  1.00  0.00     0.031 A 
ATOM     62  C   UNL A   1      44.666  34.440  28.101  1.00  0.00     0.131 A 
ATOM     63  C   UNL A   1      46.203  35.067  30.313  1.00  0.00     0.055 A 
ATOM     64  C   UNL A   1      45.343  35.655  28.139  1.00  0.00     0.041 A 
ATOM     65  F   UNL A   1      43.917  34.173  27.018  1.00  0.00    -0.206 F 
ATOM     66  C   UNL A   1      46.113  35.977  29.254  1.00  0.00     0.022 A 
BRANCH  63  67
ATOM     67  S   UNL A   1      47.101  35.514  31.821  1.00  0.00     0.124 S 
ATOM     68  O   UNL A   1      46.189  35.053  32.862  1.00  0.00    -0.237 OA
ATOM     69  O   UNL A   1      48.343  34.761  31.682  1.00  0.00    -0.237 OA
ATOM     70  O   UNL A   1      47.242  36.966  31.717  1.00  0.00    -0.744 OA
ENDBRANCH  63  67
ENDBRANCH  37  60
ENDBRANCH  11  12
ENDBRANCH   4   6
ENDBRANCH   3   4
ENDBRANCH   2   3
ENDBRANCH   1   2
BRANCH   1  71
ATOM     71  O   UNL A   1      34.675  22.331  23.528  1.00  0.00    -0.374 OA
BRANCH  71  72
ATOM     72  C   UNL A   1      33.267  22.076  23.414  1.00  0.00     0.202 C 
BRANCH  72  73
ATOM     73  C   UNL A   1      32.612  23.109  22.527  1.00  0.00     0.261 C 
BRANCH  73  74
ATOM     74  O   UNL A   1      33.647  24.047  22.230  1.00  0.00    -0.462 OA
BRANCH  74  75
ATOM     75  C   UNL A   1      33.303  25.351  22.242  1.00  0.00     0.329 C 
ATOM     76  O   UNL A   1      33.477  26.146  21.326  1.00  0.00    -0.250 OA
BRANCH  75  77
ATOM     77  C   UNL A   1      32.815  25.764  23.616  1.00  0.00     0.206 C 
BRANCH  77  78
ATOM     78  C   UNL A   1      33.703  25.700  24.883  1.00  0.00     0.073 C 
BRANCH  78  79
ATOM     79  C   UNL A   1      33.452  24.630  25.913  1.00  0.00    -0.045 A 
ATOM     80  C   UNL A   1      32.149  24.276  26.288  1.00  0.00     0.004 A 
ATOM     81  C   UNL A   1      34.517  23.971  26.531  1.00  0.00     0.004 A 
ATOM     82  C   UNL A   1      31.912  23.211  27.157  1.00  0.00     0.000 A 
ATOM     83  C   UNL A   1      34.285  22.893  27.387  1.00  0.00     0.000 A 
ATOM     84  C   UNL A   1      32.983  22.501  27.685  1.00  0.00     0.000 A 
ENDBRANCH  78  79
ENDBRANCH  77  78
BRANCH  77  85
ATOM     85  N   UNL A   1      31.995  26.971  23.487  1.00  0.00    -0.278 N 
ATOM     86  C   UNL A   1      30.623  26.786  23.424  1.00  0.00     0.267 C 
ATOM     87  C   UNL A   1      32.440  28.283  23.447  1.00  0.00     0.149 C 
ATOM     88  O   UNL A   1      30.015  25.730  23.491  1.00  0.00    -0.268 OA
ATOM     89  C   UNL A   1      29.965  28.096  23.274  1.00  0.00     0.081 C 
ATOM     90  S   UNL A   1      31.072  29.347  23.679  1.00  0.00    -0.054 SA
ATOM     91  S   UNL A   1      33.936  28.962  23.170  1.00  0.00    -0.052 S 
ATOM     92  C   UNL A   1      28.729  28.252  22.785  1.00  0.00     0.029 C 
BRANCH  92  93
ATOM     93  C   UNL A   1      28.233  29.608  22.562  1.00  0.00    -0.021 A 
ATOM     94  C   UNL A   1      28.551  30.272  21.376  1.00  0.00     0.028 A 
ATOM     95  C   UNL A   1      27.698  30.319  23.633  1.00  0.00     0.028 A 
ATOM     96  C   UNL A   1      28.360  31.640  21.330  1.00  0.00     0.111 A 
ATOM     97  C   UNL A   1      27.537  31.683  23.480  1.00  0.00     0.111 A 
ATOM     98  N   UNL A   1      27.856  32.360  22.355  1.00  0.00    -0.265 NA
ENDBRANCH  92  93
ENDBRANCH  77  85
ENDBRANCH  75  77
ENDBRANCH  74  75
ENDBRANCH  73  74
ENDBRANCH  72  73
ENDBRANCH  71  72
ENDBRANCH   1  71
TORSDOF 21
ENDMDL
MODEL 3
REMARK VINA RESULT:     -12.1      1.666      7.559
REMARK SMILES O=C(OCCOCCOC(=O)[C@@H](Cc1ccccc1)N1C(=O)/C(=C/c2ccncc2)SC1=S)c1ccc(-c2c3nc(c(-c4cc(S(=O)(=O)[O-])ccc4F)c4ccc([nH]4)c(-c4cc(S(=O)(=O)[O-])ccc4F)c4nc(c(-c5cc(S(=O)(=O)[O-])ccc5F)c5ccc2[nH]5)C=C4)C=C3)cc1
REMARK SMILES IDX 5 1 4 2 3 3 2 4 1 5 34 6 35 7 96 8 36 9 95 10 37 11 38 12
REMARK SMILES IDX 39 13 89 14 40 15 94 16 88 17 90 18 41 19 93 20 87 21 86 22
REMARK SMILES IDX 42 24 74 25 54 26 73 27 55 28 58 29 72 30 91 31 56 32 57 33
REMARK SMILES IDX 71 35 92 36 59 37 43 38 44 39 52 40 45 41 51 42 53 43 50 44
REMARK SMILES IDX 46 45 47 46 48 47 49 48 75 49 76 50 84 51 77 52 83 53 85 54
REMARK SMILES IDX 82 55 78 56 79 57 80 58 81 59 60 60 61 61 69 62 62 63 68 64
REMARK SMILES IDX 70 65 67 66 63 67 64 68 65 69 66 70 6 71 7 72 8 73 9 74
REMARK SMILES IDX 10 75 11 76 12 77 13 78 14 79 15 80 19 81 16 82 18 83 17 84
REMARK SMILES IDX 20 85 21 86 32 87 22 88 23 89 31 90 33 91 24 92 25 93 26 94
REMARK SMILES IDX 30 95 27 96 29 97 28 98
REMARK H PARENT 90 23 58 34
REMARK Flexibility Score: inf
ROOT
ATOM      1  C   UNL A   1      35.648  21.295  24.494  1.00  0.00     0.202 C 
ENDROOT
BRANCH   1   2
ATOM      2  C   UNL A   1      37.187  21.380  24.446  1.00  0.00     0.261 C 
BRANCH   2   3
ATOM      3  O   UNL A   1      37.785  21.217  25.744  1.00  0.00    -0.460 OA
BRANCH   3   4
ATOM      4  C   UNL A   1      39.079  21.379  26.112  1.00  0.00     0.338 C 
ATOM      5  O   UNL A   1      39.806  20.385  26.128  1.00  0.00    -0.246 OA
BRANCH   4   6
ATOM      6  C   UNL A   1      39.648  22.679  26.581  1.00  0.00     0.060 A 
ATOM      7  C   UNL A   1      39.161  23.934  26.216  1.00  0.00     0.016 A 
ATOM      8  C   UNL A   1      40.687  22.633  27.524  1.00  0.00     0.016 A 
ATOM      9  C   UNL A   1      39.599  25.097  26.797  1.00  0.00     0.010 A 
ATOM     10  C   UNL A   1      41.209  23.812  28.062  1.00  0.00     0.010 A 
ATOM     11  C   UNL A   1      40.651  25.037  27.687  1.00  0.00    -0.014 A 
BRANCH  11  12
ATOM     12  C   UNL A   1      41.284  26.323  27.946  1.00  0.00     0.031 A 
ATOM     13  C   UNL A   1      42.653  26.511  27.384  1.00  0.00     0.074 A 
ATOM     14  C   UNL A   1      40.543  27.324  28.439  1.00  0.00     0.049 A 
ATOM     15  N   UNL A   1      43.481  27.501  27.533  1.00  0.00    -0.248 NA
ATOM     16  C   UNL A   1      43.148  25.431  26.510  1.00  0.00     0.031 C 
ATOM     17  C   UNL A   1      39.114  27.236  28.756  1.00  0.00     0.029 A 
ATOM     18  N   UNL A   1      40.878  28.610  28.738  1.00  0.00    -0.354 N 
ATOM     19  C   UNL A   1      44.616  27.141  26.818  1.00  0.00     0.074 A 
ATOM     20  C   UNL A   1      44.361  25.856  26.213  1.00  0.00     0.031 C 
ATOM     21  C   UNL A   1      38.706  28.416  29.249  1.00  0.00     0.029 A 
ATOM     22  C   UNL A   1      39.864  29.294  29.360  1.00  0.00     0.049 A 
ATOM     23  H   UNL A   1      41.755  29.007  28.529  1.00  0.00     0.167 HD
ATOM     24  C   UNL A   1      45.776  27.831  26.728  1.00  0.00     0.034 A 
ATOM     25  C   UNL A   1      39.919  30.461  30.026  1.00  0.00     0.034 A 
ATOM     26  C   UNL A   1      45.948  29.088  27.409  1.00  0.00     0.049 A 
ATOM     27  C   UNL A   1      41.259  31.150  30.060  1.00  0.00     0.074 A 
ATOM     28  C   UNL A   1      47.076  29.871  27.532  1.00  0.00     0.029 A 
ATOM     29  N   UNL A   1      44.929  29.734  28.114  1.00  0.00    -0.354 N 
ATOM     30  N   UNL A   1      42.392  30.767  29.507  1.00  0.00    -0.248 NA
ATOM     31  C   UNL A   1      41.344  32.405  30.805  1.00  0.00     0.031 C 
ATOM     32  C   UNL A   1      46.760  30.944  28.374  1.00  0.00     0.029 A 
ATOM     33  C   UNL A   1      45.410  30.887  28.701  1.00  0.00     0.049 A 
ATOM     34  H   UNL A   1      44.002  29.412  28.183  1.00  0.00     0.167 HD
ATOM     35  C   UNL A   1      43.323  31.747  29.816  1.00  0.00     0.074 A 
ATOM     36  C   UNL A   1      42.614  32.741  30.607  1.00  0.00     0.031 C 
ATOM     37  C   UNL A   1      44.637  31.836  29.478  1.00  0.00     0.034 A 
BRANCH  24  38
ATOM     38  C   UNL A   1      46.921  27.135  26.032  1.00  0.00     0.023 A 
ATOM     39  C   UNL A   1      47.863  26.358  26.732  1.00  0.00     0.031 A 
ATOM     40  C   UNL A   1      47.175  27.403  24.675  1.00  0.00     0.131 A 
ATOM     41  C   UNL A   1      49.068  25.989  26.110  1.00  0.00     0.055 A 
ATOM     42  C   UNL A   1      48.328  26.944  24.034  1.00  0.00     0.041 A 
ATOM     43  F   UNL A   1      46.338  28.173  23.962  1.00  0.00    -0.206 F 
ATOM     44  C   UNL A   1      49.295  26.254  24.758  1.00  0.00     0.022 A 
BRANCH  41  45
ATOM     45  S   UNL A   1      50.426  25.370  27.147  1.00  0.00     0.124 S 
ATOM     46  O   UNL A   1      51.377  24.903  26.141  1.00  0.00    -0.237 OA
ATOM     47  O   UNL A   1      50.820  26.557  27.894  1.00  0.00    -0.237 OA
ATOM     48  O   UNL A   1      49.801  24.312  27.938  1.00  0.00    -0.744 OA
ENDBRANCH  41  45
ENDBRANCH  24  38
BRANCH  25  49
ATOM     49  C   UNL A   1      38.731  30.942  30.784  1.00  0.00     0.023 A 
ATOM     50  C   UNL A   1      37.725  31.707  30.180  1.00  0.00     0.031 A 
ATOM     51  C   UNL A   1      38.572  30.607  32.146  1.00  0.00     0.131 A 
ATOM     52  C   UNL A   1      36.613  32.120  30.934  1.00  0.00     0.055 A 
ATOM     53  C   UNL A   1      37.444  30.979  32.877  1.00  0.00     0.041 A 
ATOM     54  F   UNL A   1      39.505  29.878  32.780  1.00  0.00    -0.206 F 
ATOM     55  C   UNL A   1      36.458  31.747  32.272  1.00  0.00     0.022 A 
BRANCH  52  56
ATOM     56  S   UNL A   1      35.383  33.201  30.155  1.00  0.00     0.124 S 
ATOM     57  O   UNL A   1      34.551  32.238  29.441  1.00  0.00    -0.237 OA
ATOM     58  O   UNL A   1      34.770  33.847  31.310  1.00  0.00    -0.237 OA
ATOM     59  O   UNL A   1      36.187  34.079  29.306  1.00  0.00    -0.744 OA
ENDBRANCH  52  56
ENDBRANCH  25  49
BRANCH  37  60
ATOM     60  C   UNL A   1      45.360  33.080  29.909  1.00  0.00     0.023 A 
ATOM     61  C   UNL A   1      45.363  34.242  29.126  1.00  0.00     0.031 A 
ATOM     62  C   UNL A   1      45.998  33.108  31.162  1.00  0.00     0.131 A 
ATOM     63  C   UNL A   1      46.020  35.386  29.595  1.00  0.00     0.055 A 
ATOM     64  C   UNL A   1      46.597  34.266  31.649  1.00  0.00     0.041 A 
ATOM     65  F   UNL A   1      46.017  32.015  31.943  1.00  0.00    -0.206 F 
ATOM     66  C   UNL A   1      46.616  35.412  30.861  1.00  0.00     0.022 A 
BRANCH  63  67
ATOM     67  S   UNL A   1      46.136  36.829  28.505  1.00  0.00     0.124 S 
ATOM     68  O   UNL A   1      45.503  36.336  27.286  1.00  0.00    -0.237 OA
ATOM     69  O   UNL A   1      45.392  37.842  29.245  1.00  0.00    -0.237 OA
ATOM     70  O   UNL A   1      47.575  37.066  28.405  1.00  0.00    -0.744 OA
ENDBRANCH  63  67
ENDBRANCH  37  60
ENDBRANCH  11  12
ENDBRANCH   4   6
ENDBRANCH   3   4
ENDBRANCH   2   3
ENDBRANCH   1   2
BRANCH   1  71
ATOM     71  O   UNL A   1      34.892  22.198  23.685  1.00  0.00    -0.374 OA
BRANCH  71  72
ATOM     72  C   UNL A   1      33.490  21.928  23.529  1.00  0.00     0.202 C 
BRANCH  72  73
ATOM     73  C   UNL A   1      32.870  22.896  22.548  1.00  0.00     0.261 C 
BRANCH  73  74
ATOM     74  O   UNL A   1      33.828  23.947  22.414  1.00  0.00    -0.462 OA
BRANCH  74  75
ATOM     75  C   UNL A   1      33.343  25.204  22.369  1.00  0.00     0.329 C 
ATOM     76  O   UNL A   1      33.398  25.958  21.406  1.00  0.00    -0.250 OA
BRANCH  75  77
ATOM     77  C   UNL A   1      32.860  25.641  23.738  1.00  0.00     0.206 C 
BRANCH  77  78
ATOM     78  C   UNL A   1      33.743  25.569  25.009  1.00  0.00     0.073 C 
BRANCH  78  79
ATOM     79  C   UNL A   1      33.484  24.495  26.033  1.00  0.00    -0.045 A 
ATOM     80  C   UNL A   1      32.178  24.147  26.405  1.00  0.00     0.004 A 
ATOM     81  C   UNL A   1      34.544  23.825  26.647  1.00  0.00     0.004 A 
ATOM     82  C   UNL A   1      31.933  23.079  27.267  1.00  0.00     0.000 A 
ATOM     83  C   UNL A   1      34.304  22.744  27.498  1.00  0.00     0.000 A 
ATOM     84  C   UNL A   1      32.999  22.359  27.792  1.00  0.00     0.000 A 
ENDBRANCH  78  79
ENDBRANCH  77  78
BRANCH  77  85
ATOM     85  N   UNL A   1      32.070  26.866  23.594  1.00  0.00    -0.278 N 
ATOM     86  C   UNL A   1      30.698  26.708  23.473  1.00  0.00     0.267 C 
ATOM     87  C   UNL A   1      32.541  28.170  23.593  1.00  0.00     0.149 C 
ATOM     88  O   UNL A   1      30.068  25.664  23.498  1.00  0.00    -0.268 OA
ATOM     89  C   UNL A   1      30.071  28.033  23.316  1.00  0.00     0.081 C 
ATOM     90  S   UNL A   1      31.184  29.256  23.786  1.00  0.00    -0.054 SA
ATOM     91  S   UNL A   1      34.059  28.823  23.388  1.00  0.00    -0.052 S 
ATOM     92  C   UNL A   1      28.860  28.221  22.780  1.00  0.00     0.029 C 
BRANCH  92  93
ATOM     93  C   UNL A   1      28.399  29.589  22.558  1.00  0.00    -0.021 A 
ATOM     94  C   UNL A   1      28.958  30.346  21.527  1.00  0.00     0.028 A 
ATOM     95  C   UNL A   1      27.627  30.211  23.536  1.00  0.00     0.028 A 
ATOM     96  C   UNL A   1      28.756  31.713  21.547  1.00  0.00     0.111 A 
ATOM     97  C   UNL A   1      27.477  31.582  23.457  1.00  0.00     0.111 A 
ATOM     98  N   UNL A   1      28.023  32.348  22.486  1.00  0.00    -0.265 NA
ENDBRANCH  92  93
ENDBRANCH  77  85
ENDBRANCH  75  77
ENDBRANCH  74  75
ENDBRANCH  73  74
ENDBRANCH  72  73
ENDBRANCH  71  72
ENDBRANCH   1  71
TORSDOF 21
ENDMDL
