MODEL 1
REMARK VINA RESULT:     -11.7      0.000      0.000
REMARK SMILES Cn1c(=O)c2c(-c3ccc(Cl)cc3)n(CC(=O)OCCOCCOC(=O)c3ccc(-c4c5nc(c(-c6cc(S(=O)(=O)[O-])ccc6F)c6ccc([nH]6)c(-c6cc(S(=O)(=O)[O-])ccc6F)c6nc(c(-c7cc(S(=O)(=O)[O-])ccc7F)c7ccc4[nH]7)C=C6)C=C5)cc3)cc2n(C)c1=O
REMARK SMILES IDX 22 1 21 2 20 3 19 4 18 5 16 6 17 7 15 8 14 9 1 10 2 11 3 12
REMARK SMILES IDX 94 13 4 14 5 15 92 16 95 17 6 18 91 19 93 20 90 21 7 22 8 23
REMARK SMILES IDX 13 24 9 25 12 26 10 27 11 28 23 29 24 30 25 31 26 32 27 33
REMARK SMILES IDX 28 34 89 35 29 36 88 37 30 38 31 39 32 40 82 41 33 42 87 43
REMARK SMILES IDX 81 44 83 45 34 46 86 47 80 48 79 49 35 51 67 52 47 53 66 54
REMARK SMILES IDX 48 55 51 56 65 57 84 58 49 59 50 60 64 62 85 63 52 64 36 65
REMARK SMILES IDX 37 66 45 67 38 68 44 69 46 70 43 71 39 72 40 73 41 74 42 75
REMARK SMILES IDX 68 76 69 77 77 78 70 79 76 80 78 81 75 82 71 83 72 84 73 85
REMARK SMILES IDX 74 86 53 87 54 88 62 89 55 90 61 91 63 92 60 93 56 94 57 95
REMARK SMILES IDX 58 96 59 97
REMARK H PARENT 83 50 51 61
REMARK Flexibility Score: inf
ROOT
ATOM      1  C   UNL A   1      32.015  30.472  26.579  1.00  0.00     0.202 C 
ENDROOT
BRANCH   1   2
ATOM      2  O   UNL A   1      31.823  29.113  26.959  1.00  0.00    -0.374 OA
BRANCH   2   3
ATOM      3  C   UNL A   1      31.254  28.204  26.021  1.00  0.00     0.202 C 
BRANCH   3   4
ATOM      4  C   UNL A   1      30.901  26.802  26.522  1.00  0.00     0.261 C 
BRANCH   4   5
ATOM      5  O   UNL A   1      30.400  25.939  25.481  1.00  0.00    -0.462 OA
BRANCH   5   6
ATOM      6  C   UNL A   1      30.403  24.614  25.777  1.00  0.00     0.326 C 
ATOM      7  O   UNL A   1      30.133  24.154  26.885  1.00  0.00    -0.250 OA
BRANCH   6   8
ATOM      8  C   UNL A   1      30.650  23.689  24.617  1.00  0.00     0.244 C 
BRANCH   8   9
ATOM      9  N   UNL A   1      31.930  22.990  24.528  1.00  0.00    -0.333 N 
ATOM     10  C   UNL A   1      37.566  21.173  24.342  1.00  0.00     0.158 C 
ATOM     11  N   UNL A   1      36.122  21.245  24.487  1.00  0.00    -0.263 N 
ATOM     12  C   UNL A   1      35.547  22.507  24.287  1.00  0.00     0.265 A 
ATOM     13  C   UNL A   1      35.446  20.064  24.840  1.00  0.00     0.330 A 
ATOM     14  O   UNL A   1      36.197  23.517  24.024  1.00  0.00    -0.268 OA
ATOM     15  C   UNL A   1      34.107  22.518  24.426  1.00  0.00     0.090 A 
ATOM     16  N   UNL A   1      34.051  20.134  24.956  1.00  0.00    -0.295 N 
ATOM     17  O   UNL A   1      36.051  19.011  25.045  1.00  0.00    -0.248 OA
ATOM     18  C   UNL A   1      33.183  23.555  24.313  1.00  0.00     0.064 A 
ATOM     19  C   UNL A   1      33.413  21.349  24.768  1.00  0.00     0.076 A 
ATOM     20  C   UNL A   1      33.313  18.906  25.216  1.00  0.00     0.155 C 
ATOM     21  C   UNL A   1      32.084  21.664  24.881  1.00  0.00     0.114 A 
BRANCH  18  22
ATOM     22  C   UNL A   1      33.402  24.975  24.036  1.00  0.00    -0.001 A 
ATOM     23  C   UNL A   1      33.108  25.505  22.771  1.00  0.00     0.012 A 
ATOM     24  C   UNL A   1      33.900  25.826  25.029  1.00  0.00     0.012 A 
ATOM     25  C   UNL A   1      33.374  26.844  22.481  1.00  0.00     0.021 A 
ATOM     26  C   UNL A   1      34.137  27.176  24.750  1.00  0.00     0.021 A 
ATOM     27  C   UNL A   1      33.890  27.674  23.472  1.00  0.00     0.041 A 
ATOM     28  Cl  UNL A   1      34.220  29.323  23.113  1.00  0.00    -0.084 Cl
ENDBRANCH  18  22
ENDBRANCH   8   9
ENDBRANCH   6   8
ENDBRANCH   5   6
ENDBRANCH   4   5
ENDBRANCH   3   4
ENDBRANCH   2   3
ENDBRANCH   1   2
BRANCH   1  29
ATOM     29  C   UNL A   1      33.031  31.308  27.347  1.00  0.00     0.261 C 
BRANCH  29  30
ATOM     30  O   UNL A   1      34.367  30.838  27.196  1.00  0.00    -0.460 OA
BRANCH  30  31
ATOM     31  C   UNL A   1      35.297  31.641  27.760  1.00  0.00     0.338 C 
ATOM     32  O   UNL A   1      35.382  32.857  27.626  1.00  0.00    -0.246 OA
BRANCH  31  33
ATOM     33  C   UNL A   1      36.302  30.829  28.449  1.00  0.00     0.060 A 
ATOM     34  C   UNL A   1      37.350  31.525  29.048  1.00  0.00     0.016 A 
ATOM     35  C   UNL A   1      36.346  29.436  28.284  1.00  0.00     0.016 A 
ATOM     36  C   UNL A   1      38.527  30.854  29.286  1.00  0.00     0.010 A 
ATOM     37  C   UNL A   1      37.528  28.766  28.517  1.00  0.00     0.010 A 
ATOM     38  C   UNL A   1      38.629  29.500  28.940  1.00  0.00    -0.014 A 
BRANCH  38  39
ATOM     39  C   UNL A   1      39.901  28.851  29.177  1.00  0.00     0.031 A 
ATOM     40  C   UNL A   1      40.191  28.701  30.618  1.00  0.00     0.074 A 
ATOM     41  C   UNL A   1      40.732  28.416  28.212  1.00  0.00     0.049 A 
ATOM     42  N   UNL A   1      41.009  29.420  31.308  1.00  0.00    -0.248 NA
ATOM     43  C   UNL A   1      39.328  27.828  31.425  1.00  0.00     0.031 C 
ATOM     44  C   UNL A   1      40.508  28.317  26.771  1.00  0.00     0.029 A 
ATOM     45  N   UNL A   1      41.979  27.895  28.360  1.00  0.00    -0.354 N 
ATOM     46  C   UNL A   1      40.944  28.929  32.602  1.00  0.00     0.074 A 
ATOM     47  C   UNL A   1      39.766  28.102  32.655  1.00  0.00     0.031 C 
ATOM     48  C   UNL A   1      41.489  27.561  26.220  1.00  0.00     0.029 A 
ATOM     49  C   UNL A   1      42.471  27.232  27.242  1.00  0.00     0.049 A 
ATOM     50  H   UNL A   1      42.494  27.982  29.195  1.00  0.00     0.167 HD
ATOM     51  C   UNL A   1      42.004  29.059  33.443  1.00  0.00     0.034 A 
ATOM     52  C   UNL A   1      43.571  26.427  27.199  1.00  0.00     0.034 A 
ATOM     53  C   UNL A   1      42.933  30.057  32.962  1.00  0.00     0.049 A 
ATOM     54  C   UNL A   1      44.456  26.884  28.308  1.00  0.00     0.074 A 
ATOM     55  C   UNL A   1      42.835  31.405  32.669  1.00  0.00     0.029 A 
ATOM     56  N   UNL A   1      44.075  29.625  32.324  1.00  0.00    -0.354 N 
ATOM     57  N   UNL A   1      45.010  28.069  28.328  1.00  0.00    -0.248 NA
ATOM     58  C   UNL A   1      44.294  26.256  29.613  1.00  0.00     0.031 C 
ATOM     59  C   UNL A   1      43.602  31.578  31.481  1.00  0.00     0.029 A 
ATOM     60  C   UNL A   1      44.192  30.353  31.165  1.00  0.00     0.049 A 
ATOM     61  H   UNL A   1      44.692  28.925  32.639  1.00  0.00     0.167 HD
ATOM     62  C   UNL A   1      44.862  28.513  29.634  1.00  0.00     0.074 A 
ATOM     63  C   UNL A   1      44.480  27.323  30.398  1.00  0.00     0.031 C 
ATOM     64  C   UNL A   1      44.772  29.842  29.937  1.00  0.00     0.034 A 
BRANCH  51  65
ATOM     65  C   UNL A   1      42.400  28.032  34.470  1.00  0.00     0.023 A 
ATOM     66  C   UNL A   1      43.184  26.955  34.024  1.00  0.00     0.031 A 
ATOM     67  C   UNL A   1      41.805  27.883  35.744  1.00  0.00     0.131 A 
ATOM     68  C   UNL A   1      43.257  25.765  34.765  1.00  0.00     0.055 A 
ATOM     69  C   UNL A   1      41.934  26.722  36.506  1.00  0.00     0.041 A 
ATOM     70  F   UNL A   1      40.990  28.801  36.277  1.00  0.00    -0.206 F 
ATOM     71  C   UNL A   1      42.633  25.640  36.004  1.00  0.00     0.022 A 
BRANCH  68  72
ATOM     72  S   UNL A   1      44.044  24.329  33.997  1.00  0.00     0.124 S 
ATOM     73  O   UNL A   1      43.060  23.283  34.255  1.00  0.00    -0.237 OA
ATOM     74  O   UNL A   1      44.172  24.764  32.610  1.00  0.00    -0.237 OA
ATOM     75  O   UNL A   1      45.302  24.201  34.728  1.00  0.00    -0.744 OA
ENDBRANCH  68  72
ENDBRANCH  51  65
BRANCH  52  76
ATOM     76  C   UNL A   1      43.685  25.093  26.525  1.00  0.00     0.023 A 
ATOM     77  C   UNL A   1      42.891  23.975  26.881  1.00  0.00     0.031 A 
ATOM     78  C   UNL A   1      44.432  24.964  25.330  1.00  0.00     0.131 A 
ATOM     79  C   UNL A   1      42.874  22.813  26.066  1.00  0.00     0.055 A 
ATOM     80  C   UNL A   1      44.417  23.814  24.536  1.00  0.00     0.041 A 
ATOM     81  F   UNL A   1      45.140  25.987  24.831  1.00  0.00    -0.206 F 
ATOM     82  C   UNL A   1      43.628  22.736  24.894  1.00  0.00     0.022 A 
BRANCH  79  83
ATOM     83  S   UNL A   1      41.776  21.405  26.450  1.00  0.00     0.124 S 
ATOM     84  O   UNL A   1      42.231  20.393  25.504  1.00  0.00    -0.237 OA
ATOM     85  O   UNL A   1      42.061  21.151  27.857  1.00  0.00    -0.237 OA
ATOM     86  O   UNL A   1      40.437  21.935  26.186  1.00  0.00    -0.744 OA
ENDBRANCH  79  83
ENDBRANCH  52  76
BRANCH  64  87
ATOM     87  C   UNL A   1      45.097  30.873  28.875  1.00  0.00     0.023 A 
ATOM     88  C   UNL A   1      46.397  31.326  28.555  1.00  0.00     0.031 A 
ATOM     89  C   UNL A   1      44.043  31.259  28.028  1.00  0.00     0.131 A 
ATOM     90  C   UNL A   1      46.598  32.133  27.413  1.00  0.00     0.055 A 
ATOM     91  C   UNL A   1      44.248  32.037  26.892  1.00  0.00     0.041 A 
ATOM     92  F   UNL A   1      42.791  30.830  28.264  1.00  0.00    -0.206 F 
ATOM     93  C   UNL A   1      45.528  32.478  26.579  1.00  0.00     0.022 A 
BRANCH  90  94
ATOM     94  S   UNL A   1      48.266  32.723  26.968  1.00  0.00     0.124 S 
ATOM     95  O   UNL A   1      48.032  33.497  25.754  1.00  0.00    -0.237 OA
ATOM     96  O   UNL A   1      48.666  33.484  28.148  1.00  0.00    -0.237 OA
ATOM     97  O   UNL A   1      49.024  31.487  26.761  1.00  0.00    -0.744 OA
ENDBRANCH  90  94
ENDBRANCH  64  87
ENDBRANCH  38  39
ENDBRANCH  31  33
ENDBRANCH  30  31
ENDBRANCH  29  30
ENDBRANCH   1  29
TORSDOF 19
ENDMDL
MODEL 2
REMARK VINA RESULT:     -11.4      3.097      9.157
REMARK SMILES Cn1c(=O)c2c(-c3ccc(Cl)cc3)n(CC(=O)OCCOCCOC(=O)c3ccc(-c4c5nc(c(-c6cc(S(=O)(=O)[O-])ccc6F)c6ccc([nH]6)c(-c6cc(S(=O)(=O)[O-])ccc6F)c6nc(c(-c7cc(S(=O)(=O)[O-])ccc7F)c7ccc4[nH]7)C=C6)C=C5)cc3)cc2n(C)c1=O
REMARK SMILES IDX 22 1 21 2 20 3 19 4 18 5 16 6 17 7 15 8 14 9 1 10 2 11 3 12
REMARK SMILES IDX 94 13 4 14 5 15 92 16 95 17 6 18 91 19 93 20 90 21 7 22 8 23
REMARK SMILES IDX 13 24 9 25 12 26 10 27 11 28 23 29 24 30 25 31 26 32 27 33
REMARK SMILES IDX 28 34 89 35 29 36 88 37 30 38 31 39 32 40 82 41 33 42 87 43
REMARK SMILES IDX 81 44 83 45 34 46 86 47 80 48 79 49 35 51 67 52 47 53 66 54
REMARK SMILES IDX 48 55 51 56 65 57 84 58 49 59 50 60 64 62 85 63 52 64 36 65
REMARK SMILES IDX 37 66 45 67 38 68 44 69 46 70 43 71 39 72 40 73 41 74 42 75
REMARK SMILES IDX 68 76 69 77 77 78 70 79 76 80 78 81 75 82 71 83 72 84 73 85
REMARK SMILES IDX 74 86 53 87 54 88 62 89 55 90 61 91 63 92 60 93 56 94 57 95
REMARK SMILES IDX 58 96 59 97
REMARK H PARENT 83 50 51 61
REMARK Flexibility Score: inf
ROOT
ATOM      1  C   UNL A   1      42.406  19.620  26.705  1.00  0.00     0.202 C 
ENDROOT
BRANCH   1   2
ATOM      2  O   UNL A   1      42.044  20.996  26.677  1.00  0.00    -0.374 OA
BRANCH   2   3
ATOM      3  C   UNL A   1      40.987  21.418  25.820  1.00  0.00     0.202 C 
BRANCH   3   4
ATOM      4  C   UNL A   1      39.587  21.532  26.428  1.00  0.00     0.261 C 
BRANCH   4   5
ATOM      5  O   UNL A   1      38.537  21.503  25.441  1.00  0.00    -0.462 OA
BRANCH   5   6
ATOM      6  C   UNL A   1      37.809  22.644  25.339  1.00  0.00     0.326 C 
ATOM      7  O   UNL A   1      38.073  23.688  25.933  1.00  0.00    -0.250 OA
BRANCH   6   8
ATOM      8  C   UNL A   1      36.684  22.610  24.340  1.00  0.00     0.244 C 
BRANCH   8   9
ATOM      9  N   UNL A   1      35.368  23.105  24.739  1.00  0.00    -0.333 N 
ATOM     10  C   UNL A   1      29.816  24.030  26.590  1.00  0.00     0.158 C 
ATOM     11  N   UNL A   1      31.217  24.179  26.237  1.00  0.00    -0.263 N 
ATOM     12  C   UNL A   1      31.857  23.026  25.761  1.00  0.00     0.265 A 
ATOM     13  C   UNL A   1      31.805  25.441  26.431  1.00  0.00     0.330 A 
ATOM     14  O   UNL A   1      31.302  21.935  25.655  1.00  0.00    -0.268 OA
ATOM     15  C   UNL A   1      33.245  23.236  25.409  1.00  0.00     0.090 A 
ATOM     16  N   UNL A   1      33.151  25.586  26.068  1.00  0.00    -0.295 N 
ATOM     17  O   UNL A   1      31.168  26.383  26.907  1.00  0.00    -0.248 OA
ATOM     18  C   UNL A   1      34.207  22.358  24.914  1.00  0.00     0.064 A 
ATOM     19  C   UNL A   1      33.846  24.489  25.585  1.00  0.00     0.076 A 
ATOM     20  C   UNL A   1      33.756  26.907  26.158  1.00  0.00     0.155 C 
ATOM     21  C   UNL A   1      35.163  24.381  25.223  1.00  0.00     0.114 A 
BRANCH  18  22
ATOM     22  C   UNL A   1      34.103  20.928  24.619  1.00  0.00    -0.001 A 
ATOM     23  C   UNL A   1      32.989  20.424  23.932  1.00  0.00     0.012 A 
ATOM     24  C   UNL A   1      35.116  20.045  25.011  1.00  0.00     0.012 A 
ATOM     25  C   UNL A   1      32.854  19.053  23.703  1.00  0.00     0.021 A 
ATOM     26  C   UNL A   1      34.997  18.675  24.754  1.00  0.00     0.021 A 
ATOM     27  C   UNL A   1      33.859  18.184  24.118  1.00  0.00     0.041 A 
ATOM     28  Cl  UNL A   1      33.691  16.495  23.839  1.00  0.00    -0.084 Cl
ENDBRANCH  18  22
ENDBRANCH   8   9
ENDBRANCH   6   8
ENDBRANCH   5   6
ENDBRANCH   4   5
ENDBRANCH   3   4
ENDBRANCH   2   3
ENDBRANCH   1   2
BRANCH   1  29
ATOM     29  C   UNL A   1      42.955  18.984  25.434  1.00  0.00     0.261 C 
BRANCH  29  30
ATOM     30  O   UNL A   1      44.337  19.255  25.228  1.00  0.00    -0.460 OA
BRANCH  30  31
ATOM     31  C   UNL A   1      44.589  20.017  24.139  1.00  0.00     0.338 C 
ATOM     32  O   UNL A   1      44.760  19.611  22.995  1.00  0.00    -0.246 OA
BRANCH  31  33
ATOM     33  C   UNL A   1      44.783  21.411  24.544  1.00  0.00     0.060 A 
ATOM     34  C   UNL A   1      45.545  21.617  25.692  1.00  0.00     0.016 A 
ATOM     35  C   UNL A   1      44.031  22.445  23.966  1.00  0.00     0.016 A 
ATOM     36  C   UNL A   1      45.383  22.798  26.379  1.00  0.00     0.010 A 
ATOM     37  C   UNL A   1      43.864  23.626  24.659  1.00  0.00     0.010 A 
ATOM     38  C   UNL A   1      44.480  23.756  25.897  1.00  0.00    -0.014 A 
BRANCH  38  39
ATOM     39  C   UNL A   1      44.318  24.965  26.677  1.00  0.00     0.031 A 
ATOM     40  C   UNL A   1      45.428  25.917  26.466  1.00  0.00     0.074 A 
ATOM     41  C   UNL A   1      43.280  25.216  27.496  1.00  0.00     0.049 A 
ATOM     42  N   UNL A   1      46.408  26.136  27.275  1.00  0.00    -0.248 NA
ATOM     43  C   UNL A   1      45.600  26.517  25.136  1.00  0.00     0.031 C 
ATOM     44  C   UNL A   1      42.032  24.476  27.665  1.00  0.00     0.029 A 
ATOM     45  N   UNL A   1      43.117  26.278  28.331  1.00  0.00    -0.354 N 
ATOM     46  C   UNL A   1      47.201  27.089  26.657  1.00  0.00     0.074 A 
ATOM     47  C   UNL A   1      46.774  27.134  25.284  1.00  0.00     0.031 C 
ATOM     48  C   UNL A   1      41.157  25.235  28.369  1.00  0.00     0.029 A 
ATOM     49  C   UNL A   1      41.824  26.453  28.806  1.00  0.00     0.049 A 
ATOM     50  H   UNL A   1      43.860  26.874  28.580  1.00  0.00     0.167 HD
ATOM     51  C   UNL A   1      47.976  27.925  27.398  1.00  0.00     0.034 A 
ATOM     52  C   UNL A   1      41.342  27.553  29.451  1.00  0.00     0.034 A 
ATOM     53  C   UNL A   1      48.145  27.426  28.744  1.00  0.00     0.049 A 
ATOM     54  C   UNL A   1      42.521  28.198  30.095  1.00  0.00     0.074 A 
ATOM     55  C   UNL A   1      48.660  26.261  29.284  1.00  0.00     0.029 A 
ATOM     56  N   UNL A   1      47.381  27.988  29.744  1.00  0.00    -0.354 N 
ATOM     57  N   UNL A   1      43.207  27.624  31.050  1.00  0.00    -0.248 NA
ATOM     58  C   UNL A   1      43.247  29.208  29.335  1.00  0.00     0.031 C 
ATOM     59  C   UNL A   1      47.778  25.934  30.355  1.00  0.00     0.029 A 
ATOM     60  C   UNL A   1      46.832  26.955  30.464  1.00  0.00     0.049 A 
ATOM     61  H   UNL A   1      47.252  28.950  29.911  1.00  0.00     0.167 HD
ATOM     62  C   UNL A   1      44.536  27.867  30.735  1.00  0.00     0.074 A 
ATOM     63  C   UNL A   1      44.497  28.911  29.709  1.00  0.00     0.031 C 
ATOM     64  C   UNL A   1      45.533  27.010  31.107  1.00  0.00     0.034 A 
BRANCH  51  65
ATOM     65  C   UNL A   1      48.251  29.362  27.040  1.00  0.00     0.023 A 
ATOM     66  C   UNL A   1      49.584  29.797  27.133  1.00  0.00     0.031 A 
ATOM     67  C   UNL A   1      47.272  30.374  26.930  1.00  0.00     0.131 A 
ATOM     68  C   UNL A   1      49.886  31.164  27.231  1.00  0.00     0.055 A 
ATOM     69  C   UNL A   1      47.584  31.734  26.962  1.00  0.00     0.041 A 
ATOM     70  F   UNL A   1      45.959  30.115  26.886  1.00  0.00    -0.206 F 
ATOM     71  C   UNL A   1      48.893  32.137  27.150  1.00  0.00     0.022 A 
BRANCH  68  72
ATOM     72  S   UNL A   1      51.586  31.634  27.636  1.00  0.00     0.124 S 
ATOM     73  O   UNL A   1      51.715  32.903  26.928  1.00  0.00    -0.237 OA
ATOM     74  O   UNL A   1      51.537  31.710  29.092  1.00  0.00    -0.237 OA
ATOM     75  O   UNL A   1      52.378  30.532  27.096  1.00  0.00    -0.744 OA
ENDBRANCH  68  72
ENDBRANCH  51  65
BRANCH  52  76
ATOM     76  C   UNL A   1      40.035  28.244  29.202  1.00  0.00     0.023 A 
ATOM     77  C   UNL A   1      39.206  28.730  30.243  1.00  0.00     0.031 A 
ATOM     78  C   UNL A   1      39.689  28.657  27.893  1.00  0.00     0.131 A 
ATOM     79  C   UNL A   1      38.102  29.574  29.952  1.00  0.00     0.055 A 
ATOM     80  C   UNL A   1      38.596  29.482  27.613  1.00  0.00     0.041 A 
ATOM     81  F   UNL A   1      40.453  28.352  26.835  1.00  0.00    -0.206 F 
ATOM     82  C   UNL A   1      37.803  29.954  28.643  1.00  0.00     0.022 A 
BRANCH  79  83
ATOM     83  S   UNL A   1      37.087  30.297  31.287  1.00  0.00     0.124 S 
ATOM     84  O   UNL A   1      36.730  29.122  32.073  1.00  0.00    -0.237 OA
ATOM     85  O   UNL A   1      38.005  31.241  31.912  1.00  0.00    -0.237 OA
ATOM     86  O   UNL A   1      35.971  30.916  30.569  1.00  0.00    -0.744 OA
ENDBRANCH  79  83
ENDBRANCH  52  76
BRANCH  64  87
ATOM     87  C   UNL A   1      45.235  25.908  32.104  1.00  0.00     0.023 A 
ATOM     88  C   UNL A   1      45.214  26.068  33.508  1.00  0.00     0.031 A 
ATOM     89  C   UNL A   1      44.765  24.692  31.576  1.00  0.00     0.131 A 
ATOM     90  C   UNL A   1      44.726  25.025  34.325  1.00  0.00     0.055 A 
ATOM     91  C   UNL A   1      44.265  23.675  32.384  1.00  0.00     0.041 A 
ATOM     92  F   UNL A   1      44.730  24.498  30.247  1.00  0.00    -0.206 F 
ATOM     93  C   UNL A   1      44.244  23.837  33.764  1.00  0.00     0.022 A 
BRANCH  90  94
ATOM     94  S   UNL A   1      44.675  25.206  36.140  1.00  0.00     0.124 S 
ATOM     95  O   UNL A   1      43.458  25.977  36.364  1.00  0.00    -0.237 OA
ATOM     96  O   UNL A   1      44.652  23.821  36.603  1.00  0.00    -0.237 OA
ATOM     97  O   UNL A   1      45.913  25.925  36.449  1.00  0.00    -0.744 OA
ENDBRANCH  90  94
ENDBRANCH  64  87
ENDBRANCH  38  39
ENDBRANCH  31  33
ENDBRANCH  30  31
ENDBRANCH  29  30
ENDBRANCH   1  29
TORSDOF 19
ENDMDL
MODEL 3
REMARK VINA RESULT:     -11.2      2.778      7.420
REMARK SMILES Cn1c(=O)c2c(-c3ccc(Cl)cc3)n(CC(=O)OCCOCCOC(=O)c3ccc(-c4c5nc(c(-c6cc(S(=O)(=O)[O-])ccc6F)c6ccc([nH]6)c(-c6cc(S(=O)(=O)[O-])ccc6F)c6nc(c(-c7cc(S(=O)(=O)[O-])ccc7F)c7ccc4[nH]7)C=C6)C=C5)cc3)cc2n(C)c1=O
REMARK SMILES IDX 22 1 21 2 20 3 19 4 18 5 16 6 17 7 15 8 14 9 1 10 2 11 3 12
REMARK SMILES IDX 94 13 4 14 5 15 92 16 95 17 6 18 91 19 93 20 90 21 7 22 8 23
REMARK SMILES IDX 13 24 9 25 12 26 10 27 11 28 23 29 24 30 25 31 26 32 27 33
REMARK SMILES IDX 28 34 89 35 29 36 88 37 30 38 31 39 32 40 82 41 33 42 87 43
REMARK SMILES IDX 81 44 83 45 34 46 86 47 80 48 79 49 35 51 67 52 47 53 66 54
REMARK SMILES IDX 48 55 51 56 65 57 84 58 49 59 50 60 64 62 85 63 52 64 36 65
REMARK SMILES IDX 37 66 45 67 38 68 44 69 46 70 43 71 39 72 40 73 41 74 42 75
REMARK SMILES IDX 68 76 69 77 77 78 70 79 76 80 78 81 75 82 71 83 72 84 73 85
REMARK SMILES IDX 74 86 53 87 54 88 62 89 55 90 61 91 63 92 60 93 56 94 57 95
REMARK SMILES IDX 58 96 59 97
REMARK H PARENT 83 50 51 61
REMARK Flexibility Score: inf
ROOT
ATOM      1  C   UNL A   1      36.261  32.582  28.457  1.00  0.00     0.202 C 
ENDROOT
BRANCH   1   2
ATOM      2  O   UNL A   1      34.980  32.060  28.795  1.00  0.00    -0.374 OA
BRANCH   2   3
ATOM      3  C   UNL A   1      34.110  31.627  27.754  1.00  0.00     0.202 C 
BRANCH   3   4
ATOM      4  C   UNL A   1      34.204  30.163  27.317  1.00  0.00     0.261 C 
BRANCH   4   5
ATOM      5  O   UNL A   1      33.531  29.900  26.070  1.00  0.00    -0.462 OA
BRANCH   5   6
ATOM      6  C   UNL A   1      32.178  29.824  26.149  1.00  0.00     0.326 C 
ATOM      7  O   UNL A   1      31.416  30.739  25.842  1.00  0.00    -0.250 OA
BRANCH   6   8
ATOM      8  C   UNL A   1      31.623  28.479  26.534  1.00  0.00     0.244 C 
BRANCH   8   9
ATOM      9  N   UNL A   1      31.975  27.311  25.729  1.00  0.00    -0.333 N 
ATOM     10  C   UNL A   1      33.116  23.229  21.588  1.00  0.00     0.158 C 
ATOM     11  N   UNL A   1      33.091  24.016  22.810  1.00  0.00    -0.263 N 
ATOM     12  C   UNL A   1      32.284  25.162  22.786  1.00  0.00     0.265 A 
ATOM     13  C   UNL A   1      33.892  23.580  23.879  1.00  0.00     0.330 A 
ATOM     14  O   UNL A   1      31.639  25.519  21.802  1.00  0.00    -0.268 OA
ATOM     15  C   UNL A   1      32.283  25.897  24.032  1.00  0.00     0.090 A 
ATOM     16  N   UNL A   1      33.847  24.330  25.062  1.00  0.00    -0.295 N 
ATOM     17  O   UNL A   1      34.610  22.583  23.783  1.00  0.00    -0.248 OA
ATOM     18  C   UNL A   1      31.627  27.070  24.402  1.00  0.00     0.064 A 
ATOM     19  C   UNL A   1      33.066  25.473  25.113  1.00  0.00     0.076 A 
ATOM     20  C   UNL A   1      34.582  23.844  26.222  1.00  0.00     0.155 C 
ATOM     21  C   UNL A   1      32.911  26.380  26.129  1.00  0.00     0.114 A 
BRANCH  18  22
ATOM     22  C   UNL A   1      30.745  27.935  23.618  1.00  0.00    -0.001 A 
ATOM     23  C   UNL A   1      29.352  27.792  23.704  1.00  0.00     0.012 A 
ATOM     24  C   UNL A   1      31.276  28.921  22.780  1.00  0.00     0.012 A 
ATOM     25  C   UNL A   1      28.507  28.571  22.912  1.00  0.00     0.021 A 
ATOM     26  C   UNL A   1      30.429  29.725  22.009  1.00  0.00     0.021 A 
ATOM     27  C   UNL A   1      29.050  29.533  22.065  1.00  0.00     0.041 A 
ATOM     28  Cl  UNL A   1      28.008  30.490  21.087  1.00  0.00    -0.084 Cl
ENDBRANCH  18  22
ENDBRANCH   8   9
ENDBRANCH   6   8
ENDBRANCH   5   6
ENDBRANCH   4   5
ENDBRANCH   3   4
ENDBRANCH   2   3
ENDBRANCH   1   2
BRANCH   1  29
ATOM     29  C   UNL A   1      37.500  31.793  28.861  1.00  0.00     0.261 C 
BRANCH  29  30
ATOM     30  O   UNL A   1      37.318  31.047  30.060  1.00  0.00    -0.460 OA
BRANCH  30  31
ATOM     31  C   UNL A   1      36.968  29.757  29.855  1.00  0.00     0.338 C 
ATOM     32  O   UNL A   1      35.915  29.229  30.195  1.00  0.00    -0.246 OA
BRANCH  31  33
ATOM     33  C   UNL A   1      38.101  29.020  29.290  1.00  0.00     0.060 A 
ATOM     34  C   UNL A   1      38.810  28.210  30.175  1.00  0.00     0.016 A 
ATOM     35  C   UNL A   1      38.594  29.317  28.010  1.00  0.00     0.016 A 
ATOM     36  C   UNL A   1      40.107  27.878  29.858  1.00  0.00     0.010 A 
ATOM     37  C   UNL A   1      39.896  28.988  27.696  1.00  0.00     0.010 A 
ATOM     38  C   UNL A   1      40.662  28.342  28.657  1.00  0.00    -0.014 A 
BRANCH  38  39
ATOM     39  C   UNL A   1      42.042  27.995  28.390  1.00  0.00     0.031 A 
ATOM     40  C   UNL A   1      42.163  26.733  27.632  1.00  0.00     0.074 A 
ATOM     41  C   UNL A   1      43.105  28.729  28.767  1.00  0.00     0.049 A 
ATOM     42  N   UNL A   1      42.503  25.586  28.113  1.00  0.00    -0.248 NA
ATOM     43  C   UNL A   1      41.637  26.678  26.261  1.00  0.00     0.031 C 
ATOM     44  C   UNL A   1      43.147  30.072  29.342  1.00  0.00     0.029 A 
ATOM     45  N   UNL A   1      44.422  28.414  28.640  1.00  0.00    -0.354 N 
ATOM     46  C   UNL A   1      42.466  24.703  27.046  1.00  0.00     0.074 A 
ATOM     47  C   UNL A   1      41.744  25.375  25.998  1.00  0.00     0.031 C 
ATOM     48  C   UNL A   1      44.420  30.535  29.296  1.00  0.00     0.029 A 
ATOM     49  C   UNL A   1      45.296  29.481  28.808  1.00  0.00     0.049 A 
ATOM     50  H   UNL A   1      44.731  27.500  28.445  1.00  0.00     0.167 HD
ATOM     51  C   UNL A   1      43.247  23.590  27.046  1.00  0.00     0.034 A 
ATOM     52  C   UNL A   1      46.624  29.492  28.502  1.00  0.00     0.034 A 
ATOM     53  C   UNL A   1      43.735  23.293  28.374  1.00  0.00     0.049 A 
ATOM     54  C   UNL A   1      47.075  28.074  28.581  1.00  0.00     0.074 A 
ATOM     55  C   UNL A   1      43.128  23.024  29.587  1.00  0.00     0.029 A 
ATOM     56  N   UNL A   1      45.031  23.647  28.682  1.00  0.00    -0.354 N 
ATOM     57  N   UNL A   1      47.078  27.394  29.698  1.00  0.00    -0.248 NA
ATOM     58  C   UNL A   1      47.007  27.268  27.368  1.00  0.00     0.031 C 
ATOM     59  C   UNL A   1      43.913  23.721  30.551  1.00  0.00     0.029 A 
ATOM     60  C   UNL A   1      44.996  24.301  29.890  1.00  0.00     0.049 A 
ATOM     61  H   UNL A   1      45.832  23.465  28.139  1.00  0.00     0.167 HD
ATOM     62  C   UNL A   1      46.577  26.145  29.360  1.00  0.00     0.074 A 
ATOM     63  C   UNL A   1      46.621  26.101  27.897  1.00  0.00     0.031 C 
ATOM     64  C   UNL A   1      45.901  25.372  30.262  1.00  0.00     0.034 A 
BRANCH  51  65
ATOM     65  C   UNL A   1      43.885  23.005  25.813  1.00  0.00     0.023 A 
ATOM     66  C   UNL A   1      43.879  21.605  25.697  1.00  0.00     0.031 A 
ATOM     67  C   UNL A   1      44.750  23.699  24.938  1.00  0.00     0.131 A 
ATOM     68  C   UNL A   1      44.779  20.953  24.839  1.00  0.00     0.055 A 
ATOM     69  C   UNL A   1      45.597  23.048  24.040  1.00  0.00     0.041 A 
ATOM     70  F   UNL A   1      44.902  25.029  24.968  1.00  0.00    -0.206 F 
ATOM     71  C   UNL A   1      45.642  21.667  24.011  1.00  0.00     0.022 A 
BRANCH  68  72
ATOM     72  S   UNL A   1      44.913  19.153  24.954  1.00  0.00     0.124 S 
ATOM     73  O   UNL A   1      44.803  18.761  23.553  1.00  0.00    -0.237 OA
ATOM     74  O   UNL A   1      46.227  18.989  25.567  1.00  0.00    -0.237 OA
ATOM     75  O   UNL A   1      43.781  18.783  25.800  1.00  0.00    -0.744 OA
ENDBRANCH  68  72
ENDBRANCH  51  65
BRANCH  52  76
ATOM     76  C   UNL A   1      47.376  30.577  27.790  1.00  0.00     0.023 A 
ATOM     77  C   UNL A   1      46.738  31.669  27.152  1.00  0.00     0.031 A 
ATOM     78  C   UNL A   1      48.780  30.681  27.935  1.00  0.00     0.131 A 
ATOM     79  C   UNL A   1      47.495  32.781  26.697  1.00  0.00     0.055 A 
ATOM     80  C   UNL A   1      49.519  31.775  27.478  1.00  0.00     0.041 A 
ATOM     81  F   UNL A   1      49.484  29.764  28.613  1.00  0.00    -0.206 F 
ATOM     82  C   UNL A   1      48.879  32.836  26.866  1.00  0.00     0.022 A 
BRANCH  79  83
ATOM     83  S   UNL A   1      46.681  34.245  25.969  1.00  0.00     0.124 S 
ATOM     84  O   UNL A   1      46.481  35.098  27.134  1.00  0.00    -0.237 OA
ATOM     85  O   UNL A   1      47.662  34.703  24.991  1.00  0.00    -0.237 OA
ATOM     86  O   UNL A   1      45.453  33.698  25.389  1.00  0.00    -0.744 OA
ENDBRANCH  79  83
ENDBRANCH  52  76
BRANCH  64  87
ATOM     87  C   UNL A   1      45.915  25.753  31.729  1.00  0.00     0.023 A 
ATOM     88  C   UNL A   1      46.957  25.453  32.635  1.00  0.00     0.031 A 
ATOM     89  C   UNL A   1      44.902  26.626  32.162  1.00  0.00     0.131 A 
ATOM     90  C   UNL A   1      46.955  26.033  33.923  1.00  0.00     0.055 A 
ATOM     91  C   UNL A   1      44.915  27.212  33.424  1.00  0.00     0.041 A 
ATOM     92  F   UNL A   1      43.904  26.973  31.331  1.00  0.00    -0.206 F 
ATOM     93  C   UNL A   1      45.942  26.918  34.312  1.00  0.00     0.022 A 
BRANCH  90  94
ATOM     94  S   UNL A   1      48.293  25.676  35.111  1.00  0.00     0.124 S 
ATOM     95  O   UNL A   1      47.805  24.497  35.818  1.00  0.00    -0.237 OA
ATOM     96  O   UNL A   1      49.450  25.472  34.243  1.00  0.00    -0.237 OA
ATOM     97  O   UNL A   1      48.359  26.888  35.929  1.00  0.00    -0.744 OA
ENDBRANCH  90  94
ENDBRANCH  64  87
ENDBRANCH  38  39
ENDBRANCH  31  33
ENDBRANCH  30  31
ENDBRANCH  29  30
ENDBRANCH   1  29
TORSDOF 19
ENDMDL
