MODEL 1
REMARK VINA RESULT:     -11.0      0.000      0.000
REMARK SMILES O=C(OCCOCCOC(=O)c1c(S(=O)(=O)N2CCO[C@@H](CCO)C2)sc2c1CC[NH2+]C2)c1ccc(-c2c3nc(c(-c4cc(S(=O)(=O)[O-])ccc4F)c4ccc([nH]4)c(-c4cc(S(=O)(=O)[O-])ccc4F)c4nc(c(-c5cc(S(=O)(=O)[O-])ccc5F)c5ccc2[nH]5)C=C4)C=C3)cc1
REMARK SMILES IDX 7 1 6 2 5 3 4 4 3 5 2 6 1 7 33 8 34 9 95 10 35 11 94 12
REMARK SMILES IDX 36 13 37 14 38 15 88 16 39 17 93 18 87 19 89 20 40 21 92 22
REMARK SMILES IDX 86 23 85 24 41 26 73 27 53 28 72 29 54 30 57 31 71 32 90 33
REMARK SMILES IDX 55 34 56 35 70 37 91 38 58 39 42 40 43 41 51 42 44 43 50 44
REMARK SMILES IDX 52 45 49 46 45 47 46 48 47 49 48 50 74 51 75 52 83 53 76 54
REMARK SMILES IDX 82 55 84 56 81 57 77 58 78 59 79 60 80 61 59 62 60 63 68 64
REMARK SMILES IDX 61 65 67 66 69 67 66 68 62 69 63 70 64 71 65 72 8 73 9 74
REMARK SMILES IDX 10 75 11 76 12 77 13 78 28 79 26 80 27 81 29 82 32 83 30 84
REMARK SMILES IDX 31 85 14 88 15 89 16 90 17 91 18 92 25 93 19 94 21 95 20 96
REMARK SMILES IDX 22 97 23 98 24 99
REMARK H PARENT 89 25 57 36 31 86 31 87 24 100
REMARK Flexibility Score: inf
ROOT
ATOM      1  C   UNL A   1      37.068  22.738  23.768  1.00  0.00     0.202 C 
ENDROOT
BRANCH   1   2
ATOM      2  O   UNL A   1      37.338  21.632  24.642  1.00  0.00    -0.374 OA
BRANCH   2   3
ATOM      3  C   UNL A   1      38.459  21.742  25.511  1.00  0.00     0.202 C 
BRANCH   3   4
ATOM      4  C   UNL A   1      38.631  22.980  26.400  1.00  0.00     0.261 C 
BRANCH   4   5
ATOM      5  O   UNL A   1      39.873  23.645  26.130  1.00  0.00    -0.460 OA
BRANCH   5   6
ATOM      6  C   UNL A   1      40.597  24.316  27.055  1.00  0.00     0.338 C 
ATOM      7  O   UNL A   1      41.719  23.921  27.362  1.00  0.00    -0.246 OA
BRANCH   6   8
ATOM      8  C   UNL A   1      40.120  25.631  27.549  1.00  0.00     0.060 A 
ATOM      9  C   UNL A   1      40.393  26.868  26.957  1.00  0.00     0.016 A 
ATOM     10  C   UNL A   1      39.452  25.594  28.776  1.00  0.00     0.016 A 
ATOM     11  C   UNL A   1      40.349  28.015  27.704  1.00  0.00     0.010 A 
ATOM     12  C   UNL A   1      39.299  26.758  29.496  1.00  0.00     0.010 A 
ATOM     13  C   UNL A   1      39.888  27.923  29.003  1.00  0.00    -0.014 A 
BRANCH  13  14
ATOM     14  C   UNL A   1      40.049  29.095  29.837  1.00  0.00     0.031 A 
ATOM     15  C   UNL A   1      38.866  29.995  29.891  1.00  0.00     0.074 A 
ATOM     16  C   UNL A   1      41.178  29.210  30.561  1.00  0.00     0.049 A 
ATOM     17  N   UNL A   1      38.815  31.282  29.794  1.00  0.00    -0.248 NA
ATOM     18  C   UNL A   1      37.539  29.350  29.939  1.00  0.00     0.031 C 
ATOM     19  C   UNL A   1      42.269  28.232  30.674  1.00  0.00     0.029 A 
ATOM     20  N   UNL A   1      41.497  30.131  31.503  1.00  0.00    -0.354 N 
ATOM     21  C   UNL A   1      37.477  31.622  29.984  1.00  0.00     0.074 A 
ATOM     22  C   UNL A   1      36.725  30.402  29.892  1.00  0.00     0.031 C 
ATOM     23  C   UNL A   1      42.926  28.443  31.832  1.00  0.00     0.029 A 
ATOM     24  C   UNL A   1      42.386  29.639  32.454  1.00  0.00     0.049 A 
ATOM     25  H   UNL A   1      41.139  31.048  31.514  1.00  0.00     0.167 HD
ATOM     26  C   UNL A   1      37.103  32.845  30.443  1.00  0.00     0.034 A 
ATOM     27  C   UNL A   1      42.538  30.089  33.724  1.00  0.00     0.034 A 
ATOM     28  C   UNL A   1      38.102  33.844  30.162  1.00  0.00     0.049 A 
ATOM     29  C   UNL A   1      41.977  31.464  33.764  1.00  0.00     0.074 A 
ATOM     30  C   UNL A   1      38.664  34.336  28.999  1.00  0.00     0.029 A 
ATOM     31  N   UNL A   1      38.943  34.245  31.174  1.00  0.00    -0.354 N 
ATOM     32  N   UNL A   1      42.466  32.458  33.071  1.00  0.00    -0.248 NA
ATOM     33  C   UNL A   1      40.589  31.629  34.176  1.00  0.00     0.031 C 
ATOM     34  C   UNL A   1      40.039  34.541  29.316  1.00  0.00     0.029 A 
ATOM     35  C   UNL A   1      40.219  34.221  30.663  1.00  0.00     0.049 A 
ATOM     36  H   UNL A   1      38.681  34.500  32.088  1.00  0.00     0.167 HD
ATOM     37  C   UNL A   1      41.361  33.153  32.602  1.00  0.00     0.074 A 
ATOM     38  C   UNL A   1      40.240  32.663  33.403  1.00  0.00     0.031 C 
ATOM     39  C   UNL A   1      41.397  33.839  31.420  1.00  0.00     0.034 A 
BRANCH  26  40
ATOM     40  C   UNL A   1      35.988  33.048  31.443  1.00  0.00     0.023 A 
ATOM     41  C   UNL A   1      34.918  33.882  31.072  1.00  0.00     0.031 A 
ATOM     42  C   UNL A   1      36.057  32.708  32.816  1.00  0.00     0.131 A 
ATOM     43  C   UNL A   1      34.039  34.398  32.042  1.00  0.00     0.055 A 
ATOM     44  C   UNL A   1      35.139  33.164  33.764  1.00  0.00     0.041 A 
ATOM     45  F   UNL A   1      37.067  32.002  33.339  1.00  0.00    -0.206 F 
ATOM     46  C   UNL A   1      34.140  34.040  33.385  1.00  0.00     0.022 A 
BRANCH  43  47
ATOM     47  S   UNL A   1      32.879  35.697  31.551  1.00  0.00     0.124 S 
ATOM     48  O   UNL A   1      32.616  35.353  30.157  1.00  0.00    -0.237 OA
ATOM     49  O   UNL A   1      31.780  35.485  32.486  1.00  0.00    -0.237 OA
ATOM     50  O   UNL A   1      33.644  36.927  31.753  1.00  0.00    -0.744 OA
ENDBRANCH  43  47
ENDBRANCH  26  40
BRANCH  27  51
ATOM     51  C   UNL A   1      42.733  29.209  34.909  1.00  0.00     0.023 A 
ATOM     52  C   UNL A   1      41.939  28.075  35.152  1.00  0.00     0.031 A 
ATOM     53  C   UNL A   1      43.856  29.392  35.754  1.00  0.00     0.131 A 
ATOM     54  C   UNL A   1      42.261  27.202  36.219  1.00  0.00     0.055 A 
ATOM     55  C   UNL A   1      44.155  28.540  36.817  1.00  0.00     0.041 A 
ATOM     56  F   UNL A   1      44.746  30.371  35.529  1.00  0.00    -0.206 F 
ATOM     57  C   UNL A   1      43.357  27.435  37.053  1.00  0.00     0.022 A 
BRANCH  54  58
ATOM     58  S   UNL A   1      41.288  25.686  36.480  1.00  0.00     0.124 S 
ATOM     59  O   UNL A   1      40.618  25.962  37.745  1.00  0.00    -0.237 OA
ATOM     60  O   UNL A   1      40.441  25.652  35.292  1.00  0.00    -0.237 OA
ATOM     61  O   UNL A   1      42.303  24.634  36.538  1.00  0.00    -0.744 OA
ENDBRANCH  54  58
ENDBRANCH  27  51
BRANCH  39  62
ATOM     62  C   UNL A   1      42.733  33.998  30.717  1.00  0.00     0.023 A 
ATOM     63  C   UNL A   1      43.226  33.102  29.738  1.00  0.00     0.031 A 
ATOM     64  C   UNL A   1      43.448  35.189  30.926  1.00  0.00     0.131 A 
ATOM     65  C   UNL A   1      44.398  33.413  29.019  1.00  0.00     0.055 A 
ATOM     66  C   UNL A   1      44.599  35.499  30.202  1.00  0.00     0.041 A 
ATOM     67  F   UNL A   1      43.006  36.101  31.809  1.00  0.00    -0.206 F 
ATOM     68  C   UNL A   1      45.082  34.611  29.247  1.00  0.00     0.022 A 
BRANCH  65  69
ATOM     69  S   UNL A   1      45.045  32.265  27.757  1.00  0.00     0.124 S 
ATOM     70  O   UNL A   1      43.854  31.864  27.019  1.00  0.00    -0.237 OA
ATOM     71  O   UNL A   1      46.003  33.096  27.031  1.00  0.00    -0.237 OA
ATOM     72  O   UNL A   1      45.656  31.196  28.551  1.00  0.00    -0.744 OA
ENDBRANCH  65  69
ENDBRANCH  39  62
ENDBRANCH  13  14
ENDBRANCH   6   8
ENDBRANCH   5   6
ENDBRANCH   4   5
ENDBRANCH   3   4
ENDBRANCH   2   3
ENDBRANCH   1   2
BRANCH   1  73
ATOM     73  C   UNL A   1      35.608  23.201  23.652  1.00  0.00     0.261 C 
BRANCH  73  74
ATOM     74  O   UNL A   1      35.352  24.304  24.540  1.00  0.00    -0.460 OA
BRANCH  74  75
ATOM     75  C   UNL A   1      34.823  24.023  25.765  1.00  0.00     0.340 C 
ATOM     76  O   UNL A   1      35.457  23.590  26.720  1.00  0.00    -0.246 OA
BRANCH  75  77
ATOM     77  C   UNL A   1      33.469  24.567  25.883  1.00  0.00     0.095 A 
ATOM     78  C   UNL A   1      32.334  23.764  25.873  1.00  0.00     0.150 A 
ATOM     79  C   UNL A   1      33.094  25.970  25.942  1.00  0.00    -0.007 A 
ATOM     80  S   UNL A   1      30.944  24.700  25.530  1.00  0.00    -0.120 S 
ATOM     81  C   UNL A   1      31.725  26.109  26.037  1.00  0.00     0.064 A 
ATOM     82  C   UNL A   1      33.937  27.213  25.857  1.00  0.00     0.099 C 
ATOM     83  C   UNL A   1      31.020  27.369  26.412  1.00  0.00     0.308 C 
ATOM     84  C   UNL A   1      33.176  28.478  26.323  1.00  0.00     0.265 C 
ATOM     85  N   UNL A   1      31.758  28.535  25.909  1.00  0.00    -0.342 N 
ATOM     86  H   UNL A   1      31.708  28.548  24.890  1.00  0.00     0.346 HD
ATOM     87  H   UNL A   1      31.337  29.379  26.296  1.00  0.00     0.346 HD
BRANCH  78  88
ATOM     88  S   UNL A   1      32.086  22.012  26.070  1.00  0.00     0.253 S 
ATOM     89  O   UNL A   1      32.615  21.677  27.372  1.00  0.00    -0.206 OA
ATOM     90  O   UNL A   1      30.685  21.820  25.747  1.00  0.00    -0.206 OA
BRANCH  88  91
ATOM     91  N   UNL A   1      32.958  21.158  24.897  1.00  0.00    -0.192 NA
ATOM     92  C   UNL A   1      32.657  21.299  23.452  1.00  0.00     0.131 C 
ATOM     93  C   UNL A   1      33.488  19.822  25.248  1.00  0.00     0.134 C 
ATOM     94  C   UNL A   1      32.005  20.048  22.825  1.00  0.00     0.177 C 
ATOM     95  C   UNL A   1      32.520  18.745  24.751  1.00  0.00     0.135 C 
ATOM     96  O   UNL A   1      32.503  18.789  23.310  1.00  0.00    -0.375 OA
BRANCH  95  97
ATOM     97  C   UNL A   1      32.866  17.324  25.204  1.00  0.00     0.061 C 
BRANCH  97  98
ATOM     98  C   UNL A   1      33.550  16.488  24.128  1.00  0.00     0.159 C 
BRANCH  98  99
ATOM     99  O   UNL A   1      34.602  15.729  24.709  1.00  0.00    -0.396 OA
ATOM    100  H   UNL A   1      35.321  16.323  24.974  1.00  0.00     0.210 HD
ENDBRANCH  98  99
ENDBRANCH  97  98
ENDBRANCH  95  97
ENDBRANCH  88  91
ENDBRANCH  78  88
ENDBRANCH  75  77
ENDBRANCH  74  75
ENDBRANCH  73  74
ENDBRANCH   1  73
TORSDOF 22
ENDMDL
MODEL 2
REMARK VINA RESULT:     -10.7      4.126      8.929
REMARK SMILES O=C(OCCOCCOC(=O)c1c(S(=O)(=O)N2CCO[C@@H](CCO)C2)sc2c1CC[NH2+]C2)c1ccc(-c2c3nc(c(-c4cc(S(=O)(=O)[O-])ccc4F)c4ccc([nH]4)c(-c4cc(S(=O)(=O)[O-])ccc4F)c4nc(c(-c5cc(S(=O)(=O)[O-])ccc5F)c5ccc2[nH]5)C=C4)C=C3)cc1
REMARK SMILES IDX 7 1 6 2 5 3 4 4 3 5 2 6 1 7 33 8 34 9 95 10 35 11 94 12
REMARK SMILES IDX 36 13 37 14 38 15 88 16 39 17 93 18 87 19 89 20 40 21 92 22
REMARK SMILES IDX 86 23 85 24 41 26 73 27 53 28 72 29 54 30 57 31 71 32 90 33
REMARK SMILES IDX 55 34 56 35 70 37 91 38 58 39 42 40 43 41 51 42 44 43 50 44
REMARK SMILES IDX 52 45 49 46 45 47 46 48 47 49 48 50 74 51 75 52 83 53 76 54
REMARK SMILES IDX 82 55 84 56 81 57 77 58 78 59 79 60 80 61 59 62 60 63 68 64
REMARK SMILES IDX 61 65 67 66 69 67 66 68 62 69 63 70 64 71 65 72 8 73 9 74
REMARK SMILES IDX 10 75 11 76 12 77 13 78 28 79 26 80 27 81 29 82 32 83 30 84
REMARK SMILES IDX 31 85 14 88 15 89 16 90 17 91 18 92 25 93 19 94 21 95 20 96
REMARK SMILES IDX 22 97 23 98 24 99
REMARK H PARENT 89 25 57 36 31 86 31 87 24 100
REMARK Flexibility Score: inf
ROOT
ATOM      1  C   UNL A   1      33.615  29.721  27.212  1.00  0.00     0.202 C 
ENDROOT
BRANCH   1   2
ATOM      2  O   UNL A   1      34.809  30.378  27.664  1.00  0.00    -0.374 OA
BRANCH   2   3
ATOM      3  C   UNL A   1      34.756  31.790  27.835  1.00  0.00     0.202 C 
BRANCH   3   4
ATOM      4  C   UNL A   1      34.540  32.393  29.229  1.00  0.00     0.261 C 
BRANCH   4   5
ATOM      5  O   UNL A   1      35.758  32.391  29.988  1.00  0.00    -0.460 OA
BRANCH   5   6
ATOM      6  C   UNL A   1      36.193  31.346  30.729  1.00  0.00     0.338 C 
ATOM      7  O   UNL A   1      35.549  30.974  31.706  1.00  0.00    -0.246 OA
BRANCH   6   8
ATOM      8  C   UNL A   1      37.335  30.529  30.248  1.00  0.00     0.060 A 
ATOM      9  C   UNL A   1      37.446  29.140  30.366  1.00  0.00     0.016 A 
ATOM     10  C   UNL A   1      38.418  31.261  29.753  1.00  0.00     0.016 A 
ATOM     11  C   UNL A   1      38.679  28.544  30.357  1.00  0.00     0.010 A 
ATOM     12  C   UNL A   1      39.646  30.650  29.632  1.00  0.00     0.010 A 
ATOM     13  C   UNL A   1      39.778  29.336  30.081  1.00  0.00    -0.014 A 
BRANCH  13  14
ATOM     14  C   UNL A   1      41.080  28.738  30.284  1.00  0.00     0.031 A 
ATOM     15  C   UNL A   1      41.505  28.625  31.705  1.00  0.00     0.074 A 
ATOM     16  C   UNL A   1      41.729  28.246  29.212  1.00  0.00     0.049 A 
ATOM     17  N   UNL A   1      42.644  28.915  32.242  1.00  0.00    -0.248 NA
ATOM     18  C   UNL A   1      40.466  28.248  32.684  1.00  0.00     0.031 C 
ATOM     19  C   UNL A   1      41.235  28.169  27.830  1.00  0.00     0.029 A 
ATOM     20  N   UNL A   1      42.879  27.531  29.165  1.00  0.00    -0.354 N 
ATOM     21  C   UNL A   1      42.532  28.554  33.583  1.00  0.00     0.074 A 
ATOM     22  C   UNL A   1      41.137  28.321  33.831  1.00  0.00     0.031 C 
ATOM     23  C   UNL A   1      41.899  27.189  27.184  1.00  0.00     0.029 A 
ATOM     24  C   UNL A   1      42.935  26.681  28.064  1.00  0.00     0.049 A 
ATOM     25  H   UNL A   1      43.596  27.604  29.835  1.00  0.00     0.167 HD
ATOM     26  C   UNL A   1      43.618  28.237  34.337  1.00  0.00     0.034 A 
ATOM     27  C   UNL A   1      43.667  25.543  27.962  1.00  0.00     0.034 A 
ATOM     28  C   UNL A   1      44.818  28.839  33.817  1.00  0.00     0.049 A 
ATOM     29  C   UNL A   1      44.738  25.626  28.987  1.00  0.00     0.074 A 
ATOM     30  C   UNL A   1      45.218  30.144  33.600  1.00  0.00     0.029 A 
ATOM     31  N   UNL A   1      45.687  28.063  33.087  1.00  0.00    -0.354 N 
ATOM     32  N   UNL A   1      45.671  26.540  28.977  1.00  0.00    -0.248 NA
ATOM     33  C   UNL A   1      44.495  25.013  30.287  1.00  0.00     0.031 C 
ATOM     34  C   UNL A   1      45.947  30.105  32.376  1.00  0.00     0.029 A 
ATOM     35  C   UNL A   1      46.000  28.775  31.953  1.00  0.00     0.049 A 
ATOM     36  H   UNL A   1      46.021  27.170  33.329  1.00  0.00     0.167 HD
ATOM     37  C   UNL A   1      45.825  26.917  30.303  1.00  0.00     0.074 A 
ATOM     38  C   UNL A   1      45.158  25.869  31.072  1.00  0.00     0.031 C 
ATOM     39  C   UNL A   1      46.218  28.182  30.647  1.00  0.00     0.034 A 
BRANCH  26  40
ATOM     40  C   UNL A   1      43.627  27.105  35.339  1.00  0.00     0.023 A 
ATOM     41  C   UNL A   1      43.959  27.410  36.670  1.00  0.00     0.031 A 
ATOM     42  C   UNL A   1      43.611  25.728  35.007  1.00  0.00     0.131 A 
ATOM     43  C   UNL A   1      44.329  26.395  37.570  1.00  0.00     0.055 A 
ATOM     44  C   UNL A   1      43.909  24.718  35.924  1.00  0.00     0.041 A 
ATOM     45  F   UNL A   1      43.406  25.283  33.762  1.00  0.00    -0.206 F 
ATOM     46  C   UNL A   1      44.302  25.050  37.207  1.00  0.00     0.022 A 
BRANCH  43  47
ATOM     47  S   UNL A   1      45.035  26.873  39.167  1.00  0.00     0.124 S 
ATOM     48  O   UNL A   1      46.278  26.108  39.186  1.00  0.00    -0.237 OA
ATOM     49  O   UNL A   1      45.169  28.317  39.013  1.00  0.00    -0.237 OA
ATOM     50  O   UNL A   1      44.024  26.438  40.128  1.00  0.00    -0.744 OA
ENDBRANCH  43  47
ENDBRANCH  26  40
BRANCH  27  51
ATOM     51  C   UNL A   1      43.178  24.285  27.333  1.00  0.00     0.023 A 
ATOM     52  C   UNL A   1      43.954  23.533  26.434  1.00  0.00     0.031 A 
ATOM     53  C   UNL A   1      41.958  23.703  27.760  1.00  0.00     0.131 A 
ATOM     54  C   UNL A   1      43.489  22.277  25.977  1.00  0.00     0.055 A 
ATOM     55  C   UNL A   1      41.495  22.475  27.290  1.00  0.00     0.041 A 
ATOM     56  F   UNL A   1      41.206  24.281  28.710  1.00  0.00    -0.206 F 
ATOM     57  C   UNL A   1      42.264  21.752  26.394  1.00  0.00     0.022 A 
BRANCH  54  58
ATOM     58  S   UNL A   1      44.532  21.262  24.883  1.00  0.00     0.124 S 
ATOM     59  O   UNL A   1      45.816  21.283  25.573  1.00  0.00    -0.237 OA
ATOM     60  O   UNL A   1      43.821  19.988  24.871  1.00  0.00    -0.237 OA
ATOM     61  O   UNL A   1      44.504  21.990  23.613  1.00  0.00    -0.744 OA
ENDBRANCH  54  58
ENDBRANCH  27  51
BRANCH  39  62
ATOM     62  C   UNL A   1      46.677  29.119  29.546  1.00  0.00     0.023 A 
ATOM     63  C   UNL A   1      45.804  29.901  28.752  1.00  0.00     0.031 A 
ATOM     64  C   UNL A   1      48.057  29.353  29.415  1.00  0.00     0.131 A 
ATOM     65  C   UNL A   1      46.323  30.865  27.865  1.00  0.00     0.055 A 
ATOM     66  C   UNL A   1      48.566  30.318  28.547  1.00  0.00     0.041 A 
ATOM     67  F   UNL A   1      48.935  28.675  30.174  1.00  0.00    -0.206 F 
ATOM     68  C   UNL A   1      47.702  31.077  27.765  1.00  0.00     0.022 A 
BRANCH  65  69
ATOM     69  S   UNL A   1      45.207  31.877  26.836  1.00  0.00     0.124 S 
ATOM     70  O   UNL A   1      46.083  32.392  25.790  1.00  0.00    -0.237 OA
ATOM     71  O   UNL A   1      44.199  30.908  26.412  1.00  0.00    -0.237 OA
ATOM     72  O   UNL A   1      44.713  32.893  27.767  1.00  0.00    -0.744 OA
ENDBRANCH  65  69
ENDBRANCH  39  62
ENDBRANCH  13  14
ENDBRANCH   6   8
ENDBRANCH   5   6
ENDBRANCH   4   5
ENDBRANCH   3   4
ENDBRANCH   2   3
ENDBRANCH   1   2
BRANCH   1  73
ATOM     73  C   UNL A   1      33.623  29.156  25.784  1.00  0.00     0.261 C 
BRANCH  73  74
ATOM     74  O   UNL A   1      34.262  27.867  25.751  1.00  0.00    -0.460 OA
BRANCH  74  75
ATOM     75  C   UNL A   1      33.467  26.762  25.828  1.00  0.00     0.340 C 
ATOM     76  O   UNL A   1      32.494  26.648  26.563  1.00  0.00    -0.246 OA
BRANCH  75  77
ATOM     77  C   UNL A   1      33.748  25.843  24.723  1.00  0.00     0.095 A 
ATOM     78  C   UNL A   1      33.078  25.906  23.507  1.00  0.00     0.150 A 
ATOM     79  C   UNL A   1      34.664  24.715  24.738  1.00  0.00    -0.007 A 
ATOM     80  S   UNL A   1      33.267  24.440  22.646  1.00  0.00    -0.120 S 
ATOM     81  C   UNL A   1      34.661  24.064  23.523  1.00  0.00     0.064 A 
ATOM     82  C   UNL A   1      35.514  24.159  25.847  1.00  0.00     0.099 C 
ATOM     83  C   UNL A   1      35.680  23.064  23.088  1.00  0.00     0.308 C 
ATOM     84  C   UNL A   1      36.598  23.182  25.331  1.00  0.00     0.265 C 
ATOM     85  N   UNL A   1      36.155  22.287  24.240  1.00  0.00    -0.342 N 
ATOM     86  H   UNL A   1      35.396  21.696  24.580  1.00  0.00     0.346 HD
ATOM     87  H   UNL A   1      36.946  21.715  23.944  1.00  0.00     0.346 HD
BRANCH  78  88
ATOM     88  S   UNL A   1      32.051  27.147  22.750  1.00  0.00     0.253 S 
ATOM     89  O   UNL A   1      32.892  28.308  22.571  1.00  0.00    -0.206 OA
ATOM     90  O   UNL A   1      31.451  26.461  21.620  1.00  0.00    -0.206 OA
BRANCH  88  91
ATOM     91  N   UNL A   1      30.772  27.560  23.779  1.00  0.00    -0.192 NA
ATOM     92  C   UNL A   1      29.892  26.527  24.376  1.00  0.00     0.131 C 
ATOM     93  C   UNL A   1      30.080  28.850  23.560  1.00  0.00     0.134 C 
ATOM     94  C   UNL A   1      28.459  26.518  23.800  1.00  0.00     0.177 C 
ATOM     95  C   UNL A   1      28.818  28.614  22.725  1.00  0.00     0.135 C 
ATOM     96  O   UNL A   1      27.908  27.814  23.508  1.00  0.00    -0.375 OA
BRANCH  95  97
ATOM     97  C   UNL A   1      28.105  29.893  22.281  1.00  0.00     0.061 C 
BRANCH  97  98
ATOM     98  C   UNL A   1      28.930  30.756  21.332  1.00  0.00     0.159 C 
BRANCH  98  99
ATOM     99  O   UNL A   1      29.506  31.839  22.050  1.00  0.00    -0.396 OA
ATOM    100  H   UNL A   1      28.814  32.302  22.546  1.00  0.00     0.210 HD
ENDBRANCH  98  99
ENDBRANCH  97  98
ENDBRANCH  95  97
ENDBRANCH  88  91
ENDBRANCH  78  88
ENDBRANCH  75  77
ENDBRANCH  74  75
ENDBRANCH  73  74
ENDBRANCH   1  73
TORSDOF 22
ENDMDL
MODEL 3
REMARK VINA RESULT:     -10.5      3.566      8.868
REMARK SMILES O=C(OCCOCCOC(=O)c1c(S(=O)(=O)N2CCO[C@@H](CCO)C2)sc2c1CC[NH2+]C2)c1ccc(-c2c3nc(c(-c4cc(S(=O)(=O)[O-])ccc4F)c4ccc([nH]4)c(-c4cc(S(=O)(=O)[O-])ccc4F)c4nc(c(-c5cc(S(=O)(=O)[O-])ccc5F)c5ccc2[nH]5)C=C4)C=C3)cc1
REMARK SMILES IDX 7 1 6 2 5 3 4 4 3 5 2 6 1 7 33 8 34 9 95 10 35 11 94 12
REMARK SMILES IDX 36 13 37 14 38 15 88 16 39 17 93 18 87 19 89 20 40 21 92 22
REMARK SMILES IDX 86 23 85 24 41 26 73 27 53 28 72 29 54 30 57 31 71 32 90 33
REMARK SMILES IDX 55 34 56 35 70 37 91 38 58 39 42 40 43 41 51 42 44 43 50 44
REMARK SMILES IDX 52 45 49 46 45 47 46 48 47 49 48 50 74 51 75 52 83 53 76 54
REMARK SMILES IDX 82 55 84 56 81 57 77 58 78 59 79 60 80 61 59 62 60 63 68 64
REMARK SMILES IDX 61 65 67 66 69 67 66 68 62 69 63 70 64 71 65 72 8 73 9 74
REMARK SMILES IDX 10 75 11 76 12 77 13 78 28 79 26 80 27 81 29 82 32 83 30 84
REMARK SMILES IDX 31 85 14 88 15 89 16 90 17 91 18 92 25 93 19 94 21 95 20 96
REMARK SMILES IDX 22 97 23 98 24 99
REMARK H PARENT 89 25 57 36 31 86 31 87 24 100
REMARK Flexibility Score: inf
ROOT
ATOM      1  C   UNL A   1      33.381  29.509  27.069  1.00  0.00     0.202 C 
ENDROOT
BRANCH   1   2
ATOM      2  O   UNL A   1      33.090  30.673  26.281  1.00  0.00    -0.374 OA
BRANCH   2   3
ATOM      3  C   UNL A   1      31.765  31.189  26.338  1.00  0.00     0.202 C 
BRANCH   3   4
ATOM      4  C   UNL A   1      31.411  32.306  27.327  1.00  0.00     0.261 C 
BRANCH   4   5
ATOM      5  O   UNL A   1      32.402  33.343  27.315  1.00  0.00    -0.460 OA
BRANCH   5   6
ATOM      6  C   UNL A   1      33.169  33.678  28.378  1.00  0.00     0.338 C 
ATOM      7  O   UNL A   1      32.795  34.554  29.153  1.00  0.00    -0.246 OA
BRANCH   6   8
ATOM      8  C   UNL A   1      34.357  32.856  28.715  1.00  0.00     0.060 A 
ATOM      9  C   UNL A   1      34.646  32.327  29.978  1.00  0.00     0.016 A 
ATOM     10  C   UNL A   1      35.298  32.728  27.690  1.00  0.00     0.016 A 
ATOM     11  C   UNL A   1      35.937  32.023  30.319  1.00  0.00     0.010 A 
ATOM     12  C   UNL A   1      36.576  32.317  27.995  1.00  0.00     0.010 A 
ATOM     13  C   UNL A   1      36.904  32.117  29.336  1.00  0.00    -0.014 A 
BRANCH  13  14
ATOM     14  C   UNL A   1      38.282  32.000  29.763  1.00  0.00     0.031 A 
ATOM     15  C   UNL A   1      38.859  30.633  29.658  1.00  0.00     0.074 A 
ATOM     16  C   UNL A   1      38.940  33.124  30.103  1.00  0.00     0.049 A 
ATOM     17  N   UNL A   1      39.567  29.978  30.518  1.00  0.00    -0.248 NA
ATOM     18  C   UNL A   1      38.488  29.842  28.469  1.00  0.00     0.031 C 
ATOM     19  C   UNL A   1      38.446  34.506  30.020  1.00  0.00     0.029 A 
ATOM     20  N   UNL A   1      40.252  33.288  30.400  1.00  0.00    -0.354 N 
ATOM     21  C   UNL A   1      39.909  28.781  29.891  1.00  0.00     0.074 A 
ATOM     22  C   UNL A   1      39.081  28.679  28.721  1.00  0.00     0.031 C 
ATOM     23  C   UNL A   1      39.500  35.342  29.936  1.00  0.00     0.029 A 
ATOM     24  C   UNL A   1      40.715  34.564  30.094  1.00  0.00     0.049 A 
ATOM     25  H   UNL A   1      40.816  32.582  30.792  1.00  0.00     0.167 HD
ATOM     26  C   UNL A   1      41.014  28.074  30.243  1.00  0.00     0.034 A 
ATOM     27  C   UNL A   1      41.998  34.912  29.824  1.00  0.00     0.034 A 
ATOM     28  C   UNL A   1      41.414  28.356  31.598  1.00  0.00     0.049 A 
ATOM     29  C   UNL A   1      42.862  33.840  30.384  1.00  0.00     0.074 A 
ATOM     30  C   UNL A   1      40.800  28.210  32.827  1.00  0.00     0.029 A 
ATOM     31  N   UNL A   1      42.470  29.209  31.814  1.00  0.00    -0.354 N 
ATOM     32  N   UNL A   1      42.926  33.566  31.659  1.00  0.00    -0.248 NA
ATOM     33  C   UNL A   1      43.272  32.755  29.502  1.00  0.00     0.031 C 
ATOM     34  C   UNL A   1      41.192  29.361  33.571  1.00  0.00     0.029 A 
ATOM     35  C   UNL A   1      42.066  30.105  32.776  1.00  0.00     0.049 A 
ATOM     36  H   UNL A   1      43.346  29.184  31.367  1.00  0.00     0.167 HD
ATOM     37  C   UNL A   1      42.964  32.181  31.731  1.00  0.00     0.074 A 
ATOM     38  C   UNL A   1      43.286  31.742  30.375  1.00  0.00     0.031 C 
ATOM     39  C   UNL A   1      42.448  31.505  32.802  1.00  0.00     0.034 A 
BRANCH  26  40
ATOM     40  C   UNL A   1      41.916  27.394  29.239  1.00  0.00     0.023 A 
ATOM     41  C   UNL A   1      42.965  28.148  28.683  1.00  0.00     0.031 A 
ATOM     42  C   UNL A   1      41.632  26.164  28.595  1.00  0.00     0.131 A 
ATOM     43  C   UNL A   1      43.616  27.720  27.511  1.00  0.00     0.055 A 
ATOM     44  C   UNL A   1      42.329  25.710  27.475  1.00  0.00     0.041 A 
ATOM     45  F   UNL A   1      40.605  25.381  28.946  1.00  0.00    -0.206 F 
ATOM     46  C   UNL A   1      43.308  26.503  26.906  1.00  0.00     0.022 A 
BRANCH  43  47
ATOM     47  S   UNL A   1      44.737  28.871  26.679  1.00  0.00     0.124 S 
ATOM     48  O   UNL A   1      43.938  30.090  26.636  1.00  0.00    -0.237 OA
ATOM     49  O   UNL A   1      45.881  28.880  27.585  1.00  0.00    -0.237 OA
ATOM     50  O   UNL A   1      44.972  28.236  25.383  1.00  0.00    -0.744 OA
ENDBRANCH  43  47
ENDBRANCH  26  40
BRANCH  27  51
ATOM     51  C   UNL A   1      42.402  35.866  28.755  1.00  0.00     0.023 A 
ATOM     52  C   UNL A   1      42.647  37.227  29.005  1.00  0.00     0.031 A 
ATOM     53  C   UNL A   1      42.726  35.389  27.460  1.00  0.00     0.131 A 
ATOM     54  C   UNL A   1      43.160  38.054  27.977  1.00  0.00     0.055 A 
ATOM     55  C   UNL A   1      43.211  36.213  26.445  1.00  0.00     0.041 A 
ATOM     56  F   UNL A   1      42.648  34.083  27.158  1.00  0.00    -0.206 F 
ATOM     57  C   UNL A   1      43.434  37.555  26.701  1.00  0.00     0.022 A 
BRANCH  54  58
ATOM     58  S   UNL A   1      43.561  39.796  28.323  1.00  0.00     0.124 S 
ATOM     59  O   UNL A   1      42.240  40.403  28.424  1.00  0.00    -0.237 OA
ATOM     60  O   UNL A   1      44.327  39.698  29.561  1.00  0.00    -0.237 OA
ATOM     61  O   UNL A   1      44.339  40.206  27.153  1.00  0.00    -0.744 OA
ENDBRANCH  54  58
ENDBRANCH  27  51
BRANCH  39  62
ATOM     62  C   UNL A   1      42.005  32.304  34.014  1.00  0.00     0.023 A 
ATOM     63  C   UNL A   1      40.857  33.133  34.043  1.00  0.00     0.031 A 
ATOM     64  C   UNL A   1      42.674  32.081  35.229  1.00  0.00     0.131 A 
ATOM     65  C   UNL A   1      40.427  33.708  35.256  1.00  0.00     0.055 A 
ATOM     66  C   UNL A   1      42.237  32.640  36.430  1.00  0.00     0.041 A 
ATOM     67  F   UNL A   1      43.743  31.267  35.276  1.00  0.00    -0.206 F 
ATOM     68  C   UNL A   1      41.114  33.459  36.448  1.00  0.00     0.022 A 
BRANCH  65  69
ATOM     69  S   UNL A   1      38.952  34.779  35.304  1.00  0.00     0.124 S 
ATOM     70  O   UNL A   1      39.452  36.021  35.881  1.00  0.00    -0.237 OA
ATOM     71  O   UNL A   1      38.552  34.836  33.901  1.00  0.00    -0.237 OA
ATOM     72  O   UNL A   1      38.024  34.043  36.166  1.00  0.00    -0.744 OA
ENDBRANCH  65  69
ENDBRANCH  39  62
ENDBRANCH  13  14
ENDBRANCH   6   8
ENDBRANCH   5   6
ENDBRANCH   4   5
ENDBRANCH   3   4
ENDBRANCH   2   3
ENDBRANCH   1   2
BRANCH   1  73
ATOM     73  C   UNL A   1      34.268  28.431  26.428  1.00  0.00     0.261 C 
BRANCH  73  74
ATOM     74  O   UNL A   1      33.626  27.144  26.487  1.00  0.00    -0.460 OA
BRANCH  74  75
ATOM     75  C   UNL A   1      33.726  26.336  25.394  1.00  0.00     0.340 C 
ATOM     76  O   UNL A   1      34.032  26.711  24.268  1.00  0.00    -0.246 OA
BRANCH  75  77
ATOM     77  C   UNL A   1      33.700  24.926  25.788  1.00  0.00     0.095 A 
ATOM     78  C   UNL A   1      32.561  24.309  26.295  1.00  0.00     0.150 A 
ATOM     79  C   UNL A   1      34.821  24.001  25.795  1.00  0.00    -0.007 A 
ATOM     80  S   UNL A   1      32.978  22.859  27.100  1.00  0.00    -0.120 S 
ATOM     81  C   UNL A   1      34.428  22.757  26.241  1.00  0.00     0.064 A 
ATOM     82  C   UNL A   1      36.272  24.219  25.464  1.00  0.00     0.099 C 
ATOM     83  C   UNL A   1      35.231  21.507  26.099  1.00  0.00     0.308 C 
ATOM     84  C   UNL A   1      37.040  22.890  25.260  1.00  0.00     0.265 C 
ATOM     85  N   UNL A   1      36.665  21.809  26.197  1.00  0.00    -0.342 N 
ATOM     86  H   UNL A   1      36.880  22.103  27.149  1.00  0.00     0.346 HD
ATOM     87  H   UNL A   1      37.192  20.970  25.956  1.00  0.00     0.346 HD
BRANCH  78  88
ATOM     88  S   UNL A   1      30.842  24.769  26.319  1.00  0.00     0.253 S 
ATOM     89  O   UNL A   1      30.160  23.727  27.050  1.00  0.00    -0.206 OA
ATOM     90  O   UNL A   1      30.855  26.142  26.786  1.00  0.00    -0.206 OA
BRANCH  88  91
ATOM     91  N   UNL A   1      30.223  24.817  24.743  1.00  0.00    -0.192 NA
ATOM     92  C   UNL A   1      30.823  24.015  23.650  1.00  0.00     0.131 C 
ATOM     93  C   UNL A   1      29.611  26.076  24.265  1.00  0.00     0.134 C 
ATOM     94  C   UNL A   1      31.573  24.858  22.596  1.00  0.00     0.177 C 
ATOM     95  C   UNL A   1      30.646  26.873  23.465  1.00  0.00     0.135 C 
ATOM     96  O   UNL A   1      30.966  26.122  22.276  1.00  0.00    -0.375 OA
BRANCH  95  97
ATOM     97  C   UNL A   1      30.190  28.277  23.063  1.00  0.00     0.061 C 
BRANCH  97  98
ATOM     98  C   UNL A   1      31.318  29.160  22.540  1.00  0.00     0.159 C 
BRANCH  98  99
ATOM     99  O   UNL A   1      32.472  28.366  22.295  1.00  0.00    -0.396 OA
ATOM    100  H   UNL A   1      32.233  27.613  21.733  1.00  0.00     0.210 HD
ENDBRANCH  98  99
ENDBRANCH  97  98
ENDBRANCH  95  97
ENDBRANCH  88  91
ENDBRANCH  78  88
ENDBRANCH  75  77
ENDBRANCH  74  75
ENDBRANCH  73  74
ENDBRANCH   1  73
TORSDOF 22
ENDMDL
