MODEL 1
REMARK VINA RESULT:     -10.4      0.000      0.000
REMARK SMILES CC[C@H](C)[C@@H](C)NC(=O)c1ccncc1/C=C/C(=O)OCCOCCOC(=O)c1ccc(-c2c3nc(c(-c4cc(S(=O)(=O)[O-])ccc4F)c4ccc([nH]4)c(-c4cc(S(=O)(=O)[O-])ccc4F)c4nc(c(-c5cc(S(=O)(=O)[O-])ccc5F)c5ccc2[nH]5)C=C4)C=C3)cc1
REMARK SMILES IDX 22 1 21 2 20 3 18 4 19 5 17 6 16 7 15 8 10 9 11 10 12 11
REMARK SMILES IDX 14 12 13 13 8 14 7 15 9 17 5 18 6 19 3 20 4 21 2 22 1 23
REMARK SMILES IDX 23 24 24 25 25 26 26 27 27 28 28 29 29 30 30 31 91 32 31 33
REMARK SMILES IDX 90 34 32 35 33 36 34 37 84 38 35 39 89 40 83 41 85 42 36 43
REMARK SMILES IDX 88 44 82 45 81 46 37 48 69 49 49 50 68 51 50 52 53 53 67 54
REMARK SMILES IDX 86 55 51 56 52 57 66 59 87 60 54 61 38 62 39 63 47 64 40 65
REMARK SMILES IDX 46 66 48 67 45 68 41 69 42 70 43 71 44 72 70 73 71 74 79 75
REMARK SMILES IDX 72 76 78 77 80 78 77 79 73 80 74 81 75 82 76 83 55 84 56 85
REMARK SMILES IDX 64 86 57 87 63 88 65 89 62 90 58 91 59 92 60 93 61 94
REMARK H PARENT 7 16 85 47 53 58
REMARK Flexibility Score: inf
ROOT
ATOM      1  C   UNL A   1      32.340  28.907  23.353  1.00  0.00     0.202 C 
ENDROOT
BRANCH   1   2
ATOM      2  C   UNL A   1      32.149  27.708  22.423  1.00  0.00     0.261 C 
BRANCH   2   3
ATOM      3  O   UNL A   1      32.803  26.532  22.931  1.00  0.00    -0.460 OA
BRANCH   3   4
ATOM      4  C   UNL A   1      32.970  25.539  22.030  1.00  0.00     0.330 C 
ATOM      5  O   UNL A   1      33.277  25.664  20.852  1.00  0.00    -0.247 OA
BRANCH   4   6
ATOM      6  C   UNL A   1      32.821  24.193  22.620  1.00  0.00     0.094 C 
ATOM      7  C   UNL A   1      33.758  23.241  22.777  1.00  0.00     0.018 C 
BRANCH   7   8
ATOM      8  C   UNL A   1      33.437  21.950  23.428  1.00  0.00     0.006 A 
ATOM      9  C   UNL A   1      34.004  21.495  24.633  1.00  0.00     0.050 A 
ATOM     10  C   UNL A   1      33.488  20.355  25.264  1.00  0.00     0.034 A 
ATOM     11  C   UNL A   1      32.540  19.604  24.600  1.00  0.00     0.112 A 
ATOM     12  C   UNL A   1      32.518  21.077  22.839  1.00  0.00     0.119 A 
ATOM     13  N   UNL A   1      32.070  19.918  23.381  1.00  0.00    -0.264 NA
BRANCH   9  14
ATOM     14  C   UNL A   1      35.138  22.201  25.272  1.00  0.00     0.252 C 
ATOM     15  N   UNL A   1      34.945  22.970  26.398  1.00  0.00    -0.349 N 
ATOM     16  H   UNL A   1      35.778  23.315  26.794  1.00  0.00     0.164 HD
ATOM     17  O   UNL A   1      36.268  22.077  24.809  1.00  0.00    -0.269 OA
BRANCH  15  18
ATOM     18  C   UNL A   1      33.729  23.371  27.121  1.00  0.00     0.082 C 
ATOM     19  C   UNL A   1      33.303  22.184  27.995  1.00  0.00     0.031 C 
BRANCH  18  20
ATOM     20  C   UNL A   1      32.604  23.827  26.152  1.00  0.00     0.008 C 
ATOM     21  C   UNL A   1      31.278  23.093  26.416  1.00  0.00     0.010 C 
BRANCH  20  22
ATOM     22  C   UNL A   1      32.365  25.356  26.167  1.00  0.00     0.002 C 
ATOM     23  C   UNL A   1      30.955  25.804  25.798  1.00  0.00     0.004 C 
ENDBRANCH  20  22
ENDBRANCH  18  20
ENDBRANCH  15  18
ENDBRANCH   9  14
ENDBRANCH   7   8
ENDBRANCH   4   6
ENDBRANCH   3   4
ENDBRANCH   2   3
ENDBRANCH   1   2
BRANCH   1  24
ATOM     24  O   UNL A   1      31.310  29.124  24.317  1.00  0.00    -0.374 OA
BRANCH  24  25
ATOM     25  C   UNL A   1      31.726  29.453  25.644  1.00  0.00     0.202 C 
BRANCH  25  26
ATOM     26  C   UNL A   1      31.768  30.946  25.998  1.00  0.00     0.261 C 
BRANCH  26  27
ATOM     27  O   UNL A   1      32.261  31.178  27.330  1.00  0.00    -0.460 OA
BRANCH  27  28
ATOM     28  C   UNL A   1      33.140  32.204  27.441  1.00  0.00     0.338 C 
ATOM     29  O   UNL A   1      32.887  33.399  27.342  1.00  0.00    -0.246 OA
BRANCH  28  30
ATOM     30  C   UNL A   1      34.449  31.701  27.900  1.00  0.00     0.060 A 
ATOM     31  C   UNL A   1      34.577  30.321  28.109  1.00  0.00     0.016 A 
ATOM     32  C   UNL A   1      35.515  32.560  28.171  1.00  0.00     0.016 A 
ATOM     33  C   UNL A   1      35.757  29.800  28.635  1.00  0.00     0.010 A 
ATOM     34  C   UNL A   1      36.697  32.035  28.705  1.00  0.00     0.010 A 
ATOM     35  C   UNL A   1      36.812  30.658  28.970  1.00  0.00    -0.014 A 
BRANCH  35  36
ATOM     36  C   UNL A   1      37.973  30.132  29.732  1.00  0.00     0.031 A 
ATOM     37  C   UNL A   1      38.198  30.609  31.141  1.00  0.00     0.074 A 
ATOM     38  C   UNL A   1      38.803  29.225  29.185  1.00  0.00     0.049 A 
ATOM     39  N   UNL A   1      39.156  30.311  31.979  1.00  0.00    -0.248 NA
ATOM     40  C   UNL A   1      37.204  31.555  31.670  1.00  0.00     0.031 C 
ATOM     41  C   UNL A   1      38.661  28.654  27.847  1.00  0.00     0.029 A 
ATOM     42  N   UNL A   1      39.930  28.628  29.692  1.00  0.00    -0.354 N 
ATOM     43  C   UNL A   1      38.891  31.042  33.133  1.00  0.00     0.074 A 
ATOM     44  C   UNL A   1      37.704  31.827  32.865  1.00  0.00     0.031 C 
ATOM     45  C   UNL A   1      39.663  27.782  27.641  1.00  0.00     0.029 A 
ATOM     46  C   UNL A   1      40.538  27.765  28.811  1.00  0.00     0.049 A 
ATOM     47  H   UNL A   1      40.270  28.800  30.599  1.00  0.00     0.167 HD
ATOM     48  C   UNL A   1      39.570  31.050  34.308  1.00  0.00     0.034 A 
ATOM     49  C   UNL A   1      41.681  27.059  28.930  1.00  0.00     0.034 A 
ATOM     50  C   UNL A   1      40.759  30.268  34.552  1.00  0.00     0.049 A 
ATOM     51  C   UNL A   1      42.476  27.160  30.209  1.00  0.00     0.074 A 
ATOM     52  C   UNL A   1      41.507  30.174  35.713  1.00  0.00     0.029 A 
ATOM     53  N   UNL A   1      41.388  29.460  33.612  1.00  0.00    -0.354 N 
ATOM     54  N   UNL A   1      42.210  27.842  31.299  1.00  0.00    -0.248 NA
ATOM     55  C   UNL A   1      43.728  26.393  30.270  1.00  0.00     0.031 C 
ATOM     56  C   UNL A   1      42.630  29.381  35.449  1.00  0.00     0.029 A 
ATOM     57  C   UNL A   1      42.539  28.904  34.151  1.00  0.00     0.049 A 
ATOM     58  H   UNL A   1      41.063  29.305  32.696  1.00  0.00     0.167 HD
ATOM     59  C   UNL A   1      43.243  27.556  32.189  1.00  0.00     0.074 A 
ATOM     60  C   UNL A   1      44.133  26.636  31.507  1.00  0.00     0.031 C 
ATOM     61  C   UNL A   1      43.433  28.004  33.457  1.00  0.00     0.034 A 
BRANCH  48  62
ATOM     62  C   UNL A   1      39.072  31.988  35.386  1.00  0.00     0.023 A 
ATOM     63  C   UNL A   1      39.492  33.327  35.460  1.00  0.00     0.031 A 
ATOM     64  C   UNL A   1      38.208  31.515  36.390  1.00  0.00     0.131 A 
ATOM     65  C   UNL A   1      39.128  34.116  36.562  1.00  0.00     0.055 A 
ATOM     66  C   UNL A   1      37.775  32.333  37.436  1.00  0.00     0.041 A 
ATOM     67  F   UNL A   1      37.789  30.240  36.388  1.00  0.00    -0.206 F 
ATOM     68  C   UNL A   1      38.251  33.636  37.538  1.00  0.00     0.022 A 
BRANCH  65  69
ATOM     69  S   UNL A   1      39.963  35.710  36.801  1.00  0.00     0.124 S 
ATOM     70  O   UNL A   1      39.301  36.213  38.002  1.00  0.00    -0.237 OA
ATOM     71  O   UNL A   1      41.357  35.313  36.957  1.00  0.00    -0.237 OA
ATOM     72  O   UNL A   1      39.655  36.445  35.576  1.00  0.00    -0.744 OA
ENDBRANCH  65  69
ENDBRANCH  48  62
BRANCH  49  73
ATOM     73  C   UNL A   1      42.160  26.209  27.803  1.00  0.00     0.023 A 
ATOM     74  C   UNL A   1      41.798  24.857  27.714  1.00  0.00     0.031 A 
ATOM     75  C   UNL A   1      43.015  26.731  26.816  1.00  0.00     0.131 A 
ATOM     76  C   UNL A   1      42.315  24.061  26.679  1.00  0.00     0.055 A 
ATOM     77  C   UNL A   1      43.487  25.948  25.761  1.00  0.00     0.041 A 
ATOM     78  F   UNL A   1      43.395  28.018  26.857  1.00  0.00    -0.206 F 
ATOM     79  C   UNL A   1      43.144  24.601  25.695  1.00  0.00     0.022 A 
BRANCH  76  80
ATOM     80  S   UNL A   1      41.935  22.287  26.675  1.00  0.00     0.124 S 
ATOM     81  O   UNL A   1      42.694  21.819  27.829  1.00  0.00    -0.237 OA
ATOM     82  O   UNL A   1      40.483  22.287  26.819  1.00  0.00    -0.237 OA
ATOM     83  O   UNL A   1      42.430  21.837  25.376  1.00  0.00    -0.744 OA
ENDBRANCH  76  80
ENDBRANCH  49  73
BRANCH  61  84
ATOM     84  C   UNL A   1      44.630  27.465  34.206  1.00  0.00     0.023 A 
ATOM     85  C   UNL A   1      44.543  26.330  35.033  1.00  0.00     0.031 A 
ATOM     86  C   UNL A   1      45.877  28.105  34.098  1.00  0.00     0.131 A 
ATOM     87  C   UNL A   1      45.665  25.906  35.762  1.00  0.00     0.055 A 
ATOM     88  C   UNL A   1      47.006  27.641  34.774  1.00  0.00     0.041 A 
ATOM     89  F   UNL A   1      46.021  29.195  33.327  1.00  0.00    -0.206 F 
ATOM     90  C   UNL A   1      46.901  26.544  35.623  1.00  0.00     0.022 A 
BRANCH  87  91
ATOM     91  S   UNL A   1      45.469  24.566  36.969  1.00  0.00     0.124 S 
ATOM     92  O   UNL A   1      44.931  23.490  36.141  1.00  0.00    -0.237 OA
ATOM     93  O   UNL A   1      46.832  24.377  37.452  1.00  0.00    -0.237 OA
ATOM     94  O   UNL A   1      44.536  25.120  37.948  1.00  0.00    -0.744 OA
ENDBRANCH  87  91
ENDBRANCH  61  84
ENDBRANCH  35  36
ENDBRANCH  28  30
ENDBRANCH  27  28
ENDBRANCH  26  27
ENDBRANCH  25  26
ENDBRANCH  24  25
ENDBRANCH   1  24
TORSDOF 22
ENDMDL
MODEL 2
REMARK VINA RESULT:     -10.3      1.156      2.315
REMARK SMILES CC[C@H](C)[C@@H](C)NC(=O)c1ccncc1/C=C/C(=O)OCCOCCOC(=O)c1ccc(-c2c3nc(c(-c4cc(S(=O)(=O)[O-])ccc4F)c4ccc([nH]4)c(-c4cc(S(=O)(=O)[O-])ccc4F)c4nc(c(-c5cc(S(=O)(=O)[O-])ccc5F)c5ccc2[nH]5)C=C4)C=C3)cc1
REMARK SMILES IDX 22 1 21 2 20 3 18 4 19 5 17 6 16 7 15 8 10 9 11 10 12 11
REMARK SMILES IDX 14 12 13 13 8 14 7 15 9 17 5 18 6 19 3 20 4 21 2 22 1 23
REMARK SMILES IDX 23 24 24 25 25 26 26 27 27 28 28 29 29 30 30 31 91 32 31 33
REMARK SMILES IDX 90 34 32 35 33 36 34 37 84 38 35 39 89 40 83 41 85 42 36 43
REMARK SMILES IDX 88 44 82 45 81 46 37 48 69 49 49 50 68 51 50 52 53 53 67 54
REMARK SMILES IDX 86 55 51 56 52 57 66 59 87 60 54 61 38 62 39 63 47 64 40 65
REMARK SMILES IDX 46 66 48 67 45 68 41 69 42 70 43 71 44 72 70 73 71 74 79 75
REMARK SMILES IDX 72 76 78 77 80 78 77 79 73 80 74 81 75 82 76 83 55 84 56 85
REMARK SMILES IDX 64 86 57 87 63 88 65 89 62 90 58 91 59 92 60 93 61 94
REMARK H PARENT 7 16 85 47 53 58
REMARK Flexibility Score: inf
ROOT
ATOM      1  C   UNL A   1      31.064  29.490  24.120  1.00  0.00     0.202 C 
ENDROOT
BRANCH   1   2
ATOM      2  C   UNL A   1      31.398  28.335  23.176  1.00  0.00     0.261 C 
BRANCH   2   3
ATOM      3  O   UNL A   1      32.200  27.333  23.825  1.00  0.00    -0.460 OA
BRANCH   3   4
ATOM      4  C   UNL A   1      32.615  26.327  23.024  1.00  0.00     0.330 C 
ATOM      5  O   UNL A   1      32.313  26.156  21.850  1.00  0.00    -0.247 OA
BRANCH   4   6
ATOM      6  C   UNL A   1      33.584  25.427  23.681  1.00  0.00     0.094 C 
ATOM      7  C   UNL A   1      33.589  24.082  23.711  1.00  0.00     0.018 C 
BRANCH   7   8
ATOM      8  C   UNL A   1      34.670  23.335  24.395  1.00  0.00     0.006 A 
ATOM      9  C   UNL A   1      34.475  22.203  25.208  1.00  0.00     0.050 A 
ATOM     10  C   UNL A   1      35.576  21.455  25.645  1.00  0.00     0.034 A 
ATOM     11  C   UNL A   1      36.844  21.944  25.406  1.00  0.00     0.112 A 
ATOM     12  C   UNL A   1      35.999  23.749  24.265  1.00  0.00     0.119 A 
ATOM     13  N   UNL A   1      37.080  23.098  24.759  1.00  0.00    -0.264 NA
BRANCH   9  14
ATOM     14  C   UNL A   1      33.120  21.763  25.611  1.00  0.00     0.252 C 
ATOM     15  N   UNL A   1      32.430  20.831  24.866  1.00  0.00    -0.349 N 
ATOM     16  H   UNL A   1      31.583  20.540  25.274  1.00  0.00     0.164 HD
ATOM     17  O   UNL A   1      32.617  22.211  26.637  1.00  0.00    -0.269 OA
BRANCH  15  18
ATOM     18  C   UNL A   1      32.723  20.189  23.576  1.00  0.00     0.082 C 
ATOM     19  C   UNL A   1      31.985  20.985  22.491  1.00  0.00     0.031 C 
BRANCH  18  20
ATOM     20  C   UNL A   1      32.330  18.686  23.577  1.00  0.00     0.008 C 
ATOM     21  C   UNL A   1      32.444  18.056  22.178  1.00  0.00     0.010 C 
BRANCH  20  22
ATOM     22  C   UNL A   1      33.135  17.844  24.595  1.00  0.00     0.002 C 
ATOM     23  C   UNL A   1      34.650  18.002  24.528  1.00  0.00     0.004 C 
ENDBRANCH  20  22
ENDBRANCH  18  20
ENDBRANCH  15  18
ENDBRANCH   9  14
ENDBRANCH   7   8
ENDBRANCH   4   6
ENDBRANCH   3   4
ENDBRANCH   2   3
ENDBRANCH   1   2
BRANCH   1  24
ATOM     24  O   UNL A   1      31.432  29.310  25.488  1.00  0.00    -0.374 OA
BRANCH  24  25
ATOM     25  C   UNL A   1      32.424  30.194  26.012  1.00  0.00     0.202 C 
BRANCH  25  26
ATOM     26  C   UNL A   1      31.913  31.429  26.765  1.00  0.00     0.261 C 
BRANCH  26  27
ATOM     27  O   UNL A   1      32.717  32.596  26.512  1.00  0.00    -0.460 OA
BRANCH  27  28
ATOM     28  C   UNL A   1      33.194  33.210  27.622  1.00  0.00     0.338 C 
ATOM     29  O   UNL A   1      32.611  34.041  28.308  1.00  0.00    -0.246 OA
BRANCH  28  30
ATOM     30  C   UNL A   1      34.473  32.596  28.028  1.00  0.00     0.060 A 
ATOM     31  C   UNL A   1      34.453  31.249  28.416  1.00  0.00     0.016 A 
ATOM     32  C   UNL A   1      35.659  33.329  28.082  1.00  0.00     0.016 A 
ATOM     33  C   UNL A   1      35.609  30.644  28.902  1.00  0.00     0.010 A 
ATOM     34  C   UNL A   1      36.818  32.721  28.577  1.00  0.00     0.010 A 
ATOM     35  C   UNL A   1      36.791  31.385  29.020  1.00  0.00    -0.014 A 
BRANCH  35  36
ATOM     36  C   UNL A   1      37.953  30.808  29.742  1.00  0.00     0.031 A 
ATOM     37  C   UNL A   1      38.196  31.207  31.172  1.00  0.00     0.074 A 
ATOM     38  C   UNL A   1      38.767  29.921  29.140  1.00  0.00     0.049 A 
ATOM     39  N   UNL A   1      39.159  30.856  31.983  1.00  0.00    -0.248 NA
ATOM     40  C   UNL A   1      37.219  32.135  31.759  1.00  0.00     0.031 C 
ATOM     41  C   UNL A   1      38.606  29.423  27.776  1.00  0.00     0.029 A 
ATOM     42  N   UNL A   1      39.891  29.286  29.603  1.00  0.00    -0.354 N 
ATOM     43  C   UNL A   1      38.913  31.528  33.177  1.00  0.00     0.074 A 
ATOM     44  C   UNL A   1      37.733  32.339  32.962  1.00  0.00     0.031 C 
ATOM     45  C   UNL A   1      39.595  28.551  27.514  1.00  0.00     0.029 A 
ATOM     46  C   UNL A   1      40.481  28.463  28.672  1.00  0.00     0.049 A 
ATOM     47  H   UNL A   1      40.242  29.407  30.515  1.00  0.00     0.167 HD
ATOM     48  C   UNL A   1      39.603  31.467  34.343  1.00  0.00     0.034 A 
ATOM     49  C   UNL A   1      41.617  27.740  28.743  1.00  0.00     0.034 A 
ATOM     50  C   UNL A   1      40.785  30.660  34.534  1.00  0.00     0.049 A 
ATOM     51  C   UNL A   1      42.425  27.765  30.017  1.00  0.00     0.074 A 
ATOM     52  C   UNL A   1      41.543  30.497  35.682  1.00  0.00     0.029 A 
ATOM     53  N   UNL A   1      41.396  29.896  33.547  1.00  0.00    -0.354 N 
ATOM     54  N   UNL A   1      42.177  28.392  31.145  1.00  0.00    -0.248 NA
ATOM     55  C   UNL A   1      43.668  26.982  30.026  1.00  0.00     0.031 C 
ATOM     56  C   UNL A   1      42.654  29.706  35.365  1.00  0.00     0.029 A 
ATOM     57  C   UNL A   1      42.545  29.299  34.045  1.00  0.00     0.049 A 
ATOM     58  H   UNL A   1      41.061  29.792  32.627  1.00  0.00     0.167 HD
ATOM     59  C   UNL A   1      43.215  28.048  32.008  1.00  0.00     0.074 A 
ATOM     60  C   UNL A   1      44.088  27.155  31.270  1.00  0.00     0.031 C 
ATOM     61  C   UNL A   1      43.422  28.426  33.296  1.00  0.00     0.034 A 
BRANCH  48  62
ATOM     62  C   UNL A   1      39.126  32.352  35.474  1.00  0.00     0.023 A 
ATOM     63  C   UNL A   1      39.532  33.693  35.592  1.00  0.00     0.031 A 
ATOM     64  C   UNL A   1      38.298  31.827  36.482  1.00  0.00     0.131 A 
ATOM     65  C   UNL A   1      39.191  34.430  36.736  1.00  0.00     0.055 A 
ATOM     66  C   UNL A   1      37.886  32.595  37.573  1.00  0.00     0.041 A 
ATOM     67  F   UNL A   1      37.895  30.548  36.439  1.00  0.00    -0.206 F 
ATOM     68  C   UNL A   1      38.350  33.899  37.716  1.00  0.00     0.022 A 
BRANCH  65  69
ATOM     69  S   UNL A   1      40.014  36.024  37.016  1.00  0.00     0.124 S 
ATOM     70  O   UNL A   1      39.958  36.623  35.685  1.00  0.00    -0.237 OA
ATOM     71  O   UNL A   1      39.168  36.640  38.032  1.00  0.00    -0.237 OA
ATOM     72  O   UNL A   1      41.353  35.645  37.463  1.00  0.00    -0.744 OA
ENDBRANCH  65  69
ENDBRANCH  48  62
BRANCH  49  73
ATOM     73  C   UNL A   1      42.075  26.945  27.569  1.00  0.00     0.023 A 
ATOM     74  C   UNL A   1      41.806  25.571  27.477  1.00  0.00     0.031 A 
ATOM     75  C   UNL A   1      42.819  27.543  26.536  1.00  0.00     0.131 A 
ATOM     76  C   UNL A   1      42.305  24.832  26.393  1.00  0.00     0.055 A 
ATOM     77  C   UNL A   1      43.271  26.814  25.435  1.00  0.00     0.041 A 
ATOM     78  F   UNL A   1      43.107  28.854  26.577  1.00  0.00    -0.206 F 
ATOM     79  C   UNL A   1      43.022  25.446  25.365  1.00  0.00     0.022 A 
BRANCH  76  80
ATOM     80  S   UNL A   1      42.054  23.035  26.379  1.00  0.00     0.124 S 
ATOM     81  O   UNL A   1      42.860  22.614  27.519  1.00  0.00    -0.237 OA
ATOM     82  O   UNL A   1      40.608  22.929  26.540  1.00  0.00    -0.237 OA
ATOM     83  O   UNL A   1      42.564  22.632  25.070  1.00  0.00    -0.744 OA
ENDBRANCH  76  80
ENDBRANCH  49  73
BRANCH  61  84
ATOM     84  C   UNL A   1      44.620  27.836  34.004  1.00  0.00     0.023 A 
ATOM     85  C   UNL A   1      44.568  26.579  34.634  1.00  0.00     0.031 A 
ATOM     86  C   UNL A   1      45.831  28.549  34.056  1.00  0.00     0.131 A 
ATOM     87  C   UNL A   1      45.685  26.101  35.337  1.00  0.00     0.055 A 
ATOM     88  C   UNL A   1      46.958  28.040  34.702  1.00  0.00     0.041 A 
ATOM     89  F   UNL A   1      45.939  29.755  33.476  1.00  0.00    -0.206 F 
ATOM     90  C   UNL A   1      46.886  26.816  35.359  1.00  0.00     0.022 A 
BRANCH  87  91
ATOM     91  S   UNL A   1      45.522  24.575  36.305  1.00  0.00     0.124 S 
ATOM     92  O   UNL A   1      46.842  24.463  36.918  1.00  0.00    -0.237 OA
ATOM     93  O   UNL A   1      44.423  24.894  37.209  1.00  0.00    -0.237 OA
ATOM     94  O   UNL A   1      45.220  23.560  35.297  1.00  0.00    -0.744 OA
ENDBRANCH  87  91
ENDBRANCH  61  84
ENDBRANCH  35  36
ENDBRANCH  28  30
ENDBRANCH  27  28
ENDBRANCH  26  27
ENDBRANCH  25  26
ENDBRANCH  24  25
ENDBRANCH   1  24
TORSDOF 22
ENDMDL
MODEL 3
REMARK VINA RESULT:     -10.1      2.974      8.272
REMARK SMILES CC[C@H](C)[C@@H](C)NC(=O)c1ccncc1/C=C/C(=O)OCCOCCOC(=O)c1ccc(-c2c3nc(c(-c4cc(S(=O)(=O)[O-])ccc4F)c4ccc([nH]4)c(-c4cc(S(=O)(=O)[O-])ccc4F)c4nc(c(-c5cc(S(=O)(=O)[O-])ccc5F)c5ccc2[nH]5)C=C4)C=C3)cc1
REMARK SMILES IDX 22 1 21 2 20 3 18 4 19 5 17 6 16 7 15 8 10 9 11 10 12 11
REMARK SMILES IDX 14 12 13 13 8 14 7 15 9 17 5 18 6 19 3 20 4 21 2 22 1 23
REMARK SMILES IDX 23 24 24 25 25 26 26 27 27 28 28 29 29 30 30 31 91 32 31 33
REMARK SMILES IDX 90 34 32 35 33 36 34 37 84 38 35 39 89 40 83 41 85 42 36 43
REMARK SMILES IDX 88 44 82 45 81 46 37 48 69 49 49 50 68 51 50 52 53 53 67 54
REMARK SMILES IDX 86 55 51 56 52 57 66 59 87 60 54 61 38 62 39 63 47 64 40 65
REMARK SMILES IDX 46 66 48 67 45 68 41 69 42 70 43 71 44 72 70 73 71 74 79 75
REMARK SMILES IDX 72 76 78 77 80 78 77 79 73 80 74 81 75 82 76 83 55 84 56 85
REMARK SMILES IDX 64 86 57 87 63 88 65 89 62 90 58 91 59 92 60 93 61 94
REMARK H PARENT 7 16 85 47 53 58
REMARK Flexibility Score: inf
ROOT
ATOM      1  C   UNL A   1      32.386  29.667  26.709  1.00  0.00     0.202 C 
ENDROOT
BRANCH   1   2
ATOM      2  C   UNL A   1      31.685  28.314  26.836  1.00  0.00     0.261 C 
BRANCH   2   3
ATOM      3  O   UNL A   1      32.198  27.359  25.890  1.00  0.00    -0.460 OA
BRANCH   3   4
ATOM      4  C   UNL A   1      31.974  26.065  26.209  1.00  0.00     0.330 C 
ATOM      5  O   UNL A   1      30.895  25.552  26.472  1.00  0.00    -0.247 OA
BRANCH   4   6
ATOM      6  C   UNL A   1      33.194  25.235  26.141  1.00  0.00     0.094 C 
ATOM      7  C   UNL A   1      33.388  24.086  25.468  1.00  0.00     0.018 C 
BRANCH   7   8
ATOM      8  C   UNL A   1      34.701  23.401  25.484  1.00  0.00     0.006 A 
ATOM      9  C   UNL A   1      34.910  22.073  25.900  1.00  0.00     0.050 A 
ATOM     10  C   UNL A   1      36.152  21.460  25.690  1.00  0.00     0.034 A 
ATOM     11  C   UNL A   1      37.200  22.229  25.228  1.00  0.00     0.112 A 
ATOM     12  C   UNL A   1      35.852  24.082  25.074  1.00  0.00     0.119 A 
ATOM     13  N   UNL A   1      37.088  23.539  24.952  1.00  0.00    -0.264 NA
BRANCH   9  14
ATOM     14  C   UNL A   1      33.838  21.288  26.553  1.00  0.00     0.252 C 
ATOM     15  N   UNL A   1      33.134  20.335  25.849  1.00  0.00    -0.349 N 
ATOM     16  H   UNL A   1      32.512  19.808  26.402  1.00  0.00     0.164 HD
ATOM     17  O   UNL A   1      33.592  21.467  27.742  1.00  0.00    -0.269 OA
BRANCH  15  18
ATOM     18  C   UNL A   1      33.137  19.957  24.428  1.00  0.00     0.082 C 
ATOM     19  C   UNL A   1      32.354  21.034  23.666  1.00  0.00     0.031 C 
BRANCH  18  20
ATOM     20  C   UNL A   1      32.555  18.534  24.208  1.00  0.00     0.008 C 
ATOM     21  C   UNL A   1      32.327  18.225  22.718  1.00  0.00     0.010 C 
BRANCH  20  22
ATOM     22  C   UNL A   1      33.412  17.416  24.847  1.00  0.00     0.002 C 
ATOM     23  C   UNL A   1      34.854  17.335  24.362  1.00  0.00     0.004 C 
ENDBRANCH  20  22
ENDBRANCH  18  20
ENDBRANCH  15  18
ENDBRANCH   9  14
ENDBRANCH   7   8
ENDBRANCH   4   6
ENDBRANCH   3   4
ENDBRANCH   2   3
ENDBRANCH   1   2
BRANCH   1  24
ATOM     24  O   UNL A   1      33.576  29.831  27.481  1.00  0.00    -0.374 OA
BRANCH  24  25
ATOM     25  C   UNL A   1      34.052  31.167  27.657  1.00  0.00     0.202 C 
BRANCH  25  26
ATOM     26  C   UNL A   1      32.998  32.281  27.610  1.00  0.00     0.261 C 
BRANCH  26  27
ATOM     27  O   UNL A   1      33.591  33.592  27.549  1.00  0.00    -0.460 OA
BRANCH  27  28
ATOM     28  C   UNL A   1      33.477  34.321  28.685  1.00  0.00     0.338 C 
ATOM     29  O   UNL A   1      32.538  35.043  29.002  1.00  0.00    -0.246 OA
BRANCH  28  30
ATOM     30  C   UNL A   1      34.572  33.984  29.614  1.00  0.00     0.060 A 
ATOM     31  C   UNL A   1      35.881  34.283  29.211  1.00  0.00     0.016 A 
ATOM     32  C   UNL A   1      34.336  33.341  30.830  1.00  0.00     0.016 A 
ATOM     33  C   UNL A   1      36.961  33.899  30.002  1.00  0.00     0.010 A 
ATOM     34  C   UNL A   1      35.423  32.950  31.620  1.00  0.00     0.010 A 
ATOM     35  C   UNL A   1      36.742  33.198  31.194  1.00  0.00    -0.014 A 
BRANCH  35  36
ATOM     36  C   UNL A   1      37.891  32.598  31.917  1.00  0.00     0.031 A 
ATOM     37  C   UNL A   1      38.678  31.500  31.253  1.00  0.00     0.074 A 
ATOM     38  C   UNL A   1      38.245  33.040  33.137  1.00  0.00     0.049 A 
ATOM     39  N   UNL A   1      39.695  30.814  31.705  1.00  0.00    -0.248 NA
ATOM     40  C   UNL A   1      38.251  31.127  29.898  1.00  0.00     0.031 C 
ATOM     41  C   UNL A   1      37.589  34.128  33.861  1.00  0.00     0.029 A 
ATOM     42  N   UNL A   1      39.244  32.626  33.981  1.00  0.00    -0.354 N 
ATOM     43  C   UNL A   1      40.025  29.916  30.694  1.00  0.00     0.074 A 
ATOM     44  C   UNL A   1      39.069  30.122  29.626  1.00  0.00     0.031 C 
ATOM     45  C   UNL A   1      38.210  34.299  35.041  1.00  0.00     0.029 A 
ATOM     46  C   UNL A   1      39.275  33.308  35.174  1.00  0.00     0.049 A 
ATOM     47  H   UNL A   1      39.879  31.909  33.754  1.00  0.00     0.167 HD
ATOM     48  C   UNL A   1      41.035  29.011  30.659  1.00  0.00     0.034 A 
ATOM     49  C   UNL A   1      40.061  33.136  36.257  1.00  0.00     0.034 A 
ATOM     50  C   UNL A   1      41.972  28.813  31.739  1.00  0.00     0.049 A 
ATOM     51  C   UNL A   1      41.114  32.056  36.236  1.00  0.00     0.074 A 
ATOM     52  C   UNL A   1      43.053  27.949  31.797  1.00  0.00     0.029 A 
ATOM     53  N   UNL A   1      41.929  29.471  32.962  1.00  0.00    -0.354 N 
ATOM     54  N   UNL A   1      41.428  31.222  35.271  1.00  0.00    -0.248 NA
ATOM     55  C   UNL A   1      41.920  31.896  37.454  1.00  0.00     0.031 C 
ATOM     56  C   UNL A   1      43.607  28.024  33.081  1.00  0.00     0.029 A 
ATOM     57  C   UNL A   1      42.931  29.000  33.798  1.00  0.00     0.049 A 
ATOM     58  H   UNL A   1      41.280  30.172  33.202  1.00  0.00     0.167 HD
ATOM     59  C   UNL A   1      42.492  30.464  35.754  1.00  0.00     0.074 A 
ATOM     60  C   UNL A   1      42.768  30.944  37.094  1.00  0.00     0.031 C 
ATOM     61  C   UNL A   1      43.186  29.469  35.141  1.00  0.00     0.034 A 
BRANCH  48  62
ATOM     62  C   UNL A   1      41.127  28.127  29.434  1.00  0.00     0.023 A 
ATOM     63  C   UNL A   1      42.106  28.325  28.445  1.00  0.00     0.031 A 
ATOM     64  C   UNL A   1      40.180  27.109  29.225  1.00  0.00     0.131 A 
ATOM     65  C   UNL A   1      42.058  27.584  27.254  1.00  0.00     0.055 A 
ATOM     66  C   UNL A   1      40.194  26.312  28.078  1.00  0.00     0.041 A 
ATOM     67  F   UNL A   1      39.206  26.885  30.121  1.00  0.00    -0.206 F 
ATOM     68  C   UNL A   1      41.123  26.562  27.074  1.00  0.00     0.022 A 
BRANCH  65  69
ATOM     69  S   UNL A   1      43.112  28.101  25.869  1.00  0.00     0.124 S 
ATOM     70  O   UNL A   1      44.241  27.183  25.999  1.00  0.00    -0.237 OA
ATOM     71  O   UNL A   1      42.243  27.890  24.718  1.00  0.00    -0.237 OA
ATOM     72  O   UNL A   1      43.418  29.497  26.174  1.00  0.00    -0.744 OA
ENDBRANCH  65  69
ENDBRANCH  48  62
BRANCH  49  73
ATOM     73  C   UNL A   1      39.874  33.991  37.463  1.00  0.00     0.023 A 
ATOM     74  C   UNL A   1      39.131  33.536  38.563  1.00  0.00     0.031 A 
ATOM     75  C   UNL A   1      40.408  35.291  37.520  1.00  0.00     0.131 A 
ATOM     76  C   UNL A   1      38.915  34.384  39.660  1.00  0.00     0.055 A 
ATOM     77  C   UNL A   1      40.232  36.113  38.633  1.00  0.00     0.041 A 
ATOM     78  F   UNL A   1      41.124  35.776  36.492  1.00  0.00    -0.206 F 
ATOM     79  C   UNL A   1      39.472  35.663  39.709  1.00  0.00     0.022 A 
BRANCH  76  80
ATOM     80  S   UNL A   1      37.837  33.811  41.002  1.00  0.00     0.124 S 
ATOM     81  O   UNL A   1      36.789  33.115  40.263  1.00  0.00    -0.237 OA
ATOM     82  O   UNL A   1      38.741  32.972  41.781  1.00  0.00    -0.237 OA
ATOM     83  O   UNL A   1      37.421  35.050  41.657  1.00  0.00    -0.744 OA
ENDBRANCH  76  80
ENDBRANCH  49  73
BRANCH  61  84
ATOM     84  C   UNL A   1      44.343  28.865  35.904  1.00  0.00     0.023 A 
ATOM     85  C   UNL A   1      45.656  29.350  35.771  1.00  0.00     0.031 A 
ATOM     86  C   UNL A   1      44.126  27.779  36.770  1.00  0.00     0.131 A 
ATOM     87  C   UNL A   1      46.709  28.714  36.448  1.00  0.00     0.055 A 
ATOM     88  C   UNL A   1      45.167  27.191  37.490  1.00  0.00     0.041 A 
ATOM     89  F   UNL A   1      42.894  27.271  36.935  1.00  0.00    -0.206 F 
ATOM     90  C   UNL A   1      46.469  27.649  37.321  1.00  0.00     0.022 A 
BRANCH  87  91
ATOM     91  S   UNL A   1      48.413  29.234  36.101  1.00  0.00     0.124 S 
ATOM     92  O   UNL A   1      48.593  28.780  34.725  1.00  0.00    -0.237 OA
ATOM     93  O   UNL A   1      48.343  30.679  36.291  1.00  0.00    -0.237 OA
ATOM     94  O   UNL A   1      49.202  28.515  37.099  1.00  0.00    -0.744 OA
ENDBRANCH  87  91
ENDBRANCH  61  84
ENDBRANCH  35  36
ENDBRANCH  28  30
ENDBRANCH  27  28
ENDBRANCH  26  27
ENDBRANCH  25  26
ENDBRANCH  24  25
ENDBRANCH   1  24
TORSDOF 22
ENDMDL
