MODEL 1
REMARK VINA RESULT:     -11.1      0.000      0.000
REMARK SMILES CNC(=O)c1cc(S(=O)(=O)N2CCC(C(=O)OCCOCCOC(=O)c3ccc(-c4c5nc(c(-c6cc(S(=O)(=O)[O-])ccc6F)c6ccc([nH]6)c(-c6cc(S(=O)(=O)[O-])ccc6F)c6nc(c(-c7cc(S(=O)(=O)[O-])ccc7F)c7ccc4[nH]7)C=C6)C=C5)cc3)CC2)ccc1OC
REMARK SMILES IDX 20 1 19 2 18 3 17 4 15 5 16 6 14 7 11 8 12 9 90 10 13 11
REMARK SMILES IDX 89 12 8 13 9 14 10 15 7 16 5 17 6 18 93 19 92 20 91 21 3 22
REMARK SMILES IDX 1 23 2 24 4 26 94 27 95 28 21 29 22 30 23 31 24 32 25 33
REMARK SMILES IDX 26 34 27 35 88 36 28 37 87 38 29 39 30 40 31 41 81 42 32 43
REMARK SMILES IDX 86 44 80 45 82 46 33 47 85 48 79 49 78 50 34 52 66 53 46 54
REMARK SMILES IDX 65 55 47 56 50 57 64 58 83 59 48 60 49 61 63 63 84 64 51 65
REMARK SMILES IDX 35 66 36 67 44 68 37 69 43 70 45 71 42 72 38 73 39 74 40 75
REMARK SMILES IDX 41 76 67 77 68 78 76 79 69 80 75 81 77 82 74 83 70 84 71 85
REMARK SMILES IDX 72 86 73 87 52 88 53 89 61 90 54 91 60 92 62 93 59 94 55 95
REMARK SMILES IDX 56 96 57 97 58 98
REMARK H PARENT 2 25 82 51 50 62
REMARK Flexibility Score: inf
ROOT
ATOM      1  O   UNL A   1      40.826  20.824  26.293  1.00  0.00    -0.374 OA
ENDROOT
BRANCH   1   2
ATOM      2  C   UNL A   1      40.009  21.801  26.937  1.00  0.00     0.202 C 
BRANCH   2   3
ATOM      3  C   UNL A   1      38.964  22.480  26.049  1.00  0.00     0.261 C 
BRANCH   3   4
ATOM      4  O   UNL A   1      37.770  21.682  25.946  1.00  0.00    -0.463 OA
BRANCH   4   5
ATOM      5  C   UNL A   1      37.016  21.891  24.840  1.00  0.00     0.309 C 
ATOM      6  O   UNL A   1      37.385  21.719  23.683  1.00  0.00    -0.252 OA
BRANCH   5   7
ATOM      7  C   UNL A   1      35.626  22.394  25.153  1.00  0.00     0.102 C 
ATOM      8  N   UNL A   1      33.327  23.966  25.823  1.00  0.00    -0.198 NA
ATOM      9  C   UNL A   1      33.793  22.920  26.763  1.00  0.00     0.103 C 
ATOM     10  C   UNL A   1      33.881  24.019  24.450  1.00  0.00     0.103 C 
ATOM     11  C   UNL A   1      35.282  22.620  26.621  1.00  0.00     0.032 C 
ATOM     12  C   UNL A   1      35.364  23.693  24.406  1.00  0.00     0.032 C 
BRANCH   8  13
ATOM     13  S   UNL A   1      31.710  24.487  25.999  1.00  0.00     0.243 S 
ATOM     14  O   UNL A   1      31.333  24.241  27.374  1.00  0.00    -0.207 OA
ATOM     15  O   UNL A   1      30.936  23.967  24.892  1.00  0.00    -0.207 OA
BRANCH  13  16
ATOM     16  C   UNL A   1      31.694  26.267  25.808  1.00  0.00     0.083 A 
ATOM     17  C   UNL A   1      31.425  28.146  24.288  1.00  0.00     0.083 A 
ATOM     18  C   UNL A   1      31.483  26.763  24.515  1.00  0.00     0.039 A 
ATOM     19  C   UNL A   1      31.506  29.033  25.369  1.00  0.00     0.131 A 
ATOM     20  C   UNL A   1      31.755  28.533  26.650  1.00  0.00     0.048 A 
ATOM     21  C   UNL A   1      31.850  27.156  26.873  1.00  0.00     0.025 A 
BRANCH  17  22
ATOM     22  C   UNL A   1      31.250  28.581  22.887  1.00  0.00     0.254 C 
ATOM     23  C   UNL A   1      33.729  28.971  22.494  1.00  0.00     0.143 C 
ATOM     24  N   UNL A   1      32.330  28.951  22.131  1.00  0.00    -0.355 N 
ATOM     25  H   UNL A   1      32.126  29.246  21.214  1.00  0.00     0.163 HD
ATOM     26  O   UNL A   1      30.124  28.584  22.398  1.00  0.00    -0.269 OA
ENDBRANCH  17  22
BRANCH  19  27
ATOM     27  O   UNL A   1      31.399  30.395  25.285  1.00  0.00    -0.496 OA
ATOM     28  C   UNL A   1      31.583  31.049  26.543  1.00  0.00     0.278 C 
ENDBRANCH  19  27
ENDBRANCH  13  16
ENDBRANCH   8  13
ENDBRANCH   5   7
ENDBRANCH   4   5
ENDBRANCH   3   4
ENDBRANCH   2   3
ENDBRANCH   1   2
BRANCH   1  29
ATOM     29  C   UNL A   1      42.234  20.903  26.508  1.00  0.00     0.202 C 
BRANCH  29  30
ATOM     30  C   UNL A   1      43.058  21.580  25.404  1.00  0.00     0.261 C 
BRANCH  30  31
ATOM     31  O   UNL A   1      42.652  22.942  25.175  1.00  0.00    -0.460 OA
BRANCH  31  32
ATOM     32  C   UNL A   1      43.665  23.848  25.220  1.00  0.00     0.338 C 
ATOM     33  O   UNL A   1      44.503  24.046  24.356  1.00  0.00    -0.246 OA
BRANCH  32  34
ATOM     34  C   UNL A   1      43.518  24.722  26.401  1.00  0.00     0.060 A 
ATOM     35  C   UNL A   1      42.872  24.189  27.525  1.00  0.00     0.016 A 
ATOM     36  C   UNL A   1      43.928  26.057  26.389  1.00  0.00     0.016 A 
ATOM     37  C   UNL A   1      42.582  25.002  28.619  1.00  0.00     0.010 A 
ATOM     38  C   UNL A   1      43.627  26.875  27.483  1.00  0.00     0.010 A 
ATOM     39  C   UNL A   1      42.920  26.360  28.586  1.00  0.00    -0.014 A 
BRANCH  39  40
ATOM     40  C   UNL A   1      42.372  27.285  29.610  1.00  0.00     0.031 A 
ATOM     41  C   UNL A   1      43.074  27.382  30.938  1.00  0.00     0.074 A 
ATOM     42  C   UNL A   1      41.284  28.034  29.364  1.00  0.00     0.049 A 
ATOM     43  N   UNL A   1      42.729  28.033  32.018  1.00  0.00    -0.248 NA
ATOM     44  C   UNL A   1      44.335  26.636  31.057  1.00  0.00     0.031 C 
ATOM     45  C   UNL A   1      40.560  28.080  28.095  1.00  0.00     0.029 A 
ATOM     46  N   UNL A   1      40.591  28.892  30.179  1.00  0.00    -0.354 N 
ATOM     47  C   UNL A   1      43.728  27.771  32.951  1.00  0.00     0.074 A 
ATOM     48  C   UNL A   1      44.669  26.873  32.316  1.00  0.00     0.031 C 
ATOM     49  C   UNL A   1      39.513  28.913  28.223  1.00  0.00     0.029 A 
ATOM     50  C   UNL A   1      39.465  29.421  29.593  1.00  0.00     0.049 A 
ATOM     51  H   UNL A   1      40.873  29.109  31.098  1.00  0.00     0.167 HD
ATOM     52  C   UNL A   1      43.850  28.239  34.218  1.00  0.00     0.034 A 
ATOM     53  C   UNL A   1      38.493  30.196  30.114  1.00  0.00     0.034 A 
ATOM     54  C   UNL A   1      42.888  29.113  34.844  1.00  0.00     0.049 A 
ATOM     55  C   UNL A   1      38.583  30.612  31.563  1.00  0.00     0.074 A 
ATOM     56  C   UNL A   1      42.899  29.637  36.125  1.00  0.00     0.029 A 
ATOM     57  N   UNL A   1      41.731  29.585  34.235  1.00  0.00    -0.354 N 
ATOM     58  N   UNL A   1      39.514  30.336  32.448  1.00  0.00    -0.248 NA
ATOM     59  C   UNL A   1      37.489  31.443  32.083  1.00  0.00     0.031 C 
ATOM     60  C   UNL A   1      41.721  30.370  36.312  1.00  0.00     0.029 A 
ATOM     61  C   UNL A   1      41.009  30.367  35.122  1.00  0.00     0.049 A 
ATOM     62  H   UNL A   1      41.464  29.390  33.308  1.00  0.00     0.167 HD
ATOM     63  C   UNL A   1      39.134  30.991  33.616  1.00  0.00     0.074 A 
ATOM     64  C   UNL A   1      37.891  31.673  33.325  1.00  0.00     0.031 C 
ATOM     65  C   UNL A   1      39.765  31.037  34.818  1.00  0.00     0.034 A 
BRANCH  52  66
ATOM     66  C   UNL A   1      45.035  27.751  35.016  1.00  0.00     0.023 A 
ATOM     67  C   UNL A   1      44.975  26.569  35.778  1.00  0.00     0.031 A 
ATOM     68  C   UNL A   1      46.217  28.508  35.071  1.00  0.00     0.131 A 
ATOM     69  C   UNL A   1      46.040  26.228  36.626  1.00  0.00     0.055 A 
ATOM     70  C   UNL A   1      47.307  28.119  35.853  1.00  0.00     0.041 A 
ATOM     71  F   UNL A   1      46.325  29.658  34.385  1.00  0.00    -0.206 F 
ATOM     72  C   UNL A   1      47.215  26.982  36.651  1.00  0.00     0.022 A 
BRANCH  69  73
ATOM     73  S   UNL A   1      45.800  24.884  37.820  1.00  0.00     0.124 S 
ATOM     74  O   UNL A   1      45.603  23.736  36.938  1.00  0.00    -0.237 OA
ATOM     75  O   UNL A   1      47.048  24.904  38.574  1.00  0.00    -0.237 OA
ATOM     76  O   UNL A   1      44.612  25.296  38.565  1.00  0.00    -0.744 OA
ENDBRANCH  69  73
ENDBRANCH  52  66
BRANCH  53  77
ATOM     77  C   UNL A   1      37.322  30.593  29.283  1.00  0.00     0.023 A 
ATOM     78  C   UNL A   1      36.887  31.925  29.233  1.00  0.00     0.031 A 
ATOM     79  C   UNL A   1      36.597  29.631  28.556  1.00  0.00     0.131 A 
ATOM     80  C   UNL A   1      35.737  32.257  28.499  1.00  0.00     0.055 A 
ATOM     81  C   UNL A   1      35.481  29.973  27.791  1.00  0.00     0.041 A 
ATOM     82  F   UNL A   1      36.973  28.343  28.571  1.00  0.00    -0.206 F 
ATOM     83  C   UNL A   1      35.040  31.293  27.767  1.00  0.00     0.022 A 
BRANCH  80  84
ATOM     84  S   UNL A   1      35.130  33.966  28.558  1.00  0.00     0.124 S 
ATOM     85  O   UNL A   1      33.976  33.840  29.441  1.00  0.00    -0.237 OA
ATOM     86  O   UNL A   1      36.281  34.677  29.103  1.00  0.00    -0.237 OA
ATOM     87  O   UNL A   1      34.820  34.265  27.162  1.00  0.00    -0.744 OA
ENDBRANCH  80  84
ENDBRANCH  53  77
BRANCH  65  88
ATOM     88  C   UNL A   1      39.150  31.905  35.887  1.00  0.00     0.023 A 
ATOM     89  C   UNL A   1      38.392  31.369  36.941  1.00  0.00     0.031 A 
ATOM     90  C   UNL A   1      39.334  33.300  35.845  1.00  0.00     0.131 A 
ATOM     91  C   UNL A   1      37.811  32.226  37.889  1.00  0.00     0.055 A 
ATOM     92  C   UNL A   1      38.797  34.142  36.819  1.00  0.00     0.041 A 
ATOM     93  F   UNL A   1      40.050  33.865  34.859  1.00  0.00    -0.206 F 
ATOM     94  C   UNL A   1      38.021  33.607  37.843  1.00  0.00     0.022 A 
BRANCH  91  95
ATOM     95  S   UNL A   1      36.716  31.520  39.153  1.00  0.00     0.124 S 
ATOM     96  O   UNL A   1      37.559  31.565  40.344  1.00  0.00    -0.237 OA
ATOM     97  O   UNL A   1      35.586  32.443  39.137  1.00  0.00    -0.237 OA
ATOM     98  O   UNL A   1      36.428  30.180  38.648  1.00  0.00    -0.744 OA
ENDBRANCH  91  95
ENDBRANCH  65  88
ENDBRANCH  39  40
ENDBRANCH  32  34
ENDBRANCH  31  32
ENDBRANCH  30  31
ENDBRANCH  29  30
ENDBRANCH   1  29
TORSDOF 21
ENDMDL
MODEL 2
REMARK VINA RESULT:     -10.9      5.329      7.876
REMARK SMILES CNC(=O)c1cc(S(=O)(=O)N2CCC(C(=O)OCCOCCOC(=O)c3ccc(-c4c5nc(c(-c6cc(S(=O)(=O)[O-])ccc6F)c6ccc([nH]6)c(-c6cc(S(=O)(=O)[O-])ccc6F)c6nc(c(-c7cc(S(=O)(=O)[O-])ccc7F)c7ccc4[nH]7)C=C6)C=C5)cc3)CC2)ccc1OC
REMARK SMILES IDX 20 1 19 2 18 3 17 4 15 5 16 6 14 7 11 8 12 9 90 10 13 11
REMARK SMILES IDX 89 12 8 13 9 14 10 15 7 16 5 17 6 18 93 19 92 20 91 21 3 22
REMARK SMILES IDX 1 23 2 24 4 26 94 27 95 28 21 29 22 30 23 31 24 32 25 33
REMARK SMILES IDX 26 34 27 35 88 36 28 37 87 38 29 39 30 40 31 41 81 42 32 43
REMARK SMILES IDX 86 44 80 45 82 46 33 47 85 48 79 49 78 50 34 52 66 53 46 54
REMARK SMILES IDX 65 55 47 56 50 57 64 58 83 59 48 60 49 61 63 63 84 64 51 65
REMARK SMILES IDX 35 66 36 67 44 68 37 69 43 70 45 71 42 72 38 73 39 74 40 75
REMARK SMILES IDX 41 76 67 77 68 78 76 79 69 80 75 81 77 82 74 83 70 84 71 85
REMARK SMILES IDX 72 86 73 87 52 88 53 89 61 90 54 91 60 92 62 93 59 94 55 95
REMARK SMILES IDX 56 96 57 97 58 98
REMARK H PARENT 2 25 82 51 50 62
REMARK Flexibility Score: inf
ROOT
ATOM      1  O   UNL A   1      40.636  20.459  27.711  1.00  0.00    -0.374 OA
ENDROOT
BRANCH   1   2
ATOM      2  C   UNL A   1      40.325  21.722  27.123  1.00  0.00     0.202 C 
BRANCH   2   3
ATOM      3  C   UNL A   1      39.485  21.668  25.845  1.00  0.00     0.261 C 
BRANCH   3   4
ATOM      4  O   UNL A   1      38.195  22.278  26.041  1.00  0.00    -0.463 OA
BRANCH   4   5
ATOM      5  C   UNL A   1      37.225  21.896  25.176  1.00  0.00     0.309 C 
ATOM      6  O   UNL A   1      37.403  21.256  24.146  1.00  0.00    -0.252 OA
BRANCH   5   7
ATOM      7  C   UNL A   1      35.846  22.357  25.587  1.00  0.00     0.102 C 
ATOM      8  N   UNL A   1      33.151  23.325  25.667  1.00  0.00    -0.198 NA
ATOM      9  C   UNL A   1      34.237  24.142  26.258  1.00  0.00     0.103 C 
ATOM     10  C   UNL A   1      33.418  21.920  25.279  1.00  0.00     0.103 C 
ATOM     11  C   UNL A   1      35.597  23.859  25.628  1.00  0.00     0.032 C 
ATOM     12  C   UNL A   1      34.799  21.734  24.675  1.00  0.00     0.032 C 
BRANCH   8  13
ATOM     13  S   UNL A   1      31.563  23.667  26.194  1.00  0.00     0.243 S 
ATOM     14  O   UNL A   1      31.627  23.878  27.624  1.00  0.00    -0.207 OA
ATOM     15  O   UNL A   1      30.664  22.698  25.605  1.00  0.00    -0.207 OA
BRANCH  13  16
ATOM     16  C   UNL A   1      31.095  25.249  25.497  1.00  0.00     0.083 A 
ATOM     17  C   UNL A   1      31.608  27.619  25.307  1.00  0.00     0.083 A 
ATOM     18  C   UNL A   1      31.890  26.352  25.838  1.00  0.00     0.039 A 
ATOM     19  C   UNL A   1      30.572  27.768  24.376  1.00  0.00     0.131 A 
ATOM     20  C   UNL A   1      29.759  26.673  24.071  1.00  0.00     0.048 A 
ATOM     21  C   UNL A   1      30.017  25.416  24.627  1.00  0.00     0.025 A 
BRANCH  17  22
ATOM     22  C   UNL A   1      32.466  28.732  25.759  1.00  0.00     0.254 C 
ATOM     23  C   UNL A   1      34.035  28.591  23.766  1.00  0.00     0.143 C 
ATOM     24  N   UNL A   1      33.555  29.119  25.023  1.00  0.00    -0.355 N 
ATOM     25  H   UNL A   1      34.086  29.856  25.404  1.00  0.00     0.163 HD
ATOM     26  O   UNL A   1      32.179  29.327  26.795  1.00  0.00    -0.269 OA
ENDBRANCH  17  22
BRANCH  19  27
ATOM     27  O   UNL A   1      30.241  28.936  23.741  1.00  0.00    -0.496 OA
ATOM     28  C   UNL A   1      30.644  28.960  22.371  1.00  0.00     0.278 C 
ENDBRANCH  19  27
ENDBRANCH  13  16
ENDBRANCH   8  13
ENDBRANCH   5   7
ENDBRANCH   4   5
ENDBRANCH   3   4
ENDBRANCH   2   3
ENDBRANCH   1   2
BRANCH   1  29
ATOM     29  C   UNL A   1      41.914  19.899  27.420  1.00  0.00     0.202 C 
BRANCH  29  30
ATOM     30  C   UNL A   1      42.023  19.075  26.130  1.00  0.00     0.261 C 
BRANCH  30  31
ATOM     31  O   UNL A   1      42.630  19.816  25.055  1.00  0.00    -0.460 OA
BRANCH  31  32
ATOM     32  C   UNL A   1      43.983  19.912  25.130  1.00  0.00     0.338 C 
ATOM     33  O   UNL A   1      44.787  19.006  24.985  1.00  0.00    -0.246 OA
BRANCH  32  34
ATOM     34  C   UNL A   1      44.391  21.328  25.232  1.00  0.00     0.060 A 
ATOM     35  C   UNL A   1      45.264  21.677  26.272  1.00  0.00     0.016 A 
ATOM     36  C   UNL A   1      43.873  22.309  24.384  1.00  0.00     0.016 A 
ATOM     37  C   UNL A   1      45.578  23.015  26.504  1.00  0.00     0.010 A 
ATOM     38  C   UNL A   1      44.182  23.653  24.625  1.00  0.00     0.010 A 
ATOM     39  C   UNL A   1      45.005  24.014  25.708  1.00  0.00    -0.014 A 
BRANCH  39  40
ATOM     40  C   UNL A   1      45.106  25.437  26.118  1.00  0.00     0.031 A 
ATOM     41  C   UNL A   1      46.454  26.104  26.063  1.00  0.00     0.074 A 
ATOM     42  C   UNL A   1      44.025  26.128  26.517  1.00  0.00     0.049 A 
ATOM     43  N   UNL A   1      46.811  27.296  26.466  1.00  0.00    -0.248 NA
ATOM     44  C   UNL A   1      47.544  25.311  25.477  1.00  0.00     0.031 C 
ATOM     45  C   UNL A   1      42.657  25.612  26.546  1.00  0.00     0.029 A 
ATOM     46  N   UNL A   1      43.912  27.411  26.987  1.00  0.00    -0.354 N 
ATOM     47  C   UNL A   1      48.171  27.395  26.188  1.00  0.00     0.074 A 
ATOM     48  C   UNL A   1      48.575  26.128  25.615  1.00  0.00     0.031 C 
ATOM     49  C   UNL A   1      41.843  26.570  27.025  1.00  0.00     0.029 A 
ATOM     50  C   UNL A   1      42.637  27.745  27.380  1.00  0.00     0.049 A 
ATOM     51  H   UNL A   1      44.672  28.035  27.038  1.00  0.00     0.167 HD
ATOM     52  C   UNL A   1      49.004  28.447  26.387  1.00  0.00     0.034 A 
ATOM     53  C   UNL A   1      42.175  28.855  27.987  1.00  0.00     0.034 A 
ATOM     54  C   UNL A   1      48.590  29.694  26.982  1.00  0.00     0.049 A 
ATOM     55  C   UNL A   1      43.139  29.972  28.311  1.00  0.00     0.074 A 
ATOM     56  C   UNL A   1      49.347  30.821  27.248  1.00  0.00     0.029 A 
ATOM     57  N   UNL A   1      47.299  29.974  27.418  1.00  0.00    -0.354 N 
ATOM     58  N   UNL A   1      44.429  30.047  28.072  1.00  0.00    -0.248 NA
ATOM     59  C   UNL A   1      42.584  31.152  28.987  1.00  0.00     0.031 C 
ATOM     60  C   UNL A   1      48.534  31.755  27.900  1.00  0.00     0.029 A 
ATOM     61  C   UNL A   1      47.248  31.242  27.975  1.00  0.00     0.049 A 
ATOM     62  H   UNL A   1      46.533  29.360  27.341  1.00  0.00     0.167 HD
ATOM     63  C   UNL A   1      44.829  31.298  28.536  1.00  0.00     0.074 A 
ATOM     64  C   UNL A   1      43.646  31.941  29.069  1.00  0.00     0.031 C 
ATOM     65  C   UNL A   1      46.061  31.868  28.509  1.00  0.00     0.034 A 
BRANCH  52  66
ATOM     66  C   UNL A   1      50.454  28.251  26.015  1.00  0.00     0.023 A 
ATOM     67  C   UNL A   1      50.915  28.463  24.702  1.00  0.00     0.031 A 
ATOM     68  C   UNL A   1      51.375  27.784  26.967  1.00  0.00     0.131 A 
ATOM     69  C   UNL A   1      52.233  28.124  24.359  1.00  0.00     0.055 A 
ATOM     70  C   UNL A   1      52.709  27.529  26.639  1.00  0.00     0.041 A 
ATOM     71  F   UNL A   1      50.990  27.541  28.230  1.00  0.00    -0.206 F 
ATOM     72  C   UNL A   1      53.140  27.680  25.324  1.00  0.00     0.022 A 
BRANCH  69  73
ATOM     73  S   UNL A   1      52.694  28.108  22.605  1.00  0.00     0.124 S 
ATOM     74  O   UNL A   1      54.050  28.649  22.651  1.00  0.00    -0.237 OA
ATOM     75  O   UNL A   1      52.581  26.696  22.261  1.00  0.00    -0.237 OA
ATOM     76  O   UNL A   1      51.704  28.985  21.983  1.00  0.00    -0.744 OA
ENDBRANCH  69  73
ENDBRANCH  52  66
BRANCH  53  77
ATOM     77  C   UNL A   1      40.741  28.956  28.379  1.00  0.00     0.023 A 
ATOM     78  C   UNL A   1      40.342  28.803  29.715  1.00  0.00     0.031 A 
ATOM     79  C   UNL A   1      39.744  29.170  27.410  1.00  0.00     0.131 A 
ATOM     80  C   UNL A   1      38.977  28.832  30.044  1.00  0.00     0.055 A 
ATOM     81  C   UNL A   1      38.392  29.242  27.748  1.00  0.00     0.041 A 
ATOM     82  F   UNL A   1      40.074  29.322  26.118  1.00  0.00    -0.206 F 
ATOM     83  C   UNL A   1      38.001  29.064  29.071  1.00  0.00     0.022 A 
BRANCH  80  84
ATOM     84  S   UNL A   1      38.488  28.505  31.760  1.00  0.00     0.124 S 
ATOM     85  O   UNL A   1      39.375  29.399  32.496  1.00  0.00    -0.237 OA
ATOM     86  O   UNL A   1      37.075  28.869  31.747  1.00  0.00    -0.237 OA
ATOM     87  O   UNL A   1      38.760  27.079  31.925  1.00  0.00    -0.744 OA
ENDBRANCH  80  84
ENDBRANCH  53  77
BRANCH  65  88
ATOM     88  C   UNL A   1      46.175  33.284  29.017  1.00  0.00     0.023 A 
ATOM     89  C   UNL A   1      45.939  34.395  28.190  1.00  0.00     0.031 A 
ATOM     90  C   UNL A   1      46.523  33.518  30.360  1.00  0.00     0.131 A 
ATOM     91  C   UNL A   1      46.094  35.692  28.704  1.00  0.00     0.055 A 
ATOM     92  C   UNL A   1      46.626  34.810  30.878  1.00  0.00     0.041 A 
ATOM     93  F   UNL A   1      46.759  32.492  31.193  1.00  0.00    -0.206 F 
ATOM     94  C   UNL A   1      46.421  35.906  30.046  1.00  0.00     0.022 A 
BRANCH  91  95
ATOM     95  S   UNL A   1      45.929  37.106  27.579  1.00  0.00     0.124 S 
ATOM     96  O   UNL A   1      46.199  38.234  28.465  1.00  0.00    -0.237 OA
ATOM     97  O   UNL A   1      46.949  36.826  26.574  1.00  0.00    -0.237 OA
ATOM     98  O   UNL A   1      44.550  37.008  27.104  1.00  0.00    -0.744 OA
ENDBRANCH  91  95
ENDBRANCH  65  88
ENDBRANCH  39  40
ENDBRANCH  32  34
ENDBRANCH  31  32
ENDBRANCH  30  31
ENDBRANCH  29  30
ENDBRANCH   1  29
TORSDOF 21
ENDMDL
MODEL 3
REMARK VINA RESULT:     -10.8      5.165      8.539
REMARK SMILES CNC(=O)c1cc(S(=O)(=O)N2CCC(C(=O)OCCOCCOC(=O)c3ccc(-c4c5nc(c(-c6cc(S(=O)(=O)[O-])ccc6F)c6ccc([nH]6)c(-c6cc(S(=O)(=O)[O-])ccc6F)c6nc(c(-c7cc(S(=O)(=O)[O-])ccc7F)c7ccc4[nH]7)C=C6)C=C5)cc3)CC2)ccc1OC
REMARK SMILES IDX 20 1 19 2 18 3 17 4 15 5 16 6 14 7 11 8 12 9 90 10 13 11
REMARK SMILES IDX 89 12 8 13 9 14 10 15 7 16 5 17 6 18 93 19 92 20 91 21 3 22
REMARK SMILES IDX 1 23 2 24 4 26 94 27 95 28 21 29 22 30 23 31 24 32 25 33
REMARK SMILES IDX 26 34 27 35 88 36 28 37 87 38 29 39 30 40 31 41 81 42 32 43
REMARK SMILES IDX 86 44 80 45 82 46 33 47 85 48 79 49 78 50 34 52 66 53 46 54
REMARK SMILES IDX 65 55 47 56 50 57 64 58 83 59 48 60 49 61 63 63 84 64 51 65
REMARK SMILES IDX 35 66 36 67 44 68 37 69 43 70 45 71 42 72 38 73 39 74 40 75
REMARK SMILES IDX 41 76 67 77 68 78 76 79 69 80 75 81 77 82 74 83 70 84 71 85
REMARK SMILES IDX 72 86 73 87 52 88 53 89 61 90 54 91 60 92 62 93 59 94 55 95
REMARK SMILES IDX 56 96 57 97 58 98
REMARK H PARENT 2 25 82 51 50 62
REMARK Flexibility Score: inf
ROOT
ATOM      1  O   UNL A   1      39.864  21.317  26.925  1.00  0.00    -0.374 OA
ENDROOT
BRANCH   1   2
ATOM      2  C   UNL A   1      39.230  21.375  25.647  1.00  0.00     0.202 C 
BRANCH   2   3
ATOM      3  C   UNL A   1      37.741  21.728  25.662  1.00  0.00     0.261 C 
BRANCH   3   4
ATOM      4  O   UNL A   1      37.505  23.021  25.071  1.00  0.00    -0.463 OA
BRANCH   4   5
ATOM      5  C   UNL A   1      36.661  23.038  24.012  1.00  0.00     0.309 C 
ATOM      6  O   UNL A   1      36.980  22.844  22.844  1.00  0.00    -0.252 OA
BRANCH   5   7
ATOM      7  C   UNL A   1      35.232  23.345  24.395  1.00  0.00     0.102 C 
ATOM      8  N   UNL A   1      32.613  24.473  24.675  1.00  0.00    -0.198 NA
ATOM      9  C   UNL A   1      33.541  24.490  25.829  1.00  0.00     0.103 C 
ATOM     10  C   UNL A   1      32.940  23.655  23.483  1.00  0.00     0.103 C 
ATOM     11  C   UNL A   1      35.007  24.461  25.408  1.00  0.00     0.032 C 
ATOM     12  C   UNL A   1      34.422  23.675  23.149  1.00  0.00     0.032 C 
BRANCH   8  13
ATOM     13  S   UNL A   1      30.952  24.654  25.026  1.00  0.00     0.243 S 
ATOM     14  O   UNL A   1      30.820  24.637  26.466  1.00  0.00    -0.207 OA
ATOM     15  O   UNL A   1      30.201  23.751  24.180  1.00  0.00    -0.207 OA
BRANCH  13  16
ATOM     16  C   UNL A   1      30.473  26.304  24.520  1.00  0.00     0.083 A 
ATOM     17  C   UNL A   1      31.057  28.664  24.466  1.00  0.00     0.083 A 
ATOM     18  C   UNL A   1      31.346  27.348  24.855  1.00  0.00     0.039 A 
ATOM     19  C   UNL A   1      29.930  28.925  23.678  1.00  0.00     0.131 A 
ATOM     20  C   UNL A   1      29.044  27.886  23.381  1.00  0.00     0.048 A 
ATOM     21  C   UNL A   1      29.311  26.579  23.799  1.00  0.00     0.025 A 
BRANCH  17  22
ATOM     22  C   UNL A   1      32.006  29.707  24.905  1.00  0.00     0.254 C 
ATOM     23  C   UNL A   1      33.919  28.847  23.470  1.00  0.00     0.143 C 
ATOM     24  N   UNL A   1      33.290  29.730  24.426  1.00  0.00    -0.355 N 
ATOM     25  H   UNL A   1      33.864  30.446  24.783  1.00  0.00     0.163 HD
ATOM     26  O   UNL A   1      31.625  30.571  25.689  1.00  0.00    -0.269 OA
ENDBRANCH  17  22
BRANCH  19  27
ATOM     27  O   UNL A   1      29.577  30.153  23.184  1.00  0.00    -0.496 OA
ATOM     28  C   UNL A   1      28.911  30.076  21.921  1.00  0.00     0.278 C 
ENDBRANCH  19  27
ENDBRANCH  13  16
ENDBRANCH   8  13
ENDBRANCH   5   7
ENDBRANCH   4   5
ENDBRANCH   3   4
ENDBRANCH   2   3
ENDBRANCH   1   2
BRANCH   1  29
ATOM     29  C   UNL A   1      41.049  20.530  27.032  1.00  0.00     0.202 C 
BRANCH  29  30
ATOM     30  C   UNL A   1      42.257  20.996  26.208  1.00  0.00     0.261 C 
BRANCH  30  31
ATOM     31  O   UNL A   1      42.690  22.321  26.571  1.00  0.00    -0.460 OA
BRANCH  31  32
ATOM     32  C   UNL A   1      43.248  23.030  25.555  1.00  0.00     0.338 C 
ATOM     33  O   UNL A   1      43.283  22.713  24.378  1.00  0.00    -0.246 OA
BRANCH  32  34
ATOM     34  C   UNL A   1      43.665  24.365  26.032  1.00  0.00     0.060 A 
ATOM     35  C   UNL A   1      44.163  24.459  27.339  1.00  0.00     0.016 A 
ATOM     36  C   UNL A   1      43.499  25.512  25.254  1.00  0.00     0.016 A 
ATOM     37  C   UNL A   1      44.445  25.707  27.893  1.00  0.00     0.010 A 
ATOM     38  C   UNL A   1      43.773  26.764  25.815  1.00  0.00     0.010 A 
ATOM     39  C   UNL A   1      44.211  26.869  27.149  1.00  0.00    -0.014 A 
BRANCH  39  40
ATOM     40  C   UNL A   1      44.237  28.194  27.817  1.00  0.00     0.031 A 
ATOM     41  C   UNL A   1      42.949  28.748  28.363  1.00  0.00     0.074 A 
ATOM     42  C   UNL A   1      45.382  28.886  27.950  1.00  0.00     0.049 A 
ATOM     43  N   UNL A   1      42.701  29.919  28.889  1.00  0.00    -0.248 NA
ATOM     44  C   UNL A   1      41.784  27.854  28.298  1.00  0.00     0.031 C 
ATOM     45  C   UNL A   1      46.702  28.424  27.526  1.00  0.00     0.029 A 
ATOM     46  N   UNL A   1      45.611  30.134  28.471  1.00  0.00    -0.354 N 
ATOM     47  C   UNL A   1      41.348  29.908  29.214  1.00  0.00     0.074 A 
ATOM     48  C   UNL A   1      40.827  28.625  28.791  1.00  0.00     0.031 C 
ATOM     49  C   UNL A   1      47.603  29.386  27.791  1.00  0.00     0.029 A 
ATOM     50  C   UNL A   1      46.918  30.547  28.358  1.00  0.00     0.049 A 
ATOM     51  H   UNL A   1      44.907  30.683  28.886  1.00  0.00     0.167 HD
ATOM     52  C   UNL A   1      40.610  30.875  29.814  1.00  0.00     0.034 A 
ATOM     53  C   UNL A   1      47.485  31.734  28.647  1.00  0.00     0.034 A 
ATOM     54  C   UNL A   1      41.141  32.158  30.205  1.00  0.00     0.049 A 
ATOM     55  C   UNL A   1      46.625  32.844  29.204  1.00  0.00     0.074 A 
ATOM     56  C   UNL A   1      40.486  33.220  30.804  1.00  0.00     0.029 A 
ATOM     57  N   UNL A   1      42.460  32.559  30.025  1.00  0.00    -0.354 N 
ATOM     58  N   UNL A   1      45.341  32.835  29.481  1.00  0.00    -0.248 NA
ATOM     59  C   UNL A   1      47.292  34.122  29.486  1.00  0.00     0.031 C 
ATOM     60  C   UNL A   1      41.389  34.283  30.926  1.00  0.00     0.029 A 
ATOM     61  C   UNL A   1      42.629  33.860  30.472  1.00  0.00     0.049 A 
ATOM     62  H   UNL A   1      43.170  32.000  29.634  1.00  0.00     0.167 HD
ATOM     63  C   UNL A   1      45.057  34.095  30.004  1.00  0.00     0.074 A 
ATOM     64  C   UNL A   1      46.301  34.836  30.001  1.00  0.00     0.031 C 
ATOM     65  C   UNL A   1      43.876  34.589  30.459  1.00  0.00     0.034 A 
BRANCH  52  66
ATOM     66  C   UNL A   1      39.141  30.591  30.011  1.00  0.00     0.023 A 
ATOM     67  C   UNL A   1      38.159  31.171  29.187  1.00  0.00     0.031 A 
ATOM     68  C   UNL A   1      38.710  29.783  31.077  1.00  0.00     0.131 A 
ATOM     69  C   UNL A   1      36.800  31.007  29.494  1.00  0.00     0.055 A 
ATOM     70  C   UNL A   1      37.355  29.554  31.327  1.00  0.00     0.041 A 
ATOM     71  F   UNL A   1      39.598  29.221  31.912  1.00  0.00    -0.206 F 
ATOM     72  C   UNL A   1      36.390  30.183  30.545  1.00  0.00     0.022 A 
BRANCH  69  73
ATOM     73  S   UNL A   1      35.583  32.021  28.609  1.00  0.00     0.124 S 
ATOM     74  O   UNL A   1      34.637  32.344  29.674  1.00  0.00    -0.237 OA
ATOM     75  O   UNL A   1      36.394  33.128  28.116  1.00  0.00    -0.237 OA
ATOM     76  O   UNL A   1      35.067  31.117  27.583  1.00  0.00    -0.744 OA
ENDBRANCH  69  73
ENDBRANCH  52  66
BRANCH  53  77
ATOM     77  C   UNL A   1      48.932  31.964  28.371  1.00  0.00     0.023 A 
ATOM     78  C   UNL A   1      49.357  32.540  27.165  1.00  0.00     0.031 A 
ATOM     79  C   UNL A   1      49.912  31.571  29.300  1.00  0.00     0.131 A 
ATOM     80  C   UNL A   1      50.730  32.678  26.904  1.00  0.00     0.055 A 
ATOM     81  C   UNL A   1      51.274  31.751  29.055  1.00  0.00     0.041 A 
ATOM     82  F   UNL A   1      49.556  31.015  30.469  1.00  0.00    -0.206 F 
ATOM     83  C   UNL A   1      51.690  32.300  27.846  1.00  0.00     0.022 A 
BRANCH  80  84
ATOM     84  S   UNL A   1      51.248  33.310  25.284  1.00  0.00     0.124 S 
ATOM     85  O   UNL A   1      51.371  32.080  24.511  1.00  0.00    -0.237 OA
ATOM     86  O   UNL A   1      50.134  34.183  24.929  1.00  0.00    -0.237 OA
ATOM     87  O   UNL A   1      52.505  33.996  25.573  1.00  0.00    -0.744 OA
ENDBRANCH  80  84
ENDBRANCH  53  77
BRANCH  65  88
ATOM     88  C   UNL A   1      43.892  35.976  31.050  1.00  0.00     0.023 A 
ATOM     89  C   UNL A   1      43.790  37.129  30.254  1.00  0.00     0.031 A 
ATOM     90  C   UNL A   1      44.008  36.139  32.443  1.00  0.00     0.131 A 
ATOM     91  C   UNL A   1      43.846  38.397  30.854  1.00  0.00     0.055 A 
ATOM     92  C   UNL A   1      44.013  37.401  33.037  1.00  0.00     0.041 A 
ATOM     93  F   UNL A   1      44.110  35.070  33.250  1.00  0.00    -0.206 F 
ATOM     94  C   UNL A   1      43.942  38.541  32.241  1.00  0.00     0.022 A 
BRANCH  91  95
ATOM     95  S   UNL A   1      43.861  39.868  29.791  1.00  0.00     0.124 S 
ATOM     96  O   UNL A   1      43.514  40.928  30.733  1.00  0.00    -0.237 OA
ATOM     97  O   UNL A   1      45.232  39.880  29.294  1.00  0.00    -0.237 OA
ATOM     98  O   UNL A   1      42.842  39.576  28.785  1.00  0.00    -0.744 OA
ENDBRANCH  91  95
ENDBRANCH  65  88
ENDBRANCH  39  40
ENDBRANCH  32  34
ENDBRANCH  31  32
ENDBRANCH  30  31
ENDBRANCH  29  30
ENDBRANCH   1  29
TORSDOF 21
ENDMDL
