MODEL 1
REMARK VINA RESULT:     -12.1      0.000      0.000
REMARK SMILES O=C(Nc1ccccc1C(=O)OCCOCCOC(=O)c1ccc(-c2c3nc(c(-c4cc(S(=O)(=O)[O-])ccc4F)c4ccc([nH]4)c(-c4cc(S(=O)(=O)[O-])ccc4F)c4nc(c(-c5cc(S(=O)(=O)[O-])ccc5F)c5ccc2[nH]5)C=C4)C=C3)cc1)c1ccc(N2C(=O)[C@H]3CC=CC[C@H]3C2=O)cc1
REMARK SMILES IDX 15 1 14 2 13 3 12 4 10 5 11 6 9 7 4 8 5 9 6 10 8 11 7 12
REMARK SMILES IDX 3 13 1 14 2 15 84 17 85 18 100 19 86 20 99 21 87 22 88 23
REMARK SMILES IDX 89 24 97 25 90 26 91 27 96 28 98 29 92 30 95 31 93 32 94 33
REMARK SMILES IDX 16 34 17 35 18 36 19 37 20 38 21 39 22 40 83 41 23 42 82 43
REMARK SMILES IDX 24 44 25 45 26 46 76 47 27 48 81 49 75 50 77 51 28 52 80 53
REMARK SMILES IDX 74 54 73 55 29 57 61 58 41 59 60 60 42 61 45 62 59 63 78 64
REMARK SMILES IDX 43 65 44 66 58 68 79 69 46 70 30 71 31 72 39 73 32 74 38 75
REMARK SMILES IDX 40 76 37 77 33 78 34 79 35 80 36 81 62 82 63 83 71 84 64 85
REMARK SMILES IDX 70 86 72 87 69 88 65 89 66 90 67 91 68 92 47 93 48 94 56 95
REMARK SMILES IDX 49 96 55 97 57 98 54 99 50 100 51 101 52 102 53 103
REMARK H PARENT 3 16 77 56 45 67
REMARK Flexibility Score: inf
ROOT
ATOM      1  O   UNL A   1      33.586  29.640  26.665  1.00  0.00    -0.374 OA
ENDROOT
BRANCH   1   2
ATOM      2  C   UNL A   1      32.176  29.526  26.529  1.00  0.00     0.202 C 
BRANCH   2   3
ATOM      3  C   UNL A   1      31.444  28.481  27.376  1.00  0.00     0.261 C 
BRANCH   3   4
ATOM      4  O   UNL A   1      31.842  27.111  27.180  1.00  0.00    -0.460 OA
BRANCH   4   5
ATOM      5  C   UNL A   1      31.051  26.412  26.326  1.00  0.00     0.340 C 
ATOM      6  O   UNL A   1      30.009  25.834  26.608  1.00  0.00    -0.246 OA
BRANCH   5   7
ATOM      7  C   UNL A   1      31.477  26.555  24.912  1.00  0.00     0.083 A 
ATOM      8  C   UNL A   1      32.779  26.460  24.392  1.00  0.00     0.056 A 
ATOM      9  C   UNL A   1      32.973  26.792  23.034  1.00  0.00     0.027 A 
ATOM     10  C   UNL A   1      31.903  27.105  22.191  1.00  0.00     0.002 A 
ATOM     11  C   UNL A   1      30.405  26.872  24.046  1.00  0.00     0.018 A 
ATOM     12  C   UNL A   1      30.613  27.130  22.694  1.00  0.00     0.001 A 
BRANCH   8  13
ATOM     13  N   UNL A   1      33.961  26.033  25.033  1.00  0.00    -0.321 N 
ATOM     14  O   UNL A   1      35.472  24.729  26.070  1.00  0.00    -0.269 OA
ATOM     15  C   UNL A   1      34.459  24.800  25.377  1.00  0.00     0.255 C 
ATOM     16  H   UNL A   1      34.554  26.775  25.288  1.00  0.00     0.170 HD
BRANCH  15  17
ATOM     17  C   UNL A   1      33.846  23.554  24.889  1.00  0.00     0.040 A 
ATOM     18  C   UNL A   1      32.538  23.177  25.214  1.00  0.00     0.016 A 
ATOM     19  C   UNL A   1      34.657  22.707  24.138  1.00  0.00     0.016 A 
ATOM     20  C   UNL A   1      32.106  21.875  24.939  1.00  0.00     0.027 A 
ATOM     21  C   UNL A   1      34.242  21.402  23.910  1.00  0.00     0.027 A 
ATOM     22  C   UNL A   1      32.994  20.954  24.372  1.00  0.00     0.052 A 
BRANCH  22  23
ATOM     23  N   UNL A   1      32.699  19.576  24.299  1.00  0.00    -0.250 N 
ATOM     24  C   UNL A   1      32.321  18.902  23.169  1.00  0.00     0.238 C 
ATOM     25  C   UNL A   1      32.705  18.759  25.407  1.00  0.00     0.238 C 
ATOM     26  O   UNL A   1      32.013  19.348  22.071  1.00  0.00    -0.274 OA
ATOM     27  C   UNL A   1      32.445  17.422  23.450  1.00  0.00     0.096 C 
ATOM     28  C   UNL A   1      32.399  17.348  24.977  1.00  0.00     0.096 C 
ATOM     29  O   UNL A   1      32.862  19.066  26.582  1.00  0.00    -0.274 OA
ATOM     30  C   UNL A   1      33.744  16.901  22.809  1.00  0.00     0.041 C 
ATOM     31  C   UNL A   1      33.424  16.419  25.625  1.00  0.00     0.041 C 
ATOM     32  C   UNL A   1      34.929  16.900  23.732  1.00  0.00    -0.030 C 
ATOM     33  C   UNL A   1      34.786  16.650  25.040  1.00  0.00    -0.030 C 
ENDBRANCH  22  23
ENDBRANCH  15  17
ENDBRANCH   8  13
ENDBRANCH   5   7
ENDBRANCH   4   5
ENDBRANCH   3   4
ENDBRANCH   2   3
ENDBRANCH   1   2
BRANCH   1  34
ATOM     34  C   UNL A   1      34.103  30.811  27.286  1.00  0.00     0.202 C 
BRANCH  34  35
ATOM     35  C   UNL A   1      33.133  31.946  27.641  1.00  0.00     0.261 C 
BRANCH  35  36
ATOM     36  O   UNL A   1      33.651  33.270  27.404  1.00  0.00    -0.460 OA
BRANCH  36  37
ATOM     37  C   UNL A   1      33.525  34.119  28.454  1.00  0.00     0.338 C 
ATOM     38  O   UNL A   1      32.581  34.865  28.685  1.00  0.00    -0.246 OA
BRANCH  37  39
ATOM     39  C   UNL A   1      34.643  33.975  29.399  1.00  0.00     0.060 A 
ATOM     40  C   UNL A   1      35.937  34.287  28.958  1.00  0.00     0.016 A 
ATOM     41  C   UNL A   1      34.444  33.344  30.628  1.00  0.00     0.016 A 
ATOM     42  C   UNL A   1      37.042  33.919  29.727  1.00  0.00     0.010 A 
ATOM     43  C   UNL A   1      35.555  32.973  31.394  1.00  0.00     0.010 A 
ATOM     44  C   UNL A   1      36.859  33.218  30.926  1.00  0.00    -0.014 A 
BRANCH  44  45
ATOM     45  C   UNL A   1      38.024  32.600  31.612  1.00  0.00     0.031 A 
ATOM     46  C   UNL A   1      38.716  31.428  30.967  1.00  0.00     0.074 A 
ATOM     47  C   UNL A   1      38.460  33.074  32.791  1.00  0.00     0.049 A 
ATOM     48  N   UNL A   1      39.695  30.685  31.418  1.00  0.00    -0.248 NA
ATOM     49  C   UNL A   1      38.225  31.038  29.638  1.00  0.00     0.031 C 
ATOM     50  C   UNL A   1      37.890  34.216  33.502  1.00  0.00     0.029 A 
ATOM     51  N   UNL A   1      39.473  32.635  33.608  1.00  0.00    -0.354 N 
ATOM     52  C   UNL A   1      39.935  29.735  30.431  1.00  0.00     0.074 A 
ATOM     53  C   UNL A   1      38.967  29.972  29.380  1.00  0.00     0.031 C 
ATOM     54  C   UNL A   1      38.544  34.373  34.665  1.00  0.00     0.029 A 
ATOM     55  C   UNL A   1      39.552  33.322  34.797  1.00  0.00     0.049 A 
ATOM     56  H   UNL A   1      40.083  31.901  33.366  1.00  0.00     0.167 HD
ATOM     57  C   UNL A   1      40.881  28.761  30.400  1.00  0.00     0.034 A 
ATOM     58  C   UNL A   1      40.321  33.103  35.883  1.00  0.00     0.034 A 
ATOM     59  C   UNL A   1      41.824  28.523  31.468  1.00  0.00     0.049 A 
ATOM     60  C   UNL A   1      41.314  31.968  35.867  1.00  0.00     0.074 A 
ATOM     61  C   UNL A   1      42.835  27.580  31.535  1.00  0.00     0.029 A 
ATOM     62  N   UNL A   1      41.861  29.226  32.667  1.00  0.00    -0.354 N 
ATOM     63  N   UNL A   1      41.546  31.084  34.924  1.00  0.00    -0.248 NA
ATOM     64  C   UNL A   1      42.155  31.808  37.061  1.00  0.00     0.031 C 
ATOM     65  C   UNL A   1      43.432  27.663  32.799  1.00  0.00     0.029 A 
ATOM     66  C   UNL A   1      42.850  28.712  33.494  1.00  0.00     0.049 A 
ATOM     67  H   UNL A   1      41.270  29.978  32.897  1.00  0.00     0.167 HD
ATOM     68  C   UNL A   1      42.574  30.275  35.403  1.00  0.00     0.074 A 
ATOM     69  C   UNL A   1      42.926  30.787  36.713  1.00  0.00     0.031 C 
ATOM     70  C   UNL A   1      43.177  29.211  34.811  1.00  0.00     0.034 A 
BRANCH  57  71
ATOM     71  C   UNL A   1      40.891  27.850  29.192  1.00  0.00     0.023 A 
ATOM     72  C   UNL A   1      41.821  28.013  28.149  1.00  0.00     0.031 A 
ATOM     73  C   UNL A   1      39.917  26.845  29.048  1.00  0.00     0.131 A 
ATOM     74  C   UNL A   1      41.702  27.253  26.976  1.00  0.00     0.055 A 
ATOM     75  C   UNL A   1      39.858  26.032  27.915  1.00  0.00     0.041 A 
ATOM     76  F   UNL A   1      38.989  26.653  29.998  1.00  0.00    -0.206 F 
ATOM     77  C   UNL A   1      40.741  26.247  26.861  1.00  0.00     0.022 A 
BRANCH  74  78
ATOM     78  S   UNL A   1      42.703  27.719  25.535  1.00  0.00     0.124 S 
ATOM     79  O   UNL A   1      42.617  26.515  24.713  1.00  0.00    -0.237 OA
ATOM     80  O   UNL A   1      42.000  28.892  25.030  1.00  0.00    -0.237 OA
ATOM     81  O   UNL A   1      44.024  27.980  26.106  1.00  0.00    -0.744 OA
ENDBRANCH  74  78
ENDBRANCH  57  71
BRANCH  58  82
ATOM     82  C   UNL A   1      40.137  33.943  37.099  1.00  0.00     0.023 A 
ATOM     83  C   UNL A   1      40.988  35.021  37.383  1.00  0.00     0.031 A 
ATOM     84  C   UNL A   1      39.102  33.660  38.009  1.00  0.00     0.131 A 
ATOM     85  C   UNL A   1      40.806  35.762  38.561  1.00  0.00     0.055 A 
ATOM     86  C   UNL A   1      38.896  34.428  39.154  1.00  0.00     0.041 A 
ATOM     87  F   UNL A   1      38.262  32.636  37.784  1.00  0.00    -0.206 F 
ATOM     88  C   UNL A   1      39.757  35.481  39.441  1.00  0.00     0.022 A 
BRANCH  85  89
ATOM     89  S   UNL A   1      41.995  37.074  38.958  1.00  0.00     0.124 S 
ATOM     90  O   UNL A   1      42.639  37.294  37.668  1.00  0.00    -0.237 OA
ATOM     91  O   UNL A   1      41.122  38.143  39.431  1.00  0.00    -0.237 OA
ATOM     92  O   UNL A   1      42.842  36.467  39.984  1.00  0.00    -0.744 OA
ENDBRANCH  85  89
ENDBRANCH  58  82
BRANCH  70  93
ATOM     93  C   UNL A   1      44.307  28.554  35.566  1.00  0.00     0.023 A 
ATOM     94  C   UNL A   1      44.083  27.500  36.471  1.00  0.00     0.031 A 
ATOM     95  C   UNL A   1      45.630  28.996  35.386  1.00  0.00     0.131 A 
ATOM     96  C   UNL A   1      45.157  26.958  37.195  1.00  0.00     0.055 A 
ATOM     97  C   UNL A   1      46.702  28.416  36.066  1.00  0.00     0.041 A 
ATOM     98  F   UNL A   1      45.904  30.001  34.538  1.00  0.00    -0.206 F 
ATOM     99  C   UNL A   1      46.466  27.399  36.987  1.00  0.00     0.022 A 
BRANCH  96 100
ATOM    100  S   UNL A   1      44.812  25.727  38.482  1.00  0.00     0.124 S 
ATOM    101  O   UNL A   1      46.154  25.344  38.905  1.00  0.00    -0.237 OA
ATOM    102  O   UNL A   1      44.033  26.495  39.449  1.00  0.00    -0.237 OA
ATOM    103  O   UNL A   1      44.065  24.688  37.773  1.00  0.00    -0.744 OA
ENDBRANCH  96 100
ENDBRANCH  70  93
ENDBRANCH  44  45
ENDBRANCH  37  39
ENDBRANCH  36  37
ENDBRANCH  35  36
ENDBRANCH  34  35
ENDBRANCH   1  34
TORSDOF 20
ENDMDL
MODEL 2
REMARK VINA RESULT:     -11.4      3.328      8.836
REMARK SMILES O=C(Nc1ccccc1C(=O)OCCOCCOC(=O)c1ccc(-c2c3nc(c(-c4cc(S(=O)(=O)[O-])ccc4F)c4ccc([nH]4)c(-c4cc(S(=O)(=O)[O-])ccc4F)c4nc(c(-c5cc(S(=O)(=O)[O-])ccc5F)c5ccc2[nH]5)C=C4)C=C3)cc1)c1ccc(N2C(=O)[C@H]3CC=CC[C@H]3C2=O)cc1
REMARK SMILES IDX 15 1 14 2 13 3 12 4 10 5 11 6 9 7 4 8 5 9 6 10 8 11 7 12
REMARK SMILES IDX 3 13 1 14 2 15 84 17 85 18 100 19 86 20 99 21 87 22 88 23
REMARK SMILES IDX 89 24 97 25 90 26 91 27 96 28 98 29 92 30 95 31 93 32 94 33
REMARK SMILES IDX 16 34 17 35 18 36 19 37 20 38 21 39 22 40 83 41 23 42 82 43
REMARK SMILES IDX 24 44 25 45 26 46 76 47 27 48 81 49 75 50 77 51 28 52 80 53
REMARK SMILES IDX 74 54 73 55 29 57 61 58 41 59 60 60 42 61 45 62 59 63 78 64
REMARK SMILES IDX 43 65 44 66 58 68 79 69 46 70 30 71 31 72 39 73 32 74 38 75
REMARK SMILES IDX 40 76 37 77 33 78 34 79 35 80 36 81 62 82 63 83 71 84 64 85
REMARK SMILES IDX 70 86 72 87 69 88 65 89 66 90 67 91 68 92 47 93 48 94 56 95
REMARK SMILES IDX 49 96 55 97 57 98 54 99 50 100 51 101 52 102 53 103
REMARK H PARENT 3 16 77 56 45 67
REMARK Flexibility Score: inf
ROOT
ATOM      1  O   UNL A   1      44.706  22.138  26.878  1.00  0.00    -0.374 OA
ENDROOT
BRANCH   1   2
ATOM      2  C   UNL A   1      43.867  22.866  27.764  1.00  0.00     0.202 C 
BRANCH   2   3
ATOM      3  C   UNL A   1      42.408  22.424  27.914  1.00  0.00     0.261 C 
BRANCH   3   4
ATOM      4  O   UNL A   1      41.777  21.902  26.730  1.00  0.00    -0.460 OA
BRANCH   4   5
ATOM      5  C   UNL A   1      41.241  20.664  26.876  1.00  0.00     0.340 C 
ATOM      6  O   UNL A   1      41.668  19.767  27.593  1.00  0.00    -0.246 OA
BRANCH   5   7
ATOM      7  C   UNL A   1      39.928  20.529  26.200  1.00  0.00     0.083 A 
ATOM      8  C   UNL A   1      38.922  21.503  26.072  1.00  0.00     0.056 A 
ATOM      9  C   UNL A   1      37.684  21.105  25.527  1.00  0.00     0.027 A 
ATOM     10  C   UNL A   1      37.478  19.816  25.026  1.00  0.00     0.002 A 
ATOM     11  C   UNL A   1      39.704  19.230  25.688  1.00  0.00     0.018 A 
ATOM     12  C   UNL A   1      38.497  18.880  25.092  1.00  0.00     0.001 A 
BRANCH   8  13
ATOM     13  N   UNL A   1      38.974  22.878  26.385  1.00  0.00    -0.321 N 
ATOM     14  O   UNL A   1      38.550  25.086  26.364  1.00  0.00    -0.269 OA
ATOM     15  C   UNL A   1      38.181  23.952  26.064  1.00  0.00     0.255 C 
ATOM     16  H   UNL A   1      39.741  23.118  26.952  1.00  0.00     0.170 HD
BRANCH  15  17
ATOM     17  C   UNL A   1      36.868  23.781  25.421  1.00  0.00     0.040 A 
ATOM     18  C   UNL A   1      36.727  23.411  24.079  1.00  0.00     0.016 A 
ATOM     19  C   UNL A   1      35.748  24.081  26.191  1.00  0.00     0.016 A 
ATOM     20  C   UNL A   1      35.476  23.516  23.462  1.00  0.00     0.027 A 
ATOM     21  C   UNL A   1      34.518  24.231  25.563  1.00  0.00     0.027 A 
ATOM     22  C   UNL A   1      34.387  24.021  24.181  1.00  0.00     0.052 A 
BRANCH  22  23
ATOM     23  N   UNL A   1      33.175  24.379  23.554  1.00  0.00    -0.250 N 
ATOM     24  C   UNL A   1      31.964  23.774  23.758  1.00  0.00     0.238 C 
ATOM     25  C   UNL A   1      33.102  25.367  22.598  1.00  0.00     0.238 C 
ATOM     26  O   UNL A   1      31.710  22.744  24.368  1.00  0.00    -0.274 OA
ATOM     27  C   UNL A   1      30.895  24.669  23.175  1.00  0.00     0.096 C 
ATOM     28  C   UNL A   1      31.665  25.531  22.172  1.00  0.00     0.096 C 
ATOM     29  O   UNL A   1      34.013  26.004  22.086  1.00  0.00    -0.274 OA
ATOM     30  C   UNL A   1      30.217  25.445  24.318  1.00  0.00     0.041 C 
ATOM     31  C   UNL A   1      31.330  27.021  22.187  1.00  0.00     0.041 C 
ATOM     32  C   UNL A   1      30.819  26.795  24.589  1.00  0.00    -0.030 C 
ATOM     33  C   UNL A   1      31.314  27.543  23.594  1.00  0.00    -0.030 C 
ENDBRANCH  22  23
ENDBRANCH  15  17
ENDBRANCH   8  13
ENDBRANCH   5   7
ENDBRANCH   4   5
ENDBRANCH   3   4
ENDBRANCH   2   3
ENDBRANCH   1   2
BRANCH   1  34
ATOM     34  C   UNL A   1      45.460  22.872  25.920  1.00  0.00     0.202 C 
BRANCH  34  35
ATOM     35  C   UNL A   1      44.806  23.214  24.574  1.00  0.00     0.261 C 
BRANCH  35  36
ATOM     36  O   UNL A   1      43.847  24.288  24.632  1.00  0.00    -0.460 OA
BRANCH  36  37
ATOM     37  C   UNL A   1      44.368  25.489  24.986  1.00  0.00     0.338 C 
ATOM     38  O   UNL A   1      45.414  25.983  24.580  1.00  0.00    -0.246 OA
BRANCH  37  39
ATOM     39  C   UNL A   1      43.457  26.231  25.870  1.00  0.00     0.060 A 
ATOM     40  C   UNL A   1      43.781  27.553  26.208  1.00  0.00     0.016 A 
ATOM     41  C   UNL A   1      42.415  25.567  26.519  1.00  0.00     0.016 A 
ATOM     42  C   UNL A   1      43.094  28.196  27.239  1.00  0.00     0.010 A 
ATOM     43  C   UNL A   1      41.731  26.214  27.555  1.00  0.00     0.010 A 
ATOM     44  C   UNL A   1      42.097  27.514  27.949  1.00  0.00    -0.014 A 
BRANCH  44  45
ATOM     45  C   UNL A   1      41.548  28.094  29.203  1.00  0.00     0.031 A 
ATOM     46  C   UNL A   1      40.223  28.808  29.159  1.00  0.00     0.074 A 
ATOM     47  C   UNL A   1      42.218  27.988  30.362  1.00  0.00     0.049 A 
ATOM     48  N   UNL A   1      39.592  29.456  30.106  1.00  0.00    -0.248 NA
ATOM     49  C   UNL A   1      39.522  28.796  27.867  1.00  0.00     0.031 C 
ATOM     50  C   UNL A   1      43.496  27.301  30.536  1.00  0.00     0.029 A 
ATOM     51  N   UNL A   1      41.923  28.479  31.610  1.00  0.00    -0.354 N 
ATOM     52  C   UNL A   1      38.423  29.936  29.524  1.00  0.00     0.074 A 
ATOM     53  C   UNL A   1      38.459  29.539  28.131  1.00  0.00     0.031 C 
ATOM     54  C   UNL A   1      43.891  27.436  31.813  1.00  0.00     0.029 A 
ATOM     55  C   UNL A   1      42.914  28.250  32.535  1.00  0.00     0.049 A 
ATOM     56  H   UNL A   1      41.084  28.948  31.822  1.00  0.00     0.167 HD
ATOM     57  C   UNL A   1      37.411  30.634  30.099  1.00  0.00     0.034 A 
ATOM     58  C   UNL A   1      43.038  28.681  33.807  1.00  0.00     0.034 A 
ATOM     59  C   UNL A   1      37.402  31.042  31.485  1.00  0.00     0.049 A 
ATOM     60  C   UNL A   1      41.942  29.523  34.412  1.00  0.00     0.074 A 
ATOM     61  C   UNL A   1      36.424  31.733  32.178  1.00  0.00     0.029 A 
ATOM     62  N   UNL A   1      38.434  30.810  32.388  1.00  0.00    -0.354 N 
ATOM     63  N   UNL A   1      40.833  29.957  33.860  1.00  0.00    -0.248 NA
ATOM     64  C   UNL A   1      42.113  29.923  35.814  1.00  0.00     0.031 C 
ATOM     65  C   UNL A   1      36.893  31.983  33.474  1.00  0.00     0.029 A 
ATOM     66  C   UNL A   1      38.132  31.378  33.618  1.00  0.00     0.049 A 
ATOM     67  H   UNL A   1      39.260  30.316  32.185  1.00  0.00     0.167 HD
ATOM     68  C   UNL A   1      40.164  30.666  34.855  1.00  0.00     0.074 A 
ATOM     69  C   UNL A   1      40.989  30.587  36.044  1.00  0.00     0.031 C 
ATOM     70  C   UNL A   1      38.973  31.317  34.793  1.00  0.00     0.034 A 
BRANCH  57  71
ATOM     71  C   UNL A   1      36.262  31.044  29.204  1.00  0.00     0.023 A 
ATOM     72  C   UNL A   1      35.371  30.099  28.663  1.00  0.00     0.031 A 
ATOM     73  C   UNL A   1      36.093  32.390  28.833  1.00  0.00     0.131 A 
ATOM     74  C   UNL A   1      34.417  30.497  27.714  1.00  0.00     0.055 A 
ATOM     75  C   UNL A   1      35.084  32.792  27.956  1.00  0.00     0.041 A 
ATOM     76  F   UNL A   1      36.922  33.336  29.299  1.00  0.00    -0.206 F 
ATOM     77  C   UNL A   1      34.251  31.840  27.375  1.00  0.00     0.022 A 
BRANCH  74  78
ATOM     78  S   UNL A   1      33.518  29.212  26.799  1.00  0.00     0.124 S 
ATOM     79  O   UNL A   1      34.558  28.205  26.604  1.00  0.00    -0.237 OA
ATOM     80  O   UNL A   1      32.448  28.857  27.723  1.00  0.00    -0.237 OA
ATOM     81  O   UNL A   1      33.089  29.897  25.580  1.00  0.00    -0.744 OA
ENDBRANCH  74  78
ENDBRANCH  57  71
BRANCH  58  82
ATOM     82  C   UNL A   1      44.278  28.373  34.574  1.00  0.00     0.023 A 
ATOM     83  C   UNL A   1      44.375  27.232  35.385  1.00  0.00     0.031 A 
ATOM     84  C   UNL A   1      45.386  29.237  34.510  1.00  0.00     0.131 A 
ATOM     85  C   UNL A   1      45.546  27.000  36.123  1.00  0.00     0.055 A 
ATOM     86  C   UNL A   1      46.565  28.977  35.210  1.00  0.00     0.041 A 
ATOM     87  F   UNL A   1      45.342  30.343  33.750  1.00  0.00    -0.206 F 
ATOM     88  C   UNL A   1      46.646  27.857  36.029  1.00  0.00     0.022 A 
BRANCH  85  89
ATOM     89  S   UNL A   1      45.597  25.582  37.254  1.00  0.00     0.124 S 
ATOM     90  O   UNL A   1      44.895  26.106  38.421  1.00  0.00    -0.237 OA
ATOM     91  O   UNL A   1      44.894  24.557  36.489  1.00  0.00    -0.237 OA
ATOM     92  O   UNL A   1      47.027  25.345  37.440  1.00  0.00    -0.744 OA
ENDBRANCH  85  89
ENDBRANCH  58  82
BRANCH  70  93
ATOM     93  C   UNL A   1      38.476  31.965  36.063  1.00  0.00     0.023 A 
ATOM     94  C   UNL A   1      37.843  31.222  37.077  1.00  0.00     0.031 A 
ATOM     95  C   UNL A   1      38.629  33.349  36.259  1.00  0.00     0.131 A 
ATOM     96  C   UNL A   1      37.344  31.875  38.216  1.00  0.00     0.055 A 
ATOM     97  C   UNL A   1      38.182  33.985  37.418  1.00  0.00     0.041 A 
ATOM     98  F   UNL A   1      39.222  34.109  35.324  1.00  0.00    -0.206 F 
ATOM     99  C   UNL A   1      37.524  33.249  38.399  1.00  0.00     0.022 A 
BRANCH  96 100
ATOM    100  S   UNL A   1      36.376  30.922  39.418  1.00  0.00     0.124 S 
ATOM    101  O   UNL A   1      35.212  31.779  39.619  1.00  0.00    -0.237 OA
ATOM    102  O   UNL A   1      36.132  29.673  38.704  1.00  0.00    -0.237 OA
ATOM    103  O   UNL A   1      37.271  30.811  40.569  1.00  0.00    -0.744 OA
ENDBRANCH  96 100
ENDBRANCH  70  93
ENDBRANCH  44  45
ENDBRANCH  37  39
ENDBRANCH  36  37
ENDBRANCH  35  36
ENDBRANCH  34  35
ENDBRANCH   1  34
TORSDOF 20
ENDMDL
MODEL 3
REMARK VINA RESULT:     -11.3      5.596     10.961
REMARK SMILES O=C(Nc1ccccc1C(=O)OCCOCCOC(=O)c1ccc(-c2c3nc(c(-c4cc(S(=O)(=O)[O-])ccc4F)c4ccc([nH]4)c(-c4cc(S(=O)(=O)[O-])ccc4F)c4nc(c(-c5cc(S(=O)(=O)[O-])ccc5F)c5ccc2[nH]5)C=C4)C=C3)cc1)c1ccc(N2C(=O)[C@H]3CC=CC[C@H]3C2=O)cc1
REMARK SMILES IDX 15 1 14 2 13 3 12 4 10 5 11 6 9 7 4 8 5 9 6 10 8 11 7 12
REMARK SMILES IDX 3 13 1 14 2 15 84 17 85 18 100 19 86 20 99 21 87 22 88 23
REMARK SMILES IDX 89 24 97 25 90 26 91 27 96 28 98 29 92 30 95 31 93 32 94 33
REMARK SMILES IDX 16 34 17 35 18 36 19 37 20 38 21 39 22 40 83 41 23 42 82 43
REMARK SMILES IDX 24 44 25 45 26 46 76 47 27 48 81 49 75 50 77 51 28 52 80 53
REMARK SMILES IDX 74 54 73 55 29 57 61 58 41 59 60 60 42 61 45 62 59 63 78 64
REMARK SMILES IDX 43 65 44 66 58 68 79 69 46 70 30 71 31 72 39 73 32 74 38 75
REMARK SMILES IDX 40 76 37 77 33 78 34 79 35 80 36 81 62 82 63 83 71 84 64 85
REMARK SMILES IDX 70 86 72 87 69 88 65 89 66 90 67 91 68 92 47 93 48 94 56 95
REMARK SMILES IDX 49 96 55 97 57 98 54 99 50 100 51 101 52 102 53 103
REMARK H PARENT 3 16 77 56 45 67
REMARK Flexibility Score: inf
ROOT
ATOM      1  O   UNL A   1      36.200  21.537  25.564  1.00  0.00    -0.374 OA
ENDROOT
BRANCH   1   2
ATOM      2  C   UNL A   1      36.671  22.877  25.550  1.00  0.00     0.202 C 
BRANCH   2   3
ATOM      3  C   UNL A   1      36.519  23.691  24.262  1.00  0.00     0.261 C 
BRANCH   3   4
ATOM      4  O   UNL A   1      35.272  24.390  24.094  1.00  0.00    -0.460 OA
BRANCH   4   5
ATOM      5  C   UNL A   1      34.287  23.653  23.519  1.00  0.00     0.340 C 
ATOM      6  O   UNL A   1      34.295  23.184  22.387  1.00  0.00    -0.246 OA
BRANCH   5   7
ATOM      7  C   UNL A   1      33.215  23.292  24.478  1.00  0.00     0.083 A 
ATOM      8  C   UNL A   1      32.936  23.886  25.721  1.00  0.00     0.056 A 
ATOM      9  C   UNL A   1      31.967  23.274  26.543  1.00  0.00     0.027 A 
ATOM     10  C   UNL A   1      31.220  22.174  26.110  1.00  0.00     0.002 A 
ATOM     11  C   UNL A   1      32.451  22.180  24.054  1.00  0.00     0.018 A 
ATOM     12  C   UNL A   1      31.451  21.635  24.855  1.00  0.00     0.001 A 
BRANCH   8  13
ATOM     13  N   UNL A   1      33.472  25.065  26.280  1.00  0.00    -0.321 N 
ATOM     14  O   UNL A   1      34.108  27.208  26.529  1.00  0.00    -0.269 OA
ATOM     15  C   UNL A   1      33.415  26.392  25.925  1.00  0.00     0.255 C 
ATOM     16  H   UNL A   1      33.998  24.905  27.096  1.00  0.00     0.170 HD
BRANCH  15  17
ATOM     17  C   UNL A   1      32.501  26.875  24.879  1.00  0.00     0.040 A 
ATOM     18  C   UNL A   1      32.845  27.898  23.989  1.00  0.00     0.016 A 
ATOM     19  C   UNL A   1      31.225  26.318  24.854  1.00  0.00     0.016 A 
ATOM     20  C   UNL A   1      31.853  28.486  23.196  1.00  0.00     0.027 A 
ATOM     21  C   UNL A   1      30.234  26.935  24.101  1.00  0.00     0.027 A 
ATOM     22  C   UNL A   1      30.523  28.067  23.323  1.00  0.00     0.052 A 
BRANCH  22  23
ATOM     23  N   UNL A   1      29.455  28.779  22.740  1.00  0.00    -0.250 N 
ATOM     24  C   UNL A   1      28.128  28.603  23.029  1.00  0.00     0.238 C 
ATOM     25  C   UNL A   1      29.644  29.712  21.745  1.00  0.00     0.238 C 
ATOM     26  O   UNL A   1      27.594  27.726  23.696  1.00  0.00    -0.274 OA
ATOM     27  C   UNL A   1      27.369  29.779  22.458  1.00  0.00     0.096 C 
ATOM     28  C   UNL A   1      28.312  30.319  21.382  1.00  0.00     0.096 C 
ATOM     29  O   UNL A   1      30.679  30.008  21.161  1.00  0.00    -0.274 OA
ATOM     30  C   UNL A   1      27.045  30.762  23.597  1.00  0.00     0.041 C 
ATOM     31  C   UNL A   1      28.475  31.837  21.346  1.00  0.00     0.041 C 
ATOM     32  C   UNL A   1      28.062  31.853  23.777  1.00  0.00    -0.030 C 
ATOM     33  C   UNL A   1      28.711  32.374  22.727  1.00  0.00    -0.030 C 
ENDBRANCH  22  23
ENDBRANCH  15  17
ENDBRANCH   8  13
ENDBRANCH   5   7
ENDBRANCH   4   5
ENDBRANCH   3   4
ENDBRANCH   2   3
ENDBRANCH   1   2
BRANCH   1  34
ATOM     34  C   UNL A   1      36.697  20.646  24.572  1.00  0.00     0.202 C 
BRANCH  34  35
ATOM     35  C   UNL A   1      37.947  19.814  24.890  1.00  0.00     0.261 C 
BRANCH  35  36
ATOM     36  O   UNL A   1      38.504  20.048  26.198  1.00  0.00    -0.460 OA
BRANCH  36  37
ATOM     37  C   UNL A   1      39.828  20.343  26.200  1.00  0.00     0.338 C 
ATOM     38  O   UNL A   1      40.725  19.693  25.675  1.00  0.00    -0.246 OA
BRANCH  37  39
ATOM     39  C   UNL A   1      40.089  21.643  26.836  1.00  0.00     0.060 A 
ATOM     40  C   UNL A   1      39.619  22.803  26.204  1.00  0.00     0.016 A 
ATOM     41  C   UNL A   1      40.959  21.729  27.923  1.00  0.00     0.016 A 
ATOM     42  C   UNL A   1      40.066  24.056  26.628  1.00  0.00     0.010 A 
ATOM     43  C   UNL A   1      41.407  22.987  28.344  1.00  0.00     0.010 A 
ATOM     44  C   UNL A   1      40.998  24.152  27.669  1.00  0.00    -0.014 A 
BRANCH  44  45
ATOM     45  C   UNL A   1      41.668  25.448  27.950  1.00  0.00     0.031 A 
ATOM     46  C   UNL A   1      40.880  26.554  28.603  1.00  0.00     0.074 A 
ATOM     47  C   UNL A   1      42.959  25.641  27.630  1.00  0.00     0.049 A 
ATOM     48  N   UNL A   1      41.233  27.786  28.868  1.00  0.00    -0.248 NA
ATOM     49  C   UNL A   1      39.504  26.222  28.999  1.00  0.00     0.031 C 
ATOM     50  C   UNL A   1      43.831  24.641  27.018  1.00  0.00     0.029 A 
ATOM     51  N   UNL A   1      43.752  26.754  27.756  1.00  0.00    -0.354 N 
ATOM     52  C   UNL A   1      40.121  28.381  29.456  1.00  0.00     0.074 A 
ATOM     53  C   UNL A   1      39.072  27.382  29.466  1.00  0.00     0.031 C 
ATOM     54  C   UNL A   1      45.036  25.195  26.796  1.00  0.00     0.029 A 
ATOM     55  C   UNL A   1      45.006  26.595  27.215  1.00  0.00     0.049 A 
ATOM     56  H   UNL A   1      43.453  27.584  28.192  1.00  0.00     0.167 HD
ATOM     57  C   UNL A   1      39.991  29.638  29.950  1.00  0.00     0.034 A 
ATOM     58  C   UNL A   1      46.002  27.488  27.040  1.00  0.00     0.034 A 
ATOM     59  C   UNL A   1      41.041  30.630  29.912  1.00  0.00     0.049 A 
ATOM     60  C   UNL A   1      45.816  28.905  27.523  1.00  0.00     0.074 A 
ATOM     61  C   UNL A   1      41.026  31.925  30.399  1.00  0.00     0.029 A 
ATOM     62  N   UNL A   1      42.292  30.440  29.337  1.00  0.00    -0.354 N 
ATOM     63  N   UNL A   1      44.768  29.454  28.093  1.00  0.00    -0.248 NA
ATOM     64  C   UNL A   1      46.952  29.818  27.347  1.00  0.00     0.031 C 
ATOM     65  C   UNL A   1      42.236  32.540  30.054  1.00  0.00     0.029 A 
ATOM     66  C   UNL A   1      43.042  31.605  29.422  1.00  0.00     0.049 A 
ATOM     67  H   UNL A   1      42.602  29.601  28.927  1.00  0.00     0.167 HD
ATOM     68  C   UNL A   1      45.127  30.773  28.361  1.00  0.00     0.074 A 
ATOM     69  C   UNL A   1      46.493  30.931  27.903  1.00  0.00     0.031 C 
ATOM     70  C   UNL A   1      44.395  31.762  28.939  1.00  0.00     0.034 A 
BRANCH  57  71
ATOM     71  C   UNL A   1      38.640  30.017  30.519  1.00  0.00     0.023 A 
ATOM     72  C   UNL A   1      37.685  30.713  29.755  1.00  0.00     0.031 A 
ATOM     73  C   UNL A   1      38.328  29.737  31.861  1.00  0.00     0.131 A 
ATOM     74  C   UNL A   1      36.510  31.183  30.362  1.00  0.00     0.055 A 
ATOM     75  C   UNL A   1      37.118  30.132  32.434  1.00  0.00     0.041 A 
ATOM     76  F   UNL A   1      39.205  29.095  32.647  1.00  0.00    -0.206 F 
ATOM     77  C   UNL A   1      36.209  30.878  31.690  1.00  0.00     0.022 A 
BRANCH  74  78
ATOM     78  S   UNL A   1      35.468  32.351  29.441  1.00  0.00     0.124 S 
ATOM     79  O   UNL A   1      34.609  31.446  28.682  1.00  0.00    -0.237 OA
ATOM     80  O   UNL A   1      34.820  33.104  30.509  1.00  0.00    -0.237 OA
ATOM     81  O   UNL A   1      36.428  33.106  28.637  1.00  0.00    -0.744 OA
ENDBRANCH  74  78
ENDBRANCH  57  71
BRANCH  58  82
ATOM     82  C   UNL A   1      47.242  27.081  26.323  1.00  0.00     0.023 A 
ATOM     83  C   UNL A   1      48.274  26.389  26.975  1.00  0.00     0.031 A 
ATOM     84  C   UNL A   1      47.412  27.396  24.963  1.00  0.00     0.131 A 
ATOM     85  C   UNL A   1      49.444  26.060  26.272  1.00  0.00     0.055 A 
ATOM     86  C   UNL A   1      48.557  27.026  24.257  1.00  0.00     0.041 A 
ATOM     87  F   UNL A   1      46.454  28.059  24.295  1.00  0.00    -0.206 F 
ATOM     88  C   UNL A   1      49.586  26.361  24.915  1.00  0.00     0.022 A 
BRANCH  85  89
ATOM     89  S   UNL A   1      50.808  25.273  27.172  1.00  0.00     0.124 S 
ATOM     90  O   UNL A   1      50.118  24.208  27.891  1.00  0.00    -0.237 OA
ATOM     91  O   UNL A   1      51.687  24.850  26.086  1.00  0.00    -0.237 OA
ATOM     92  O   UNL A   1      51.333  26.352  28.008  1.00  0.00    -0.744 OA
ENDBRANCH  85  89
ENDBRANCH  58  82
BRANCH  70  93
ATOM     93  C   UNL A   1      45.078  33.093  29.141  1.00  0.00     0.023 A 
ATOM     94  C   UNL A   1      44.914  34.158  28.236  1.00  0.00     0.031 A 
ATOM     95  C   UNL A   1      45.916  33.297  30.253  1.00  0.00     0.131 A 
ATOM     96  C   UNL A   1      45.615  35.359  28.433  1.00  0.00     0.055 A 
ATOM     97  C   UNL A   1      46.566  34.512  30.474  1.00  0.00     0.041 A 
ATOM     98  F   UNL A   1      46.113  32.316  31.148  1.00  0.00    -0.206 F 
ATOM     99  C   UNL A   1      46.428  35.547  29.554  1.00  0.00     0.022 A 
BRANCH  96 100
ATOM    100  S   UNL A   1      45.523  36.645  27.156  1.00  0.00     0.124 S 
ATOM    101  O   UNL A   1      45.961  37.830  27.886  1.00  0.00    -0.237 OA
ATOM    102  O   UNL A   1      46.445  36.144  26.141  1.00  0.00    -0.237 OA
ATOM    103  O   UNL A   1      44.114  36.642  26.766  1.00  0.00    -0.744 OA
ENDBRANCH  96 100
ENDBRANCH  70  93
ENDBRANCH  44  45
ENDBRANCH  37  39
ENDBRANCH  36  37
ENDBRANCH  35  36
ENDBRANCH  34  35
ENDBRANCH   1  34
TORSDOF 20
ENDMDL
