MODEL 1
REMARK VINA RESULT:     -10.9      0.000      0.000
REMARK SMILES CC[C@@](C)([NH2+]Cc1ccc(C(N)=O)cc1F)C(=O)OCCOCCOC(=O)c1ccc(-c2c3nc(c(-c4cc(S(=O)(=O)[O-])ccc4F)c4ccc([nH]4)c(-c4cc(S(=O)(=O)[O-])ccc4F)c4nc(c(-c5cc(S(=O)(=O)[O-])ccc5F)c5ccc2[nH]5)C=C4)C=C3)cc1
REMARK SMILES IDX 21 1 20 2 19 3 17 4 18 5 3 6 4 7 2 8 1 9 5 10 6 13 7 14 8 15
REMARK SMILES IDX 15 16 9 17 14 18 16 19 10 20 11 21 12 22 13 23 22 26 23 27
REMARK SMILES IDX 24 28 25 29 26 30 27 31 28 32 29 33 90 34 30 35 89 36 31 37
REMARK SMILES IDX 32 38 33 39 83 40 34 41 88 42 82 43 84 44 35 45 87 46 81 47
REMARK SMILES IDX 80 48 36 50 68 51 48 52 67 53 49 54 52 55 66 56 85 57 50 58
REMARK SMILES IDX 51 59 65 61 86 62 53 63 37 64 38 65 46 66 39 67 45 68 47 69
REMARK SMILES IDX 44 70 40 71 41 72 42 73 43 74 69 75 70 76 78 77 71 78 77 79
REMARK SMILES IDX 79 80 76 81 72 82 73 83 74 84 75 85 54 86 55 87 63 88 56 89
REMARK SMILES IDX 62 90 64 91 61 92 57 93 58 94 59 95 60 96
REMARK H PARENT 5 11 5 12 12 24 12 25 84 49 52 60
REMARK Flexibility Score: inf
ROOT
ATOM      1  C   UNL A   1      36.671  22.746  24.287  1.00  0.00     0.202 C 
ENDROOT
BRANCH   1   2
ATOM      2  C   UNL A   1      35.945  23.910  24.965  1.00  0.00     0.261 C 
BRANCH   2   3
ATOM      3  O   UNL A   1      34.735  24.199  24.251  1.00  0.00    -0.459 OA
BRANCH   3   4
ATOM      4  C   UNL A   1      33.585  24.167  24.961  1.00  0.00     0.367 C 
ATOM      5  O   UNL A   1      33.330  24.954  25.870  1.00  0.00    -0.245 OA
BRANCH   4   6
ATOM      6  C   UNL A   1      32.602  23.045  24.530  1.00  0.00     0.191 C 
ATOM      7  C   UNL A   1      31.552  22.925  25.646  1.00  0.00     0.092 C 
BRANCH   6   8
ATOM      8  C   UNL A   1      31.896  23.459  23.194  1.00  0.00     0.077 C 
ATOM      9  C   UNL A   1      30.943  24.649  23.224  1.00  0.00     0.011 C 
ENDBRANCH   6   8
BRANCH   6  10
ATOM     10  N   UNL A   1      33.199  21.718  24.146  1.00  0.00    -0.329 N 
ATOM     11  H   UNL A   1      33.577  21.318  25.006  1.00  0.00     0.347 HD
ATOM     12  H   UNL A   1      33.837  21.983  23.396  1.00  0.00     0.347 HD
BRANCH  10  13
ATOM     13  C   UNL A   1      32.411  20.655  23.513  1.00  0.00     0.301 C 
BRANCH  13  14
ATOM     14  C   UNL A   1      32.772  19.266  23.948  1.00  0.00     0.042 A 
ATOM     15  C   UNL A   1      33.001  18.250  23.009  1.00  0.00     0.013 A 
ATOM     16  C   UNL A   1      32.784  18.941  25.306  1.00  0.00     0.132 A 
ATOM     17  C   UNL A   1      33.092  16.919  23.422  1.00  0.00     0.014 A 
ATOM     18  C   UNL A   1      32.887  17.622  25.727  1.00  0.00     0.053 A 
ATOM     19  F   UNL A   1      32.617  19.901  26.226  1.00  0.00    -0.206 F 
ATOM     20  C   UNL A   1      32.987  16.594  24.782  1.00  0.00     0.042 A 
BRANCH  20  21
ATOM     21  C   UNL A   1      32.894  15.193  25.280  1.00  0.00     0.248 C 
ATOM     22  N   UNL A   1      31.672  14.706  25.648  1.00  0.00    -0.366 N 
ATOM     23  O   UNL A   1      33.889  14.490  25.404  1.00  0.00    -0.270 OA
ATOM     24  H   UNL A   1      30.868  15.265  25.550  1.00  0.00     0.159 HD
ATOM     25  H   UNL A   1      31.596  13.794  26.013  1.00  0.00     0.159 HD
ENDBRANCH  20  21
ENDBRANCH  13  14
ENDBRANCH  10  13
ENDBRANCH   6  10
ENDBRANCH   4   6
ENDBRANCH   3   4
ENDBRANCH   2   3
ENDBRANCH   1   2
BRANCH   1  26
ATOM     26  O   UNL A   1      35.993  21.487  24.316  1.00  0.00    -0.374 OA
BRANCH  26  27
ATOM     27  C   UNL A   1      36.669  20.391  24.933  1.00  0.00     0.202 C 
BRANCH  27  28
ATOM     28  C   UNL A   1      38.200  20.430  24.955  1.00  0.00     0.261 C 
BRANCH  28  29
ATOM     29  O   UNL A   1      38.739  20.468  26.287  1.00  0.00    -0.460 OA
BRANCH  29  30
ATOM     30  C   UNL A   1      40.069  20.722  26.336  1.00  0.00     0.338 C 
ATOM     31  O   UNL A   1      40.954  20.098  25.763  1.00  0.00    -0.246 OA
BRANCH  30  32
ATOM     32  C   UNL A   1      40.335  21.984  27.049  1.00  0.00     0.060 A 
ATOM     33  C   UNL A   1      39.626  23.114  26.621  1.00  0.00     0.016 A 
ATOM     34  C   UNL A   1      41.320  22.095  28.034  1.00  0.00     0.016 A 
ATOM     35  C   UNL A   1      39.954  24.371  27.115  1.00  0.00     0.010 A 
ATOM     36  C   UNL A   1      41.655  23.364  28.526  1.00  0.00     0.010 A 
ATOM     37  C   UNL A   1      41.009  24.510  28.027  1.00  0.00    -0.014 A 
BRANCH  37  38
ATOM     38  C   UNL A   1      41.552  25.870  28.272  1.00  0.00     0.031 A 
ATOM     39  C   UNL A   1      42.906  26.214  27.706  1.00  0.00     0.074 A 
ATOM     40  C   UNL A   1      40.812  26.811  28.886  1.00  0.00     0.049 A 
ATOM     41  N   UNL A   1      43.560  27.346  27.753  1.00  0.00    -0.248 NA
ATOM     42  C   UNL A   1      43.614  25.143  26.984  1.00  0.00     0.031 C 
ATOM     43  C   UNL A   1      39.464  26.611  29.416  1.00  0.00     0.029 A 
ATOM     44  N   UNL A   1      41.084  28.132  29.147  1.00  0.00    -0.354 N 
ATOM     45  C   UNL A   1      44.749  27.125  27.067  1.00  0.00     0.074 A 
ATOM     46  C   UNL A   1      44.745  25.743  26.643  1.00  0.00     0.031 C 
ATOM     47  C   UNL A   1      39.020  27.772  29.928  1.00  0.00     0.029 A 
ATOM     48  C   UNL A   1      40.062  28.789  29.792  1.00  0.00     0.049 A 
ATOM     49  H   UNL A   1      41.931  28.567  28.897  1.00  0.00     0.167 HD
ATOM     50  C   UNL A   1      45.746  28.001  26.799  1.00  0.00     0.034 A 
ATOM     51  C   UNL A   1      39.983  30.062  30.232  1.00  0.00     0.034 A 
ATOM     52  C   UNL A   1      45.736  29.379  27.208  1.00  0.00     0.049 A 
ATOM     53  C   UNL A   1      41.146  30.994  30.001  1.00  0.00     0.074 A 
ATOM     54  C   UNL A   1      46.692  30.351  26.973  1.00  0.00     0.029 A 
ATOM     55  N   UNL A   1      44.722  29.981  27.939  1.00  0.00    -0.354 N 
ATOM     56  N   UNL A   1      42.275  30.761  29.372  1.00  0.00    -0.248 NA
ATOM     57  C   UNL A   1      41.031  32.357  30.542  1.00  0.00     0.031 C 
ATOM     58  C   UNL A   1      46.286  31.525  27.613  1.00  0.00     0.029 A 
ATOM     59  C   UNL A   1      45.047  31.303  28.194  1.00  0.00     0.049 A 
ATOM     60  H   UNL A   1      43.896  29.536  28.233  1.00  0.00     0.167 HD
ATOM     61  C   UNL A   1      42.995  31.951  29.429  1.00  0.00     0.074 A 
ATOM     62  C   UNL A   1      42.174  32.903  30.147  1.00  0.00     0.031 C 
ATOM     63  C   UNL A   1      44.222  32.233  28.925  1.00  0.00     0.034 A 
BRANCH  50  64
ATOM     64  C   UNL A   1      46.950  27.490  26.055  1.00  0.00     0.023 A 
ATOM     65  C   UNL A   1      47.162  27.792  24.701  1.00  0.00     0.031 A 
ATOM     66  C   UNL A   1      47.917  26.723  26.726  1.00  0.00     0.131 A 
ATOM     67  C   UNL A   1      48.307  27.306  24.051  1.00  0.00     0.055 A 
ATOM     68  C   UNL A   1      49.079  26.288  26.090  1.00  0.00     0.041 A 
ATOM     69  F   UNL A   1      47.749  26.391  28.017  1.00  0.00    -0.206 F 
ATOM     70  C   UNL A   1      49.278  26.577  24.744  1.00  0.00     0.022 A 
BRANCH  67  71
ATOM     71  S   UNL A   1      48.491  27.593  22.270  1.00  0.00     0.124 S 
ATOM     72  O   UNL A   1      49.791  28.257  22.213  1.00  0.00    -0.237 OA
ATOM     73  O   UNL A   1      48.439  26.243  21.722  1.00  0.00    -0.237 OA
ATOM     74  O   UNL A   1      47.348  28.442  21.940  1.00  0.00    -0.744 OA
ENDBRANCH  67  71
ENDBRANCH  50  64
BRANCH  51  75
ATOM     75  C   UNL A   1      38.776  30.522  30.975  1.00  0.00     0.023 A 
ATOM     76  C   UNL A   1      37.704  31.144  30.317  1.00  0.00     0.031 A 
ATOM     77  C   UNL A   1      38.692  30.359  32.370  1.00  0.00     0.131 A 
ATOM     78  C   UNL A   1      36.602  31.602  31.057  1.00  0.00     0.055 A 
ATOM     79  C   UNL A   1      37.577  30.780  33.095  1.00  0.00     0.041 A 
ATOM     80  F   UNL A   1      39.693  29.773  33.045  1.00  0.00    -0.206 F 
ATOM     81  C   UNL A   1      36.526  31.412  32.439  1.00  0.00     0.022 A 
BRANCH  78  82
ATOM     82  S   UNL A   1      35.278  32.491  30.193  1.00  0.00     0.124 S 
ATOM     83  O   UNL A   1      34.248  32.566  31.224  1.00  0.00    -0.237 OA
ATOM     84  O   UNL A   1      35.930  33.749  29.844  1.00  0.00    -0.237 OA
ATOM     85  O   UNL A   1      34.966  31.621  29.061  1.00  0.00    -0.744 OA
ENDBRANCH  78  82
ENDBRANCH  51  75
BRANCH  63  86
ATOM     86  C   UNL A   1      44.755  33.626  29.111  1.00  0.00     0.023 A 
ATOM     87  C   UNL A   1      45.607  33.944  30.181  1.00  0.00     0.031 A 
ATOM     88  C   UNL A   1      44.474  34.623  28.161  1.00  0.00     0.131 A 
ATOM     89  C   UNL A   1      46.142  35.236  30.282  1.00  0.00     0.055 A 
ATOM     90  C   UNL A   1      45.039  35.895  28.244  1.00  0.00     0.041 A 
ATOM     91  F   UNL A   1      43.672  34.362  27.115  1.00  0.00    -0.206 F 
ATOM     92  C   UNL A   1      45.878  36.208  29.311  1.00  0.00     0.022 A 
BRANCH  89  93
ATOM     93  S   UNL A   1      47.192  35.640  31.705  1.00  0.00     0.124 S 
ATOM     94  O   UNL A   1      46.907  34.534  32.613  1.00  0.00    -0.237 OA
ATOM     95  O   UNL A   1      48.529  35.655  31.119  1.00  0.00    -0.237 OA
ATOM     96  O   UNL A   1      46.694  36.944  32.139  1.00  0.00    -0.744 OA
ENDBRANCH  89  93
ENDBRANCH  63  86
ENDBRANCH  37  38
ENDBRANCH  30  32
ENDBRANCH  29  30
ENDBRANCH  28  29
ENDBRANCH  27  28
ENDBRANCH  26  27
ENDBRANCH   1  26
TORSDOF 22
ENDMDL
MODEL 2
REMARK VINA RESULT:     -10.8      1.951      2.207
REMARK SMILES CC[C@@](C)([NH2+]Cc1ccc(C(N)=O)cc1F)C(=O)OCCOCCOC(=O)c1ccc(-c2c3nc(c(-c4cc(S(=O)(=O)[O-])ccc4F)c4ccc([nH]4)c(-c4cc(S(=O)(=O)[O-])ccc4F)c4nc(c(-c5cc(S(=O)(=O)[O-])ccc5F)c5ccc2[nH]5)C=C4)C=C3)cc1
REMARK SMILES IDX 21 1 20 2 19 3 17 4 18 5 3 6 4 7 2 8 1 9 5 10 6 13 7 14 8 15
REMARK SMILES IDX 15 16 9 17 14 18 16 19 10 20 11 21 12 22 13 23 22 26 23 27
REMARK SMILES IDX 24 28 25 29 26 30 27 31 28 32 29 33 90 34 30 35 89 36 31 37
REMARK SMILES IDX 32 38 33 39 83 40 34 41 88 42 82 43 84 44 35 45 87 46 81 47
REMARK SMILES IDX 80 48 36 50 68 51 48 52 67 53 49 54 52 55 66 56 85 57 50 58
REMARK SMILES IDX 51 59 65 61 86 62 53 63 37 64 38 65 46 66 39 67 45 68 47 69
REMARK SMILES IDX 44 70 40 71 41 72 42 73 43 74 69 75 70 76 78 77 71 78 77 79
REMARK SMILES IDX 79 80 76 81 72 82 73 83 74 84 75 85 54 86 55 87 63 88 56 89
REMARK SMILES IDX 62 90 64 91 61 92 57 93 58 94 59 95 60 96
REMARK H PARENT 5 11 5 12 12 24 12 25 84 49 52 60
REMARK Flexibility Score: inf
ROOT
ATOM      1  C   UNL A   1      36.662  22.451  24.168  1.00  0.00     0.202 C 
ENDROOT
BRANCH   1   2
ATOM      2  C   UNL A   1      36.305  23.699  24.978  1.00  0.00     0.261 C 
BRANCH   2   3
ATOM      3  O   UNL A   1      35.046  24.216  24.527  1.00  0.00    -0.459 OA
BRANCH   3   4
ATOM      4  C   UNL A   1      33.958  23.902  25.265  1.00  0.00     0.367 C 
ATOM      5  O   UNL A   1      33.831  24.212  26.447  1.00  0.00    -0.245 OA
BRANCH   4   6
ATOM      6  C   UNL A   1      32.870  23.111  24.489  1.00  0.00     0.191 C 
ATOM      7  C   UNL A   1      31.674  22.955  25.441  1.00  0.00     0.092 C 
BRANCH   6   8
ATOM      8  C   UNL A   1      32.429  23.934  23.231  1.00  0.00     0.077 C 
ATOM      9  C   UNL A   1      30.972  24.371  23.132  1.00  0.00     0.011 C 
ENDBRANCH   6   8
BRANCH   6  10
ATOM     10  N   UNL A   1      33.285  21.810  23.856  1.00  0.00    -0.329 N 
ATOM     11  H   UNL A   1      33.957  21.385  24.497  1.00  0.00     0.347 HD
ATOM     12  H   UNL A   1      33.597  22.114  22.935  1.00  0.00     0.347 HD
BRANCH  10  13
ATOM     13  C   UNL A   1      32.321  20.758  23.518  1.00  0.00     0.301 C 
BRANCH  13  14
ATOM     14  C   UNL A   1      32.747  19.373  23.905  1.00  0.00     0.042 A 
ATOM     15  C   UNL A   1      32.843  18.351  22.949  1.00  0.00     0.013 A 
ATOM     16  C   UNL A   1      32.955  19.056  25.248  1.00  0.00     0.132 A 
ATOM     17  C   UNL A   1      32.998  17.023  23.352  1.00  0.00     0.014 A 
ATOM     18  C   UNL A   1      33.123  17.741  25.658  1.00  0.00     0.053 A 
ATOM     19  F   UNL A   1      32.918  20.022  26.177  1.00  0.00    -0.206 F 
ATOM     20  C   UNL A   1      33.091  16.707  24.715  1.00  0.00     0.042 A 
BRANCH  20  21
ATOM     21  C   UNL A   1      33.076  15.309  25.229  1.00  0.00     0.248 C 
ATOM     22  N   UNL A   1      31.883  14.756  25.598  1.00  0.00    -0.366 N 
ATOM     23  O   UNL A   1      34.110  14.666  25.366  1.00  0.00    -0.270 OA
ATOM     24  H   UNL A   1      31.048  15.267  25.490  1.00  0.00     0.159 HD
ATOM     25  H   UNL A   1      31.857  13.846  25.973  1.00  0.00     0.159 HD
ENDBRANCH  20  21
ENDBRANCH  13  14
ENDBRANCH  10  13
ENDBRANCH   6  10
ENDBRANCH   4   6
ENDBRANCH   3   4
ENDBRANCH   2   3
ENDBRANCH   1   2
BRANCH   1  26
ATOM     26  O   UNL A   1      36.190  21.209  24.697  1.00  0.00    -0.374 OA
BRANCH  26  27
ATOM     27  C   UNL A   1      37.161  20.196  24.961  1.00  0.00     0.202 C 
BRANCH  27  28
ATOM     28  C   UNL A   1      38.604  20.649  25.202  1.00  0.00     0.261 C 
BRANCH  28  29
ATOM     29  O   UNL A   1      39.368  19.701  25.968  1.00  0.00    -0.460 OA
BRANCH  29  30
ATOM     30  C   UNL A   1      40.664  20.052  26.145  1.00  0.00     0.338 C 
ATOM     31  O   UNL A   1      41.646  19.470  25.700  1.00  0.00    -0.246 OA
BRANCH  30  32
ATOM     32  C   UNL A   1      40.764  21.360  26.817  1.00  0.00     0.060 A 
ATOM     33  C   UNL A   1      40.233  22.463  26.137  1.00  0.00     0.016 A 
ATOM     34  C   UNL A   1      41.447  21.531  28.024  1.00  0.00     0.016 A 
ATOM     35  C   UNL A   1      40.452  23.749  26.617  1.00  0.00     0.010 A 
ATOM     36  C   UNL A   1      41.674  22.828  28.503  1.00  0.00     0.010 A 
ATOM     37  C   UNL A   1      41.223  23.942  27.771  1.00  0.00    -0.014 A 
BRANCH  37  38
ATOM     38  C   UNL A   1      41.720  25.311  28.064  1.00  0.00     0.031 A 
ATOM     39  C   UNL A   1      43.098  25.690  27.586  1.00  0.00     0.074 A 
ATOM     40  C   UNL A   1      40.924  26.228  28.642  1.00  0.00     0.049 A 
ATOM     41  N   UNL A   1      43.723  26.836  27.686  1.00  0.00    -0.248 NA
ATOM     42  C   UNL A   1      43.872  24.644  26.897  1.00  0.00     0.031 C 
ATOM     43  C   UNL A   1      39.551  25.992  29.086  1.00  0.00     0.029 A 
ATOM     44  N   UNL A   1      41.150  27.550  28.934  1.00  0.00    -0.354 N 
ATOM     45  C   UNL A   1      44.956  26.648  27.071  1.00  0.00     0.074 A 
ATOM     46  C   UNL A   1      45.008  25.272  26.632  1.00  0.00     0.031 C 
ATOM     47  C   UNL A   1      39.051  27.137  29.583  1.00  0.00     0.029 A 
ATOM     48  C   UNL A   1      40.076  28.178  29.522  1.00  0.00     0.049 A 
ATOM     49  H   UNL A   1      42.000  28.007  28.741  1.00  0.00     0.167 HD
ATOM     50  C   UNL A   1      45.947  27.548  26.874  1.00  0.00     0.034 A 
ATOM     51  C   UNL A   1      39.942  29.443  29.970  1.00  0.00     0.034 A 
ATOM     52  C   UNL A   1      45.882  28.921  27.297  1.00  0.00     0.049 A 
ATOM     53  C   UNL A   1      41.097  30.403  29.822  1.00  0.00     0.074 A 
ATOM     54  C   UNL A   1      46.829  29.916  27.132  1.00  0.00     0.029 A 
ATOM     55  N   UNL A   1      44.813  29.493  27.971  1.00  0.00    -0.354 N 
ATOM     56  N   UNL A   1      42.266  30.201  29.261  1.00  0.00    -0.248 NA
ATOM     57  C   UNL A   1      40.919  31.756  30.370  1.00  0.00     0.031 C 
ATOM     58  C   UNL A   1      46.359  31.073  27.759  1.00  0.00     0.029 A 
ATOM     59  C   UNL A   1      45.092  30.818  28.260  1.00  0.00     0.049 A 
ATOM     60  H   UNL A   1      43.980  29.026  28.209  1.00  0.00     0.167 HD
ATOM     61  C   UNL A   1      42.955  31.406  29.374  1.00  0.00     0.074 A 
ATOM     62  C   UNL A   1      42.071  32.331  30.052  1.00  0.00     0.031 C 
ATOM     63  C   UNL A   1      44.204  31.720  28.949  1.00  0.00     0.034 A 
BRANCH  50  64
ATOM     64  C   UNL A   1      47.206  27.072  26.200  1.00  0.00     0.023 A 
ATOM     65  C   UNL A   1      48.238  26.451  26.922  1.00  0.00     0.031 A 
ATOM     66  C   UNL A   1      47.354  27.208  24.809  1.00  0.00     0.131 A 
ATOM     67  C   UNL A   1      49.388  26.011  26.250  1.00  0.00     0.055 A 
ATOM     68  C   UNL A   1      48.474  26.720  24.139  1.00  0.00     0.041 A 
ATOM     69  F   UNL A   1      46.402  27.813  24.078  1.00  0.00    -0.206 F 
ATOM     70  C   UNL A   1      49.502  26.119  24.861  1.00  0.00     0.022 A 
BRANCH  67  71
ATOM     71  S   UNL A   1      50.764  25.337  27.220  1.00  0.00     0.124 S 
ATOM     72  O   UNL A   1      51.226  26.522  27.937  1.00  0.00    -0.237 OA
ATOM     73  O   UNL A   1      50.112  24.314  28.030  1.00  0.00    -0.237 OA
ATOM     74  O   UNL A   1      51.684  24.831  26.204  1.00  0.00    -0.744 OA
ENDBRANCH  67  71
ENDBRANCH  50  64
BRANCH  51  75
ATOM     75  C   UNL A   1      38.682  29.868  30.644  1.00  0.00     0.023 A 
ATOM     76  C   UNL A   1      37.729  30.656  29.981  1.00  0.00     0.031 A 
ATOM     77  C   UNL A   1      38.428  29.501  31.977  1.00  0.00     0.131 A 
ATOM     78  C   UNL A   1      36.573  31.073  30.663  1.00  0.00     0.055 A 
ATOM     79  C   UNL A   1      37.259  29.884  32.637  1.00  0.00     0.041 A 
ATOM     80  F   UNL A   1      39.311  28.751  32.655  1.00  0.00    -0.206 F 
ATOM     81  C   UNL A   1      36.326  30.680  31.981  1.00  0.00     0.022 A 
BRANCH  78  82
ATOM     82  S   UNL A   1      35.407  32.172  29.814  1.00  0.00     0.124 S 
ATOM     83  O   UNL A   1      34.907  31.310  28.749  1.00  0.00    -0.237 OA
ATOM     84  O   UNL A   1      34.461  32.495  30.878  1.00  0.00    -0.237 OA
ATOM     85  O   UNL A   1      36.246  33.284  29.374  1.00  0.00    -0.744 OA
ENDBRANCH  78  82
ENDBRANCH  51  75
BRANCH  63  86
ATOM     86  C   UNL A   1      44.693  33.122  29.183  1.00  0.00     0.023 A 
ATOM     87  C   UNL A   1      44.628  34.096  28.173  1.00  0.00     0.031 A 
ATOM     88  C   UNL A   1      45.150  33.508  30.455  1.00  0.00     0.131 A 
ATOM     89  C   UNL A   1      45.027  35.411  28.449  1.00  0.00     0.055 A 
ATOM     90  C   UNL A   1      45.510  34.826  30.735  1.00  0.00     0.041 A 
ATOM     91  F   UNL A   1      45.221  32.614  31.454  1.00  0.00    -0.206 F 
ATOM     92  C   UNL A   1      45.450  35.786  29.729  1.00  0.00     0.022 A 
BRANCH  89  93
ATOM     93  S   UNL A   1      44.989  36.636  27.113  1.00  0.00     0.124 S 
ATOM     94  O   UNL A   1      45.441  37.843  27.797  1.00  0.00    -0.237 OA
ATOM     95  O   UNL A   1      45.918  36.072  26.137  1.00  0.00    -0.237 OA
ATOM     96  O   UNL A   1      43.588  36.646  26.696  1.00  0.00    -0.744 OA
ENDBRANCH  89  93
ENDBRANCH  63  86
ENDBRANCH  37  38
ENDBRANCH  30  32
ENDBRANCH  29  30
ENDBRANCH  28  29
ENDBRANCH  27  28
ENDBRANCH  26  27
ENDBRANCH   1  26
TORSDOF 22
ENDMDL
MODEL 3
REMARK VINA RESULT:     -10.1      2.484      8.082
REMARK SMILES CC[C@@](C)([NH2+]Cc1ccc(C(N)=O)cc1F)C(=O)OCCOCCOC(=O)c1ccc(-c2c3nc(c(-c4cc(S(=O)(=O)[O-])ccc4F)c4ccc([nH]4)c(-c4cc(S(=O)(=O)[O-])ccc4F)c4nc(c(-c5cc(S(=O)(=O)[O-])ccc5F)c5ccc2[nH]5)C=C4)C=C3)cc1
REMARK SMILES IDX 21 1 20 2 19 3 17 4 18 5 3 6 4 7 2 8 1 9 5 10 6 13 7 14 8 15
REMARK SMILES IDX 15 16 9 17 14 18 16 19 10 20 11 21 12 22 13 23 22 26 23 27
REMARK SMILES IDX 24 28 25 29 26 30 27 31 28 32 29 33 90 34 30 35 89 36 31 37
REMARK SMILES IDX 32 38 33 39 83 40 34 41 88 42 82 43 84 44 35 45 87 46 81 47
REMARK SMILES IDX 80 48 36 50 68 51 48 52 67 53 49 54 52 55 66 56 85 57 50 58
REMARK SMILES IDX 51 59 65 61 86 62 53 63 37 64 38 65 46 66 39 67 45 68 47 69
REMARK SMILES IDX 44 70 40 71 41 72 42 73 43 74 69 75 70 76 78 77 71 78 77 79
REMARK SMILES IDX 79 80 76 81 72 82 73 83 74 84 75 85 54 86 55 87 63 88 56 89
REMARK SMILES IDX 62 90 64 91 61 92 57 93 58 94 59 95 60 96
REMARK H PARENT 5 11 5 12 12 24 12 25 84 49 52 60
REMARK Flexibility Score: inf
ROOT
ATOM      1  C   UNL A   1      36.932  22.845  24.066  1.00  0.00     0.202 C 
ENDROOT
BRANCH   1   2
ATOM      2  C   UNL A   1      35.553  23.182  23.496  1.00  0.00     0.261 C 
BRANCH   2   3
ATOM      3  O   UNL A   1      35.064  24.383  24.107  1.00  0.00    -0.459 OA
BRANCH   3   4
ATOM      4  C   UNL A   1      33.990  24.968  23.531  1.00  0.00     0.367 C 
ATOM      5  O   UNL A   1      33.866  25.105  22.316  1.00  0.00    -0.245 OA
BRANCH   4   6
ATOM      6  C   UNL A   1      32.914  25.456  24.539  1.00  0.00     0.191 C 
ATOM      7  C   UNL A   1      33.667  26.144  25.689  1.00  0.00     0.092 C 
BRANCH   6   8
ATOM      8  C   UNL A   1      31.979  26.497  23.834  1.00  0.00     0.077 C 
ATOM      9  C   UNL A   1      30.471  26.300  23.948  1.00  0.00     0.011 C 
ENDBRANCH   6   8
BRANCH   6  10
ATOM     10  N   UNL A   1      31.913  24.441  25.021  1.00  0.00    -0.329 N 
ATOM     11  H   UNL A   1      31.505  24.025  24.184  1.00  0.00     0.347 HD
ATOM     12  H   UNL A   1      31.326  25.002  25.638  1.00  0.00     0.347 HD
BRANCH  10  13
ATOM     13  C   UNL A   1      32.287  23.322  25.893  1.00  0.00     0.301 C 
BRANCH  13  14
ATOM     14  C   UNL A   1      32.543  22.031  25.176  1.00  0.00     0.042 A 
ATOM     15  C   UNL A   1      32.141  21.850  23.845  1.00  0.00     0.013 A 
ATOM     16  C   UNL A   1      33.097  20.949  25.863  1.00  0.00     0.132 A 
ATOM     17  C   UNL A   1      32.161  20.577  23.271  1.00  0.00     0.014 A 
ATOM     18  C   UNL A   1      33.132  19.682  25.297  1.00  0.00     0.053 A 
ATOM     19  F   UNL A   1      33.534  21.107  27.120  1.00  0.00    -0.206 F 
ATOM     20  C   UNL A   1      32.613  19.476  24.013  1.00  0.00     0.042 A 
BRANCH  20  21
ATOM     21  C   UNL A   1      32.495  18.070  23.537  1.00  0.00     0.248 C 
ATOM     22  N   UNL A   1      32.087  17.841  22.254  1.00  0.00    -0.366 N 
ATOM     23  O   UNL A   1      32.713  17.122  24.281  1.00  0.00    -0.270 OA
ATOM     24  H   UNL A   1      31.911  18.599  21.650  1.00  0.00     0.159 HD
ATOM     25  H   UNL A   1      31.969  16.918  21.932  1.00  0.00     0.159 HD
ENDBRANCH  20  21
ENDBRANCH  13  14
ENDBRANCH  10  13
ENDBRANCH   6  10
ENDBRANCH   4   6
ENDBRANCH   3   4
ENDBRANCH   2   3
ENDBRANCH   1   2
BRANCH   1  26
ATOM     26  O   UNL A   1      37.164  21.465  24.364  1.00  0.00    -0.374 OA
BRANCH  26  27
ATOM     27  C   UNL A   1      37.733  21.155  25.636  1.00  0.00     0.202 C 
BRANCH  27  28
ATOM     28  C   UNL A   1      39.252  21.290  25.781  1.00  0.00     0.261 C 
BRANCH  28  29
ATOM     29  O   UNL A   1      39.823  20.291  26.643  1.00  0.00    -0.460 OA
BRANCH  29  30
ATOM     30  C   UNL A   1      41.073  19.907  26.288  1.00  0.00     0.338 C 
ATOM     31  O   UNL A   1      41.397  18.829  25.806  1.00  0.00    -0.246 OA
BRANCH  30  32
ATOM     32  C   UNL A   1      42.016  21.035  26.394  1.00  0.00     0.060 A 
ATOM     33  C   UNL A   1      42.316  21.489  27.684  1.00  0.00     0.016 A 
ATOM     34  C   UNL A   1      42.514  21.702  25.272  1.00  0.00     0.016 A 
ATOM     35  C   UNL A   1      43.046  22.659  27.858  1.00  0.00     0.010 A 
ATOM     36  C   UNL A   1      43.243  22.886  25.449  1.00  0.00     0.010 A 
ATOM     37  C   UNL A   1      43.464  23.395  26.742  1.00  0.00    -0.014 A 
BRANCH  37  38
ATOM     38  C   UNL A   1      43.933  24.788  26.953  1.00  0.00     0.031 A 
ATOM     39  C   UNL A   1      42.961  25.796  27.509  1.00  0.00     0.074 A 
ATOM     40  C   UNL A   1      45.222  25.121  26.759  1.00  0.00     0.049 A 
ATOM     41  N   UNL A   1      43.156  27.052  27.817  1.00  0.00    -0.248 NA
ATOM     42  C   UNL A   1      41.589  25.324  27.761  1.00  0.00     0.031 C 
ATOM     43  C   UNL A   1      46.266  24.213  26.285  1.00  0.00     0.029 A 
ATOM     44  N   UNL A   1      45.877  26.312  26.959  1.00  0.00    -0.354 N 
ATOM     45  C   UNL A   1      41.938  27.516  28.300  1.00  0.00     0.074 A 
ATOM     46  C   UNL A   1      40.999  26.420  28.212  1.00  0.00     0.031 C 
ATOM     47  C   UNL A   1      47.435  24.877  26.243  1.00  0.00     0.029 A 
ATOM     48  C   UNL A   1      47.218  26.262  26.656  1.00  0.00     0.049 A 
ATOM     49  H   UNL A   1      45.429  27.124  27.287  1.00  0.00     0.167 HD
ATOM     50  C   UNL A   1      41.634  28.741  28.790  1.00  0.00     0.034 A 
ATOM     51  C   UNL A   1      48.159  27.229  26.697  1.00  0.00     0.034 A 
ATOM     52  C   UNL A   1      42.577  29.823  28.891  1.00  0.00     0.049 A 
ATOM     53  C   UNL A   1      47.774  28.612  27.160  1.00  0.00     0.074 A 
ATOM     54  C   UNL A   1      42.370  31.097  29.386  1.00  0.00     0.029 A 
ATOM     55  N   UNL A   1      43.903  29.758  28.488  1.00  0.00    -0.354 N 
ATOM     56  N   UNL A   1      46.609  29.041  27.589  1.00  0.00    -0.248 NA
ATOM     57  C   UNL A   1      48.823  29.642  27.140  1.00  0.00     0.031 C 
ATOM     58  C   UNL A   1      43.553  31.824  29.227  1.00  0.00     0.029 A 
ATOM     59  C   UNL A   1      44.516  30.982  28.692  1.00  0.00     0.049 A 
ATOM     60  H   UNL A   1      44.341  28.961  28.113  1.00  0.00     0.167 HD
ATOM     61  C   UNL A   1      46.792  30.385  27.904  1.00  0.00     0.074 A 
ATOM     62  C   UNL A   1      48.177  30.696  27.622  1.00  0.00     0.031 C 
ATOM     63  C   UNL A   1      45.895  31.278  28.390  1.00  0.00     0.034 A 
BRANCH  50  64
ATOM     64  C   UNL A   1      40.215  28.994  29.224  1.00  0.00     0.023 A 
ATOM     65  C   UNL A   1      39.831  28.909  30.572  1.00  0.00     0.031 A 
ATOM     66  C   UNL A   1      39.245  29.363  28.276  1.00  0.00     0.131 A 
ATOM     67  C   UNL A   1      38.500  29.166  30.932  1.00  0.00     0.055 A 
ATOM     68  C   UNL A   1      37.937  29.670  28.647  1.00  0.00     0.041 A 
ATOM     69  F   UNL A   1      39.560  29.439  26.973  1.00  0.00    -0.206 F 
ATOM     70  C   UNL A   1      37.557  29.570  29.982  1.00  0.00     0.022 A 
BRANCH  67  71
ATOM     71  S   UNL A   1      37.997  28.917  32.657  1.00  0.00     0.124 S 
ATOM     72  O   UNL A   1      36.591  29.312  32.612  1.00  0.00    -0.237 OA
ATOM     73  O   UNL A   1      38.255  27.497  32.863  1.00  0.00    -0.237 OA
ATOM     74  O   UNL A   1      38.869  29.822  33.402  1.00  0.00    -0.744 OA
ENDBRANCH  67  71
ENDBRANCH  50  64
BRANCH  51  75
ATOM     75  C   UNL A   1      49.549  26.938  26.245  1.00  0.00     0.023 A 
ATOM     76  C   UNL A   1      50.049  27.452  25.039  1.00  0.00     0.031 A 
ATOM     77  C   UNL A   1      50.392  26.117  27.016  1.00  0.00     0.131 A 
ATOM     78  C   UNL A   1      51.350  27.120  24.626  1.00  0.00     0.055 A 
ATOM     79  C   UNL A   1      51.697  25.824  26.621  1.00  0.00     0.041 A 
ATOM     80  F   UNL A   1      49.958  25.599  28.176  1.00  0.00    -0.206 F 
ATOM     81  C   UNL A   1      52.181  26.321  25.415  1.00  0.00     0.022 A 
BRANCH  78  82
ATOM     82  S   UNL A   1      51.934  27.717  23.016  1.00  0.00     0.124 S 
ATOM     83  O   UNL A   1      53.346  27.965  23.285  1.00  0.00    -0.237 OA
ATOM     84  O   UNL A   1      51.636  26.585  22.143  1.00  0.00    -0.237 OA
ATOM     85  O   UNL A   1      51.124  28.910  22.780  1.00  0.00    -0.744 OA
ENDBRANCH  78  82
ENDBRANCH  51  75
BRANCH  63  86
ATOM     86  C   UNL A   1      46.376  32.675  28.668  1.00  0.00     0.023 A 
ATOM     87  C   UNL A   1      46.253  33.693  27.709  1.00  0.00     0.031 A 
ATOM     88  C   UNL A   1      46.883  33.009  29.936  1.00  0.00     0.131 A 
ATOM     89  C   UNL A   1      46.647  35.000  28.029  1.00  0.00     0.055 A 
ATOM     90  C   UNL A   1      47.236  34.317  30.262  1.00  0.00     0.041 A 
ATOM     91  F   UNL A   1      47.008  32.070  30.888  1.00  0.00    -0.206 F 
ATOM     92  C   UNL A   1      47.120  35.322  29.305  1.00  0.00     0.022 A 
BRANCH  89  93
ATOM     93  S   UNL A   1      46.535  36.285  26.754  1.00  0.00     0.124 S 
ATOM     94  O   UNL A   1      46.333  35.493  25.545  1.00  0.00    -0.237 OA
ATOM     95  O   UNL A   1      45.391  37.075  27.197  1.00  0.00    -0.237 OA
ATOM     96  O   UNL A   1      47.826  36.967  26.841  1.00  0.00    -0.744 OA
ENDBRANCH  89  93
ENDBRANCH  63  86
ENDBRANCH  37  38
ENDBRANCH  30  32
ENDBRANCH  29  30
ENDBRANCH  28  29
ENDBRANCH  27  28
ENDBRANCH  26  27
ENDBRANCH   1  26
TORSDOF 22
ENDMDL
