MODEL 1
REMARK VINA RESULT:     -11.2      0.000      0.000
REMARK SMILES CC1(C)C(NC(=O)N[C@H]2CCCC[C@H]2C(=O)OCCOCCOC(=O)c2ccc(-c3c4nc(c(-c5cc(S(=O)(=O)[O-])ccc5F)c5ccc([nH]5)c(-c5cc(S(=O)(=O)[O-])ccc5F)c5nc(c(-c6cc(S(=O)(=O)[O-])ccc6F)c6ccc3[nH]6)C=C5)C=C4)cc2)C1(C)C
REMARK SMILES IDX 21 1 20 2 19 3 18 4 17 5 15 6 16 7 14 8 9 9 10 10 11 11
REMARK SMILES IDX 13 12 12 13 8 14 5 15 6 16 7 18 4 20 1 21 2 22 3 23 89 24
REMARK SMILES IDX 90 25 91 26 22 27 23 28 24 29 25 30 26 31 27 32 88 33 28 34
REMARK SMILES IDX 87 35 29 36 30 37 31 38 81 39 32 40 86 41 80 42 82 43 33 44
REMARK SMILES IDX 85 45 79 46 78 47 34 49 66 50 46 51 65 52 47 53 50 54 64 55
REMARK SMILES IDX 83 56 48 57 49 58 63 60 84 61 51 62 35 63 36 64 44 65 37 66
REMARK SMILES IDX 43 67 45 68 42 69 38 70 39 71 40 72 41 73 67 74 68 75 76 76
REMARK SMILES IDX 69 77 75 78 77 79 74 80 70 81 71 82 72 83 73 84 52 85 53 86
REMARK SMILES IDX 61 87 54 88 60 89 62 90 59 91 55 92 56 93 57 94 58 95
REMARK H PARENT 5 17 8 19 82 48 50 59
REMARK Flexibility Score: inf
ROOT
ATOM      1  C   UNL A   1      32.022  31.539  26.816  1.00  0.00     0.202 C 
ENDROOT
BRANCH   1   2
ATOM      2  O   UNL A   1      32.850  30.743  27.648  1.00  0.00    -0.374 OA
BRANCH   2   3
ATOM      3  C   UNL A   1      34.144  30.405  27.155  1.00  0.00     0.202 C 
BRANCH   3   4
ATOM      4  C   UNL A   1      34.400  28.960  26.696  1.00  0.00     0.261 C 
BRANCH   4   5
ATOM      5  O   UNL A   1      33.830  28.570  25.427  1.00  0.00    -0.463 OA
BRANCH   5   6
ATOM      6  C   UNL A   1      33.447  27.269  25.345  1.00  0.00     0.311 C 
ATOM      7  O   UNL A   1      34.094  26.324  25.789  1.00  0.00    -0.252 OA
BRANCH   6   8
ATOM      8  C   UNL A   1      32.185  27.027  24.539  1.00  0.00     0.121 C 
ATOM      9  C   UNL A   1      31.617  25.597  24.413  1.00  0.00     0.098 C 
ATOM     10  C   UNL A   1      30.366  25.618  23.496  1.00  0.00     0.026 C 
ATOM     11  C   UNL A   1      29.352  26.706  23.860  1.00  0.00     0.002 C 
ATOM     12  C   UNL A   1      31.149  28.093  24.903  1.00  0.00     0.017 C 
ATOM     13  C   UNL A   1      29.998  28.081  23.907  1.00  0.00     0.001 C 
BRANCH   9  14
ATOM     14  N   UNL A   1      31.253  24.945  25.658  1.00  0.00    -0.335 N 
ATOM     15  N   UNL A   1      32.950  23.302  26.016  1.00  0.00    -0.334 N 
ATOM     16  C   UNL A   1      31.792  23.919  26.345  1.00  0.00     0.315 C 
ATOM     17  H   UNL A   1      33.354  22.792  26.756  1.00  0.00     0.165 HD
ATOM     18  O   UNL A   1      31.182  23.547  27.348  1.00  0.00    -0.249 OA
ATOM     19  H   UNL A   1      30.453  25.329  26.085  1.00  0.00     0.165 HD
BRANCH  15  20
ATOM     20  C   UNL A   1      33.697  23.247  24.804  1.00  0.00     0.096 C 
ATOM     21  C   UNL A   1      35.972  22.550  23.865  1.00  0.00     0.014 C 
ATOM     22  C   UNL A   1      34.626  22.105  24.397  1.00  0.00    -0.007 C 
ATOM     23  C   UNL A   1      34.701  20.744  25.053  1.00  0.00     0.014 C 
ATOM     24  C   UNL A   1      33.326  22.373  23.622  1.00  0.00    -0.007 C 
ATOM     25  C   UNL A   1      33.433  22.955  22.232  1.00  0.00     0.014 C 
ATOM     26  C   UNL A   1      32.151  21.421  23.746  1.00  0.00     0.014 C 
ENDBRANCH  15  20
ENDBRANCH   9  14
ENDBRANCH   6   8
ENDBRANCH   5   6
ENDBRANCH   4   5
ENDBRANCH   3   4
ENDBRANCH   2   3
ENDBRANCH   1   2
BRANCH   1  27
ATOM     27  C   UNL A   1      31.958  33.043  27.084  1.00  0.00     0.261 C 
BRANCH  27  28
ATOM     28  O   UNL A   1      33.218  33.665  27.294  1.00  0.00    -0.460 OA
BRANCH  28  29
ATOM     29  C   UNL A   1      33.299  34.404  28.425  1.00  0.00     0.338 C 
ATOM     30  O   UNL A   1      32.611  35.370  28.725  1.00  0.00    -0.246 OA
BRANCH  29  31
ATOM     31  C   UNL A   1      34.375  33.849  29.259  1.00  0.00     0.060 A 
ATOM     32  C   UNL A   1      35.687  34.307  29.108  1.00  0.00     0.016 A 
ATOM     33  C   UNL A   1      34.077  32.835  30.170  1.00  0.00     0.016 A 
ATOM     34  C   UNL A   1      36.707  33.727  29.860  1.00  0.00     0.010 A 
ATOM     35  C   UNL A   1      35.086  32.302  30.967  1.00  0.00     0.010 A 
ATOM     36  C   UNL A   1      36.414  32.718  30.789  1.00  0.00    -0.014 A 
BRANCH  36  37
ATOM     37  C   UNL A   1      37.514  32.042  31.517  1.00  0.00     0.031 A 
ATOM     38  C   UNL A   1      38.280  30.938  30.838  1.00  0.00     0.074 A 
ATOM     39  C   UNL A   1      37.823  32.433  32.766  1.00  0.00     0.049 A 
ATOM     40  N   UNL A   1      39.321  30.273  31.264  1.00  0.00    -0.248 NA
ATOM     41  C   UNL A   1      37.803  30.520  29.509  1.00  0.00     0.031 C 
ATOM     42  C   UNL A   1      37.115  33.466  33.525  1.00  0.00     0.029 A 
ATOM     43  N   UNL A   1      38.813  32.016  33.618  1.00  0.00    -0.354 N 
ATOM     44  C   UNL A   1      39.619  29.354  30.263  1.00  0.00     0.074 A 
ATOM     45  C   UNL A   1      38.622  29.518  29.229  1.00  0.00     0.031 C 
ATOM     46  C   UNL A   1      37.709  33.618  34.720  1.00  0.00     0.029 A 
ATOM     47  C   UNL A   1      38.823  32.680  34.822  1.00  0.00     0.049 A 
ATOM     48  H   UNL A   1      39.457  31.307  33.388  1.00  0.00     0.167 HD
ATOM     49  C   UNL A   1      40.641  28.466  30.209  1.00  0.00     0.034 A 
ATOM     50  C   UNL A   1      39.643  32.547  35.882  1.00  0.00     0.034 A 
ATOM     51  C   UNL A   1      41.629  28.326  31.252  1.00  0.00     0.049 A 
ATOM     52  C   UNL A   1      40.779  31.557  35.790  1.00  0.00     0.074 A 
ATOM     53  C   UNL A   1      42.743  27.506  31.280  1.00  0.00     0.029 A 
ATOM     54  N   UNL A   1      41.610  29.014  32.458  1.00  0.00    -0.354 N 
ATOM     55  N   UNL A   1      41.100  30.755  34.798  1.00  0.00    -0.248 NA
ATOM     56  C   UNL A   1      41.675  31.471  36.949  1.00  0.00     0.031 C 
ATOM     57  C   UNL A   1      43.361  27.652  32.529  1.00  0.00     0.029 A 
ATOM     58  C   UNL A   1      42.674  28.613  33.252  1.00  0.00     0.049 A 
ATOM     59  H   UNL A   1      40.940  29.688  32.712  1.00  0.00     0.167 HD
ATOM     60  C   UNL A   1      42.252  30.089  35.208  1.00  0.00     0.074 A 
ATOM     61  C   UNL A   1      42.582  30.606  36.522  1.00  0.00     0.031 C 
ATOM     62  C   UNL A   1      42.971  29.133  34.566  1.00  0.00     0.034 A 
BRANCH  49  63
ATOM     63  C   UNL A   1      40.716  27.557  29.006  1.00  0.00     0.023 A 
ATOM     64  C   UNL A   1      41.644  27.768  27.969  1.00  0.00     0.031 A 
ATOM     65  C   UNL A   1      39.835  26.467  28.889  1.00  0.00     0.131 A 
ATOM     66  C   UNL A   1      41.630  26.938  26.838  1.00  0.00     0.055 A 
ATOM     67  C   UNL A   1      39.871  25.605  27.792  1.00  0.00     0.041 A 
ATOM     68  F   UNL A   1      38.914  26.230  29.837  1.00  0.00    -0.206 F 
ATOM     69  C   UNL A   1      40.765  25.844  26.753  1.00  0.00     0.022 A 
BRANCH  66  70
ATOM     70  S   UNL A   1      42.686  27.368  25.426  1.00  0.00     0.124 S 
ATOM     71  O   UNL A   1      43.953  27.671  26.085  1.00  0.00    -0.237 OA
ATOM     72  O   UNL A   1      42.656  26.149  24.627  1.00  0.00    -0.237 OA
ATOM     73  O   UNL A   1      42.010  28.520  24.830  1.00  0.00    -0.744 OA
ENDBRANCH  66  70
ENDBRANCH  49  63
BRANCH  50  74
ATOM     74  C   UNL A   1      39.434  33.356  37.117  1.00  0.00     0.023 A 
ATOM     75  C   UNL A   1      38.832  32.801  38.258  1.00  0.00     0.031 A 
ATOM     76  C   UNL A   1      39.781  34.718  37.155  1.00  0.00     0.131 A 
ATOM     77  C   UNL A   1      38.543  33.615  39.365  1.00  0.00     0.055 A 
ATOM     78  C   UNL A   1      39.542  35.511  38.279  1.00  0.00     0.041 A 
ATOM     79  F   UNL A   1      40.366  35.300  36.095  1.00  0.00    -0.206 F 
ATOM     80  C   UNL A   1      38.904  34.964  39.388  1.00  0.00     0.022 A 
BRANCH  77  81
ATOM     81  S   UNL A   1      37.593  32.907  40.740  1.00  0.00     0.124 S 
ATOM     82  O   UNL A   1      36.222  33.078  40.275  1.00  0.00    -0.237 OA
ATOM     83  O   UNL A   1      38.093  31.537  40.778  1.00  0.00    -0.237 OA
ATOM     84  O   UNL A   1      37.975  33.739  41.879  1.00  0.00    -0.744 OA
ENDBRANCH  77  81
ENDBRANCH  50  74
BRANCH  62  85
ATOM     85  C   UNL A   1      44.198  28.621  35.278  1.00  0.00     0.023 A 
ATOM     86  C   UNL A   1      44.123  27.562  36.200  1.00  0.00     0.031 A 
ATOM     87  C   UNL A   1      45.449  29.224  35.062  1.00  0.00     0.131 A 
ATOM     88  C   UNL A   1      45.260  27.189  36.929  1.00  0.00     0.055 A 
ATOM     89  C   UNL A   1      46.593  28.803  35.742  1.00  0.00     0.041 A 
ATOM     90  F   UNL A   1      45.579  30.239  34.192  1.00  0.00    -0.206 F 
ATOM     91  C   UNL A   1      46.499  27.793  36.694  1.00  0.00     0.022 A 
BRANCH  88  92
ATOM     92  S   UNL A   1      45.074  25.986  38.273  1.00  0.00     0.124 S 
ATOM     93  O   UNL A   1      44.377  26.768  39.288  1.00  0.00    -0.237 OA
ATOM     94  O   UNL A   1      44.295  24.928  37.638  1.00  0.00    -0.237 OA
ATOM     95  O   UNL A   1      46.452  25.625  38.604  1.00  0.00    -0.744 OA
ENDBRANCH  88  92
ENDBRANCH  62  85
ENDBRANCH  36  37
ENDBRANCH  29  31
ENDBRANCH  28  29
ENDBRANCH  27  28
ENDBRANCH   1  27
TORSDOF 19
ENDMDL
MODEL 2
REMARK VINA RESULT:     -11.2      1.604      7.697
REMARK SMILES CC1(C)C(NC(=O)N[C@H]2CCCC[C@H]2C(=O)OCCOCCOC(=O)c2ccc(-c3c4nc(c(-c5cc(S(=O)(=O)[O-])ccc5F)c5ccc([nH]5)c(-c5cc(S(=O)(=O)[O-])ccc5F)c5nc(c(-c6cc(S(=O)(=O)[O-])ccc6F)c6ccc3[nH]6)C=C5)C=C4)cc2)C1(C)C
REMARK SMILES IDX 21 1 20 2 19 3 18 4 17 5 15 6 16 7 14 8 9 9 10 10 11 11
REMARK SMILES IDX 13 12 12 13 8 14 5 15 6 16 7 18 4 20 1 21 2 22 3 23 89 24
REMARK SMILES IDX 90 25 91 26 22 27 23 28 24 29 25 30 26 31 27 32 88 33 28 34
REMARK SMILES IDX 87 35 29 36 30 37 31 38 81 39 32 40 86 41 80 42 82 43 33 44
REMARK SMILES IDX 85 45 79 46 78 47 34 49 66 50 46 51 65 52 47 53 50 54 64 55
REMARK SMILES IDX 83 56 48 57 49 58 63 60 84 61 51 62 35 63 36 64 44 65 37 66
REMARK SMILES IDX 43 67 45 68 42 69 38 70 39 71 40 72 41 73 67 74 68 75 76 76
REMARK SMILES IDX 69 77 75 78 77 79 74 80 70 81 71 82 72 83 73 84 52 85 53 86
REMARK SMILES IDX 61 87 54 88 60 89 62 90 59 91 55 92 56 93 57 94 58 95
REMARK H PARENT 5 17 8 19 82 48 50 59
REMARK Flexibility Score: inf
ROOT
ATOM      1  C   UNL A   1      31.930  31.330  26.561  1.00  0.00     0.202 C 
ENDROOT
BRANCH   1   2
ATOM      2  O   UNL A   1      33.071  30.557  26.900  1.00  0.00    -0.374 OA
BRANCH   2   3
ATOM      3  C   UNL A   1      32.872  29.167  27.144  1.00  0.00     0.202 C 
BRANCH   3   4
ATOM      4  C   UNL A   1      33.946  28.177  26.665  1.00  0.00     0.261 C 
BRANCH   4   5
ATOM      5  O   UNL A   1      33.495  27.080  25.838  1.00  0.00    -0.463 OA
BRANCH   5   6
ATOM      6  C   UNL A   1      33.270  27.398  24.537  1.00  0.00     0.311 C 
ATOM      7  O   UNL A   1      34.041  28.050  23.837  1.00  0.00    -0.252 OA
BRANCH   6   8
ATOM      8  C   UNL A   1      31.907  26.991  24.009  1.00  0.00     0.121 C 
ATOM      9  C   UNL A   1      31.425  25.533  24.171  1.00  0.00     0.098 C 
ATOM     10  C   UNL A   1      30.035  25.374  23.500  1.00  0.00     0.026 C 
ATOM     11  C   UNL A   1      29.028  26.454  23.902  1.00  0.00     0.002 C 
ATOM     12  C   UNL A   1      30.880  28.050  24.417  1.00  0.00     0.017 C 
ATOM     13  C   UNL A   1      29.576  27.850  23.656  1.00  0.00     0.001 C 
BRANCH   9  14
ATOM     14  N   UNL A   1      31.328  25.043  25.534  1.00  0.00    -0.335 N 
ATOM     15  N   UNL A   1      33.320  23.769  25.877  1.00  0.00    -0.334 N 
ATOM     16  C   UNL A   1      32.116  24.241  26.275  1.00  0.00     0.315 C 
ATOM     17  H   UNL A   1      33.891  23.457  26.616  1.00  0.00     0.165 HD
ATOM     18  O   UNL A   1      31.702  23.944  27.397  1.00  0.00    -0.249 OA
ATOM     19  H   UNL A   1      30.527  25.360  26.011  1.00  0.00     0.165 HD
BRANCH  15  20
ATOM     20  C   UNL A   1      33.920  23.638  24.591  1.00  0.00     0.096 C 
ATOM     21  C   UNL A   1      36.101  22.951  23.442  1.00  0.00     0.014 C 
ATOM     22  C   UNL A   1      34.851  22.501  24.170  1.00  0.00    -0.007 C 
ATOM     23  C   UNL A   1      35.071  21.208  24.923  1.00  0.00     0.014 C 
ATOM     24  C   UNL A   1      33.457  22.648  23.540  1.00  0.00    -0.007 C 
ATOM     25  C   UNL A   1      33.370  23.109  22.103  1.00  0.00     0.014 C 
ATOM     26  C   UNL A   1      32.354  21.665  23.885  1.00  0.00     0.014 C 
ENDBRANCH  15  20
ENDBRANCH   9  14
ENDBRANCH   6   8
ENDBRANCH   5   6
ENDBRANCH   4   5
ENDBRANCH   3   4
ENDBRANCH   2   3
ENDBRANCH   1   2
BRANCH   1  27
ATOM     27  C   UNL A   1      31.785  32.719  27.184  1.00  0.00     0.261 C 
BRANCH  27  28
ATOM     28  O   UNL A   1      32.963  33.512  27.154  1.00  0.00    -0.460 OA
BRANCH  28  29
ATOM     29  C   UNL A   1      33.324  34.030  28.351  1.00  0.00     0.338 C 
ATOM     30  O   UNL A   1      32.774  34.938  28.957  1.00  0.00    -0.246 OA
BRANCH  29  31
ATOM     31  C   UNL A   1      34.517  33.309  28.821  1.00  0.00     0.060 A 
ATOM     32  C   UNL A   1      34.381  32.217  29.683  1.00  0.00     0.016 A 
ATOM     33  C   UNL A   1      35.780  33.753  28.429  1.00  0.00     0.016 A 
ATOM     34  C   UNL A   1      35.522  31.583  30.171  1.00  0.00     0.010 A 
ATOM     35  C   UNL A   1      36.917  33.078  28.867  1.00  0.00     0.010 A 
ATOM     36  C   UNL A   1      36.796  32.013  29.771  1.00  0.00    -0.014 A 
BRANCH  36  37
ATOM     37  C   UNL A   1      38.005  31.396  30.366  1.00  0.00     0.031 A 
ATOM     38  C   UNL A   1      38.403  31.755  31.772  1.00  0.00     0.074 A 
ATOM     39  C   UNL A   1      38.721  30.512  29.648  1.00  0.00     0.049 A 
ATOM     40  N   UNL A   1      39.373  31.275  32.504  1.00  0.00    -0.248 NA
ATOM     41  C   UNL A   1      37.610  32.803  32.438  1.00  0.00     0.031 C 
ATOM     42  C   UNL A   1      38.441  30.127  28.263  1.00  0.00     0.029 A 
ATOM     43  N   UNL A   1      39.826  29.771  29.980  1.00  0.00    -0.354 N 
ATOM     44  C   UNL A   1      39.314  31.965  33.711  1.00  0.00     0.074 A 
ATOM     45  C   UNL A   1      38.241  32.927  33.596  1.00  0.00     0.031 C 
ATOM     46  C   UNL A   1      39.336  29.204  27.873  1.00  0.00     0.029 A 
ATOM     47  C   UNL A   1      40.266  28.949  28.970  1.00  0.00     0.049 A 
ATOM     48  H   UNL A   1      40.264  29.825  30.861  1.00  0.00     0.167 HD
ATOM     49  C   UNL A   1      40.078  31.798  34.817  1.00  0.00     0.034 A 
ATOM     50  C   UNL A   1      41.300  28.086  28.938  1.00  0.00     0.034 A 
ATOM     51  C   UNL A   1      41.140  30.826  34.911  1.00  0.00     0.049 A 
ATOM     52  C   UNL A   1      42.128  27.913  30.188  1.00  0.00     0.074 A 
ATOM     53  C   UNL A   1      41.940  30.524  35.999  1.00  0.00     0.029 A 
ATOM     54  N   UNL A   1      41.560  30.008  33.869  1.00  0.00    -0.354 N 
ATOM     55  N   UNL A   1      42.004  28.512  31.353  1.00  0.00    -0.248 NA
ATOM     56  C   UNL A   1      43.219  26.934  30.127  1.00  0.00     0.031 C 
ATOM     57  C   UNL A   1      42.883  29.570  35.596  1.00  0.00     0.029 A 
ATOM     58  C   UNL A   1      42.628  29.226  34.278  1.00  0.00     0.049 A 
ATOM     59  H   UNL A   1      41.157  29.987  32.971  1.00  0.00     0.167 HD
ATOM     60  C   UNL A   1      42.988  27.960  32.169  1.00  0.00     0.074 A 
ATOM     61  C   UNL A   1      43.672  26.961  31.371  1.00  0.00     0.031 C 
ATOM     62  C   UNL A   1      43.305  28.249  33.457  1.00  0.00     0.034 A 
BRANCH  49  63
ATOM     63  C   UNL A   1      39.818  32.710  35.992  1.00  0.00     0.023 A 
ATOM     64  C   UNL A   1      38.988  32.328  37.062  1.00  0.00     0.031 A 
ATOM     65  C   UNL A   1      40.401  33.989  36.035  1.00  0.00     0.131 A 
ATOM     66  C   UNL A   1      38.720  33.234  38.099  1.00  0.00     0.055 A 
ATOM     67  C   UNL A   1      40.183  34.862  37.103  1.00  0.00     0.041 A 
ATOM     68  F   UNL A   1      41.183  34.416  35.032  1.00  0.00    -0.206 F 
ATOM     69  C   UNL A   1      39.330  34.491  38.138  1.00  0.00     0.022 A 
BRANCH  66  70
ATOM     70  S   UNL A   1      37.478  32.793  39.345  1.00  0.00     0.124 S 
ATOM     71  O   UNL A   1      37.973  31.502  39.813  1.00  0.00    -0.237 OA
ATOM     72  O   UNL A   1      37.576  33.898  40.294  1.00  0.00    -0.237 OA
ATOM     73  O   UNL A   1      36.231  32.737  38.584  1.00  0.00    -0.744 OA
ENDBRANCH  66  70
ENDBRANCH  49  63
BRANCH  50  74
ATOM     74  C   UNL A   1      41.620  27.321  27.699  1.00  0.00     0.023 A 
ATOM     75  C   UNL A   1      41.413  25.933  27.626  1.00  0.00     0.031 A 
ATOM     76  C   UNL A   1      42.193  27.958  26.584  1.00  0.00     0.131 A 
ATOM     77  C   UNL A   1      41.830  25.221  26.490  1.00  0.00     0.055 A 
ATOM     78  C   UNL A   1      42.555  27.254  25.435  1.00  0.00     0.041 A 
ATOM     79  F   UNL A   1      42.407  29.284  26.596  1.00  0.00    -0.206 F 
ATOM     80  C   UNL A   1      42.389  25.873  25.390  1.00  0.00     0.022 A 
BRANCH  77  81
ATOM     81  S   UNL A   1      41.723  23.410  26.513  1.00  0.00     0.124 S 
ATOM     82  O   UNL A   1      42.475  23.050  25.317  1.00  0.00    -0.237 OA
ATOM     83  O   UNL A   1      42.354  23.087  27.789  1.00  0.00    -0.237 OA
ATOM     84  O   UNL A   1      40.286  23.154  26.449  1.00  0.00    -0.744 OA
ENDBRANCH  77  81
ENDBRANCH  50  74
BRANCH  62  85
ATOM     85  C   UNL A   1      44.422  27.446  34.073  1.00  0.00     0.023 A 
ATOM     86  C   UNL A   1      44.164  26.291  34.832  1.00  0.00     0.031 A 
ATOM     87  C   UNL A   1      45.758  27.863  33.934  1.00  0.00     0.131 A 
ATOM     88  C   UNL A   1      45.217  25.636  35.486  1.00  0.00     0.055 A 
ATOM     89  C   UNL A   1      46.809  27.168  34.533  1.00  0.00     0.041 A 
ATOM     90  F   UNL A   1      46.061  28.959  33.220  1.00  0.00    -0.206 F 
ATOM     91  C   UNL A   1      46.540  26.058  35.329  1.00  0.00     0.022 A 
BRANCH  88  92
ATOM     92  S   UNL A   1      44.820  24.296  36.642  1.00  0.00     0.124 S 
ATOM     93  O   UNL A   1      43.787  24.906  37.472  1.00  0.00    -0.237 OA
ATOM     94  O   UNL A   1      44.373  23.235  35.746  1.00  0.00    -0.237 OA
ATOM     95  O   UNL A   1      46.090  24.040  37.320  1.00  0.00    -0.744 OA
ENDBRANCH  88  92
ENDBRANCH  62  85
ENDBRANCH  36  37
ENDBRANCH  29  31
ENDBRANCH  28  29
ENDBRANCH  27  28
ENDBRANCH   1  27
TORSDOF 19
ENDMDL
MODEL 3
REMARK VINA RESULT:     -11.1      2.514      7.911
REMARK SMILES CC1(C)C(NC(=O)N[C@H]2CCCC[C@H]2C(=O)OCCOCCOC(=O)c2ccc(-c3c4nc(c(-c5cc(S(=O)(=O)[O-])ccc5F)c5ccc([nH]5)c(-c5cc(S(=O)(=O)[O-])ccc5F)c5nc(c(-c6cc(S(=O)(=O)[O-])ccc6F)c6ccc3[nH]6)C=C5)C=C4)cc2)C1(C)C
REMARK SMILES IDX 21 1 20 2 19 3 18 4 17 5 15 6 16 7 14 8 9 9 10 10 11 11
REMARK SMILES IDX 13 12 12 13 8 14 5 15 6 16 7 18 4 20 1 21 2 22 3 23 89 24
REMARK SMILES IDX 90 25 91 26 22 27 23 28 24 29 25 30 26 31 27 32 88 33 28 34
REMARK SMILES IDX 87 35 29 36 30 37 31 38 81 39 32 40 86 41 80 42 82 43 33 44
REMARK SMILES IDX 85 45 79 46 78 47 34 49 66 50 46 51 65 52 47 53 50 54 64 55
REMARK SMILES IDX 83 56 48 57 49 58 63 60 84 61 51 62 35 63 36 64 44 65 37 66
REMARK SMILES IDX 43 67 45 68 42 69 38 70 39 71 40 72 41 73 67 74 68 75 76 76
REMARK SMILES IDX 69 77 75 78 77 79 74 80 70 81 71 82 72 83 73 84 52 85 53 86
REMARK SMILES IDX 61 87 54 88 60 89 62 90 59 91 55 92 56 93 57 94 58 95
REMARK H PARENT 5 17 8 19 82 48 50 59
REMARK Flexibility Score: inf
ROOT
ATOM      1  C   UNL A   1      31.383  29.723  25.204  1.00  0.00     0.202 C 
ENDROOT
BRANCH   1   2
ATOM      2  O   UNL A   1      31.128  28.421  25.707  1.00  0.00    -0.374 OA
BRANCH   2   3
ATOM      3  C   UNL A   1      32.093  27.859  26.591  1.00  0.00     0.202 C 
BRANCH   3   4
ATOM      4  C   UNL A   1      32.187  26.328  26.699  1.00  0.00     0.261 C 
BRANCH   4   5
ATOM      5  O   UNL A   1      30.978  25.583  26.426  1.00  0.00    -0.463 OA
BRANCH   5   6
ATOM      6  C   UNL A   1      31.056  24.730  25.371  1.00  0.00     0.311 C 
ATOM      7  O   UNL A   1      30.840  23.522  25.436  1.00  0.00    -0.252 OA
BRANCH   6   8
ATOM      8  C   UNL A   1      31.561  25.354  24.084  1.00  0.00     0.121 C 
ATOM      9  C   UNL A   1      32.506  24.554  23.162  1.00  0.00     0.098 C 
ATOM     10  C   UNL A   1      32.914  25.436  21.953  1.00  0.00     0.026 C 
ATOM     11  C   UNL A   1      31.733  26.120  21.260  1.00  0.00     0.002 C 
ATOM     12  C   UNL A   1      30.390  26.027  23.365  1.00  0.00     0.017 C 
ATOM     13  C   UNL A   1      30.896  26.923  22.243  1.00  0.00     0.001 C 
BRANCH   9  14
ATOM     14  N   UNL A   1      31.983  23.300  22.650  1.00  0.00    -0.335 N 
ATOM     15  N   UNL A   1      33.505  21.630  23.429  1.00  0.00    -0.334 N 
ATOM     16  C   UNL A   1      32.426  22.029  22.717  1.00  0.00     0.315 C 
ATOM     17  H   UNL A   1      33.524  20.664  23.618  1.00  0.00     0.165 HD
ATOM     18  O   UNL A   1      31.779  21.186  22.094  1.00  0.00    -0.249 OA
ATOM     19  H   UNL A   1      31.137  23.397  22.156  1.00  0.00     0.165 HD
BRANCH  15  20
ATOM     20  C   UNL A   1      34.620  22.342  23.959  1.00  0.00     0.096 C 
ATOM     21  C   UNL A   1      35.239  24.128  25.684  1.00  0.00     0.014 C 
ATOM     22  C   UNL A   1      34.815  22.696  25.433  1.00  0.00    -0.007 C 
ATOM     23  C   UNL A   1      34.027  22.130  26.594  1.00  0.00     0.014 C 
ATOM     24  C   UNL A   1      35.746  21.691  24.737  1.00  0.00    -0.007 C 
ATOM     25  C   UNL A   1      37.166  22.119  24.447  1.00  0.00     0.014 C 
ATOM     26  C   UNL A   1      35.659  20.212  25.066  1.00  0.00     0.014 C 
ENDBRANCH  15  20
ENDBRANCH   9  14
ENDBRANCH   6   8
ENDBRANCH   5   6
ENDBRANCH   4   5
ENDBRANCH   3   4
ENDBRANCH   2   3
ENDBRANCH   1   2
BRANCH   1  27
ATOM     27  C   UNL A   1      31.737  30.828  26.199  1.00  0.00     0.261 C 
BRANCH  27  28
ATOM     28  O   UNL A   1      33.112  31.186  26.228  1.00  0.00    -0.460 OA
BRANCH  28  29
ATOM     29  C   UNL A   1      33.459  32.005  27.249  1.00  0.00     0.338 C 
ATOM     30  O   UNL A   1      32.847  32.986  27.648  1.00  0.00    -0.246 OA
BRANCH  29  31
ATOM     31  C   UNL A   1      34.724  31.515  27.818  1.00  0.00     0.060 A 
ATOM     32  C   UNL A   1      34.859  30.169  28.171  1.00  0.00     0.016 A 
ATOM     33  C   UNL A   1      35.765  32.417  28.039  1.00  0.00     0.016 A 
ATOM     34  C   UNL A   1      36.040  29.732  28.768  1.00  0.00     0.010 A 
ATOM     35  C   UNL A   1      36.968  31.965  28.577  1.00  0.00     0.010 A 
ATOM     36  C   UNL A   1      37.098  30.629  28.980  1.00  0.00    -0.014 A 
BRANCH  36  37
ATOM     37  C   UNL A   1      38.314  30.179  29.700  1.00  0.00     0.031 A 
ATOM     38  C   UNL A   1      38.546  30.636  31.115  1.00  0.00     0.074 A 
ATOM     39  C   UNL A   1      39.184  29.358  29.085  1.00  0.00     0.049 A 
ATOM     40  N   UNL A   1      39.498  30.301  31.945  1.00  0.00    -0.248 NA
ATOM     41  C   UNL A   1      37.586  31.609  31.664  1.00  0.00     0.031 C 
ATOM     42  C   UNL A   1      39.069  28.890  27.702  1.00  0.00     0.029 A 
ATOM     43  N   UNL A   1      40.333  28.765  29.541  1.00  0.00    -0.354 N 
ATOM     44  C   UNL A   1      39.258  31.025  33.109  1.00  0.00     0.074 A 
ATOM     45  C   UNL A   1      38.097  31.850  32.861  1.00  0.00     0.031 C 
ATOM     46  C   UNL A   1      40.093  28.064  27.431  1.00  0.00     0.029 A 
ATOM     47  C   UNL A   1      40.948  27.961  28.610  1.00  0.00     0.049 A 
ATOM     48  H   UNL A   1      40.684  28.902  30.451  1.00  0.00     0.167 HD
ATOM     49  C   UNL A   1      39.938  30.990  34.280  1.00  0.00     0.034 A 
ATOM     50  C   UNL A   1      42.072  27.224  28.704  1.00  0.00     0.034 A 
ATOM     51  C   UNL A   1      41.091  30.152  34.506  1.00  0.00     0.049 A 
ATOM     52  C   UNL A   1      42.803  27.196  30.024  1.00  0.00     0.074 A 
ATOM     53  C   UNL A   1      41.823  29.987  35.668  1.00  0.00     0.029 A 
ATOM     54  N   UNL A   1      41.688  29.350  33.542  1.00  0.00    -0.354 N 
ATOM     55  N   UNL A   1      42.513  27.820  31.144  1.00  0.00    -0.248 NA
ATOM     56  C   UNL A   1      43.999  26.349  30.098  1.00  0.00     0.031 C 
ATOM     57  C   UNL A   1      42.899  29.135  35.389  1.00  0.00     0.029 A 
ATOM     58  C   UNL A   1      42.799  28.713  34.073  1.00  0.00     0.049 A 
ATOM     59  H   UNL A   1      41.369  29.248  32.617  1.00  0.00     0.167 HD
ATOM     60  C   UNL A   1      43.479  27.418  32.063  1.00  0.00     0.074 A 
ATOM     61  C   UNL A   1      44.338  26.476  31.371  1.00  0.00     0.031 C 
ATOM     62  C   UNL A   1      43.649  27.791  33.357  1.00  0.00     0.034 A 
BRANCH  49  63
ATOM     63  C   UNL A   1      39.477  31.909  35.385  1.00  0.00     0.023 A 
ATOM     64  C   UNL A   1      39.952  33.228  35.504  1.00  0.00     0.031 A 
ATOM     65  C   UNL A   1      38.554  31.453  36.344  1.00  0.00     0.131 A 
ATOM     66  C   UNL A   1      39.547  34.024  36.587  1.00  0.00     0.055 A 
ATOM     67  C   UNL A   1      38.104  32.272  37.382  1.00  0.00     0.041 A 
ATOM     68  F   UNL A   1      38.084  30.197  36.294  1.00  0.00    -0.206 F 
ATOM     69  C   UNL A   1      38.609  33.562  37.514  1.00  0.00     0.022 A 
BRANCH  66  70
ATOM     70  S   UNL A   1      40.343  35.635  36.833  1.00  0.00     0.124 S 
ATOM     71  O   UNL A   1      41.728  35.338  36.479  1.00  0.00    -0.237 OA
ATOM     72  O   UNL A   1      39.615  36.492  35.903  1.00  0.00    -0.237 OA
ATOM     73  O   UNL A   1      40.116  35.919  38.249  1.00  0.00    -0.744 OA
ENDBRANCH  66  70
ENDBRANCH  49  63
BRANCH  50  74
ATOM     74  C   UNL A   1      42.581  26.454  27.532  1.00  0.00     0.023 A 
ATOM     75  C   UNL A   1      42.182  25.127  27.304  1.00  0.00     0.031 A 
ATOM     76  C   UNL A   1      43.523  27.017  26.653  1.00  0.00     0.131 A 
ATOM     77  C   UNL A   1      42.764  24.389  26.261  1.00  0.00     0.055 A 
ATOM     78  C   UNL A   1      44.058  26.297  25.584  1.00  0.00     0.041 A 
ATOM     79  F   UNL A   1      43.935  28.284  26.819  1.00  0.00    -0.206 F 
ATOM     80  C   UNL A   1      43.692  24.968  25.393  1.00  0.00     0.022 A 
BRANCH  77  81
ATOM     81  S   UNL A   1      42.368  22.624  26.118  1.00  0.00     0.124 S 
ATOM     82  O   UNL A   1      40.910  22.642  26.143  1.00  0.00    -0.237 OA
ATOM     83  O   UNL A   1      42.984  22.279  24.842  1.00  0.00    -0.237 OA
ATOM     84  O   UNL A   1      43.006  22.037  27.295  1.00  0.00    -0.744 OA
ENDBRANCH  77  81
ENDBRANCH  50  74
BRANCH  62  85
ATOM     85  C   UNL A   1      44.793  27.148  34.099  1.00  0.00     0.023 A 
ATOM     86  C   UNL A   1      44.685  25.853  34.635  1.00  0.00     0.031 A 
ATOM     87  C   UNL A   1      45.991  27.854  34.309  1.00  0.00     0.131 A 
ATOM     88  C   UNL A   1      45.724  25.332  35.418  1.00  0.00     0.055 A 
ATOM     89  C   UNL A   1      47.049  27.303  35.033  1.00  0.00     0.041 A 
ATOM     90  F   UNL A   1      46.149  29.094  33.819  1.00  0.00    -0.206 F 
ATOM     91  C   UNL A   1      46.912  26.043  35.608  1.00  0.00     0.022 A 
BRANCH  88  92
ATOM     92  S   UNL A   1      45.454  23.762  36.284  1.00  0.00     0.124 S 
ATOM     93  O   UNL A   1      44.134  23.370  35.801  1.00  0.00    -0.237 OA
ATOM     94  O   UNL A   1      46.571  22.950  35.814  1.00  0.00    -0.237 OA
ATOM     95  O   UNL A   1      45.512  24.135  37.697  1.00  0.00    -0.744 OA
ENDBRANCH  88  92
ENDBRANCH  62  85
ENDBRANCH  36  37
ENDBRANCH  29  31
ENDBRANCH  28  29
ENDBRANCH  27  28
ENDBRANCH   1  27
TORSDOF 19
ENDMDL
