MODEL 1
REMARK VINA RESULT:     -11.3      0.000      0.000
REMARK SMILES C[C@@H](C(=O)OCCOCCOC(=O)c1ccc(-c2c3nc(c(-c4cc(S(=O)(=O)[O-])ccc4F)c4ccc([nH]4)c(-c4cc(S(=O)(=O)[O-])ccc4F)c4nc(c(-c5cc(S(=O)(=O)[O-])ccc5F)c5ccc2[nH]5)C=C4)C=C3)cc1)c1ccc(Cc2ccsc2)cc1F
REMARK SMILES IDX 8 1 7 2 6 3 5 4 3 5 4 6 2 7 1 8 77 9 78 10 88 11 79 12 87 13
REMARK SMILES IDX 89 14 80 15 81 16 82 17 83 18 86 19 84 20 85 21 9 22 10 23
REMARK SMILES IDX 11 24 12 25 13 26 14 27 15 28 76 29 16 30 75 31 17 32 18 33
REMARK SMILES IDX 19 34 69 35 20 36 74 37 68 38 70 39 21 40 73 41 67 42 66 43
REMARK SMILES IDX 22 45 54 46 34 47 53 48 35 49 38 50 52 51 71 52 36 53 37 54
REMARK SMILES IDX 51 56 72 57 39 58 23 59 24 60 32 61 25 62 31 63 33 64 30 65
REMARK SMILES IDX 26 66 27 67 28 68 29 69 55 70 56 71 64 72 57 73 63 74 65 75
REMARK SMILES IDX 62 76 58 77 59 78 60 79 61 80 40 81 41 82 49 83 42 84 48 85
REMARK SMILES IDX 50 86 47 87 43 88 44 89 45 90 46 91
REMARK H PARENT 70 44 38 55
REMARK Flexibility Score: inf
ROOT
ATOM      1  O   UNL A   1      31.499  30.001  27.099  1.00  0.00    -0.374 OA
ENDROOT
BRANCH   1   2
ATOM      2  C   UNL A   1      32.381  28.876  27.159  1.00  0.00     0.202 C 
BRANCH   2   3
ATOM      3  C   UNL A   1      32.872  28.326  25.815  1.00  0.00     0.261 C 
BRANCH   3   4
ATOM      4  O   UNL A   1      32.634  26.907  25.749  1.00  0.00    -0.463 OA
BRANCH   4   5
ATOM      5  C   UNL A   1      33.002  26.287  24.598  1.00  0.00     0.313 C 
ATOM      6  O   UNL A   1      34.128  26.333  24.115  1.00  0.00    -0.252 OA
BRANCH   5   7
ATOM      7  C   UNL A   1      31.839  25.532  23.946  1.00  0.00     0.129 C 
ATOM      8  C   UNL A   1      32.188  24.697  22.707  1.00  0.00     0.025 C 
BRANCH   7   9
ATOM      9  C   UNL A   1      30.652  26.437  23.640  1.00  0.00     0.002 A 
ATOM     10  C   UNL A   1      29.387  26.126  24.147  1.00  0.00     0.008 A 
ATOM     11  C   UNL A   1      30.765  27.587  22.851  1.00  0.00     0.127 A 
ATOM     12  C   UNL A   1      28.294  26.965  23.899  1.00  0.00     0.004 A 
ATOM     13  C   UNL A   1      29.673  28.405  22.566  1.00  0.00     0.043 A 
ATOM     14  F   UNL A   1      31.954  27.959  22.368  1.00  0.00    -0.207 F 
ATOM     15  C   UNL A   1      28.414  28.113  23.098  1.00  0.00    -0.041 A 
BRANCH  15  16
ATOM     16  C   UNL A   1      27.272  29.085  22.910  1.00  0.00     0.072 C 
BRANCH  16  17
ATOM     17  C   UNL A   1      27.826  30.446  22.600  1.00  0.00    -0.033 A 
ATOM     18  C   UNL A   1      27.906  31.040  21.291  1.00  0.00     0.015 A 
ATOM     19  C   UNL A   1      28.240  31.358  23.557  1.00  0.00     0.068 A 
ATOM     20  C   UNL A   1      28.396  32.325  21.310  1.00  0.00     0.065 A 
ATOM     21  S   UNL A   1      28.732  32.857  22.895  1.00  0.00    -0.152 S 
ENDBRANCH  16  17
ENDBRANCH  15  16
ENDBRANCH   7   9
ENDBRANCH   5   7
ENDBRANCH   4   5
ENDBRANCH   3   4
ENDBRANCH   2   3
ENDBRANCH   1   2
BRANCH   1  22
ATOM     22  C   UNL A   1      31.975  31.152  26.404  1.00  0.00     0.202 C 
BRANCH  22  23
ATOM     23  C   UNL A   1      31.648  32.525  26.998  1.00  0.00     0.261 C 
BRANCH  23  24
ATOM     24  O   UNL A   1      32.740  33.443  26.873  1.00  0.00    -0.460 OA
BRANCH  24  25
ATOM     25  C   UNL A   1      33.233  33.860  28.063  1.00  0.00     0.338 C 
ATOM     26  O   UNL A   1      32.689  34.606  28.866  1.00  0.00    -0.246 OA
BRANCH  25  27
ATOM     27  C   UNL A   1      34.472  33.127  28.366  1.00  0.00     0.060 A 
ATOM     28  C   UNL A   1      34.338  31.806  28.806  1.00  0.00     0.016 A 
ATOM     29  C   UNL A   1      35.731  33.724  28.260  1.00  0.00     0.016 A 
ATOM     30  C   UNL A   1      35.461  31.090  29.205  1.00  0.00     0.010 A 
ATOM     31  C   UNL A   1      36.858  33.007  28.670  1.00  0.00     0.010 A 
ATOM     32  C   UNL A   1      36.718  31.705  29.184  1.00  0.00    -0.014 A 
BRANCH  32  33
ATOM     33  C   UNL A   1      37.850  31.046  29.874  1.00  0.00     0.031 A 
ATOM     34  C   UNL A   1      38.119  31.406  31.309  1.00  0.00     0.074 A 
ATOM     35  C   UNL A   1      38.584  30.112  29.246  1.00  0.00     0.049 A 
ATOM     36  N   UNL A   1      39.061  30.981  32.109  1.00  0.00    -0.248 NA
ATOM     37  C   UNL A   1      37.200  32.380  31.921  1.00  0.00     0.031 C 
ATOM     38  C   UNL A   1      38.366  29.651  27.875  1.00  0.00     0.029 A 
ATOM     39  N   UNL A   1      39.659  29.381  29.682  1.00  0.00    -0.354 N 
ATOM     40  C   UNL A   1      38.855  31.642  33.316  1.00  0.00     0.074 A 
ATOM     41  C   UNL A   1      37.723  32.523  33.128  1.00  0.00     0.031 C 
ATOM     42  C   UNL A   1      39.284  28.714  27.581  1.00  0.00     0.029 A 
ATOM     43  C   UNL A   1      40.177  28.541  28.725  1.00  0.00     0.049 A 
ATOM     44  H   UNL A   1      40.025  29.451  30.593  1.00  0.00     0.167 HD
ATOM     45  C   UNL A   1      39.546  31.516  34.476  1.00  0.00     0.034 A 
ATOM     46  C   UNL A   1      41.264  27.745  28.766  1.00  0.00     0.034 A 
ATOM     47  C   UNL A   1      40.677  30.633  34.634  1.00  0.00     0.049 A 
ATOM     48  C   UNL A   1      42.074  27.690  30.039  1.00  0.00     0.074 A 
ATOM     49  C   UNL A   1      41.444  30.409  35.763  1.00  0.00     0.029 A 
ATOM     50  N   UNL A   1      41.212  29.840  33.626  1.00  0.00    -0.354 N 
ATOM     51  N   UNL A   1      41.869  28.314  31.178  1.00  0.00    -0.248 NA
ATOM     52  C   UNL A   1      43.255  26.819  30.036  1.00  0.00     0.031 C 
ATOM     53  C   UNL A   1      42.488  29.546  35.416  1.00  0.00     0.029 A 
ATOM     54  C   UNL A   1      42.323  29.157  34.096  1.00  0.00     0.049 A 
ATOM     55  H   UNL A   1      40.854  29.772  32.712  1.00  0.00     0.167 HD
ATOM     56  C   UNL A   1      42.877  27.882  32.036  1.00  0.00     0.074 A 
ATOM     57  C   UNL A   1      43.678  26.936  31.286  1.00  0.00     0.031 C 
ATOM     58  C   UNL A   1      43.117  28.226  33.327  1.00  0.00     0.034 A 
BRANCH  45  59
ATOM     59  C   UNL A   1      39.135  32.397  35.631  1.00  0.00     0.023 A 
ATOM     60  C   UNL A   1      39.564  33.732  35.743  1.00  0.00     0.031 A 
ATOM     61  C   UNL A   1      38.325  31.880  36.659  1.00  0.00     0.131 A 
ATOM     62  C   UNL A   1      39.241  34.479  36.886  1.00  0.00     0.055 A 
ATOM     63  C   UNL A   1      37.940  32.654  37.754  1.00  0.00     0.041 A 
ATOM     64  F   UNL A   1      37.908  30.605  36.623  1.00  0.00    -0.206 F 
ATOM     65  C   UNL A   1      38.410  33.957  37.881  1.00  0.00     0.022 A 
BRANCH  62  66
ATOM     66  S   UNL A   1      40.042  36.088  37.129  1.00  0.00     0.124 S 
ATOM     67  O   UNL A   1      39.880  36.700  35.812  1.00  0.00    -0.237 OA
ATOM     68  O   UNL A   1      39.255  36.673  38.207  1.00  0.00    -0.237 OA
ATOM     69  O   UNL A   1      41.417  35.737  37.478  1.00  0.00    -0.744 OA
ENDBRANCH  62  66
ENDBRANCH  45  59
BRANCH  46  70
ATOM     70  C   UNL A   1      41.678  26.965  27.563  1.00  0.00     0.023 A 
ATOM     71  C   UNL A   1      41.459  25.581  27.486  1.00  0.00     0.031 A 
ATOM     72  C   UNL A   1      42.346  27.587  26.493  1.00  0.00     0.131 A 
ATOM     73  C   UNL A   1      41.946  24.856  26.386  1.00  0.00     0.055 A 
ATOM     74  C   UNL A   1      42.778  26.872  25.375  1.00  0.00     0.041 A 
ATOM     75  F   UNL A   1      42.584  28.908  26.516  1.00  0.00    -0.206 F 
ATOM     76  C   UNL A   1      42.590  25.494  25.324  1.00  0.00     0.022 A 
BRANCH  73  77
ATOM     77  S   UNL A   1      41.806  23.048  26.408  1.00  0.00     0.124 S 
ATOM     78  O   UNL A   1      42.542  22.708  27.620  1.00  0.00    -0.237 OA
ATOM     79  O   UNL A   1      40.360  22.857  26.459  1.00  0.00    -0.237 OA
ATOM     80  O   UNL A   1      42.441  22.643  25.156  1.00  0.00    -0.744 OA
ENDBRANCH  73  77
ENDBRANCH  46  70
BRANCH  58  81
ATOM     81  C   UNL A   1      44.267  27.535  34.021  1.00  0.00     0.023 A 
ATOM     82  C   UNL A   1      44.127  26.265  34.604  1.00  0.00     0.031 A 
ATOM     83  C   UNL A   1      45.522  28.167  34.105  1.00  0.00     0.131 A 
ATOM     84  C   UNL A   1      45.204  25.692  35.297  1.00  0.00     0.055 A 
ATOM     85  C   UNL A   1      46.609  27.562  34.736  1.00  0.00     0.041 A 
ATOM     86  F   UNL A   1      45.713  29.382  33.568  1.00  0.00    -0.206 F 
ATOM     87  C   UNL A   1      46.450  26.323  35.351  1.00  0.00     0.022 A 
BRANCH  84  88
ATOM     88  S   UNL A   1      44.928  24.153  36.218  1.00  0.00     0.124 S 
ATOM     89  O   UNL A   1      44.805  24.639  37.589  1.00  0.00    -0.237 OA
ATOM     90  O   UNL A   1      43.704  23.641  35.610  1.00  0.00    -0.237 OA
ATOM     91  O   UNL A   1      46.130  23.369  35.943  1.00  0.00    -0.744 OA
ENDBRANCH  84  88
ENDBRANCH  58  81
ENDBRANCH  32  33
ENDBRANCH  25  27
ENDBRANCH  24  25
ENDBRANCH  23  24
ENDBRANCH  22  23
ENDBRANCH   1  22
TORSDOF 20
ENDMDL
MODEL 2
REMARK VINA RESULT:     -11.1      4.872      7.724
REMARK SMILES C[C@@H](C(=O)OCCOCCOC(=O)c1ccc(-c2c3nc(c(-c4cc(S(=O)(=O)[O-])ccc4F)c4ccc([nH]4)c(-c4cc(S(=O)(=O)[O-])ccc4F)c4nc(c(-c5cc(S(=O)(=O)[O-])ccc5F)c5ccc2[nH]5)C=C4)C=C3)cc1)c1ccc(Cc2ccsc2)cc1F
REMARK SMILES IDX 8 1 7 2 6 3 5 4 3 5 4 6 2 7 1 8 77 9 78 10 88 11 79 12 87 13
REMARK SMILES IDX 89 14 80 15 81 16 82 17 83 18 86 19 84 20 85 21 9 22 10 23
REMARK SMILES IDX 11 24 12 25 13 26 14 27 15 28 76 29 16 30 75 31 17 32 18 33
REMARK SMILES IDX 19 34 69 35 20 36 74 37 68 38 70 39 21 40 73 41 67 42 66 43
REMARK SMILES IDX 22 45 54 46 34 47 53 48 35 49 38 50 52 51 71 52 36 53 37 54
REMARK SMILES IDX 51 56 72 57 39 58 23 59 24 60 32 61 25 62 31 63 33 64 30 65
REMARK SMILES IDX 26 66 27 67 28 68 29 69 55 70 56 71 64 72 57 73 63 74 65 75
REMARK SMILES IDX 62 76 58 77 59 78 60 79 61 80 40 81 41 82 49 83 42 84 48 85
REMARK SMILES IDX 50 86 47 87 43 88 44 89 45 90 46 91
REMARK H PARENT 70 44 38 55
REMARK Flexibility Score: inf
ROOT
ATOM      1  O   UNL A   1      34.438  20.381  25.115  1.00  0.00    -0.374 OA
ENDROOT
BRANCH   1   2
ATOM      2  C   UNL A   1      33.929  21.696  25.361  1.00  0.00     0.202 C 
BRANCH   2   3
ATOM      3  C   UNL A   1      33.616  22.545  24.124  1.00  0.00     0.261 C 
BRANCH   3   4
ATOM      4  O   UNL A   1      32.424  23.320  24.350  1.00  0.00    -0.463 OA
BRANCH   4   5
ATOM      5  C   UNL A   1      32.305  24.467  23.631  1.00  0.00     0.313 C 
ATOM      6  O   UNL A   1      32.379  24.530  22.409  1.00  0.00    -0.252 OA
BRANCH   5   7
ATOM      7  C   UNL A   1      32.089  25.694  24.524  1.00  0.00     0.129 C 
ATOM      8  C   UNL A   1      32.048  25.428  26.035  1.00  0.00     0.025 C 
BRANCH   7   9
ATOM      9  C   UNL A   1      30.872  26.512  24.111  1.00  0.00     0.002 A 
ATOM     10  C   UNL A   1      29.592  25.958  24.210  1.00  0.00     0.008 A 
ATOM     11  C   UNL A   1      30.974  27.816  23.616  1.00  0.00     0.127 A 
ATOM     12  C   UNL A   1      28.462  26.709  23.861  1.00  0.00     0.004 A 
ATOM     13  C   UNL A   1      29.857  28.555  23.229  1.00  0.00     0.043 A 
ATOM     14  F   UNL A   1      32.166  28.415  23.532  1.00  0.00    -0.207 F 
ATOM     15  C   UNL A   1      28.575  28.015  23.356  1.00  0.00    -0.041 A 
BRANCH  15  16
ATOM     16  C   UNL A   1      27.363  28.875  23.078  1.00  0.00     0.072 C 
BRANCH  16  17
ATOM     17  C   UNL A   1      27.813  30.217  22.576  1.00  0.00    -0.033 A 
ATOM     18  C   UNL A   1      28.033  30.564  21.196  1.00  0.00     0.015 A 
ATOM     19  C   UNL A   1      27.975  31.337  23.375  1.00  0.00     0.068 A 
ATOM     20  C   UNL A   1      28.377  31.884  21.018  1.00  0.00     0.065 A 
ATOM     21  S   UNL A   1      28.404  32.740  22.493  1.00  0.00    -0.152 S 
ENDBRANCH  16  17
ENDBRANCH  15  16
ENDBRANCH   7   9
ENDBRANCH   5   7
ENDBRANCH   4   5
ENDBRANCH   3   4
ENDBRANCH   2   3
ENDBRANCH   1   2
BRANCH   1  22
ATOM     22  C   UNL A   1      35.852  20.255  24.981  1.00  0.00     0.202 C 
BRANCH  22  23
ATOM     23  C   UNL A   1      36.729  21.246  25.749  1.00  0.00     0.261 C 
BRANCH  23  24
ATOM     24  O   UNL A   1      37.989  21.468  25.105  1.00  0.00    -0.460 OA
BRANCH  24  25
ATOM     25  C   UNL A   1      39.055  21.161  25.882  1.00  0.00     0.338 C 
ATOM     26  O   UNL A   1      39.635  20.086  25.945  1.00  0.00    -0.246 OA
BRANCH  25  27
ATOM     27  C   UNL A   1      39.563  22.382  26.527  1.00  0.00     0.060 A 
ATOM     28  C   UNL A   1      39.032  23.600  26.088  1.00  0.00     0.016 A 
ATOM     29  C   UNL A   1      40.557  22.343  27.507  1.00  0.00     0.016 A 
ATOM     30  C   UNL A   1      39.540  24.796  26.583  1.00  0.00     0.010 A 
ATOM     31  C   UNL A   1      41.073  23.545  27.997  1.00  0.00     0.010 A 
ATOM     32  C   UNL A   1      40.595  24.773  27.503  1.00  0.00    -0.014 A 
BRANCH  32  33
ATOM     33  C   UNL A   1      41.314  26.032  27.800  1.00  0.00     0.031 A 
ATOM     34  C   UNL A   1      40.591  27.102  28.572  1.00  0.00     0.074 A 
ATOM     35  C   UNL A   1      42.597  26.191  27.435  1.00  0.00     0.049 A 
ATOM     36  N   UNL A   1      41.002  28.290  28.929  1.00  0.00    -0.248 NA
ATOM     37  C   UNL A   1      39.216  26.787  28.993  1.00  0.00     0.031 C 
ATOM     38  C   UNL A   1      43.404  25.191  26.736  1.00  0.00     0.029 A 
ATOM     39  N   UNL A   1      43.448  27.253  27.604  1.00  0.00    -0.354 N 
ATOM     40  C   UNL A   1      39.935  28.868  29.609  1.00  0.00     0.074 A 
ATOM     41  C   UNL A   1      38.848  27.914  29.579  1.00  0.00     0.031 C 
ATOM     42  C   UNL A   1      44.635  25.690  26.534  1.00  0.00     0.029 A 
ATOM     43  C   UNL A   1      44.690  27.056  27.050  1.00  0.00     0.049 A 
ATOM     44  H   UNL A   1      43.193  28.077  28.078  1.00  0.00     0.167 HD
ATOM     45  C   UNL A   1      39.875  30.083  30.209  1.00  0.00     0.034 A 
ATOM     46  C   UNL A   1      45.739  27.896  26.951  1.00  0.00     0.034 A 
ATOM     47  C   UNL A   1      40.974  31.018  30.218  1.00  0.00     0.049 A 
ATOM     48  C   UNL A   1      45.618  29.279  27.546  1.00  0.00     0.074 A 
ATOM     49  C   UNL A   1      41.036  32.269  30.806  1.00  0.00     0.029 A 
ATOM     50  N   UNL A   1      42.199  30.810  29.596  1.00  0.00    -0.354 N 
ATOM     51  N   UNL A   1      44.607  29.816  28.193  1.00  0.00    -0.248 NA
ATOM     52  C   UNL A   1      46.780  30.165  27.406  1.00  0.00     0.031 C 
ATOM     53  C   UNL A   1      42.265  32.848  30.471  1.00  0.00     0.029 A 
ATOM     54  C   UNL A   1      43.008  31.925  29.751  1.00  0.00     0.049 A 
ATOM     55  H   UNL A   1      42.456  29.991  29.115  1.00  0.00     0.167 HD
ATOM     56  C   UNL A   1      45.027  31.090  28.565  1.00  0.00     0.074 A 
ATOM     57  C   UNL A   1      46.386  31.233  28.083  1.00  0.00     0.031 C 
ATOM     58  C   UNL A   1      44.358  32.053  29.250  1.00  0.00     0.034 A 
BRANCH  45  59
ATOM     59  C   UNL A   1      38.564  30.483  30.842  1.00  0.00     0.023 A 
ATOM     60  C   UNL A   1      37.546  31.124  30.111  1.00  0.00     0.031 A 
ATOM     61  C   UNL A   1      38.342  30.251  32.211  1.00  0.00     0.131 A 
ATOM     62  C   UNL A   1      36.388  31.570  30.766  1.00  0.00     0.055 A 
ATOM     63  C   UNL A   1      37.153  30.625  32.839  1.00  0.00     0.041 A 
ATOM     64  F   UNL A   1      39.286  29.670  32.967  1.00  0.00    -0.206 F 
ATOM     65  C   UNL A   1      36.173  31.302  32.121  1.00  0.00     0.022 A 
BRANCH  62  66
ATOM     66  S   UNL A   1      35.234  32.636  29.861  1.00  0.00     0.124 S 
ATOM     67  O   UNL A   1      34.267  32.976  30.902  1.00  0.00    -0.237 OA
ATOM     68  O   UNL A   1      36.095  33.723  29.409  1.00  0.00    -0.237 OA
ATOM     69  O   UNL A   1      34.720  31.767  28.804  1.00  0.00    -0.744 OA
ENDBRANCH  62  66
ENDBRANCH  45  59
BRANCH  46  70
ATOM     70  C   UNL A   1      46.979  27.480  26.234  1.00  0.00     0.023 A 
ATOM     71  C   UNL A   1      47.181  27.804  24.885  1.00  0.00     0.031 A 
ATOM     72  C   UNL A   1      47.960  26.704  26.879  1.00  0.00     0.131 A 
ATOM     73  C   UNL A   1      48.311  27.316  24.208  1.00  0.00     0.055 A 
ATOM     74  C   UNL A   1      49.110  26.269  26.219  1.00  0.00     0.041 A 
ATOM     75  F   UNL A   1      47.817  26.361  28.169  1.00  0.00    -0.206 F 
ATOM     76  C   UNL A   1      49.283  26.563  24.870  1.00  0.00     0.022 A 
BRANCH  73  77
ATOM     77  S   UNL A   1      48.444  27.602  22.422  1.00  0.00     0.124 S 
ATOM     78  O   UNL A   1      49.699  28.340  22.333  1.00  0.00    -0.237 OA
ATOM     79  O   UNL A   1      48.459  26.241  21.898  1.00  0.00    -0.237 OA
ATOM     80  O   UNL A   1      47.242  28.373  22.111  1.00  0.00    -0.744 OA
ENDBRANCH  73  77
ENDBRANCH  46  70
BRANCH  58  81
ATOM     81  C   UNL A   1      45.109  33.327  29.558  1.00  0.00     0.023 A 
ATOM     82  C   UNL A   1      45.054  34.444  28.708  1.00  0.00     0.031 A 
ATOM     83  C   UNL A   1      45.901  33.416  30.718  1.00  0.00     0.131 A 
ATOM     84  C   UNL A   1      45.823  35.581  28.999  1.00  0.00     0.055 A 
ATOM     85  C   UNL A   1      46.609  34.575  31.037  1.00  0.00     0.041 A 
ATOM     86  F   UNL A   1      45.993  32.378  31.564  1.00  0.00    -0.206 F 
ATOM     87  C   UNL A   1      46.585  35.662  30.167  1.00  0.00     0.022 A 
BRANCH  84  88
ATOM     88  S   UNL A   1      45.895  36.920  27.777  1.00  0.00     0.124 S 
ATOM     89  O   UNL A   1      45.635  38.097  28.600  1.00  0.00    -0.237 OA
ATOM     90  O   UNL A   1      47.252  36.794  27.255  1.00  0.00    -0.237 OA
ATOM     91  O   UNL A   1      44.834  36.578  26.831  1.00  0.00    -0.744 OA
ENDBRANCH  84  88
ENDBRANCH  58  81
ENDBRANCH  32  33
ENDBRANCH  25  27
ENDBRANCH  24  25
ENDBRANCH  23  24
ENDBRANCH  22  23
ENDBRANCH   1  22
TORSDOF 20
ENDMDL
MODEL 3
REMARK VINA RESULT:     -11.0      5.797     11.296
REMARK SMILES C[C@@H](C(=O)OCCOCCOC(=O)c1ccc(-c2c3nc(c(-c4cc(S(=O)(=O)[O-])ccc4F)c4ccc([nH]4)c(-c4cc(S(=O)(=O)[O-])ccc4F)c4nc(c(-c5cc(S(=O)(=O)[O-])ccc5F)c5ccc2[nH]5)C=C4)C=C3)cc1)c1ccc(Cc2ccsc2)cc1F
REMARK SMILES IDX 8 1 7 2 6 3 5 4 3 5 4 6 2 7 1 8 77 9 78 10 88 11 79 12 87 13
REMARK SMILES IDX 89 14 80 15 81 16 82 17 83 18 86 19 84 20 85 21 9 22 10 23
REMARK SMILES IDX 11 24 12 25 13 26 14 27 15 28 76 29 16 30 75 31 17 32 18 33
REMARK SMILES IDX 19 34 69 35 20 36 74 37 68 38 70 39 21 40 73 41 67 42 66 43
REMARK SMILES IDX 22 45 54 46 34 47 53 48 35 49 38 50 52 51 71 52 36 53 37 54
REMARK SMILES IDX 51 56 72 57 39 58 23 59 24 60 32 61 25 62 31 63 33 64 30 65
REMARK SMILES IDX 26 66 27 67 28 68 29 69 55 70 56 71 64 72 57 73 63 74 65 75
REMARK SMILES IDX 62 76 58 77 59 78 60 79 61 80 40 81 41 82 49 83 42 84 48 85
REMARK SMILES IDX 50 86 47 87 43 88 44 89 45 90 46 91
REMARK H PARENT 70 44 38 55
REMARK Flexibility Score: inf
ROOT
ATOM      1  O   UNL A   1      37.251  21.500  25.411  1.00  0.00    -0.374 OA
ENDROOT
BRANCH   1   2
ATOM      2  C   UNL A   1      37.325  22.498  24.388  1.00  0.00     0.202 C 
BRANCH   2   3
ATOM      3  C   UNL A   1      36.423  23.724  24.570  1.00  0.00     0.261 C 
BRANCH   3   4
ATOM      4  O   UNL A   1      35.802  23.688  25.868  1.00  0.00    -0.463 OA
BRANCH   4   5
ATOM      5  C   UNL A   1      34.576  24.266  25.966  1.00  0.00     0.313 C 
ATOM      6  O   UNL A   1      34.332  25.430  25.671  1.00  0.00    -0.252 OA
BRANCH   5   7
ATOM      7  C   UNL A   1      33.520  23.300  26.517  1.00  0.00     0.129 C 
ATOM      8  C   UNL A   1      33.733  22.820  27.958  1.00  0.00     0.025 C 
BRANCH   7   9
ATOM      9  C   UNL A   1      33.287  22.104  25.602  1.00  0.00     0.002 A 
ATOM     10  C   UNL A   1      33.751  20.839  25.976  1.00  0.00     0.008 A 
ATOM     11  C   UNL A   1      32.627  22.212  24.374  1.00  0.00     0.127 A 
ATOM     12  C   UNL A   1      33.519  19.726  25.159  1.00  0.00     0.004 A 
ATOM     13  C   UNL A   1      32.427  21.115  23.537  1.00  0.00     0.043 A 
ATOM     14  F   UNL A   1      32.128  23.386  23.978  1.00  0.00    -0.207 F 
ATOM     15  C   UNL A   1      32.862  19.845  23.923  1.00  0.00    -0.041 A 
BRANCH  15  16
ATOM     16  C   UNL A   1      32.509  18.639  23.082  1.00  0.00     0.072 C 
BRANCH  16  17
ATOM     17  C   UNL A   1      32.935  17.391  23.802  1.00  0.00    -0.033 A 
ATOM     18  C   UNL A   1      34.173  16.687  23.596  1.00  0.00     0.015 A 
ATOM     19  C   UNL A   1      32.229  16.809  24.842  1.00  0.00     0.068 A 
ATOM     20  C   UNL A   1      34.331  15.612  24.441  1.00  0.00     0.065 A 
ATOM     21  S   UNL A   1      33.020  15.451  25.519  1.00  0.00    -0.152 S 
ENDBRANCH  16  17
ENDBRANCH  15  16
ENDBRANCH   7   9
ENDBRANCH   5   7
ENDBRANCH   4   5
ENDBRANCH   3   4
ENDBRANCH   2   3
ENDBRANCH   1   2
BRANCH   1  22
ATOM     22  C   UNL A   1      37.445  20.147  25.003  1.00  0.00     0.202 C 
BRANCH  22  23
ATOM     23  C   UNL A   1      38.767  19.475  25.381  1.00  0.00     0.261 C 
BRANCH  23  24
ATOM     24  O   UNL A   1      39.328  20.017  26.581  1.00  0.00    -0.460 OA
BRANCH  24  25
ATOM     25  C   UNL A   1      40.621  20.398  26.448  1.00  0.00     0.338 C 
ATOM     26  O   UNL A   1      41.510  19.798  25.859  1.00  0.00    -0.246 OA
BRANCH  25  27
ATOM     27  C   UNL A   1      40.786  21.767  26.961  1.00  0.00     0.060 A 
ATOM     28  C   UNL A   1      40.219  22.801  26.208  1.00  0.00     0.016 A 
ATOM     29  C   UNL A   1      41.506  22.039  28.127  1.00  0.00     0.016 A 
ATOM     30  C   UNL A   1      40.424  24.124  26.582  1.00  0.00     0.010 A 
ATOM     31  C   UNL A   1      41.719  23.369  28.497  1.00  0.00     0.010 A 
ATOM     32  C   UNL A   1      41.215  24.414  27.700  1.00  0.00    -0.014 A 
BRANCH  32  33
ATOM     33  C   UNL A   1      41.662  25.807  27.919  1.00  0.00     0.031 A 
ATOM     34  C   UNL A   1      42.993  26.228  27.357  1.00  0.00     0.074 A 
ATOM     35  C   UNL A   1      40.874  26.687  28.561  1.00  0.00     0.049 A 
ATOM     36  N   UNL A   1      43.603  27.380  27.440  1.00  0.00    -0.248 NA
ATOM     37  C   UNL A   1      43.734  25.205  26.602  1.00  0.00     0.031 C 
ATOM     38  C   UNL A   1      39.543  26.393  29.091  1.00  0.00     0.029 A 
ATOM     39  N   UNL A   1      41.078  28.007  28.870  1.00  0.00    -0.354 N 
ATOM     40  C   UNL A   1      44.804  27.220  26.756  1.00  0.00     0.074 A 
ATOM     41  C   UNL A   1      44.850  25.848  26.299  1.00  0.00     0.031 C 
ATOM     42  C   UNL A   1      39.050  27.504  29.665  1.00  0.00     0.029 A 
ATOM     43  C   UNL A   1      40.045  28.571  29.579  1.00  0.00     0.049 A 
ATOM     44  H   UNL A   1      41.887  28.503  28.610  1.00  0.00     0.167 HD
ATOM     45  C   UNL A   1      45.773  28.140  26.526  1.00  0.00     0.034 A 
ATOM     46  C   UNL A   1      39.932  29.802  30.117  1.00  0.00     0.034 A 
ATOM     47  C   UNL A   1      45.704  29.501  27.000  1.00  0.00     0.049 A 
ATOM     48  C   UNL A   1      41.066  30.782  29.927  1.00  0.00     0.074 A 
ATOM     49  C   UNL A   1      46.615  30.525  26.815  1.00  0.00     0.029 A 
ATOM     50  N   UNL A   1      44.669  30.024  27.766  1.00  0.00    -0.354 N 
ATOM     51  N   UNL A   1      42.195  30.624  29.274  1.00  0.00    -0.248 NA
ATOM     52  C   UNL A   1      40.905  32.106  30.540  1.00  0.00     0.031 C 
ATOM     53  C   UNL A   1      46.172  31.639  27.536  1.00  0.00     0.029 A 
ATOM     54  C   UNL A   1      44.939  31.343  28.096  1.00  0.00     0.049 A 
ATOM     55  H   UNL A   1      43.861  29.530  28.035  1.00  0.00     0.167 HD
ATOM     56  C   UNL A   1      42.863  31.842  29.369  1.00  0.00     0.074 A 
ATOM     57  C   UNL A   1      42.003  32.725  30.130  1.00  0.00     0.031 C 
ATOM     58  C   UNL A   1      44.072  32.204  28.868  1.00  0.00     0.034 A 
BRANCH  45  59
ATOM     59  C   UNL A   1      47.008  27.681  25.788  1.00  0.00     0.023 A 
ATOM     60  C   UNL A   1      47.218  27.975  24.428  1.00  0.00     0.031 A 
ATOM     61  C   UNL A   1      47.977  26.904  26.449  1.00  0.00     0.131 A 
ATOM     62  C   UNL A   1      48.329  27.439  23.759  1.00  0.00     0.055 A 
ATOM     63  C   UNL A   1      49.121  26.442  25.797  1.00  0.00     0.041 A 
ATOM     64  F   UNL A   1      47.818  26.567  27.738  1.00  0.00    -0.206 F 
ATOM     65  C   UNL A   1      49.297  26.696  24.441  1.00  0.00     0.022 A 
BRANCH  62  66
ATOM     66  S   UNL A   1      48.418  27.600  21.954  1.00  0.00     0.124 S 
ATOM     67  O   UNL A   1      49.525  28.540  21.796  1.00  0.00    -0.237 OA
ATOM     68  O   UNL A   1      48.676  26.230  21.528  1.00  0.00    -0.237 OA
ATOM     69  O   UNL A   1      47.105  28.130  21.592  1.00  0.00    -0.744 OA
ENDBRANCH  62  66
ENDBRANCH  45  59
BRANCH  46  70
ATOM     70  C   UNL A   1      38.728  30.172  30.916  1.00  0.00     0.023 A 
ATOM     71  C   UNL A   1      37.671  30.895  30.342  1.00  0.00     0.031 A 
ATOM     72  C   UNL A   1      38.641  29.851  32.283  1.00  0.00     0.131 A 
ATOM     73  C   UNL A   1      36.595  31.315  31.141  1.00  0.00     0.055 A 
ATOM     74  C   UNL A   1      37.542  30.221  33.060  1.00  0.00     0.041 A 
ATOM     75  F   UNL A   1      39.624  29.164  32.884  1.00  0.00    -0.206 F 
ATOM     76  C   UNL A   1      36.517  30.971  32.492  1.00  0.00     0.022 A 
BRANCH  73  77
ATOM     77  S   UNL A   1      35.342  32.401  30.407  1.00  0.00     0.124 S 
ATOM     78  O   UNL A   1      36.111  33.613  30.153  1.00  0.00    -0.237 OA
ATOM     79  O   UNL A   1      34.934  31.640  29.231  1.00  0.00    -0.237 OA
ATOM     80  O   UNL A   1      34.330  32.510  31.457  1.00  0.00    -0.744 OA
ENDBRANCH  73  77
ENDBRANCH  46  70
BRANCH  58  81
ATOM     81  C   UNL A   1      44.508  33.633  29.089  1.00  0.00     0.023 A 
ATOM     82  C   UNL A   1      43.955  34.699  28.361  1.00  0.00     0.031 A 
ATOM     83  C   UNL A   1      45.503  33.928  30.040  1.00  0.00     0.131 A 
ATOM     84  C   UNL A   1      44.440  36.002  28.552  1.00  0.00     0.055 A 
ATOM     85  C   UNL A   1      45.933  35.234  30.274  1.00  0.00     0.041 A 
ATOM     86  F   UNL A   1      46.069  32.948  30.763  1.00  0.00    -0.206 F 
ATOM     87  C   UNL A   1      45.411  36.279  29.517  1.00  0.00     0.022 A 
BRANCH  84  88
ATOM     88  S   UNL A   1      43.856  37.319  27.450  1.00  0.00     0.124 S 
ATOM     89  O   UNL A   1      45.110  37.897  26.978  1.00  0.00    -0.237 OA
ATOM     90  O   UNL A   1      43.083  36.577  26.459  1.00  0.00    -0.237 OA
ATOM     91  O   UNL A   1      43.069  38.180  28.331  1.00  0.00    -0.744 OA
ENDBRANCH  84  88
ENDBRANCH  58  81
ENDBRANCH  32  33
ENDBRANCH  25  27
ENDBRANCH  24  25
ENDBRANCH  23  24
ENDBRANCH  22  23
ENDBRANCH   1  22
TORSDOF 20
ENDMDL
