MODEL 1
REMARK VINA RESULT:     -11.3      0.000      0.000
REMARK SMILES CC[C@]1(C(=O)OCCOCCOC(=O)c2ccc(-c3c4nc(c(-c5cc(S(=O)(=O)[O-])ccc5F)c5ccc([nH]5)c(-c5cc(S(=O)(=O)[O-])ccc5F)c5nc(c(-c6cc(S(=O)(=O)[O-])ccc6F)c6ccc3[nH]6)C=C5)C=C4)cc2)CC[N@@H+](Cc2nc(C)ccc2O)C1
REMARK SMILES IDX 9 1 8 2 7 3 6 4 4 5 5 6 3 7 78 8 90 9 79 10 80 11 2 13 1 14
REMARK SMILES IDX 81 15 82 16 83 17 88 18 84 19 87 20 85 21 86 22 89 23 10 25
REMARK SMILES IDX 11 26 12 27 13 28 14 29 15 30 16 31 77 32 17 33 76 34 18 35
REMARK SMILES IDX 19 36 20 37 70 38 21 39 75 40 69 41 71 42 22 43 74 44 68 45
REMARK SMILES IDX 67 46 23 48 55 49 35 50 54 51 36 52 39 53 53 54 72 55 37 56
REMARK SMILES IDX 38 57 52 59 73 60 40 61 24 62 25 63 33 64 26 65 32 66 34 67
REMARK SMILES IDX 31 68 27 69 28 70 29 71 30 72 56 73 57 74 65 75 58 76 64 77
REMARK SMILES IDX 66 78 63 79 59 80 60 81 61 82 62 83 41 84 42 85 50 86 43 87
REMARK SMILES IDX 49 88 51 89 48 90 44 91 45 92 46 93 47 94
REMARK H PARENT 80 12 89 24 71 47 39 58
REMARK Flexibility Score: inf
ROOT
ATOM      1  O   UNL A   1      34.960  22.021  24.179  1.00  0.00    -0.374 OA
ENDROOT
BRANCH   1   2
ATOM      2  C   UNL A   1      34.807  23.284  24.833  1.00  0.00     0.202 C 
BRANCH   2   3
ATOM      3  C   UNL A   1      33.511  23.384  25.633  1.00  0.00     0.261 C 
BRANCH   3   4
ATOM      4  O   UNL A   1      33.574  24.561  26.456  1.00  0.00    -0.463 OA
BRANCH   4   5
ATOM      5  C   UNL A   1      32.627  25.494  26.216  1.00  0.00     0.318 C 
ATOM      6  O   UNL A   1      31.462  25.401  26.594  1.00  0.00    -0.251 OA
BRANCH   5   7
ATOM      7  C   UNL A   1      33.148  26.697  25.434  1.00  0.00     0.122 C 
ATOM      8  C   UNL A   1      33.817  26.471  24.072  1.00  0.00     0.086 C 
ATOM      9  C   UNL A   1      31.896  27.520  25.055  1.00  0.00     0.281 C 
ATOM     10  C   UNL A   1      33.450  27.731  23.293  1.00  0.00     0.264 C 
ATOM     11  N   UNL A   1      32.073  28.042  23.688  1.00  0.00    -0.329 N 
ATOM     12  H   UNL A   1      31.927  29.051  23.671  1.00  0.00     0.348 HD
BRANCH   7  13
ATOM     13  C   UNL A   1      34.115  27.484  26.363  1.00  0.00     0.021 C 
ATOM     14  C   UNL A   1      33.517  28.769  26.940  1.00  0.00     0.005 C 
ENDBRANCH   7  13
BRANCH  11  15
ATOM     15  C   UNL A   1      31.045  27.545  22.728  1.00  0.00     0.323 C 
BRANCH  15  16
ATOM     16  C   UNL A   1      29.787  28.381  22.559  1.00  0.00     0.136 A 
ATOM     17  N   UNL A   1      28.645  27.833  23.076  1.00  0.00    -0.248 NA
ATOM     18  C   UNL A   1      29.830  29.686  22.070  1.00  0.00     0.142 A 
ATOM     19  C   UNL A   1      27.552  28.611  23.180  1.00  0.00     0.038 A 
ATOM     20  C   UNL A   1      28.700  30.479  22.195  1.00  0.00     0.050 A 
ATOM     21  C   UNL A   1      26.302  27.999  23.737  1.00  0.00     0.067 C 
ATOM     22  C   UNL A   1      27.557  29.932  22.771  1.00  0.00     0.027 A 
BRANCH  18  23
ATOM     23  O   UNL A   1      30.975  30.201  21.540  1.00  0.00    -0.506 OA
ATOM     24  H   UNL A   1      30.928  30.850  20.865  1.00  0.00     0.293 HD
ENDBRANCH  18  23
ENDBRANCH  15  16
ENDBRANCH  11  15
ENDBRANCH   5   7
ENDBRANCH   4   5
ENDBRANCH   3   4
ENDBRANCH   2   3
ENDBRANCH   1   2
BRANCH   1  25
ATOM     25  C   UNL A   1      35.142  20.898  25.044  1.00  0.00     0.202 C 
BRANCH  25  26
ATOM     26  C   UNL A   1      36.552  20.301  25.018  1.00  0.00     0.261 C 
BRANCH  26  27
ATOM     27  O   UNL A   1      37.572  21.310  25.109  1.00  0.00    -0.460 OA
BRANCH  27  28
ATOM     28  C   UNL A   1      38.714  20.936  25.742  1.00  0.00     0.338 C 
ATOM     29  O   UNL A   1      39.222  19.829  25.757  1.00  0.00    -0.246 OA
BRANCH  28  30
ATOM     30  C   UNL A   1      39.362  22.148  26.280  1.00  0.00     0.060 A 
ATOM     31  C   UNL A   1      38.804  23.404  26.007  1.00  0.00     0.016 A 
ATOM     32  C   UNL A   1      40.508  22.048  27.066  1.00  0.00     0.016 A 
ATOM     33  C   UNL A   1      39.396  24.564  26.523  1.00  0.00     0.010 A 
ATOM     34  C   UNL A   1      41.069  23.202  27.618  1.00  0.00     0.010 A 
ATOM     35  C   UNL A   1      40.542  24.475  27.324  1.00  0.00    -0.014 A 
BRANCH  35  36
ATOM     36  C   UNL A   1      41.351  25.677  27.674  1.00  0.00     0.031 A 
ATOM     37  C   UNL A   1      40.681  26.740  28.512  1.00  0.00     0.074 A 
ATOM     38  C   UNL A   1      42.616  25.862  27.252  1.00  0.00     0.049 A 
ATOM     39  N   UNL A   1      41.058  27.962  28.773  1.00  0.00    -0.248 NA
ATOM     40  C   UNL A   1      39.377  26.376  29.087  1.00  0.00     0.031 C 
ATOM     41  C   UNL A   1      43.400  24.914  26.461  1.00  0.00     0.029 A 
ATOM     42  N   UNL A   1      43.464  26.931  27.424  1.00  0.00    -0.354 N 
ATOM     43  C   UNL A   1      40.011  28.530  29.492  1.00  0.00     0.074 A 
ATOM     44  C   UNL A   1      38.964  27.534  29.569  1.00  0.00     0.031 C 
ATOM     45  C   UNL A   1      44.615  25.442  26.223  1.00  0.00     0.029 A 
ATOM     46  C   UNL A   1      44.683  26.784  26.799  1.00  0.00     0.049 A 
ATOM     47  H   UNL A   1      43.222  27.729  27.946  1.00  0.00     0.167 HD
ATOM     48  C   UNL A   1      39.932  29.759  30.059  1.00  0.00     0.034 A 
ATOM     49  C   UNL A   1      45.719  27.644  26.686  1.00  0.00     0.034 A 
ATOM     50  C   UNL A   1      41.003  30.719  30.031  1.00  0.00     0.049 A 
ATOM     51  C   UNL A   1      45.610  29.018  27.314  1.00  0.00     0.074 A 
ATOM     52  C   UNL A   1      41.048  31.978  30.601  1.00  0.00     0.029 A 
ATOM     53  N   UNL A   1      42.227  30.519  29.408  1.00  0.00    -0.354 N 
ATOM     54  N   UNL A   1      44.607  29.550  27.975  1.00  0.00    -0.248 NA
ATOM     55  C   UNL A   1      46.775  29.907  27.183  1.00  0.00     0.031 C 
ATOM     56  C   UNL A   1      42.279  32.560  30.281  1.00  0.00     0.029 A 
ATOM     57  C   UNL A   1      43.030  31.635  29.573  1.00  0.00     0.049 A 
ATOM     58  H   UNL A   1      42.487  29.703  28.921  1.00  0.00     0.167 HD
ATOM     59  C   UNL A   1      45.041  30.814  28.375  1.00  0.00     0.074 A 
ATOM     60  C   UNL A   1      46.391  30.968  27.879  1.00  0.00     0.031 C 
ATOM     61  C   UNL A   1      44.385  31.760  29.093  1.00  0.00     0.034 A 
BRANCH  48  62
ATOM     62  C   UNL A   1      38.628  30.127  30.725  1.00  0.00     0.023 A 
ATOM     63  C   UNL A   1      37.605  30.795  30.029  1.00  0.00     0.031 A 
ATOM     64  C   UNL A   1      38.435  29.870  32.093  1.00  0.00     0.131 A 
ATOM     65  C   UNL A   1      36.488  31.276  30.724  1.00  0.00     0.055 A 
ATOM     66  C   UNL A   1      37.272  30.263  32.758  1.00  0.00     0.041 A 
ATOM     67  F   UNL A   1      39.385  29.257  32.815  1.00  0.00    -0.206 F 
ATOM     68  C   UNL A   1      36.298  30.990  32.077  1.00  0.00     0.022 A 
BRANCH  65  69
ATOM     69  S   UNL A   1      35.381  32.434  29.873  1.00  0.00     0.124 S 
ATOM     70  O   UNL A   1      36.274  33.566  29.630  1.00  0.00    -0.237 OA
ATOM     71  O   UNL A   1      34.975  31.677  28.695  1.00  0.00    -0.237 OA
ATOM     72  O   UNL A   1      34.325  32.681  30.854  1.00  0.00    -0.744 OA
ENDBRANCH  65  69
ENDBRANCH  48  62
BRANCH  49  73
ATOM     73  C   UNL A   1      46.948  27.267  25.926  1.00  0.00     0.023 A 
ATOM     74  C   UNL A   1      47.162  27.733  24.618  1.00  0.00     0.031 A 
ATOM     75  C   UNL A   1      47.889  26.374  26.466  1.00  0.00     0.131 A 
ATOM     76  C   UNL A   1      48.259  27.264  23.875  1.00  0.00     0.055 A 
ATOM     77  C   UNL A   1      49.007  25.952  25.744  1.00  0.00     0.041 A 
ATOM     78  F   UNL A   1      47.734  25.897  27.712  1.00  0.00    -0.206 F 
ATOM     79  C   UNL A   1      49.189  26.385  24.434  1.00  0.00     0.022 A 
BRANCH  76  80
ATOM     80  S   UNL A   1      48.401  27.749  22.133  1.00  0.00     0.124 S 
ATOM     81  O   UNL A   1      47.173  28.512  21.937  1.00  0.00    -0.237 OA
ATOM     82  O   UNL A   1      49.642  28.517  22.133  1.00  0.00    -0.237 OA
ATOM     83  O   UNL A   1      48.462  26.470  21.427  1.00  0.00    -0.744 OA
ENDBRANCH  76  80
ENDBRANCH  49  73
BRANCH  61  84
ATOM     84  C   UNL A   1      45.144  33.007  29.471  1.00  0.00     0.023 A 
ATOM     85  C   UNL A   1      45.163  34.149  28.653  1.00  0.00     0.031 A 
ATOM     86  C   UNL A   1      45.825  33.059  30.701  1.00  0.00     0.131 A 
ATOM     87  C   UNL A   1      45.877  35.287  29.063  1.00  0.00     0.055 A 
ATOM     88  C   UNL A   1      46.492  34.209  31.125  1.00  0.00     0.041 A 
ATOM     89  F   UNL A   1      45.834  31.996  31.521  1.00  0.00    -0.206 F 
ATOM     90  C   UNL A   1      46.526  35.329  30.300  1.00  0.00     0.022 A 
BRANCH  87  91
ATOM     91  S   UNL A   1      45.989  36.703  27.936  1.00  0.00     0.124 S 
ATOM     92  O   UNL A   1      46.282  36.056  26.662  1.00  0.00    -0.237 OA
ATOM     93  O   UNL A   1      44.665  37.304  28.055  1.00  0.00    -0.237 OA
ATOM     94  O   UNL A   1      47.081  37.501  28.492  1.00  0.00    -0.744 OA
ENDBRANCH  87  91
ENDBRANCH  61  84
ENDBRANCH  35  36
ENDBRANCH  28  30
ENDBRANCH  27  28
ENDBRANCH  26  27
ENDBRANCH  25  26
ENDBRANCH   1  25
TORSDOF 21
ENDMDL
MODEL 2
REMARK VINA RESULT:     -11.0      1.671      7.864
REMARK SMILES CC[C@]1(C(=O)OCCOCCOC(=O)c2ccc(-c3c4nc(c(-c5cc(S(=O)(=O)[O-])ccc5F)c5ccc([nH]5)c(-c5cc(S(=O)(=O)[O-])ccc5F)c5nc(c(-c6cc(S(=O)(=O)[O-])ccc6F)c6ccc3[nH]6)C=C5)C=C4)cc2)CC[N@@H+](Cc2nc(C)ccc2O)C1
REMARK SMILES IDX 9 1 8 2 7 3 6 4 4 5 5 6 3 7 78 8 90 9 79 10 80 11 2 13 1 14
REMARK SMILES IDX 81 15 82 16 83 17 88 18 84 19 87 20 85 21 86 22 89 23 10 25
REMARK SMILES IDX 11 26 12 27 13 28 14 29 15 30 16 31 77 32 17 33 76 34 18 35
REMARK SMILES IDX 19 36 20 37 70 38 21 39 75 40 69 41 71 42 22 43 74 44 68 45
REMARK SMILES IDX 67 46 23 48 55 49 35 50 54 51 36 52 39 53 53 54 72 55 37 56
REMARK SMILES IDX 38 57 52 59 73 60 40 61 24 62 25 63 33 64 26 65 32 66 34 67
REMARK SMILES IDX 31 68 27 69 28 70 29 71 30 72 56 73 57 74 65 75 58 76 64 77
REMARK SMILES IDX 66 78 63 79 59 80 60 81 61 82 62 83 41 84 42 85 50 86 43 87
REMARK SMILES IDX 49 88 51 89 48 90 44 91 45 92 46 93 47 94
REMARK H PARENT 80 12 89 24 71 47 39 58
REMARK Flexibility Score: inf
ROOT
ATOM      1  O   UNL A   1      37.968  21.309  24.831  1.00  0.00    -0.374 OA
ENDROOT
BRANCH   1   2
ATOM      2  C   UNL A   1      36.814  21.861  25.472  1.00  0.00     0.202 C 
BRANCH   2   3
ATOM      3  C   UNL A   1      36.654  23.357  25.216  1.00  0.00     0.261 C 
BRANCH   3   4
ATOM      4  O   UNL A   1      35.259  23.688  25.317  1.00  0.00    -0.463 OA
BRANCH   4   5
ATOM      5  C   UNL A   1      34.522  23.463  24.207  1.00  0.00     0.318 C 
ATOM      6  O   UNL A   1      34.921  23.673  23.065  1.00  0.00    -0.251 OA
BRANCH   5   7
ATOM      7  C   UNL A   1      33.135  22.901  24.507  1.00  0.00     0.122 C 
ATOM      8  C   UNL A   1      32.781  22.512  25.949  1.00  0.00     0.086 C 
ATOM      9  C   UNL A   1      32.149  24.056  24.225  1.00  0.00     0.281 C 
ATOM     10  C   UNL A   1      31.286  22.806  26.029  1.00  0.00     0.264 C 
ATOM     11  N   UNL A   1      31.091  24.032  25.251  1.00  0.00    -0.329 N 
ATOM     12  H   UNL A   1      30.170  24.021  24.812  1.00  0.00     0.348 HD
BRANCH   7  13
ATOM     13  C   UNL A   1      32.903  21.682  23.570  1.00  0.00     0.021 C 
ATOM     14  C   UNL A   1      33.345  20.344  24.169  1.00  0.00     0.005 C 
ENDBRANCH   7  13
BRANCH  11  15
ATOM     15  C   UNL A   1      31.045  25.271  26.081  1.00  0.00     0.323 C 
BRANCH  15  16
ATOM     16  C   UNL A   1      30.720  26.574  25.371  1.00  0.00     0.136 A 
ATOM     17  N   UNL A   1      31.482  27.649  25.741  1.00  0.00    -0.248 NA
ATOM     18  C   UNL A   1      29.831  26.628  24.298  1.00  0.00     0.142 A 
ATOM     19  C   UNL A   1      31.420  28.766  24.992  1.00  0.00     0.038 A 
ATOM     20  C   UNL A   1      29.786  27.781  23.530  1.00  0.00     0.050 A 
ATOM     21  C   UNL A   1      32.250  29.942  25.411  1.00  0.00     0.067 C 
ATOM     22  C   UNL A   1      30.604  28.851  23.879  1.00  0.00     0.027 A 
BRANCH  18  23
ATOM     23  O   UNL A   1      29.067  25.550  23.964  1.00  0.00    -0.506 OA
ATOM     24  H   UNL A   1      28.388  25.638  23.324  1.00  0.00     0.293 HD
ENDBRANCH  18  23
ENDBRANCH  15  16
ENDBRANCH  11  15
ENDBRANCH   5   7
ENDBRANCH   4   5
ENDBRANCH   3   4
ENDBRANCH   2   3
ENDBRANCH   1   2
BRANCH   1  25
ATOM     25  C   UNL A   1      38.144  19.899  24.986  1.00  0.00     0.202 C 
BRANCH  25  26
ATOM     26  C   UNL A   1      39.469  19.495  25.640  1.00  0.00     0.261 C 
BRANCH  26  27
ATOM     27  O   UNL A   1      39.742  20.253  26.831  1.00  0.00    -0.460 OA
BRANCH  27  28
ATOM     28  C   UNL A   1      41.049  20.548  27.053  1.00  0.00     0.338 C 
ATOM     29  O   UNL A   1      42.010  19.820  26.884  1.00  0.00    -0.246 OA
BRANCH  28  30
ATOM     30  C   UNL A   1      41.149  21.987  27.372  1.00  0.00     0.060 A 
ATOM     31  C   UNL A   1      40.382  22.907  26.646  1.00  0.00     0.016 A 
ATOM     32  C   UNL A   1      41.985  22.427  28.395  1.00  0.00     0.016 A 
ATOM     33  C   UNL A   1      40.451  24.273  26.946  1.00  0.00     0.010 A 
ATOM     34  C   UNL A   1      42.018  23.785  28.723  1.00  0.00     0.010 A 
ATOM     35  C   UNL A   1      41.281  24.727  27.979  1.00  0.00    -0.014 A 
BRANCH  35  36
ATOM     36  C   UNL A   1      41.588  26.174  28.163  1.00  0.00     0.031 A 
ATOM     37  C   UNL A   1      42.934  26.662  27.684  1.00  0.00     0.074 A 
ATOM     38  C   UNL A   1      40.741  27.036  28.758  1.00  0.00     0.049 A 
ATOM     39  N   UNL A   1      43.545  27.792  27.911  1.00  0.00    -0.248 NA
ATOM     40  C   UNL A   1      43.712  25.706  26.880  1.00  0.00     0.031 C 
ATOM     41  C   UNL A   1      39.400  26.717  29.247  1.00  0.00     0.029 A 
ATOM     42  N   UNL A   1      40.897  28.367  29.065  1.00  0.00    -0.354 N 
ATOM     43  C   UNL A   1      44.802  27.661  27.327  1.00  0.00     0.074 A 
ATOM     44  C   UNL A   1      44.880  26.318  26.793  1.00  0.00     0.031 C 
ATOM     45  C   UNL A   1      38.855  27.824  29.785  1.00  0.00     0.029 A 
ATOM     46  C   UNL A   1      39.823  28.919  29.728  1.00  0.00     0.049 A 
ATOM     47  H   UNL A   1      41.705  28.880  28.833  1.00  0.00     0.167 HD
ATOM     48  C   UNL A   1      45.794  28.578  27.222  1.00  0.00     0.034 A 
ATOM     49  C   UNL A   1      39.654  30.155  30.247  1.00  0.00     0.034 A 
ATOM     50  C   UNL A   1      45.684  29.930  27.701  1.00  0.00     0.049 A 
ATOM     51  C   UNL A   1      40.777  31.164  30.133  1.00  0.00     0.074 A 
ATOM     52  C   UNL A   1      46.609  30.954  27.617  1.00  0.00     0.029 A 
ATOM     53  N   UNL A   1      44.569  30.452  28.343  1.00  0.00    -0.354 N 
ATOM     54  N   UNL A   1      41.968  31.021  29.595  1.00  0.00    -0.248 NA
ATOM     55  C   UNL A   1      40.534  32.502  30.694  1.00  0.00     0.031 C 
ATOM     56  C   UNL A   1      46.076  32.080  28.253  1.00  0.00     0.029 A 
ATOM     57  C   UNL A   1      44.788  31.779  28.669  1.00  0.00     0.049 A 
ATOM     58  H   UNL A   1      43.743  29.951  28.539  1.00  0.00     0.167 HD
ATOM     59  C   UNL A   1      42.592  32.264  29.714  1.00  0.00     0.074 A 
ATOM     60  C   UNL A   1      41.651  33.141  30.376  1.00  0.00     0.031 C 
ATOM     61  C   UNL A   1      43.827  32.646  29.306  1.00  0.00     0.034 A 
BRANCH  48  62
ATOM     62  C   UNL A   1      47.087  28.123  26.590  1.00  0.00     0.023 A 
ATOM     63  C   UNL A   1      47.305  28.213  25.204  1.00  0.00     0.031 A 
ATOM     64  C   UNL A   1      48.088  27.526  27.377  1.00  0.00     0.131 A 
ATOM     65  C   UNL A   1      48.440  27.619  24.636  1.00  0.00     0.055 A 
ATOM     66  C   UNL A   1      49.265  27.028  26.815  1.00  0.00     0.041 A 
ATOM     67  F   UNL A   1      47.928  27.392  28.702  1.00  0.00    -0.206 F 
ATOM     68  C   UNL A   1      49.437  27.053  25.433  1.00  0.00     0.022 A 
BRANCH  65  69
ATOM     69  S   UNL A   1      48.503  27.439  22.833  1.00  0.00     0.124 S 
ATOM     70  O   UNL A   1      49.789  28.061  22.522  1.00  0.00    -0.237 OA
ATOM     71  O   UNL A   1      48.433  25.993  22.656  1.00  0.00    -0.237 OA
ATOM     72  O   UNL A   1      47.331  28.184  22.373  1.00  0.00    -0.744 OA
ENDBRANCH  65  69
ENDBRANCH  48  62
BRANCH  49  73
ATOM     73  C   UNL A   1      38.392  30.522  30.955  1.00  0.00     0.023 A 
ATOM     74  C   UNL A   1      37.383  31.253  30.306  1.00  0.00     0.031 A 
ATOM     75  C   UNL A   1      38.207  30.215  32.315  1.00  0.00     0.131 A 
ATOM     76  C   UNL A   1      36.262  31.698  31.026  1.00  0.00     0.055 A 
ATOM     77  C   UNL A   1      37.066  30.614  33.014  1.00  0.00     0.041 A 
ATOM     78  F   UNL A   1      39.139  29.519  32.985  1.00  0.00    -0.206 F 
ATOM     79  C   UNL A   1      36.092  31.373  32.373  1.00  0.00     0.022 A 
BRANCH  76  80
ATOM     80  S   UNL A   1      35.072  32.789  30.198  1.00  0.00     0.124 S 
ATOM     81  O   UNL A   1      34.552  31.917  29.150  1.00  0.00    -0.237 OA
ATOM     82  O   UNL A   1      34.150  33.110  31.283  1.00  0.00    -0.237 OA
ATOM     83  O   UNL A   1      35.897  33.902  29.733  1.00  0.00    -0.744 OA
ENDBRANCH  76  80
ENDBRANCH  49  73
BRANCH  61  84
ATOM     84  C   UNL A   1      44.205  34.097  29.475  1.00  0.00     0.023 A 
ATOM     85  C   UNL A   1      43.761  35.095  28.592  1.00  0.00     0.031 A 
ATOM     86  C   UNL A   1      44.993  34.485  30.575  1.00  0.00     0.131 A 
ATOM     87  C   UNL A   1      44.134  36.431  28.807  1.00  0.00     0.055 A 
ATOM     88  C   UNL A   1      45.320  35.820  30.811  1.00  0.00     0.041 A 
ATOM     89  F   UNL A   1      45.439  33.570  31.450  1.00  0.00    -0.206 F 
ATOM     90  C   UNL A   1      44.896  36.801  29.920  1.00  0.00     0.022 A 
BRANCH  87  91
ATOM     91  S   UNL A   1      43.651  37.683  27.587  1.00  0.00     0.124 S 
ATOM     92  O   UNL A   1      44.944  38.215  27.169  1.00  0.00    -0.237 OA
ATOM     93  O   UNL A   1      42.936  36.890  26.592  1.00  0.00    -0.237 OA
ATOM     94  O   UNL A   1      42.818  38.608  28.353  1.00  0.00    -0.744 OA
ENDBRANCH  87  91
ENDBRANCH  61  84
ENDBRANCH  35  36
ENDBRANCH  28  30
ENDBRANCH  27  28
ENDBRANCH  26  27
ENDBRANCH  25  26
ENDBRANCH   1  25
TORSDOF 21
ENDMDL
MODEL 3
REMARK VINA RESULT:     -10.8      1.818      7.911
REMARK SMILES CC[C@]1(C(=O)OCCOCCOC(=O)c2ccc(-c3c4nc(c(-c5cc(S(=O)(=O)[O-])ccc5F)c5ccc([nH]5)c(-c5cc(S(=O)(=O)[O-])ccc5F)c5nc(c(-c6cc(S(=O)(=O)[O-])ccc6F)c6ccc3[nH]6)C=C5)C=C4)cc2)CC[N@@H+](Cc2nc(C)ccc2O)C1
REMARK SMILES IDX 9 1 8 2 7 3 6 4 4 5 5 6 3 7 78 8 90 9 79 10 80 11 2 13 1 14
REMARK SMILES IDX 81 15 82 16 83 17 88 18 84 19 87 20 85 21 86 22 89 23 10 25
REMARK SMILES IDX 11 26 12 27 13 28 14 29 15 30 16 31 77 32 17 33 76 34 18 35
REMARK SMILES IDX 19 36 20 37 70 38 21 39 75 40 69 41 71 42 22 43 74 44 68 45
REMARK SMILES IDX 67 46 23 48 55 49 35 50 54 51 36 52 39 53 53 54 72 55 37 56
REMARK SMILES IDX 38 57 52 59 73 60 40 61 24 62 25 63 33 64 26 65 32 66 34 67
REMARK SMILES IDX 31 68 27 69 28 70 29 71 30 72 56 73 57 74 65 75 58 76 64 77
REMARK SMILES IDX 66 78 63 79 59 80 60 81 61 82 62 83 41 84 42 85 50 86 43 87
REMARK SMILES IDX 49 88 51 89 48 90 44 91 45 92 46 93 47 94
REMARK H PARENT 80 12 89 24 71 47 39 58
REMARK Flexibility Score: inf
ROOT
ATOM      1  O   UNL A   1      38.124  20.994  24.926  1.00  0.00    -0.374 OA
ENDROOT
BRANCH   1   2
ATOM      2  C   UNL A   1      36.804  21.501  24.703  1.00  0.00     0.202 C 
BRANCH   2   3
ATOM      3  C   UNL A   1      36.404  22.576  25.711  1.00  0.00     0.261 C 
BRANCH   3   4
ATOM      4  O   UNL A   1      34.988  22.484  25.935  1.00  0.00    -0.463 OA
BRANCH   4   5
ATOM      5  C   UNL A   1      34.215  23.218  25.105  1.00  0.00     0.318 C 
ATOM      6  O   UNL A   1      34.622  24.184  24.465  1.00  0.00    -0.251 OA
BRANCH   5   7
ATOM      7  C   UNL A   1      32.774  22.720  25.022  1.00  0.00     0.122 C 
ATOM      8  C   UNL A   1      32.034  22.355  26.315  1.00  0.00     0.086 C 
ATOM      9  C   UNL A   1      31.951  23.918  24.497  1.00  0.00     0.281 C 
ATOM     10  C   UNL A   1      30.586  22.717  25.999  1.00  0.00     0.264 C 
ATOM     11  N   UNL A   1      30.659  23.947  25.205  1.00  0.00    -0.329 N 
ATOM     12  H   UNL A   1      29.888  23.975  24.538  1.00  0.00     0.348 HD
BRANCH   7  13
ATOM     13  C   UNL A   1      32.745  21.509  24.049  1.00  0.00     0.021 C 
ATOM     14  C   UNL A   1      32.182  21.836  22.663  1.00  0.00     0.005 C 
ENDBRANCH   7  13
BRANCH  11  15
ATOM     15  C   UNL A   1      30.450  25.190  26.002  1.00  0.00     0.323 C 
BRANCH  15  16
ATOM     16  C   UNL A   1      30.360  26.501  25.239  1.00  0.00     0.136 A 
ATOM     17  N   UNL A   1      31.243  27.469  25.630  1.00  0.00    -0.248 NA
ATOM     18  C   UNL A   1      29.555  26.641  24.109  1.00  0.00     0.142 A 
ATOM     19  C   UNL A   1      31.388  28.557  24.850  1.00  0.00     0.038 A 
ATOM     20  C   UNL A   1      29.723  27.761  23.309  1.00  0.00     0.050 A 
ATOM     21  C   UNL A   1      32.350  29.617  25.292  1.00  0.00     0.067 C 
ATOM     22  C   UNL A   1      30.662  28.717  23.683  1.00  0.00     0.027 A 
BRANCH  18  23
ATOM     23  O   UNL A   1      28.666  25.672  23.753  1.00  0.00    -0.506 OA
ATOM     24  H   UNL A   1      27.811  25.907  23.450  1.00  0.00     0.293 HD
ENDBRANCH  18  23
ENDBRANCH  15  16
ENDBRANCH  11  15
ENDBRANCH   5   7
ENDBRANCH   4   5
ENDBRANCH   3   4
ENDBRANCH   2   3
ENDBRANCH   1   2
BRANCH   1  25
ATOM     25  C   UNL A   1      38.224  19.576  25.066  1.00  0.00     0.202 C 
BRANCH  25  26
ATOM     26  C   UNL A   1      39.477  19.100  25.806  1.00  0.00     0.261 C 
BRANCH  26  27
ATOM     27  O   UNL A   1      40.483  20.125  25.889  1.00  0.00    -0.460 OA
BRANCH  27  28
ATOM     28  C   UNL A   1      41.065  20.280  27.106  1.00  0.00     0.338 C 
ATOM     29  O   UNL A   1      41.547  19.412  27.811  1.00  0.00    -0.246 OA
BRANCH  28  30
ATOM     30  C   UNL A   1      41.189  21.727  27.376  1.00  0.00     0.060 A 
ATOM     31  C   UNL A   1      40.471  22.637  26.591  1.00  0.00     0.016 A 
ATOM     32  C   UNL A   1      42.000  22.185  28.413  1.00  0.00     0.016 A 
ATOM     33  C   UNL A   1      40.563  24.011  26.843  1.00  0.00     0.010 A 
ATOM     34  C   UNL A   1      42.055  23.552  28.692  1.00  0.00     0.010 A 
ATOM     35  C   UNL A   1      41.367  24.483  27.889  1.00  0.00    -0.014 A 
BRANCH  35  36
ATOM     36  C   UNL A   1      41.703  25.929  28.031  1.00  0.00     0.031 A 
ATOM     37  C   UNL A   1      43.019  26.393  27.456  1.00  0.00     0.074 A 
ATOM     38  C   UNL A   1      40.908  26.810  28.670  1.00  0.00     0.049 A 
ATOM     39  N   UNL A   1      43.658  27.519  27.626  1.00  0.00    -0.248 NA
ATOM     40  C   UNL A   1      43.730  25.417  26.615  1.00  0.00     0.031 C 
ATOM     41  C   UNL A   1      39.599  26.514  29.252  1.00  0.00     0.029 A 
ATOM     42  N   UNL A   1      41.101  28.142  28.948  1.00  0.00    -0.354 N 
ATOM     43  C   UNL A   1      44.871  27.364  26.961  1.00  0.00     0.074 A 
ATOM     44  C   UNL A   1      44.896  26.013  26.441  1.00  0.00     0.031 C 
ATOM     45  C   UNL A   1      39.106  27.635  29.810  1.00  0.00     0.029 A 
ATOM     46  C   UNL A   1      40.080  28.716  29.673  1.00  0.00     0.049 A 
ATOM     47  H   UNL A   1      41.898  28.642  28.655  1.00  0.00     0.167 HD
ATOM     48  C   UNL A   1      45.865  28.266  26.777  1.00  0.00     0.034 A 
ATOM     49  C   UNL A   1      39.962  29.961  30.185  1.00  0.00     0.034 A 
ATOM     50  C   UNL A   1      45.803  29.626  27.244  1.00  0.00     0.049 A 
ATOM     51  C   UNL A   1      41.086  30.954  29.982  1.00  0.00     0.074 A 
ATOM     52  C   UNL A   1      46.733  30.636  27.084  1.00  0.00     0.029 A 
ATOM     53  N   UNL A   1      44.740  30.170  27.952  1.00  0.00    -0.354 N 
ATOM     54  N   UNL A   1      42.236  30.789  29.368  1.00  0.00    -0.248 NA
ATOM     55  C   UNL A   1      40.897  32.303  30.539  1.00  0.00     0.031 C 
ATOM     56  C   UNL A   1      46.257  31.777  27.738  1.00  0.00     0.029 A 
ATOM     57  C   UNL A   1      44.997  31.499  28.244  1.00  0.00     0.049 A 
ATOM     58  H   UNL A   1      43.924  29.683  28.209  1.00  0.00     0.167 HD
ATOM     59  C   UNL A   1      42.881  32.025  29.427  1.00  0.00     0.074 A 
ATOM     60  C   UNL A   1      41.997  32.923  30.138  1.00  0.00     0.031 C 
ATOM     61  C   UNL A   1      44.091  32.387  28.932  1.00  0.00     0.034 A 
BRANCH  48  62
ATOM     62  C   UNL A   1      47.107  27.787  26.066  1.00  0.00     0.023 A 
ATOM     63  C   UNL A   1      47.339  28.072  24.709  1.00  0.00     0.031 A 
ATOM     64  C   UNL A   1      48.036  26.972  26.737  1.00  0.00     0.131 A 
ATOM     65  C   UNL A   1      48.410  27.463  24.041  1.00  0.00     0.055 A 
ATOM     66  C   UNL A   1      49.158  26.451  26.089  1.00  0.00     0.041 A 
ATOM     67  F   UNL A   1      47.856  26.647  28.025  1.00  0.00    -0.206 F 
ATOM     68  C   UNL A   1      49.339  26.678  24.727  1.00  0.00     0.022 A 
BRANCH  65  69
ATOM     69  S   UNL A   1      48.462  27.565  22.232  1.00  0.00     0.124 S 
ATOM     70  O   UNL A   1      48.663  26.164  21.866  1.00  0.00    -0.237 OA
ATOM     71  O   UNL A   1      47.158  28.130  21.908  1.00  0.00    -0.237 OA
ATOM     72  O   UNL A   1      49.605  28.439  21.972  1.00  0.00    -0.744 OA
ENDBRANCH  65  69
ENDBRANCH  48  62
BRANCH  49  73
ATOM     73  C   UNL A   1      38.754  30.353  30.971  1.00  0.00     0.023 A 
ATOM     74  C   UNL A   1      37.669  31.001  30.358  1.00  0.00     0.031 A 
ATOM     75  C   UNL A   1      38.699  30.157  32.363  1.00  0.00     0.131 A 
ATOM     76  C   UNL A   1      36.601  31.476  31.137  1.00  0.00     0.055 A 
ATOM     77  C   UNL A   1      37.610  30.584  33.127  1.00  0.00     0.041 A 
ATOM     78  F   UNL A   1      39.708  29.545  33.001  1.00  0.00    -0.206 F 
ATOM     79  C   UNL A   1      36.560  31.261  32.516  1.00  0.00     0.022 A 
BRANCH  76  80
ATOM     80  S   UNL A   1      35.307  32.462  30.333  1.00  0.00     0.124 S 
ATOM     81  O   UNL A   1      34.298  32.538  31.383  1.00  0.00    -0.237 OA
ATOM     82  O   UNL A   1      36.016  33.702  30.031  1.00  0.00    -0.237 OA
ATOM     83  O   UNL A   1      34.940  31.657  29.169  1.00  0.00    -0.744 OA
ENDBRANCH  76  80
ENDBRANCH  49  73
BRANCH  61  84
ATOM     84  C   UNL A   1      44.496  33.834  29.055  1.00  0.00     0.023 A 
ATOM     85  C   UNL A   1      45.256  34.311  30.136  1.00  0.00     0.031 A 
ATOM     86  C   UNL A   1      44.146  34.741  28.038  1.00  0.00     0.131 A 
ATOM     87  C   UNL A   1      45.615  35.667  30.190  1.00  0.00     0.055 A 
ATOM     88  C   UNL A   1      44.547  36.077  28.073  1.00  0.00     0.041 A 
ATOM     89  F   UNL A   1      43.424  34.335  26.981  1.00  0.00    -0.206 F 
ATOM     90  C   UNL A   1      45.279  36.548  29.158  1.00  0.00     0.022 A 
BRANCH  87  91
ATOM     91  S   UNL A   1      46.489  36.284  31.655  1.00  0.00     0.124 S 
ATOM     92  O   UNL A   1      45.635  37.390  32.075  1.00  0.00    -0.237 OA
ATOM     93  O   UNL A   1      46.496  35.116  32.530  1.00  0.00    -0.237 OA
ATOM     94  O   UNL A   1      47.799  36.674  31.136  1.00  0.00    -0.744 OA
ENDBRANCH  87  91
ENDBRANCH  61  84
ENDBRANCH  35  36
ENDBRANCH  28  30
ENDBRANCH  27  28
ENDBRANCH  26  27
ENDBRANCH  25  26
ENDBRANCH   1  25
TORSDOF 21
ENDMDL
