MODEL 1
REMARK VINA RESULT:     -12.9      0.000      0.000
REMARK SMILES C[C@]12C(=O)N(c3ccc(C(=O)OCCOCCOC(=O)c4ccc(-c5c6nc(c(-c7cc(S(=O)(=O)[O-])ccc7F)c7ccc([nH]7)c(-c7cc(S(=O)(=O)[O-])ccc7F)c7nc(c(-c8cc(S(=O)(=O)[O-])ccc8F)c8ccc5[nH]8)C=C7)C=C6)cc4)cc3)C(=O)[C@H]1[C@H]1c3ccccc3[C@@H]2c2ccccc21
REMARK SMILES IDX 16 1 15 2 14 3 13 4 12 5 10 6 11 7 9 8 6 9 7 10 85 11 8 12
REMARK SMILES IDX 84 13 5 14 1 15 2 16 3 17 88 18 96 19 4 20 86 21 89 22 95 23
REMARK SMILES IDX 97 24 87 25 90 26 102 27 94 28 98 29 91 30 101 31 93 32
REMARK SMILES IDX 99 33 92 34 100 35 17 36 18 37 19 38 20 39 21 40 22 41 83 42
REMARK SMILES IDX 23 43 82 44 24 45 25 46 26 47 76 48 27 49 81 50 75 51 77 52
REMARK SMILES IDX 28 53 80 54 74 55 73 56 29 58 61 59 41 60 60 61 42 62 45 63
REMARK SMILES IDX 59 64 78 65 43 66 44 67 58 69 79 70 46 71 30 72 31 73 39 74
REMARK SMILES IDX 32 75 38 76 40 77 37 78 33 79 34 80 35 81 36 82 62 83 63 84
REMARK SMILES IDX 71 85 64 86 70 87 72 88 69 89 65 90 66 91 67 92 68 93 47 94
REMARK SMILES IDX 48 95 56 96 49 97 55 98 57 99 54 100 50 101 51 102 52 103
REMARK SMILES IDX 53 104
REMARK H PARENT 77 57 45 68
REMARK Flexibility Score: inf
ROOT
ATOM      1  C   UNL A   1      39.903  20.034  26.056  1.00  0.00     0.202 C 
ENDROOT
BRANCH   1   2
ATOM      2  O   UNL A   1      40.126  21.443  26.075  1.00  0.00    -0.374 OA
BRANCH   2   3
ATOM      3  C   UNL A   1      38.984  22.284  26.276  1.00  0.00     0.202 C 
BRANCH   3   4
ATOM      4  C   UNL A   1      37.858  22.120  25.251  1.00  0.00     0.261 C 
BRANCH   4   5
ATOM      5  O   UNL A   1      37.366  23.409  24.836  1.00  0.00    -0.460 OA
BRANCH   5   6
ATOM      6  C   UNL A   1      36.489  23.373  23.808  1.00  0.00     0.338 C 
ATOM      7  O   UNL A   1      36.645  22.865  22.710  1.00  0.00    -0.246 OA
BRANCH   6   8
ATOM      8  C   UNL A   1      35.170  23.823  24.282  1.00  0.00     0.060 A 
ATOM      9  C   UNL A   1      32.608  24.862  24.822  1.00  0.00     0.052 A 
ATOM     10  C   UNL A   1      32.801  23.855  23.856  1.00  0.00     0.028 A 
ATOM     11  C   UNL A   1      33.718  25.260  25.584  1.00  0.00     0.028 A 
ATOM     12  C   UNL A   1      34.068  23.365  23.563  1.00  0.00     0.018 A 
ATOM     13  C   UNL A   1      34.997  24.730  25.327  1.00  0.00     0.018 A 
BRANCH   9  14
ATOM     14  N   UNL A   1      31.384  25.584  24.817  1.00  0.00    -0.250 N 
ATOM     15  C   UNL A   1      28.407  26.833  23.876  1.00  0.00     0.024 C 
ATOM     16  C   UNL A   1      29.930  27.068  23.835  1.00  0.00     0.071 C 
ATOM     17  C   UNL A   1      30.589  25.727  23.729  1.00  0.00     0.241 C 
ATOM     18  C   UNL A   1      30.395  27.736  25.210  1.00  0.00     0.107 C 
ATOM     19  C   UNL A   1      30.406  27.850  22.558  1.00  0.00     0.066 C 
ATOM     20  O   UNL A   1      30.379  24.943  22.813  1.00  0.00    -0.273 OA
ATOM     21  C   UNL A   1      30.882  26.378  25.812  1.00  0.00     0.238 C 
ATOM     22  C   UNL A   1      30.888  29.194  24.745  1.00  0.00     0.063 C 
ATOM     23  C   UNL A   1      31.897  28.157  22.751  1.00  0.00    -0.036 A 
ATOM     24  C   UNL A   1      29.674  29.173  22.600  1.00  0.00    -0.036 A 
ATOM     25  O   UNL A   1      30.808  26.112  27.006  1.00  0.00    -0.274 OA
ATOM     26  C   UNL A   1      32.159  28.922  23.915  1.00  0.00    -0.036 A 
ATOM     27  C   UNL A   1      29.891  29.881  23.805  1.00  0.00    -0.036 A 
ATOM     28  C   UNL A   1      32.944  27.678  21.978  1.00  0.00     0.005 A 
ATOM     29  C   UNL A   1      28.905  29.702  21.572  1.00  0.00     0.005 A 
ATOM     30  C   UNL A   1      33.460  29.200  24.315  1.00  0.00     0.004 A 
ATOM     31  C   UNL A   1      29.335  31.140  23.971  1.00  0.00     0.004 A 
ATOM     32  C   UNL A   1      34.254  27.950  22.386  1.00  0.00     0.000 A 
ATOM     33  C   UNL A   1      28.347  30.966  21.748  1.00  0.00     0.000 A 
ATOM     34  C   UNL A   1      34.509  28.704  23.542  1.00  0.00     0.000 A 
ATOM     35  C   UNL A   1      28.560  31.678  22.937  1.00  0.00     0.000 A 
ENDBRANCH   9  14
ENDBRANCH   6   8
ENDBRANCH   5   6
ENDBRANCH   4   5
ENDBRANCH   3   4
ENDBRANCH   2   3
ENDBRANCH   1   2
BRANCH   1  36
ATOM     36  C   UNL A   1      41.135  19.144  26.255  1.00  0.00     0.261 C 
BRANCH  36  37
ATOM     37  O   UNL A   1      42.030  19.203  25.134  1.00  0.00    -0.460 OA
BRANCH  37  38
ATOM     38  C   UNL A   1      43.318  19.500  25.442  1.00  0.00     0.338 C 
ATOM     39  O   UNL A   1      44.280  18.755  25.346  1.00  0.00    -0.246 OA
BRANCH  38  40
ATOM     40  C   UNL A   1      43.439  20.942  25.751  1.00  0.00     0.060 A 
ATOM     41  C   UNL A   1      43.538  21.415  27.063  1.00  0.00     0.016 A 
ATOM     42  C   UNL A   1      43.465  21.840  24.676  1.00  0.00     0.016 A 
ATOM     43  C   UNL A   1      43.690  22.785  27.291  1.00  0.00     0.010 A 
ATOM     44  C   UNL A   1      43.620  23.209  24.906  1.00  0.00     0.010 A 
ATOM     45  C   UNL A   1      43.748  23.690  26.215  1.00  0.00    -0.014 A 
BRANCH  45  46
ATOM     46  C   UNL A   1      44.077  25.116  26.464  1.00  0.00     0.031 A 
ATOM     47  C   UNL A   1      43.063  26.075  27.009  1.00  0.00     0.074 A 
ATOM     48  C   UNL A   1      45.325  25.540  26.184  1.00  0.00     0.049 A 
ATOM     49  N   UNL A   1      43.241  27.301  27.428  1.00  0.00    -0.248 NA
ATOM     50  C   UNL A   1      41.672  25.607  27.087  1.00  0.00     0.031 C 
ATOM     51  C   UNL A   1      46.370  24.707  25.589  1.00  0.00     0.029 A 
ATOM     52  N   UNL A   1      45.929  26.757  26.369  1.00  0.00    -0.354 N 
ATOM     53  C   UNL A   1      41.995  27.744  27.852  1.00  0.00     0.074 A 
ATOM     54  C   UNL A   1      41.056  26.676  27.579  1.00  0.00     0.031 C 
ATOM     55  C   UNL A   1      47.498  25.426  25.492  1.00  0.00     0.029 A 
ATOM     56  C   UNL A   1      47.256  26.773  26.006  1.00  0.00     0.049 A 
ATOM     57  H   UNL A   1      45.459  27.544  26.728  1.00  0.00     0.167 HD
ATOM     58  C   UNL A   1      41.675  28.925  28.438  1.00  0.00     0.034 A 
ATOM     59  C   UNL A   1      48.182  27.748  26.101  1.00  0.00     0.034 A 
ATOM     60  C   UNL A   1      42.621  29.988  28.673  1.00  0.00     0.049 A 
ATOM     61  C   UNL A   1      47.804  29.050  26.759  1.00  0.00     0.074 A 
ATOM     62  C   UNL A   1      42.400  31.209  29.285  1.00  0.00     0.029 A 
ATOM     63  N   UNL A   1      43.959  29.965  28.304  1.00  0.00    -0.354 N 
ATOM     64  N   UNL A   1      46.652  29.408  27.277  1.00  0.00    -0.248 NA
ATOM     65  C   UNL A   1      48.854  30.071  26.876  1.00  0.00     0.031 C 
ATOM     66  C   UNL A   1      43.585  31.946  29.235  1.00  0.00     0.029 A 
ATOM     67  C   UNL A   1      44.568  31.159  28.658  1.00  0.00     0.049 A 
ATOM     68  H   UNL A   1      44.409  29.213  27.857  1.00  0.00     0.167 HD
ATOM     69  C   UNL A   1      46.849  30.678  27.813  1.00  0.00     0.074 A 
ATOM     70  C   UNL A   1      48.236  31.017  27.574  1.00  0.00     0.031 C 
ATOM     71  C   UNL A   1      45.960  31.484  28.446  1.00  0.00     0.034 A 
BRANCH  58  72
ATOM     72  C   UNL A   1      40.257  29.134  28.912  1.00  0.00     0.023 A 
ATOM     73  C   UNL A   1      39.935  29.019  30.276  1.00  0.00     0.031 A 
ATOM     74  C   UNL A   1      39.206  29.302  27.992  1.00  0.00     0.131 A 
ATOM     75  C   UNL A   1      38.593  29.038  30.678  1.00  0.00     0.055 A 
ATOM     76  C   UNL A   1      37.873  29.358  28.402  1.00  0.00     0.041 A 
ATOM     77  F   UNL A   1      39.461  29.413  26.678  1.00  0.00    -0.206 F 
ATOM     78  C   UNL A   1      37.561  29.213  29.749  1.00  0.00     0.022 A 
BRANCH  75  79
ATOM     79  S   UNL A   1      38.125  28.773  32.411  1.00  0.00     0.124 S 
ATOM     80  O   UNL A   1      38.206  27.318  32.523  1.00  0.00    -0.237 OA
ATOM     81  O   UNL A   1      39.162  29.512  33.125  1.00  0.00    -0.237 OA
ATOM     82  O   UNL A   1      36.779  29.328  32.500  1.00  0.00    -0.744 OA
ENDBRANCH  75  79
ENDBRANCH  58  72
BRANCH  59  83
ATOM     83  C   UNL A   1      49.579  27.464  25.663  1.00  0.00     0.023 A 
ATOM     84  C   UNL A   1      49.980  27.673  24.331  1.00  0.00     0.031 A 
ATOM     85  C   UNL A   1      50.498  26.871  26.545  1.00  0.00     0.131 A 
ATOM     86  C   UNL A   1      51.244  27.239  23.908  1.00  0.00     0.055 A 
ATOM     87  C   UNL A   1      51.781  26.501  26.136  1.00  0.00     0.041 A 
ATOM     88  F   UNL A   1      50.155  26.633  27.820  1.00  0.00    -0.206 F 
ATOM     89  C   UNL A   1      52.153  26.671  24.806  1.00  0.00     0.022 A 
BRANCH  86  90
ATOM     90  S   UNL A   1      51.702  27.277  22.153  1.00  0.00     0.124 S 
ATOM     91  O   UNL A   1      50.455  26.881  21.505  1.00  0.00    -0.237 OA
ATOM     92  O   UNL A   1      52.089  28.674  21.975  1.00  0.00    -0.237 OA
ATOM     93  O   UNL A   1      52.795  26.314  22.062  1.00  0.00    -0.744 OA
ENDBRANCH  86  90
ENDBRANCH  59  83
BRANCH  71  94
ATOM     94  C   UNL A   1      46.434  32.823  28.963  1.00  0.00     0.023 A 
ATOM     95  C   UNL A   1      46.437  33.943  28.107  1.00  0.00     0.031 A 
ATOM     96  C   UNL A   1      47.016  32.959  30.234  1.00  0.00     0.131 A 
ATOM     97  C   UNL A   1      47.042  35.136  28.521  1.00  0.00     0.055 A 
ATOM     98  C   UNL A   1      47.576  34.165  30.660  1.00  0.00     0.041 A 
ATOM     99  F   UNL A   1      47.052  31.919  31.083  1.00  0.00    -0.206 F 
ATOM    100  C   UNL A   1      47.604  35.256  29.797  1.00  0.00     0.022 A 
BRANCH  97 101
ATOM    101  S   UNL A   1      47.206  36.546  27.390  1.00  0.00     0.124 S 
ATOM    102  O   UNL A   1      48.610  36.457  26.998  1.00  0.00    -0.237 OA
ATOM    103  O   UNL A   1      46.244  36.215  26.342  1.00  0.00    -0.237 OA
ATOM    104  O   UNL A   1      46.862  37.701  28.214  1.00  0.00    -0.744 OA
ENDBRANCH  97 101
ENDBRANCH  71  94
ENDBRANCH  45  46
ENDBRANCH  38  40
ENDBRANCH  37  38
ENDBRANCH  36  37
ENDBRANCH   1  36
TORSDOF 18
ENDMDL
MODEL 2
REMARK VINA RESULT:     -12.7      6.097     10.740
REMARK SMILES C[C@]12C(=O)N(c3ccc(C(=O)OCCOCCOC(=O)c4ccc(-c5c6nc(c(-c7cc(S(=O)(=O)[O-])ccc7F)c7ccc([nH]7)c(-c7cc(S(=O)(=O)[O-])ccc7F)c7nc(c(-c8cc(S(=O)(=O)[O-])ccc8F)c8ccc5[nH]8)C=C7)C=C6)cc4)cc3)C(=O)[C@H]1[C@H]1c3ccccc3[C@@H]2c2ccccc21
REMARK SMILES IDX 16 1 15 2 14 3 13 4 12 5 10 6 11 7 9 8 6 9 7 10 85 11 8 12
REMARK SMILES IDX 84 13 5 14 1 15 2 16 3 17 88 18 96 19 4 20 86 21 89 22 95 23
REMARK SMILES IDX 97 24 87 25 90 26 102 27 94 28 98 29 91 30 101 31 93 32
REMARK SMILES IDX 99 33 92 34 100 35 17 36 18 37 19 38 20 39 21 40 22 41 83 42
REMARK SMILES IDX 23 43 82 44 24 45 25 46 26 47 76 48 27 49 81 50 75 51 77 52
REMARK SMILES IDX 28 53 80 54 74 55 73 56 29 58 61 59 41 60 60 61 42 62 45 63
REMARK SMILES IDX 59 64 78 65 43 66 44 67 58 69 79 70 46 71 30 72 31 73 39 74
REMARK SMILES IDX 32 75 38 76 40 77 37 78 33 79 34 80 35 81 36 82 62 83 63 84
REMARK SMILES IDX 71 85 64 86 70 87 72 88 69 89 65 90 66 91 67 92 68 93 47 94
REMARK SMILES IDX 48 95 56 96 49 97 55 98 57 99 54 100 50 101 51 102 52 103
REMARK SMILES IDX 53 104
REMARK H PARENT 77 57 45 68
REMARK Flexibility Score: inf
ROOT
ATOM      1  C   UNL A   1      34.056  35.060  28.285  1.00  0.00     0.202 C 
ENDROOT
BRANCH   1   2
ATOM      2  O   UNL A   1      33.718  33.694  28.049  1.00  0.00    -0.374 OA
BRANCH   2   3
ATOM      3  C   UNL A   1      34.799  32.760  27.949  1.00  0.00     0.202 C 
BRANCH   3   4
ATOM      4  C   UNL A   1      34.449  31.309  28.292  1.00  0.00     0.261 C 
BRANCH   4   5
ATOM      5  O   UNL A   1      34.208  30.554  27.089  1.00  0.00    -0.460 OA
BRANCH   5   6
ATOM      6  C   UNL A   1      34.837  29.359  27.038  1.00  0.00     0.338 C 
ATOM      7  O   UNL A   1      35.881  29.040  27.583  1.00  0.00    -0.246 OA
BRANCH   6   8
ATOM      8  C   UNL A   1      33.941  28.366  26.423  1.00  0.00     0.060 A 
ATOM      9  C   UNL A   1      32.268  26.257  25.594  1.00  0.00     0.052 A 
ATOM     10  C   UNL A   1      31.890  27.124  26.638  1.00  0.00     0.028 A 
ATOM     11  C   UNL A   1      33.460  26.539  24.907  1.00  0.00     0.028 A 
ATOM     12  C   UNL A   1      32.729  28.144  27.072  1.00  0.00     0.018 A 
ATOM     13  C   UNL A   1      34.290  27.604  25.309  1.00  0.00     0.018 A 
BRANCH   9  14
ATOM     14  N   UNL A   1      31.571  25.027  25.445  1.00  0.00    -0.250 N 
ATOM     15  C   UNL A   1      30.178  22.037  26.096  1.00  0.00     0.024 C 
ATOM     16  C   UNL A   1      31.469  22.739  25.632  1.00  0.00     0.071 C 
ATOM     17  C   UNL A   1      31.565  24.038  26.371  1.00  0.00     0.241 C 
ATOM     18  C   UNL A   1      31.355  23.069  24.072  1.00  0.00     0.107 C 
ATOM     19  C   UNL A   1      32.777  21.960  26.020  1.00  0.00     0.066 C 
ATOM     20  O   UNL A   1      31.600  24.118  27.592  1.00  0.00    -0.273 OA
ATOM     21  C   UNL A   1      30.944  24.556  24.323  1.00  0.00     0.238 C 
ATOM     22  C   UNL A   1      32.494  22.134  23.429  1.00  0.00     0.063 C 
ATOM     23  C   UNL A   1      33.947  22.683  25.341  1.00  0.00    -0.036 A 
ATOM     24  C   UNL A   1      32.650  20.606  25.357  1.00  0.00    -0.036 A 
ATOM     25  O   UNL A   1      30.174  25.170  23.592  1.00  0.00    -0.274 OA
ATOM     26  C   UNL A   1      33.819  22.744  23.931  1.00  0.00    -0.036 A 
ATOM     27  C   UNL A   1      32.445  20.698  23.961  1.00  0.00    -0.036 A 
ATOM     28  C   UNL A   1      34.995  23.333  25.976  1.00  0.00     0.005 A 
ATOM     29  C   UNL A   1      32.770  19.380  25.997  1.00  0.00     0.005 A 
ATOM     30  C   UNL A   1      34.723  23.458  23.156  1.00  0.00     0.004 A 
ATOM     31  C   UNL A   1      32.370  19.540  23.200  1.00  0.00     0.004 A 
ATOM     32  C   UNL A   1      35.900  24.060  25.197  1.00  0.00     0.000 A 
ATOM     33  C   UNL A   1      32.690  18.222  25.228  1.00  0.00     0.000 A 
ATOM     34  C   UNL A   1      35.766  24.121  23.802  1.00  0.00     0.000 A 
ATOM     35  C   UNL A   1      32.491  18.302  23.842  1.00  0.00     0.000 A 
ENDBRANCH   9  14
ENDBRANCH   6   8
ENDBRANCH   5   6
ENDBRANCH   4   5
ENDBRANCH   3   4
ENDBRANCH   2   3
ENDBRANCH   1   2
BRANCH   1  36
ATOM     36  C   UNL A   1      33.216  35.801  29.332  1.00  0.00     0.261 C 
BRANCH  36  37
ATOM     37  O   UNL A   1      32.555  34.896  30.231  1.00  0.00    -0.460 OA
BRANCH  37  38
ATOM     38  C   UNL A   1      32.869  35.056  31.542  1.00  0.00     0.338 C 
ATOM     39  O   UNL A   1      32.123  35.440  32.428  1.00  0.00    -0.246 OA
BRANCH  38  40
ATOM     40  C   UNL A   1      34.225  34.521  31.801  1.00  0.00     0.060 A 
ATOM     41  C   UNL A   1      35.293  35.348  32.162  1.00  0.00     0.016 A 
ATOM     42  C   UNL A   1      34.414  33.138  31.684  1.00  0.00     0.016 A 
ATOM     43  C   UNL A   1      36.541  34.780  32.433  1.00  0.00     0.010 A 
ATOM     44  C   UNL A   1      35.661  32.573  31.958  1.00  0.00     0.010 A 
ATOM     45  C   UNL A   1      36.731  33.388  32.348  1.00  0.00    -0.014 A 
BRANCH  45  46
ATOM     46  C   UNL A   1      38.010  32.787  32.800  1.00  0.00     0.031 A 
ATOM     47  C   UNL A   1      38.636  33.160  34.109  1.00  0.00     0.074 A 
ATOM     48  C   UNL A   1      38.611  31.888  31.996  1.00  0.00     0.049 A 
ATOM     49  N   UNL A   1      39.658  32.610  34.712  1.00  0.00    -0.248 NA
ATOM     50  C   UNL A   1      38.051  34.298  34.832  1.00  0.00     0.031 C 
ATOM     51  C   UNL A   1      38.123  31.502  30.672  1.00  0.00     0.029 A 
ATOM     52  N   UNL A   1      39.741  31.131  32.172  1.00  0.00    -0.354 N 
ATOM     53  C   UNL A   1      39.822  33.310  35.901  1.00  0.00     0.074 A 
ATOM     54  C   UNL A   1      38.832  34.366  35.904  1.00  0.00     0.031 C 
ATOM     55  C   UNL A   1      38.927  30.553  30.171  1.00  0.00     0.029 A 
ATOM     56  C   UNL A   1      39.994  30.270  31.129  1.00  0.00     0.049 A 
ATOM     57  H   UNL A   1      40.316  31.196  32.969  1.00  0.00     0.167 HD
ATOM     58  C   UNL A   1      40.701  33.070  36.904  1.00  0.00     0.034 A 
ATOM     59  C   UNL A   1      40.955  29.339  30.971  1.00  0.00     0.034 A 
ATOM     60  C   UNL A   1      41.700  32.030  36.868  1.00  0.00     0.049 A 
ATOM     61  C   UNL A   1      41.920  29.088  32.103  1.00  0.00     0.074 A 
ATOM     62  C   UNL A   1      42.618  31.690  37.846  1.00  0.00     0.029 A 
ATOM     63  N   UNL A   1      41.920  31.168  35.801  1.00  0.00    -0.354 N 
ATOM     64  N   UNL A   1      41.980  29.669  33.279  1.00  0.00    -0.248 NA
ATOM     65  C   UNL A   1      42.928  28.038  31.903  1.00  0.00     0.031 C 
ATOM     66  C   UNL A   1      43.428  30.666  37.352  1.00  0.00     0.029 A 
ATOM     67  C   UNL A   1      42.971  30.313  36.092  1.00  0.00     0.049 A 
ATOM     68  H   UNL A   1      41.405  31.165  34.962  1.00  0.00     0.167 HD
ATOM     69  C   UNL A   1      43.005  29.030  33.971  1.00  0.00     0.074 A 
ATOM     70  C   UNL A   1      43.524  28.005  33.089  1.00  0.00     0.031 C 
ATOM     71  C   UNL A   1      43.469  29.272  35.223  1.00  0.00     0.034 A 
BRANCH  58  72
ATOM     72  C   UNL A   1      40.614  33.910  38.156  1.00  0.00     0.023 A 
ATOM     73  C   UNL A   1      39.681  33.599  39.162  1.00  0.00     0.031 A 
ATOM     74  C   UNL A   1      41.354  35.100  38.280  1.00  0.00     0.131 A 
ATOM     75  C   UNL A   1      39.488  34.485  40.230  1.00  0.00     0.055 A 
ATOM     76  C   UNL A   1      41.185  35.961  39.365  1.00  0.00     0.041 A 
ATOM     77  F   UNL A   1      42.254  35.444  37.345  1.00  0.00    -0.206 F 
ATOM     78  C   UNL A   1      40.239  35.661  40.339  1.00  0.00     0.022 A 
BRANCH  75  79
ATOM     79  S   UNL A   1      38.213  34.184  41.485  1.00  0.00     0.124 S 
ATOM     80  O   UNL A   1      37.323  33.257  40.790  1.00  0.00    -0.237 OA
ATOM     81  O   UNL A   1      38.989  33.602  42.576  1.00  0.00    -0.237 OA
ATOM     82  O   UNL A   1      37.654  35.506  41.742  1.00  0.00    -0.744 OA
ENDBRANCH  75  79
ENDBRANCH  58  72
BRANCH  59  83
ATOM     83  C   UNL A   1      40.959  28.505  29.734  1.00  0.00     0.023 A 
ATOM     84  C   UNL A   1      41.863  28.762  28.687  1.00  0.00     0.031 A 
ATOM     85  C   UNL A   1      39.983  27.514  29.538  1.00  0.00     0.131 A 
ATOM     86  C   UNL A   1      41.732  28.077  27.472  1.00  0.00     0.055 A 
ATOM     87  C   UNL A   1      39.899  26.787  28.349  1.00  0.00     0.041 A 
ATOM     88  F   UNL A   1      39.086  27.248  30.500  1.00  0.00    -0.206 F 
ATOM     89  C   UNL A   1      40.767  27.079  27.303  1.00  0.00     0.022 A 
BRANCH  86  90
ATOM     90  S   UNL A   1      42.723  28.548  26.027  1.00  0.00     0.124 S 
ATOM     91  O   UNL A   1      43.644  27.420  25.910  1.00  0.00    -0.237 OA
ATOM     92  O   UNL A   1      41.705  28.642  24.984  1.00  0.00    -0.237 OA
ATOM     93  O   UNL A   1      43.326  29.817  26.422  1.00  0.00    -0.744 OA
ENDBRANCH  86  90
ENDBRANCH  59  83
BRANCH  71  94
ATOM     94  C   UNL A   1      44.590  28.412  35.761  1.00  0.00     0.023 A 
ATOM     95  C   UNL A   1      44.341  27.520  36.823  1.00  0.00     0.031 A 
ATOM     96  C   UNL A   1      45.918  28.580  35.334  1.00  0.00     0.131 A 
ATOM     97  C   UNL A   1      45.407  26.859  37.445  1.00  0.00     0.055 A 
ATOM     98  C   UNL A   1      46.972  27.882  35.926  1.00  0.00     0.041 A 
ATOM     99  F   UNL A   1      46.212  29.429  34.336  1.00  0.00    -0.206 F 
ATOM    100  C   UNL A   1      46.721  27.028  36.996  1.00  0.00     0.022 A 
BRANCH  97 101
ATOM    101  S   UNL A   1      45.143  25.828  38.915  1.00  0.00     0.124 S 
ATOM    102  O   UNL A   1      45.156  24.482  38.346  1.00  0.00    -0.237 OA
ATOM    103  O   UNL A   1      46.299  26.166  39.741  1.00  0.00    -0.237 OA
ATOM    104  O   UNL A   1      43.853  26.273  39.431  1.00  0.00    -0.744 OA
ENDBRANCH  97 101
ENDBRANCH  71  94
ENDBRANCH  45  46
ENDBRANCH  38  40
ENDBRANCH  37  38
ENDBRANCH  36  37
ENDBRANCH   1  36
TORSDOF 18
ENDMDL
MODEL 3
REMARK VINA RESULT:     -12.6      5.083      7.954
REMARK SMILES C[C@]12C(=O)N(c3ccc(C(=O)OCCOCCOC(=O)c4ccc(-c5c6nc(c(-c7cc(S(=O)(=O)[O-])ccc7F)c7ccc([nH]7)c(-c7cc(S(=O)(=O)[O-])ccc7F)c7nc(c(-c8cc(S(=O)(=O)[O-])ccc8F)c8ccc5[nH]8)C=C7)C=C6)cc4)cc3)C(=O)[C@H]1[C@H]1c3ccccc3[C@@H]2c2ccccc21
REMARK SMILES IDX 16 1 15 2 14 3 13 4 12 5 10 6 11 7 9 8 6 9 7 10 85 11 8 12
REMARK SMILES IDX 84 13 5 14 1 15 2 16 3 17 88 18 96 19 4 20 86 21 89 22 95 23
REMARK SMILES IDX 97 24 87 25 90 26 102 27 94 28 98 29 91 30 101 31 93 32
REMARK SMILES IDX 99 33 92 34 100 35 17 36 18 37 19 38 20 39 21 40 22 41 83 42
REMARK SMILES IDX 23 43 82 44 24 45 25 46 26 47 76 48 27 49 81 50 75 51 77 52
REMARK SMILES IDX 28 53 80 54 74 55 73 56 29 58 61 59 41 60 60 61 42 62 45 63
REMARK SMILES IDX 59 64 78 65 43 66 44 67 58 69 79 70 46 71 30 72 31 73 39 74
REMARK SMILES IDX 32 75 38 76 40 77 37 78 33 79 34 80 35 81 36 82 62 83 63 84
REMARK SMILES IDX 71 85 64 86 70 87 72 88 69 89 65 90 66 91 67 92 68 93 47 94
REMARK SMILES IDX 48 95 56 96 49 97 55 98 57 99 54 100 50 101 51 102 52 103
REMARK SMILES IDX 53 104
REMARK H PARENT 77 57 45 68
REMARK Flexibility Score: inf
ROOT
ATOM      1  C   UNL A   1      41.872  20.602  26.204  1.00  0.00     0.202 C 
ENDROOT
BRANCH   1   2
ATOM      2  O   UNL A   1      40.727  21.216  26.794  1.00  0.00    -0.374 OA
BRANCH   2   3
ATOM      3  C   UNL A   1      39.526  21.249  26.015  1.00  0.00     0.202 C 
BRANCH   3   4
ATOM      4  C   UNL A   1      38.683  22.518  26.159  1.00  0.00     0.261 C 
BRANCH   4   5
ATOM      5  O   UNL A   1      37.786  22.655  25.040  1.00  0.00    -0.460 OA
BRANCH   5   6
ATOM      6  C   UNL A   1      36.552  22.141  25.240  1.00  0.00     0.338 C 
ATOM      7  O   UNL A   1      36.255  21.129  25.853  1.00  0.00    -0.246 OA
BRANCH   6   8
ATOM      8  C   UNL A   1      35.543  23.128  24.823  1.00  0.00     0.060 A 
ATOM      9  C   UNL A   1      33.881  25.127  23.740  1.00  0.00     0.052 A 
ATOM     10  C   UNL A   1      34.197  23.964  23.011  1.00  0.00     0.028 A 
ATOM     11  C   UNL A   1      34.334  25.213  25.066  1.00  0.00     0.028 A 
ATOM     12  C   UNL A   1      35.045  22.992  23.530  1.00  0.00     0.018 A 
ATOM     13  C   UNL A   1      35.152  24.207  25.616  1.00  0.00     0.018 A 
BRANCH   9  14
ATOM     14  N   UNL A   1      33.338  26.240  23.043  1.00  0.00    -0.250 N 
ATOM     15  C   UNL A   1      32.641  29.387  22.083  1.00  0.00     0.024 C 
ATOM     16  C   UNL A   1      32.209  28.242  23.020  1.00  0.00     0.071 C 
ATOM     17  C   UNL A   1      33.450  27.526  23.456  1.00  0.00     0.241 C 
ATOM     18  C   UNL A   1      31.307  27.207  22.203  1.00  0.00     0.107 C 
ATOM     19  C   UNL A   1      31.547  28.743  24.353  1.00  0.00     0.066 C 
ATOM     20  O   UNL A   1      34.371  28.072  24.050  1.00  0.00    -0.273 OA
ATOM     21  C   UNL A   1      32.494  26.218  21.966  1.00  0.00     0.238 C 
ATOM     22  C   UNL A   1      29.871  27.355  22.910  1.00  0.00     0.063 C 
ATOM     23  C   UNL A   1      31.018  27.503  25.085  1.00  0.00    -0.036 A 
ATOM     24  C   UNL A   1      30.342  29.551  23.925  1.00  0.00    -0.036 A 
ATOM     25  O   UNL A   1      32.607  25.540  20.950  1.00  0.00    -0.274 OA
ATOM     26  C   UNL A   1      30.076  26.769  24.322  1.00  0.00    -0.036 A 
ATOM     27  C   UNL A   1      29.457  28.819  23.100  1.00  0.00    -0.036 A 
ATOM     28  C   UNL A   1      31.449  27.024  26.313  1.00  0.00     0.005 A 
ATOM     29  C   UNL A   1      30.063  30.854  24.317  1.00  0.00     0.005 A 
ATOM     30  C   UNL A   1      29.574  25.556  24.773  1.00  0.00     0.004 A 
ATOM     31  C   UNL A   1      28.274  29.402  22.674  1.00  0.00     0.004 A 
ATOM     32  C   UNL A   1      30.950  25.797  26.763  1.00  0.00     0.000 A 
ATOM     33  C   UNL A   1      28.875  31.435  23.882  1.00  0.00     0.000 A 
ATOM     34  C   UNL A   1      30.022  25.072  26.001  1.00  0.00     0.000 A 
ATOM     35  C   UNL A   1      27.988  30.715  23.067  1.00  0.00     0.000 A 
ENDBRANCH   9  14
ENDBRANCH   6   8
ENDBRANCH   5   6
ENDBRANCH   4   5
ENDBRANCH   3   4
ENDBRANCH   2   3
ENDBRANCH   1   2
BRANCH   1  36
ATOM     36  C   UNL A   1      42.968  21.545  25.697  1.00  0.00     0.261 C 
BRANCH  36  37
ATOM     37  O   UNL A   1      42.437  22.811  25.274  1.00  0.00    -0.460 OA
BRANCH  37  38
ATOM     38  C   UNL A   1      43.334  23.829  25.242  1.00  0.00     0.338 C 
ATOM     39  O   UNL A   1      44.143  24.061  24.358  1.00  0.00    -0.246 OA
BRANCH  38  40
ATOM     40  C   UNL A   1      43.080  24.755  26.369  1.00  0.00     0.060 A 
ATOM     41  C   UNL A   1      43.698  26.005  26.457  1.00  0.00     0.016 A 
ATOM     42  C   UNL A   1      42.176  24.346  27.358  1.00  0.00     0.016 A 
ATOM     43  C   UNL A   1      43.388  26.853  27.524  1.00  0.00     0.010 A 
ATOM     44  C   UNL A   1      41.865  25.196  28.421  1.00  0.00     0.010 A 
ATOM     45  C   UNL A   1      42.459  26.462  28.505  1.00  0.00    -0.014 A 
BRANCH  45  46
ATOM     46  C   UNL A   1      42.015  27.435  29.534  1.00  0.00     0.031 A 
ATOM     47  C   UNL A   1      40.807  28.299  29.332  1.00  0.00     0.074 A 
ATOM     48  C   UNL A   1      42.732  27.533  30.670  1.00  0.00     0.049 A 
ATOM     49  N   UNL A   1      40.205  29.076  30.195  1.00  0.00    -0.248 NA
ATOM     50  C   UNL A   1      40.202  28.302  27.992  1.00  0.00     0.031 C 
ATOM     51  C   UNL A   1      43.961  26.787  30.942  1.00  0.00     0.029 A 
ATOM     52  N   UNL A   1      42.532  28.277  31.805  1.00  0.00    -0.354 N 
ATOM     53  C   UNL A   1      39.129  29.636  29.518  1.00  0.00     0.074 A 
ATOM     54  C   UNL A   1      39.200  29.158  28.153  1.00  0.00     0.031 C 
ATOM     55  C   UNL A   1      44.386  27.084  32.179  1.00  0.00     0.029 A 
ATOM     56  C   UNL A   1      43.469  28.047  32.785  1.00  0.00     0.049 A 
ATOM     57  H   UNL A   1      41.789  28.915  31.908  1.00  0.00     0.167 HD
ATOM     58  C   UNL A   1      38.161  30.452  30.003  1.00  0.00     0.034 A 
ATOM     59  C   UNL A   1      43.567  28.532  34.039  1.00  0.00     0.034 A 
ATOM     60  C   UNL A   1      38.127  30.939  31.360  1.00  0.00     0.049 A 
ATOM     61  C   UNL A   1      42.476  29.435  34.558  1.00  0.00     0.074 A 
ATOM     62  C   UNL A   1      37.173  31.747  31.956  1.00  0.00     0.029 A 
ATOM     63  N   UNL A   1      39.085  30.677  32.331  1.00  0.00    -0.354 N 
ATOM     64  N   UNL A   1      41.391  29.852  33.948  1.00  0.00    -0.248 NA
ATOM     65  C   UNL A   1      42.602  29.909  35.943  1.00  0.00     0.031 C 
ATOM     66  C   UNL A   1      37.582  32.019  33.263  1.00  0.00     0.029 A 
ATOM     67  C   UNL A   1      38.753  31.323  33.511  1.00  0.00     0.049 A 
ATOM     68  H   UNL A   1      39.881  30.114  32.199  1.00  0.00     0.167 HD
ATOM     69  C   UNL A   1      40.688  30.604  34.885  1.00  0.00     0.074 A 
ATOM     70  C   UNL A   1      41.461  30.569  36.108  1.00  0.00     0.031 C 
ATOM     71  C   UNL A   1      39.510  31.262  34.740  1.00  0.00     0.034 A 
BRANCH  58  72
ATOM     72  C   UNL A   1      37.026  30.846  29.091  1.00  0.00     0.023 A 
ATOM     73  C   UNL A   1      36.584  32.181  29.034  1.00  0.00     0.031 A 
ATOM     74  C   UNL A   1      36.290  29.873  28.390  1.00  0.00     0.131 A 
ATOM     75  C   UNL A   1      35.420  32.499  28.322  1.00  0.00     0.055 A 
ATOM     76  C   UNL A   1      35.153  30.201  27.652  1.00  0.00     0.041 A 
ATOM     77  F   UNL A   1      36.668  28.584  28.416  1.00  0.00    -0.206 F 
ATOM     78  C   UNL A   1      34.706  31.517  27.627  1.00  0.00     0.022 A 
BRANCH  75  79
ATOM     79  S   UNL A   1      34.747  34.184  28.321  1.00  0.00     0.124 S 
ATOM     80  O   UNL A   1      33.381  33.961  28.790  1.00  0.00    -0.237 OA
ATOM     81  O   UNL A   1      35.627  34.865  29.268  1.00  0.00    -0.237 OA
ATOM     82  O   UNL A   1      34.865  34.609  26.932  1.00  0.00    -0.744 OA
ENDBRANCH  75  79
ENDBRANCH  58  72
BRANCH  59  83
ATOM     83  C   UNL A   1      44.683  28.064  34.911  1.00  0.00     0.023 A 
ATOM     84  C   UNL A   1      44.450  27.174  35.975  1.00  0.00     0.031 A 
ATOM     85  C   UNL A   1      45.976  28.593  34.762  1.00  0.00     0.131 A 
ATOM     86  C   UNL A   1      45.481  26.886  36.880  1.00  0.00     0.055 A 
ATOM     87  C   UNL A   1      47.017  28.251  35.627  1.00  0.00     0.041 A 
ATOM     88  F   UNL A   1      46.241  29.463  33.774  1.00  0.00    -0.206 F 
ATOM     89  C   UNL A   1      46.767  27.405  36.702  1.00  0.00     0.022 A 
BRANCH  86  90
ATOM     90  S   UNL A   1      45.155  25.934  38.389  1.00  0.00     0.124 S 
ATOM     91  O   UNL A   1      46.246  26.363  39.260  1.00  0.00    -0.237 OA
ATOM     92  O   UNL A   1      43.826  26.409  38.762  1.00  0.00    -0.237 OA
ATOM     93  O   UNL A   1      45.215  24.546  37.941  1.00  0.00    -0.744 OA
ENDBRANCH  86  90
ENDBRANCH  59  83
BRANCH  71  94
ATOM     94  C   UNL A   1      38.938  31.997  35.931  1.00  0.00     0.023 A 
ATOM     95  C   UNL A   1      38.274  31.279  36.945  1.00  0.00     0.031 A 
ATOM     96  C   UNL A   1      38.915  33.401  35.988  1.00  0.00     0.131 A 
ATOM     97  C   UNL A   1      37.586  31.966  37.952  1.00  0.00     0.055 A 
ATOM     98  C   UNL A   1      38.267  34.082  37.021  1.00  0.00     0.041 A 
ATOM     99  F   UNL A   1      39.519  34.134  35.040  1.00  0.00    -0.206 F 
ATOM    100  C   UNL A   1      37.587  33.365  38.001  1.00  0.00     0.022 A 
BRANCH  97 101
ATOM    101  S   UNL A   1      36.589  31.079  39.181  1.00  0.00     0.124 S 
ATOM    102  O   UNL A   1      36.345  29.805  38.510  1.00  0.00    -0.237 OA
ATOM    103  O   UNL A   1      37.494  31.016  40.326  1.00  0.00    -0.237 OA
ATOM    104  O   UNL A   1      35.413  31.924  39.359  1.00  0.00    -0.744 OA
ENDBRANCH  97 101
ENDBRANCH  71  94
ENDBRANCH  45  46
ENDBRANCH  38  40
ENDBRANCH  37  38
ENDBRANCH  36  37
ENDBRANCH   1  36
TORSDOF 18
ENDMDL
