MODEL 1
REMARK VINA RESULT:     -11.7      0.000      0.000
REMARK SMILES O=C(OCCOCCOC(=O)c1cc(Br)n(Cc2ccn(C3CCCC3)n2)c1)c1ccc(-c2c3nc(c(-c4cc(S(=O)(=O)[O-])ccc4F)c4ccc([nH]4)c(-c4cc(S(=O)(=O)[O-])ccc4F)c4nc(c(-c5cc(S(=O)(=O)[O-])ccc5F)c5ccc2[nH]5)C=C4)C=C3)cc1
REMARK SMILES IDX 6 1 5 2 4 3 3 4 2 5 1 6 29 7 30 8 91 9 31 10 90 11 32 12
REMARK SMILES IDX 33 13 34 14 84 15 35 16 89 17 83 18 85 19 36 20 88 21 82 22
REMARK SMILES IDX 81 23 37 25 69 26 49 27 68 28 50 29 53 30 67 31 86 32 51 33
REMARK SMILES IDX 52 34 66 36 87 37 54 38 38 39 39 40 47 41 40 42 46 43 48 44
REMARK SMILES IDX 45 45 41 46 42 47 43 48 44 49 70 50 71 51 79 52 72 53 78 54
REMARK SMILES IDX 80 55 77 56 73 57 74 58 75 59 76 60 55 61 56 62 64 63 57 64
REMARK SMILES IDX 63 65 65 66 62 67 58 68 59 69 60 70 61 71 7 72 8 73 9 74
REMARK SMILES IDX 10 75 11 76 12 77 13 78 28 79 14 80 16 81 15 82 17 83 18 84
REMARK SMILES IDX 19 85 27 86 20 87 21 88 22 89 23 90 26 91 24 92 25 93
REMARK H PARENT 85 24 53 35
REMARK Flexibility Score: inf
ROOT
ATOM      1  O   UNL A   1      33.094  30.478  27.478  1.00  0.00    -0.374 OA
ENDROOT
BRANCH   1   2
ATOM      2  C   UNL A   1      33.926  31.615  27.704  1.00  0.00     0.202 C 
BRANCH   2   3
ATOM      3  C   UNL A   1      34.993  31.494  28.790  1.00  0.00     0.261 C 
BRANCH   3   4
ATOM      4  O   UNL A   1      35.717  30.252  28.717  1.00  0.00    -0.460 OA
BRANCH   4   5
ATOM      5  C   UNL A   1      36.461  29.711  29.707  1.00  0.00     0.338 C 
ATOM      6  O   UNL A   1      36.002  29.630  30.845  1.00  0.00    -0.246 OA
BRANCH   5   7
ATOM      7  C   UNL A   1      37.714  28.990  29.382  1.00  0.00     0.060 A 
ATOM      8  C   UNL A   1      38.363  28.076  30.209  1.00  0.00     0.016 A 
ATOM      9  C   UNL A   1      38.312  29.360  28.168  1.00  0.00     0.016 A 
ATOM     10  C   UNL A   1      39.693  27.779  29.986  1.00  0.00     0.010 A 
ATOM     11  C   UNL A   1      39.616  28.998  27.894  1.00  0.00     0.010 A 
ATOM     12  C   UNL A   1      40.329  28.300  28.858  1.00  0.00    -0.014 A 
BRANCH  12  13
ATOM     13  C   UNL A   1      41.721  27.942  28.639  1.00  0.00     0.031 A 
ATOM     14  C   UNL A   1      41.879  26.616  27.983  1.00  0.00     0.074 A 
ATOM     15  C   UNL A   1      42.737  28.786  28.907  1.00  0.00     0.049 A 
ATOM     16  N   UNL A   1      42.453  25.559  28.455  1.00  0.00    -0.248 NA
ATOM     17  C   UNL A   1      41.138  26.378  26.730  1.00  0.00     0.031 C 
ATOM     18  C   UNL A   1      42.665  30.185  29.337  1.00  0.00     0.029 A 
ATOM     19  N   UNL A   1      44.074  28.594  28.754  1.00  0.00    -0.354 N 
ATOM     20  C   UNL A   1      42.354  24.597  27.456  1.00  0.00     0.074 A 
ATOM     21  C   UNL A   1      41.378  25.084  26.520  1.00  0.00     0.031 C 
ATOM     22  C   UNL A   1      43.872  30.772  29.161  1.00  0.00     0.029 A 
ATOM     23  C   UNL A   1      44.831  29.762  28.741  1.00  0.00     0.049 A 
ATOM     24  H   UNL A   1      44.475  27.700  28.660  1.00  0.00     0.167 HD
ATOM     25  C   UNL A   1      43.266  23.593  27.355  1.00  0.00     0.034 A 
ATOM     26  C   UNL A   1      46.130  29.895  28.349  1.00  0.00     0.034 A 
ATOM     27  C   UNL A   1      43.944  23.382  28.613  1.00  0.00     0.049 A 
ATOM     28  C   UNL A   1      46.734  28.539  28.432  1.00  0.00     0.074 A 
ATOM     29  C   UNL A   1      43.513  23.046  29.882  1.00  0.00     0.029 A 
ATOM     30  N   UNL A   1      45.196  23.929  28.782  1.00  0.00    -0.354 N 
ATOM     31  N   UNL A   1      46.889  27.899  29.559  1.00  0.00    -0.248 NA
ATOM     32  C   UNL A   1      46.671  27.693  27.247  1.00  0.00     0.031 C 
ATOM     33  C   UNL A   1      44.273  23.878  30.757  1.00  0.00     0.029 A 
ATOM     34  C   UNL A   1      45.193  24.594  29.988  1.00  0.00     0.049 A 
ATOM     35  H   UNL A   1      45.953  23.858  28.157  1.00  0.00     0.167 HD
ATOM     36  C   UNL A   1      46.501  26.594  29.290  1.00  0.00     0.074 A 
ATOM     37  C   UNL A   1      46.453  26.510  27.829  1.00  0.00     0.031 C 
ATOM     38  C   UNL A   1      45.970  25.791  30.260  1.00  0.00     0.034 A 
BRANCH  25  39
ATOM     39  C   UNL A   1      43.787  23.066  26.038  1.00  0.00     0.023 A 
ATOM     40  C   UNL A   1      43.747  21.677  25.821  1.00  0.00     0.031 A 
ATOM     41  C   UNL A   1      44.569  23.809  25.119  1.00  0.00     0.131 A 
ATOM     42  C   UNL A   1      44.512  21.084  24.800  1.00  0.00     0.055 A 
ATOM     43  C   UNL A   1      45.275  23.222  24.067  1.00  0.00     0.041 A 
ATOM     44  F   UNL A   1      44.778  25.124  25.240  1.00  0.00    -0.206 F 
ATOM     45  C   UNL A   1      45.273  21.848  23.920  1.00  0.00     0.022 A 
BRANCH  42  46
ATOM     46  S   UNL A   1      44.635  19.278  24.748  1.00  0.00     0.124 S 
ATOM     47  O   UNL A   1      44.567  19.019  23.314  1.00  0.00    -0.237 OA
ATOM     48  O   UNL A   1      45.927  19.046  25.384  1.00  0.00    -0.237 OA
ATOM     49  O   UNL A   1      43.474  18.837  25.519  1.00  0.00    -0.744 OA
ENDBRANCH  42  46
ENDBRANCH  25  39
BRANCH  26  50
ATOM     50  C   UNL A   1      46.717  31.014  27.548  1.00  0.00     0.023 A 
ATOM     51  C   UNL A   1      45.946  32.045  26.961  1.00  0.00     0.031 A 
ATOM     52  C   UNL A   1      48.119  31.209  27.556  1.00  0.00     0.131 A 
ATOM     53  C   UNL A   1      46.579  33.192  26.414  1.00  0.00     0.055 A 
ATOM     54  C   UNL A   1      48.735  32.341  27.017  1.00  0.00     0.041 A 
ATOM     55  F   UNL A   1      48.938  30.340  28.168  1.00  0.00    -0.206 F 
ATOM     56  C   UNL A   1      47.967  33.342  26.451  1.00  0.00     0.022 A 
BRANCH  53  57
ATOM     57  S   UNL A   1      45.599  34.560  25.705  1.00  0.00     0.124 S 
ATOM     58  O   UNL A   1      46.535  35.677  25.763  1.00  0.00    -0.237 OA
ATOM     59  O   UNL A   1      45.270  34.057  24.376  1.00  0.00    -0.237 OA
ATOM     60  O   UNL A   1      44.456  34.671  26.614  1.00  0.00    -0.744 OA
ENDBRANCH  53  57
ENDBRANCH  26  50
BRANCH  38  61
ATOM     61  C   UNL A   1      46.024  26.266  31.705  1.00  0.00     0.023 A 
ATOM     62  C   UNL A   1      44.959  26.884  32.406  1.00  0.00     0.031 A 
ATOM     63  C   UNL A   1      47.186  25.961  32.435  1.00  0.00     0.131 A 
ATOM     64  C   UNL A   1      45.094  27.179  33.781  1.00  0.00     0.055 A 
ATOM     65  C   UNL A   1      47.306  26.232  33.797  1.00  0.00     0.041 A 
ATOM     66  F   UNL A   1      48.225  25.352  31.838  1.00  0.00    -0.206 F 
ATOM     67  C   UNL A   1      46.262  26.849  34.475  1.00  0.00     0.022 A 
BRANCH  64  68
ATOM     68  S   UNL A   1      43.759  28.021  34.699  1.00  0.00     0.124 S 
ATOM     69  O   UNL A   1      43.665  29.322  34.047  1.00  0.00    -0.237 OA
ATOM     70  O   UNL A   1      42.625  27.123  34.505  1.00  0.00    -0.237 OA
ATOM     71  O   UNL A   1      44.268  28.065  36.072  1.00  0.00    -0.744 OA
ENDBRANCH  64  68
ENDBRANCH  38  61
ENDBRANCH  12  13
ENDBRANCH   5   7
ENDBRANCH   4   5
ENDBRANCH   3   4
ENDBRANCH   2   3
ENDBRANCH   1   2
BRANCH   1  72
ATOM     72  C   UNL A   1      31.989  30.667  26.585  1.00  0.00     0.202 C 
BRANCH  72  73
ATOM     73  C   UNL A   1      31.825  29.685  25.418  1.00  0.00     0.261 C 
BRANCH  73  74
ATOM     74  O   UNL A   1      32.751  28.586  25.496  1.00  0.00    -0.460 OA
BRANCH  74  75
ATOM     75  C   UNL A   1      32.442  27.525  24.697  1.00  0.00     0.339 C 
ATOM     76  O   UNL A   1      32.294  27.578  23.488  1.00  0.00    -0.246 OA
BRANCH  75  77
ATOM     77  C   UNL A   1      32.416  26.269  25.434  1.00  0.00     0.078 A 
ATOM     78  C   UNL A   1      31.372  25.735  26.228  1.00  0.00     0.051 A 
ATOM     79  C   UNL A   1      33.421  25.312  25.412  1.00  0.00     0.102 A 
ATOM     80  C   UNL A   1      31.665  24.400  26.408  1.00  0.00     0.086 A 
ATOM     81  N   UNL A   1      32.991  24.195  26.105  1.00  0.00    -0.335 N 
ATOM     82  Br  UNL A   1      30.328  23.152  26.798  1.00  0.00    -0.031 Br
BRANCH  81  83
ATOM     83  C   UNL A   1      33.767  22.948  26.168  1.00  0.00     0.180 C 
BRANCH  83  84
ATOM     84  C   UNL A   1      33.281  21.830  25.286  1.00  0.00     0.082 A 
ATOM     85  C   UNL A   1      32.633  21.909  24.029  1.00  0.00     0.047 A 
ATOM     86  N   UNL A   1      33.566  20.544  25.583  1.00  0.00    -0.176 NA
ATOM     87  C   UNL A   1      32.520  20.622  23.577  1.00  0.00     0.109 A 
ATOM     88  N   UNL A   1      33.071  19.835  24.543  1.00  0.00    -0.269 N 
BRANCH  88  89
ATOM     89  C   UNL A   1      33.159  18.395  24.468  1.00  0.00     0.107 C 
ATOM     90  C   UNL A   1      34.560  17.820  24.289  1.00  0.00     0.027 C 
ATOM     91  C   UNL A   1      32.635  17.648  25.689  1.00  0.00     0.027 C 
ATOM     92  C   UNL A   1      34.342  16.329  24.527  1.00  0.00     0.002 C 
ATOM     93  C   UNL A   1      33.182  16.231  25.523  1.00  0.00     0.002 C 
ENDBRANCH  88  89
ENDBRANCH  83  84
ENDBRANCH  81  83
ENDBRANCH  75  77
ENDBRANCH  74  75
ENDBRANCH  73  74
ENDBRANCH  72  73
ENDBRANCH   1  72
TORSDOF 20
ENDMDL
MODEL 2
REMARK VINA RESULT:     -11.5      2.765      7.725
REMARK SMILES O=C(OCCOCCOC(=O)c1cc(Br)n(Cc2ccn(C3CCCC3)n2)c1)c1ccc(-c2c3nc(c(-c4cc(S(=O)(=O)[O-])ccc4F)c4ccc([nH]4)c(-c4cc(S(=O)(=O)[O-])ccc4F)c4nc(c(-c5cc(S(=O)(=O)[O-])ccc5F)c5ccc2[nH]5)C=C4)C=C3)cc1
REMARK SMILES IDX 6 1 5 2 4 3 3 4 2 5 1 6 29 7 30 8 91 9 31 10 90 11 32 12
REMARK SMILES IDX 33 13 34 14 84 15 35 16 89 17 83 18 85 19 36 20 88 21 82 22
REMARK SMILES IDX 81 23 37 25 69 26 49 27 68 28 50 29 53 30 67 31 86 32 51 33
REMARK SMILES IDX 52 34 66 36 87 37 54 38 38 39 39 40 47 41 40 42 46 43 48 44
REMARK SMILES IDX 45 45 41 46 42 47 43 48 44 49 70 50 71 51 79 52 72 53 78 54
REMARK SMILES IDX 80 55 77 56 73 57 74 58 75 59 76 60 55 61 56 62 64 63 57 64
REMARK SMILES IDX 63 65 65 66 62 67 58 68 59 69 60 70 61 71 7 72 8 73 9 74
REMARK SMILES IDX 10 75 11 76 12 77 13 78 28 79 14 80 16 81 15 82 17 83 18 84
REMARK SMILES IDX 19 85 27 86 20 87 21 88 22 89 23 90 26 91 24 92 25 93
REMARK H PARENT 85 24 53 35
REMARK Flexibility Score: inf
ROOT
ATOM      1  O   UNL A   1      40.633  19.128  25.727  1.00  0.00    -0.374 OA
ENDROOT
BRANCH   1   2
ATOM      2  C   UNL A   1      41.716  19.964  26.135  1.00  0.00     0.202 C 
BRANCH   2   3
ATOM      3  C   UNL A   1      43.125  19.389  26.011  1.00  0.00     0.261 C 
BRANCH   3   4
ATOM      4  O   UNL A   1      43.615  19.414  24.658  1.00  0.00    -0.460 OA
BRANCH   4   5
ATOM      5  C   UNL A   1      44.481  20.318  24.148  1.00  0.00     0.338 C 
ATOM      6  O   UNL A   1      44.915  20.175  23.007  1.00  0.00    -0.246 OA
BRANCH   5   7
ATOM      7  C   UNL A   1      44.711  21.602  24.851  1.00  0.00     0.060 A 
ATOM      8  C   UNL A   1      45.653  21.822  25.853  1.00  0.00     0.016 A 
ATOM      9  C   UNL A   1      43.816  22.629  24.512  1.00  0.00     0.016 A 
ATOM     10  C   UNL A   1      45.511  22.908  26.695  1.00  0.00     0.010 A 
ATOM     11  C   UNL A   1      43.723  23.760  25.299  1.00  0.00     0.010 A 
ATOM     12  C   UNL A   1      44.500  23.837  26.448  1.00  0.00    -0.014 A 
BRANCH  12  13
ATOM     13  C   UNL A   1      44.399  24.983  27.336  1.00  0.00     0.031 A 
ATOM     14  C   UNL A   1      45.614  25.840  27.312  1.00  0.00     0.074 A 
ATOM     15  C   UNL A   1      43.272  25.276  28.014  1.00  0.00     0.049 A 
ATOM     16  N   UNL A   1      46.427  26.095  28.284  1.00  0.00    -0.248 NA
ATOM     17  C   UNL A   1      46.093  26.314  26.001  1.00  0.00     0.031 C 
ATOM     18  C   UNL A   1      41.962  24.624  27.924  1.00  0.00     0.029 A 
ATOM     19  N   UNL A   1      43.030  26.304  28.872  1.00  0.00    -0.354 N 
ATOM     20  C   UNL A   1      47.384  26.957  27.761  1.00  0.00     0.074 A 
ATOM     21  C   UNL A   1      47.246  26.895  26.331  1.00  0.00     0.031 C 
ATOM     22  C   UNL A   1      41.024  25.420  28.490  1.00  0.00     0.029 A 
ATOM     23  C   UNL A   1      41.682  26.564  29.101  1.00  0.00     0.049 A 
ATOM     24  H   UNL A   1      43.751  26.822  29.296  1.00  0.00     0.167 HD
ATOM     25  C   UNL A   1      48.047  27.838  28.557  1.00  0.00     0.034 A 
ATOM     26  C   UNL A   1      41.148  27.672  29.690  1.00  0.00     0.034 A 
ATOM     27  C   UNL A   1      48.013  27.413  29.937  1.00  0.00     0.049 A 
ATOM     28  C   UNL A   1      42.240  28.291  30.486  1.00  0.00     0.074 A 
ATOM     29  C   UNL A   1      48.451  26.280  30.596  1.00  0.00     0.029 A 
ATOM     30  N   UNL A   1      47.093  27.995  30.781  1.00  0.00    -0.354 N 
ATOM     31  N   UNL A   1      42.781  27.708  31.521  1.00  0.00    -0.248 NA
ATOM     32  C   UNL A   1      43.077  29.287  29.831  1.00  0.00     0.031 C 
ATOM     33  C   UNL A   1      47.409  25.968  31.518  1.00  0.00     0.029 A 
ATOM     34  C   UNL A   1      46.447  26.979  31.448  1.00  0.00     0.049 A 
ATOM     35  H   UNL A   1      46.928  28.960  30.887  1.00  0.00     0.167 HD
ATOM     36  C   UNL A   1      44.145  27.923  31.384  1.00  0.00     0.074 A 
ATOM     37  C   UNL A   1      44.260  28.970  30.367  1.00  0.00     0.031 C 
ATOM     38  C   UNL A   1      45.062  27.038  31.880  1.00  0.00     0.034 A 
BRANCH  25  39
ATOM     39  C   UNL A   1      48.398  29.246  28.136  1.00  0.00     0.023 A 
ATOM     40  C   UNL A   1      47.342  30.138  27.873  1.00  0.00     0.031 A 
ATOM     41  C   UNL A   1      49.681  29.670  27.710  1.00  0.00     0.131 A 
ATOM     42  C   UNL A   1      47.565  31.328  27.156  1.00  0.00     0.055 A 
ATOM     43  C   UNL A   1      49.907  30.882  27.056  1.00  0.00     0.041 A 
ATOM     44  F   UNL A   1      50.770  28.900  27.808  1.00  0.00    -0.206 F 
ATOM     45  C   UNL A   1      48.842  31.707  26.748  1.00  0.00     0.022 A 
BRANCH  42  46
ATOM     46  S   UNL A   1      46.133  32.292  26.610  1.00  0.00     0.124 S 
ATOM     47  O   UNL A   1      45.532  31.398  25.628  1.00  0.00    -0.237 OA
ATOM     48  O   UNL A   1      45.397  32.467  27.858  1.00  0.00    -0.237 OA
ATOM     49  O   UNL A   1      46.731  33.508  26.064  1.00  0.00    -0.744 OA
ENDBRANCH  42  46
ENDBRANCH  25  39
BRANCH  26  50
ATOM     50  C   UNL A   1      39.911  28.403  29.273  1.00  0.00     0.023 A 
ATOM     51  C   UNL A   1      39.004  28.991  30.186  1.00  0.00     0.031 A 
ATOM     52  C   UNL A   1      39.732  28.740  27.910  1.00  0.00     0.131 A 
ATOM     53  C   UNL A   1      37.981  29.860  29.723  1.00  0.00     0.055 A 
ATOM     54  C   UNL A   1      38.725  29.596  27.461  1.00  0.00     0.041 A 
ATOM     55  F   UNL A   1      40.590  28.313  26.970  1.00  0.00    -0.206 F 
ATOM     56  C   UNL A   1      37.849  30.168  28.366  1.00  0.00     0.022 A 
BRANCH  53  57
ATOM     57  S   UNL A   1      36.838  30.676  30.890  1.00  0.00     0.124 S 
ATOM     58  O   UNL A   1      35.922  31.373  29.993  1.00  0.00    -0.237 OA
ATOM     59  O   UNL A   1      36.288  29.549  31.633  1.00  0.00    -0.237 OA
ATOM     60  O   UNL A   1      37.713  31.552  31.672  1.00  0.00    -0.744 OA
ENDBRANCH  53  57
ENDBRANCH  26  50
BRANCH  38  61
ATOM     61  C   UNL A   1      44.574  25.925  32.796  1.00  0.00     0.023 A 
ATOM     62  C   UNL A   1      44.177  26.089  34.146  1.00  0.00     0.031 A 
ATOM     63  C   UNL A   1      44.395  24.656  32.220  1.00  0.00     0.131 A 
ATOM     64  C   UNL A   1      43.635  24.999  34.861  1.00  0.00     0.055 A 
ATOM     65  C   UNL A   1      43.837  23.589  32.922  1.00  0.00     0.041 A 
ATOM     66  F   UNL A   1      44.727  24.438  30.936  1.00  0.00    -0.206 F 
ATOM     67  C   UNL A   1      43.461  23.754  34.249  1.00  0.00     0.022 A 
BRANCH  64  68
ATOM     68  S   UNL A   1      43.162  25.165  36.617  1.00  0.00     0.124 S 
ATOM     69  O   UNL A   1      44.231  24.471  37.325  1.00  0.00    -0.237 OA
ATOM     70  O   UNL A   1      43.109  26.613  36.795  1.00  0.00    -0.237 OA
ATOM     71  O   UNL A   1      41.858  24.499  36.682  1.00  0.00    -0.744 OA
ENDBRANCH  64  68
ENDBRANCH  38  61
ENDBRANCH  12  13
ENDBRANCH   5   7
ENDBRANCH   4   5
ENDBRANCH   3   4
ENDBRANCH   2   3
ENDBRANCH   1   2
BRANCH   1  72
ATOM     72  C   UNL A   1      39.328  19.721  25.753  1.00  0.00     0.202 C 
BRANCH  72  73
ATOM     73  C   UNL A   1      39.229  21.248  25.865  1.00  0.00     0.261 C 
BRANCH  73  74
ATOM     74  O   UNL A   1      37.869  21.712  25.794  1.00  0.00    -0.460 OA
BRANCH  74  75
ATOM     75  C   UNL A   1      37.709  23.043  26.047  1.00  0.00     0.339 C 
ATOM     76  O   UNL A   1      38.616  23.833  26.244  1.00  0.00    -0.246 OA
BRANCH  75  77
ATOM     77  C   UNL A   1      36.316  23.459  25.947  1.00  0.00     0.078 A 
ATOM     78  C   UNL A   1      35.797  24.699  25.503  1.00  0.00     0.051 A 
ATOM     79  C   UNL A   1      35.222  22.644  26.202  1.00  0.00     0.102 A 
ATOM     80  C   UNL A   1      34.459  24.490  25.244  1.00  0.00     0.086 A 
ATOM     81  N   UNL A   1      34.067  23.325  25.862  1.00  0.00    -0.335 N 
ATOM     82  Br  UNL A   1      33.513  25.581  24.056  1.00  0.00    -0.031 Br
BRANCH  81  83
ATOM     83  C   UNL A   1      32.736  22.703  25.894  1.00  0.00     0.180 C 
BRANCH  83  84
ATOM     84  C   UNL A   1      32.527  21.556  24.942  1.00  0.00     0.082 A 
ATOM     85  C   UNL A   1      32.292  21.594  23.546  1.00  0.00     0.047 A 
ATOM     86  N   UNL A   1      32.692  20.281  25.352  1.00  0.00    -0.176 NA
ATOM     87  C   UNL A   1      32.306  20.293  23.122  1.00  0.00     0.109 A 
ATOM     88  N   UNL A   1      32.528  19.538  24.234  1.00  0.00    -0.269 N 
BRANCH  88  89
ATOM     89  C   UNL A   1      32.616  18.096  24.235  1.00  0.00     0.107 C 
ATOM     90  C   UNL A   1      33.891  17.505  23.642  1.00  0.00     0.027 C 
ATOM     91  C   UNL A   1      32.541  17.442  25.610  1.00  0.00     0.027 C 
ATOM     92  C   UNL A   1      33.796  16.036  24.043  1.00  0.00     0.002 C 
ATOM     93  C   UNL A   1      33.033  16.015  25.371  1.00  0.00     0.002 C 
ENDBRANCH  88  89
ENDBRANCH  83  84
ENDBRANCH  81  83
ENDBRANCH  75  77
ENDBRANCH  74  75
ENDBRANCH  73  74
ENDBRANCH  72  73
ENDBRANCH   1  72
TORSDOF 20
ENDMDL
MODEL 3
REMARK VINA RESULT:     -11.2      4.060      9.446
REMARK SMILES O=C(OCCOCCOC(=O)c1cc(Br)n(Cc2ccn(C3CCCC3)n2)c1)c1ccc(-c2c3nc(c(-c4cc(S(=O)(=O)[O-])ccc4F)c4ccc([nH]4)c(-c4cc(S(=O)(=O)[O-])ccc4F)c4nc(c(-c5cc(S(=O)(=O)[O-])ccc5F)c5ccc2[nH]5)C=C4)C=C3)cc1
REMARK SMILES IDX 6 1 5 2 4 3 3 4 2 5 1 6 29 7 30 8 91 9 31 10 90 11 32 12
REMARK SMILES IDX 33 13 34 14 84 15 35 16 89 17 83 18 85 19 36 20 88 21 82 22
REMARK SMILES IDX 81 23 37 25 69 26 49 27 68 28 50 29 53 30 67 31 86 32 51 33
REMARK SMILES IDX 52 34 66 36 87 37 54 38 38 39 39 40 47 41 40 42 46 43 48 44
REMARK SMILES IDX 45 45 41 46 42 47 43 48 44 49 70 50 71 51 79 52 72 53 78 54
REMARK SMILES IDX 80 55 77 56 73 57 74 58 75 59 76 60 55 61 56 62 64 63 57 64
REMARK SMILES IDX 63 65 65 66 62 67 58 68 59 69 60 70 61 71 7 72 8 73 9 74
REMARK SMILES IDX 10 75 11 76 12 77 13 78 28 79 14 80 16 81 15 82 17 83 18 84
REMARK SMILES IDX 19 85 27 86 20 87 21 88 22 89 23 90 26 91 24 92 25 93
REMARK H PARENT 85 24 53 35
REMARK Flexibility Score: inf
ROOT
ATOM      1  O   UNL A   1      38.232  21.902  25.464  1.00  0.00    -0.374 OA
ENDROOT
BRANCH   1   2
ATOM      2  C   UNL A   1      39.058  20.746  25.602  1.00  0.00     0.202 C 
BRANCH   2   3
ATOM      3  C   UNL A   1      40.344  20.901  26.411  1.00  0.00     0.261 C 
BRANCH   3   4
ATOM      4  O   UNL A   1      40.368  22.115  27.184  1.00  0.00    -0.460 OA
BRANCH   4   5
ATOM      5  C   UNL A   1      41.040  23.242  26.864  1.00  0.00     0.338 C 
ATOM      6  O   UNL A   1      41.723  23.281  25.843  1.00  0.00    -0.246 OA
BRANCH   5   7
ATOM      7  C   UNL A   1      40.758  24.503  27.590  1.00  0.00     0.060 A 
ATOM      8  C   UNL A   1      39.715  25.384  27.314  1.00  0.00     0.016 A 
ATOM      9  C   UNL A   1      41.703  24.846  28.570  1.00  0.00     0.016 A 
ATOM     10  C   UNL A   1      39.783  26.685  27.770  1.00  0.00     0.010 A 
ATOM     11  C   UNL A   1      41.729  26.121  29.097  1.00  0.00     0.010 A 
ATOM     12  C   UNL A   1      40.832  27.062  28.610  1.00  0.00    -0.014 A 
BRANCH  12  13
ATOM     13  C   UNL A   1      40.855  28.431  29.095  1.00  0.00     0.031 A 
ATOM     14  C   UNL A   1      41.979  29.225  28.531  1.00  0.00     0.074 A 
ATOM     15  C   UNL A   1      39.886  28.935  29.885  1.00  0.00     0.049 A 
ATOM     16  N   UNL A   1      42.965  29.768  29.164  1.00  0.00    -0.248 NA
ATOM     17  C   UNL A   1      42.130  29.254  27.064  1.00  0.00     0.031 C 
ATOM     18  C   UNL A   1      38.632  28.301  30.302  1.00  0.00     0.029 A 
ATOM     19  N   UNL A   1      39.772  30.184  30.412  1.00  0.00    -0.354 N 
ATOM     20  C   UNL A   1      43.730  30.410  28.196  1.00  0.00     0.074 A 
ATOM     21  C   UNL A   1      43.288  29.899  26.927  1.00  0.00     0.031 C 
ATOM     22  C   UNL A   1      37.791  29.243  30.789  1.00  0.00     0.029 A 
ATOM     23  C   UNL A   1      38.492  30.516  30.848  1.00  0.00     0.049 A 
ATOM     24  H   UNL A   1      40.534  30.803  30.478  1.00  0.00     0.167 HD
ATOM     25  C   UNL A   1      44.492  31.492  28.507  1.00  0.00     0.034 A 
ATOM     26  C   UNL A   1      38.030  31.759  31.167  1.00  0.00     0.034 A 
ATOM     27  C   UNL A   1      44.787  31.527  29.921  1.00  0.00     0.049 A 
ATOM     28  C   UNL A   1      39.228  32.589  31.462  1.00  0.00     0.074 A 
ATOM     29  C   UNL A   1      45.429  30.658  30.782  1.00  0.00     0.029 A 
ATOM     30  N   UNL A   1      44.038  32.356  30.726  1.00  0.00    -0.354 N 
ATOM     31  N   UNL A   1      40.018  32.359  32.476  1.00  0.00    -0.248 NA
ATOM     32  C   UNL A   1      39.838  33.318  30.358  1.00  0.00     0.031 C 
ATOM     33  C   UNL A   1      44.634  30.665  31.966  1.00  0.00     0.029 A 
ATOM     34  C   UNL A   1      43.618  31.610  31.804  1.00  0.00     0.049 A 
ATOM     35  H   UNL A   1      43.839  33.306  30.561  1.00  0.00     0.167 HD
ATOM     36  C   UNL A   1      41.302  32.506  31.973  1.00  0.00     0.074 A 
ATOM     37  C   UNL A   1      41.127  33.176  30.683  1.00  0.00     0.031 C 
ATOM     38  C   UNL A   1      42.359  31.817  32.499  1.00  0.00     0.034 A 
BRANCH  25  39
ATOM     39  C   UNL A   1      44.653  32.690  27.600  1.00  0.00     0.023 A 
ATOM     40  C   UNL A   1      43.989  33.879  27.953  1.00  0.00     0.031 A 
ATOM     41  C   UNL A   1      45.179  32.648  26.285  1.00  0.00     0.131 A 
ATOM     42  C   UNL A   1      43.801  34.907  27.012  1.00  0.00     0.055 A 
ATOM     43  C   UNL A   1      45.047  33.698  25.376  1.00  0.00     0.041 A 
ATOM     44  F   UNL A   1      45.761  31.559  25.770  1.00  0.00    -0.206 F 
ATOM     45  C   UNL A   1      44.329  34.825  25.726  1.00  0.00     0.022 A 
BRANCH  42  46
ATOM     46  S   UNL A   1      42.705  36.283  27.439  1.00  0.00     0.124 S 
ATOM     47  O   UNL A   1      43.035  36.499  28.843  1.00  0.00    -0.237 OA
ATOM     48  O   UNL A   1      43.144  37.317  26.508  1.00  0.00    -0.237 OA
ATOM     49  O   UNL A   1      41.370  35.744  27.187  1.00  0.00    -0.744 OA
ENDBRANCH  42  46
ENDBRANCH  25  39
BRANCH  26  50
ATOM     50  C   UNL A   1      36.688  32.331  30.835  1.00  0.00     0.023 A 
ATOM     51  C   UNL A   1      35.847  32.957  31.785  1.00  0.00     0.031 A 
ATOM     52  C   UNL A   1      36.315  32.477  29.478  1.00  0.00     0.131 A 
ATOM     53  C   UNL A   1      34.698  33.676  31.363  1.00  0.00     0.055 A 
ATOM     54  C   UNL A   1      35.185  33.188  29.069  1.00  0.00     0.041 A 
ATOM     55  F   UNL A   1      37.089  32.004  28.489  1.00  0.00    -0.206 F 
ATOM     56  C   UNL A   1      34.375  33.798  30.010  1.00  0.00     0.022 A 
BRANCH  53  57
ATOM     57  S   UNL A   1      33.633  34.541  32.569  1.00  0.00     0.124 S 
ATOM     58  O   UNL A   1      33.144  33.443  33.395  1.00  0.00    -0.237 OA
ATOM     59  O   UNL A   1      34.563  35.468  33.204  1.00  0.00    -0.237 OA
ATOM     60  O   UNL A   1      32.615  35.178  31.732  1.00  0.00    -0.744 OA
ENDBRANCH  53  57
ENDBRANCH  26  50
BRANCH  38  61
ATOM     61  C   UNL A   1      42.155  31.057  33.801  1.00  0.00     0.023 A 
ATOM     62  C   UNL A   1      41.997  29.654  33.916  1.00  0.00     0.031 A 
ATOM     63  C   UNL A   1      42.246  31.797  34.993  1.00  0.00     0.131 A 
ATOM     64  C   UNL A   1      41.927  29.052  35.192  1.00  0.00     0.055 A 
ATOM     65  C   UNL A   1      42.201  31.196  36.250  1.00  0.00     0.041 A 
ATOM     66  F   UNL A   1      42.421  33.128  34.956  1.00  0.00    -0.206 F 
ATOM     67  C   UNL A   1      42.034  29.821  36.355  1.00  0.00     0.022 A 
BRANCH  64  68
ATOM     68  S   UNL A   1      41.672  27.254  35.373  1.00  0.00     0.124 S 
ATOM     69  O   UNL A   1      40.657  26.950  34.371  1.00  0.00    -0.237 OA
ATOM     70  O   UNL A   1      43.006  26.717  35.118  1.00  0.00    -0.237 OA
ATOM     71  O   UNL A   1      41.219  27.113  36.759  1.00  0.00    -0.744 OA
ENDBRANCH  64  68
ENDBRANCH  38  61
ENDBRANCH  12  13
ENDBRANCH   5   7
ENDBRANCH   4   5
ENDBRANCH   3   4
ENDBRANCH   2   3
ENDBRANCH   1   2
BRANCH   1  72
ATOM     72  C   UNL A   1      36.836  21.662  25.245  1.00  0.00     0.202 C 
BRANCH  72  73
ATOM     73  C   UNL A   1      35.830  22.672  25.812  1.00  0.00     0.261 C 
BRANCH  73  74
ATOM     74  O   UNL A   1      34.505  22.119  25.920  1.00  0.00    -0.460 OA
BRANCH  74  75
ATOM     75  C   UNL A   1      33.867  21.937  24.729  1.00  0.00     0.339 C 
ATOM     76  O   UNL A   1      33.761  20.871  24.147  1.00  0.00    -0.246 OA
BRANCH  75  77
ATOM     77  C   UNL A   1      33.212  23.152  24.263  1.00  0.00     0.078 A 
ATOM     78  C   UNL A   1      33.652  24.068  23.278  1.00  0.00     0.051 A 
ATOM     79  C   UNL A   1      31.956  23.583  24.667  1.00  0.00     0.102 A 
ATOM     80  C   UNL A   1      32.554  24.828  22.935  1.00  0.00     0.086 A 
ATOM     81  N   UNL A   1      31.597  24.685  23.912  1.00  0.00    -0.335 N 
ATOM     82  Br  UNL A   1      32.442  25.689  21.279  1.00  0.00    -0.031 Br
BRANCH  81  83
ATOM     83  C   UNL A   1      30.272  25.315  24.001  1.00  0.00     0.180 C 
BRANCH  83  84
ATOM     84  C   UNL A   1      30.258  26.820  23.947  1.00  0.00     0.082 A 
ATOM     85  C   UNL A   1      31.270  27.731  24.335  1.00  0.00     0.047 A 
ATOM     86  N   UNL A   1      29.244  27.478  23.346  1.00  0.00    -0.176 NA
ATOM     87  C   UNL A   1      30.829  28.971  23.963  1.00  0.00     0.109 A 
ATOM     88  N   UNL A   1      29.606  28.780  23.394  1.00  0.00    -0.269 N 
BRANCH  88  89
ATOM     89  C   UNL A   1      28.782  29.840  22.861  1.00  0.00     0.107 C 
ATOM     90  C   UNL A   1      28.702  31.111  23.702  1.00  0.00     0.027 C 
ATOM     91  C   UNL A   1      29.202  30.361  21.491  1.00  0.00     0.027 C 
ATOM     92  C   UNL A   1      28.017  32.093  22.757  1.00  0.00     0.002 C 
ATOM     93  C   UNL A   1      28.441  31.679  21.345  1.00  0.00     0.002 C 
ENDBRANCH  88  89
ENDBRANCH  83  84
ENDBRANCH  81  83
ENDBRANCH  75  77
ENDBRANCH  74  75
ENDBRANCH  73  74
ENDBRANCH  72  73
ENDBRANCH   1  72
TORSDOF 20
ENDMDL
