MODEL 1
REMARK VINA RESULT:     -11.3      0.000      0.000
REMARK SMILES O=C(OCCOCCOC(=O)c1ccc2c(=O)n(CCC[NH+]3CCOCC3)c(=O)[nH]c2c1)c1ccc(-c2c3nc(c(-c4cc(S(=O)(=O)[O-])ccc4F)c4ccc([nH]4)c(-c4cc(S(=O)(=O)[O-])ccc4F)c4nc(c(-c5cc(S(=O)(=O)[O-])ccc5F)c5ccc2[nH]5)C=C4)C=C3)cc1
REMARK SMILES IDX 7 1 6 2 5 3 4 4 3 5 2 6 1 7 33 8 34 9 95 10 35 11 94 12
REMARK SMILES IDX 36 13 37 14 38 15 88 16 39 17 93 18 87 19 89 20 40 21 92 22
REMARK SMILES IDX 86 23 85 24 41 26 73 27 53 28 72 29 54 30 57 31 71 32 90 33
REMARK SMILES IDX 55 34 56 35 70 37 91 38 58 39 42 40 43 41 51 42 44 43 50 44
REMARK SMILES IDX 52 45 49 46 45 47 46 48 47 49 48 50 74 51 75 52 83 53 76 54
REMARK SMILES IDX 82 55 84 56 81 57 77 58 78 59 79 60 80 61 59 62 60 63 68 64
REMARK SMILES IDX 61 65 67 66 69 67 66 68 62 69 63 70 64 71 65 72 8 73 9 74
REMARK SMILES IDX 10 75 11 76 12 77 13 78 32 79 14 80 31 81 15 82 30 83 16 84
REMARK SMILES IDX 28 85 17 87 18 88 29 89 19 90 20 91 21 92 22 93 23 94 27 95
REMARK SMILES IDX 24 97 26 98 25 99
REMARK H PARENT 89 25 57 36 30 86 22 96
REMARK Flexibility Score: inf
ROOT
ATOM      1  C   UNL A   1      32.122  29.570  26.469  1.00  0.00     0.202 C 
ENDROOT
BRANCH   1   2
ATOM      2  O   UNL A   1      32.517  30.713  27.236  1.00  0.00    -0.374 OA
BRANCH   2   3
ATOM      3  C   UNL A   1      31.671  31.857  27.144  1.00  0.00     0.202 C 
BRANCH   3   4
ATOM      4  C   UNL A   1      32.404  33.165  26.854  1.00  0.00     0.261 C 
BRANCH   4   5
ATOM      5  O   UNL A   1      32.231  34.094  27.931  1.00  0.00    -0.460 OA
BRANCH   5   6
ATOM      6  C   UNL A   1      33.164  34.693  28.706  1.00  0.00     0.338 C 
ATOM      7  O   UNL A   1      33.118  35.922  28.784  1.00  0.00    -0.246 OA
BRANCH   6   8
ATOM      8  C   UNL A   1      34.278  33.992  29.435  1.00  0.00     0.060 A 
ATOM      9  C   UNL A   1      35.584  34.317  29.020  1.00  0.00     0.016 A 
ATOM     10  C   UNL A   1      34.146  33.005  30.417  1.00  0.00     0.016 A 
ATOM     11  C   UNL A   1      36.704  33.663  29.544  1.00  0.00     0.010 A 
ATOM     12  C   UNL A   1      35.254  32.349  30.947  1.00  0.00     0.010 A 
ATOM     13  C   UNL A   1      36.536  32.668  30.509  1.00  0.00    -0.014 A 
BRANCH  13  14
ATOM     14  C   UNL A   1      37.678  32.033  31.187  1.00  0.00     0.031 A 
ATOM     15  C   UNL A   1      38.379  30.861  30.578  1.00  0.00     0.074 A 
ATOM     16  C   UNL A   1      37.953  32.454  32.434  1.00  0.00     0.049 A 
ATOM     17  N   UNL A   1      39.398  30.190  31.040  1.00  0.00    -0.248 NA
ATOM     18  C   UNL A   1      37.858  30.361  29.296  1.00  0.00     0.031 C 
ATOM     19  C   UNL A   1      37.221  33.516  33.127  1.00  0.00     0.029 A 
ATOM     20  N   UNL A   1      38.872  32.025  33.350  1.00  0.00    -0.354 N 
ATOM     21  C   UNL A   1      39.663  29.204  30.097  1.00  0.00     0.074 A 
ATOM     22  C   UNL A   1      38.656  29.325  29.065  1.00  0.00     0.031 C 
ATOM     23  C   UNL A   1      37.710  33.647  34.366  1.00  0.00     0.029 A 
ATOM     24  C   UNL A   1      38.785  32.678  34.556  1.00  0.00     0.049 A 
ATOM     25  H   UNL A   1      39.533  31.319  33.163  1.00  0.00     0.167 HD
ATOM     26  C   UNL A   1      40.674  28.303  30.100  1.00  0.00     0.034 A 
ATOM     27  C   UNL A   1      39.501  32.517  35.685  1.00  0.00     0.034 A 
ATOM     28  C   UNL A   1      41.631  28.209  31.175  1.00  0.00     0.049 A 
ATOM     29  C   UNL A   1      40.645  31.541  35.654  1.00  0.00     0.074 A 
ATOM     30  C   UNL A   1      42.751  27.404  31.260  1.00  0.00     0.029 A 
ATOM     31  N   UNL A   1      41.569  28.934  32.360  1.00  0.00    -0.354 N 
ATOM     32  N   UNL A   1      40.997  30.725  34.686  1.00  0.00    -0.248 NA
ATOM     33  C   UNL A   1      41.511  31.481  36.835  1.00  0.00     0.031 C 
ATOM     34  C   UNL A   1      43.325  27.592  32.518  1.00  0.00     0.029 A 
ATOM     35  C   UNL A   1      42.613  28.572  33.194  1.00  0.00     0.049 A 
ATOM     36  H   UNL A   1      40.883  29.607  32.575  1.00  0.00     0.167 HD
ATOM     37  C   UNL A   1      42.140  30.071  35.129  1.00  0.00     0.074 A 
ATOM     38  C   UNL A   1      42.431  30.605  36.446  1.00  0.00     0.031 C 
ATOM     39  C   UNL A   1      42.880  29.119  34.506  1.00  0.00     0.034 A 
BRANCH  26  40
ATOM     40  C   UNL A   1      40.846  27.382  28.913  1.00  0.00     0.023 A 
ATOM     41  C   UNL A   1      41.807  27.663  27.921  1.00  0.00     0.031 A 
ATOM     42  C   UNL A   1      39.955  26.317  28.683  1.00  0.00     0.131 A 
ATOM     43  C   UNL A   1      41.827  26.914  26.735  1.00  0.00     0.055 A 
ATOM     44  C   UNL A   1      40.007  25.548  27.519  1.00  0.00     0.041 A 
ATOM     45  F   UNL A   1      39.011  26.010  29.589  1.00  0.00    -0.206 F 
ATOM     46  C   UNL A   1      40.937  25.855  26.532  1.00  0.00     0.022 A 
BRANCH  43  47
ATOM     47  S   UNL A   1      42.958  27.327  25.377  1.00  0.00     0.124 S 
ATOM     48  O   UNL A   1      42.204  28.354  24.660  1.00  0.00    -0.237 OA
ATOM     49  O   UNL A   1      44.134  27.808  26.096  1.00  0.00    -0.237 OA
ATOM     50  O   UNL A   1      43.124  26.068  24.661  1.00  0.00    -0.744 OA
ENDBRANCH  43  47
ENDBRANCH  26  40
BRANCH  27  51
ATOM     51  C   UNL A   1      39.204  33.407  36.842  1.00  0.00     0.023 A 
ATOM     52  C   UNL A   1      39.911  34.611  37.028  1.00  0.00     0.031 A 
ATOM     53  C   UNL A   1      38.364  32.967  37.878  1.00  0.00     0.131 A 
ATOM     54  C   UNL A   1      39.826  35.286  38.253  1.00  0.00     0.055 A 
ATOM     55  C   UNL A   1      38.230  33.680  39.070  1.00  0.00     0.041 A 
ATOM     56  F   UNL A   1      37.693  31.811  37.758  1.00  0.00    -0.206 F 
ATOM     57  C   UNL A   1      38.981  34.834  39.271  1.00  0.00     0.022 A 
BRANCH  54  58
ATOM     58  S   UNL A   1      40.939  36.670  38.633  1.00  0.00     0.124 S 
ATOM     59  O   UNL A   1      41.759  36.116  39.706  1.00  0.00    -0.237 OA
ATOM     60  O   UNL A   1      41.621  36.867  37.355  1.00  0.00    -0.237 OA
ATOM     61  O   UNL A   1      40.033  37.745  39.022  1.00  0.00    -0.744 OA
ENDBRANCH  54  58
ENDBRANCH  27  51
BRANCH  39  62
ATOM     62  C   UNL A   1      44.080  28.563  35.231  1.00  0.00     0.023 A 
ATOM     63  C   UNL A   1      43.914  27.523  36.164  1.00  0.00     0.031 A 
ATOM     64  C   UNL A   1      45.340  29.174  35.124  1.00  0.00     0.131 A 
ATOM     65  C   UNL A   1      44.980  27.160  36.994  1.00  0.00     0.055 A 
ATOM     66  C   UNL A   1      46.414  28.772  35.918  1.00  0.00     0.041 A 
ATOM     67  F   UNL A   1      45.541  30.177  34.255  1.00  0.00    -0.206 F 
ATOM     68  C   UNL A   1      46.232  27.773  36.870  1.00  0.00     0.022 A 
BRANCH  65  69
ATOM     69  S   UNL A   1      44.757  25.951  38.327  1.00  0.00     0.124 S 
ATOM     70  O   UNL A   1      44.021  24.887  37.649  1.00  0.00    -0.237 OA
ATOM     71  O   UNL A   1      46.135  25.627  38.682  1.00  0.00    -0.237 OA
ATOM     72  O   UNL A   1      44.001  26.679  39.341  1.00  0.00    -0.744 OA
ENDBRANCH  65  69
ENDBRANCH  39  62
ENDBRANCH  13  14
ENDBRANCH   6   8
ENDBRANCH   5   6
ENDBRANCH   4   5
ENDBRANCH   3   4
ENDBRANCH   2   3
ENDBRANCH   1   2
BRANCH   1  73
ATOM     73  C   UNL A   1      31.659  30.026  25.080  1.00  0.00     0.261 C 
BRANCH  73  74
ATOM     74  O   UNL A   1      31.780  28.917  24.175  1.00  0.00    -0.460 OA
BRANCH  74  75
ATOM     75  C   UNL A   1      30.681  28.122  24.070  1.00  0.00     0.338 C 
ATOM     76  O   UNL A   1      29.591  28.406  23.627  1.00  0.00    -0.246 OA
BRANCH  75  77
ATOM     77  C   UNL A   1      31.148  26.737  24.324  1.00  0.00     0.062 A 
ATOM     78  C   UNL A   1      30.417  25.877  25.157  1.00  0.00     0.016 A 
ATOM     79  C   UNL A   1      32.426  26.374  23.867  1.00  0.00     0.042 A 
ATOM     80  C   UNL A   1      31.002  24.708  25.626  1.00  0.00     0.017 A 
ATOM     81  C   UNL A   1      32.994  25.190  24.324  1.00  0.00     0.056 A 
ATOM     82  C   UNL A   1      32.303  24.396  25.231  1.00  0.00     0.064 A 
ATOM     83  N   UNL A   1      34.259  24.782  23.903  1.00  0.00    -0.307 N 
ATOM     84  C   UNL A   1      32.980  23.199  25.748  1.00  0.00     0.264 A 
ATOM     85  C   UNL A   1      34.764  23.532  24.160  1.00  0.00     0.328 A 
ATOM     86  H   UNL A   1      34.815  25.420  23.400  1.00  0.00     0.171 HD
ATOM     87  O   UNL A   1      32.612  22.712  26.812  1.00  0.00    -0.268 OA
ATOM     88  N   UNL A   1      33.968  22.689  24.928  1.00  0.00    -0.260 N 
ATOM     89  O   UNL A   1      35.859  23.211  23.704  1.00  0.00    -0.248 OA
BRANCH  88  90
ATOM     90  C   UNL A   1      34.374  21.289  25.026  1.00  0.00     0.137 C 
BRANCH  90  91
ATOM     91  C   UNL A   1      33.434  20.204  24.462  1.00  0.00     0.083 C 
BRANCH  91  92
ATOM     92  C   UNL A   1      32.978  19.048  25.373  1.00  0.00     0.264 C 
BRANCH  92  93
ATOM     93  N   UNL A   1      32.317  17.864  24.808  1.00  0.00    -0.331 N 
ATOM     94  C   UNL A   1      32.524  16.589  25.511  1.00  0.00     0.291 C 
ATOM     95  C   UNL A   1      32.741  17.679  23.392  1.00  0.00     0.291 C 
ATOM     96  H   UNL A   1      31.323  18.074  24.908  1.00  0.00     0.348 HD
ATOM     97  C   UNL A   1      33.911  15.963  25.314  1.00  0.00     0.221 C 
ATOM     98  C   UNL A   1      34.138  17.043  23.235  1.00  0.00     0.221 C 
ATOM     99  O   UNL A   1      34.216  15.791  23.926  1.00  0.00    -0.370 OA
ENDBRANCH  92  93
ENDBRANCH  91  92
ENDBRANCH  90  91
ENDBRANCH  88  90
ENDBRANCH  75  77
ENDBRANCH  74  75
ENDBRANCH  73  74
ENDBRANCH   1  73
TORSDOF 21
ENDMDL
MODEL 2
REMARK VINA RESULT:     -10.7      1.887      2.710
REMARK SMILES O=C(OCCOCCOC(=O)c1ccc2c(=O)n(CCC[NH+]3CCOCC3)c(=O)[nH]c2c1)c1ccc(-c2c3nc(c(-c4cc(S(=O)(=O)[O-])ccc4F)c4ccc([nH]4)c(-c4cc(S(=O)(=O)[O-])ccc4F)c4nc(c(-c5cc(S(=O)(=O)[O-])ccc5F)c5ccc2[nH]5)C=C4)C=C3)cc1
REMARK SMILES IDX 7 1 6 2 5 3 4 4 3 5 2 6 1 7 33 8 34 9 95 10 35 11 94 12
REMARK SMILES IDX 36 13 37 14 38 15 88 16 39 17 93 18 87 19 89 20 40 21 92 22
REMARK SMILES IDX 86 23 85 24 41 26 73 27 53 28 72 29 54 30 57 31 71 32 90 33
REMARK SMILES IDX 55 34 56 35 70 37 91 38 58 39 42 40 43 41 51 42 44 43 50 44
REMARK SMILES IDX 52 45 49 46 45 47 46 48 47 49 48 50 74 51 75 52 83 53 76 54
REMARK SMILES IDX 82 55 84 56 81 57 77 58 78 59 79 60 80 61 59 62 60 63 68 64
REMARK SMILES IDX 61 65 67 66 69 67 66 68 62 69 63 70 64 71 65 72 8 73 9 74
REMARK SMILES IDX 10 75 11 76 12 77 13 78 32 79 14 80 31 81 15 82 30 83 16 84
REMARK SMILES IDX 28 85 17 87 18 88 29 89 19 90 20 91 21 92 22 93 23 94 27 95
REMARK SMILES IDX 24 97 26 98 25 99
REMARK H PARENT 89 25 57 36 30 86 22 96
REMARK Flexibility Score: inf
ROOT
ATOM      1  C   UNL A   1      31.975  29.350  26.021  1.00  0.00     0.202 C 
ENDROOT
BRANCH   1   2
ATOM      2  O   UNL A   1      32.459  30.575  26.582  1.00  0.00    -0.374 OA
BRANCH   2   3
ATOM      3  C   UNL A   1      31.500  31.619  26.740  1.00  0.00     0.202 C 
BRANCH   3   4
ATOM      4  C   UNL A   1      32.052  33.025  26.510  1.00  0.00     0.261 C 
BRANCH   4   5
ATOM      5  O   UNL A   1      31.914  33.824  27.691  1.00  0.00    -0.460 OA
BRANCH   5   6
ATOM      6  C   UNL A   1      32.857  34.507  28.380  1.00  0.00     0.338 C 
ATOM      7  O   UNL A   1      32.683  35.720  28.508  1.00  0.00    -0.246 OA
BRANCH   6   8
ATOM      8  C   UNL A   1      34.117  33.921  28.954  1.00  0.00     0.060 A 
ATOM      9  C   UNL A   1      33.947  32.813  29.808  1.00  0.00     0.016 A 
ATOM     10  C   UNL A   1      35.418  34.408  28.792  1.00  0.00     0.016 A 
ATOM     11  C   UNL A   1      35.025  32.238  30.487  1.00  0.00     0.010 A 
ATOM     12  C   UNL A   1      36.500  33.842  29.463  1.00  0.00     0.010 A 
ATOM     13  C   UNL A   1      36.308  32.761  30.318  1.00  0.00    -0.014 A 
BRANCH  13  14
ATOM     14  C   UNL A   1      37.499  32.124  30.906  1.00  0.00     0.031 A 
ATOM     15  C   UNL A   1      38.240  31.054  30.171  1.00  0.00     0.074 A 
ATOM     16  C   UNL A   1      37.785  32.437  32.182  1.00  0.00     0.049 A 
ATOM     17  N   UNL A   1      39.304  30.396  30.543  1.00  0.00    -0.248 NA
ATOM     18  C   UNL A   1      37.711  30.654  28.858  1.00  0.00     0.031 C 
ATOM     19  C   UNL A   1      37.019  33.388  32.991  1.00  0.00     0.029 A 
ATOM     20  N   UNL A   1      38.748  31.971  33.032  1.00  0.00    -0.354 N 
ATOM     21  C   UNL A   1      39.592  29.521  29.503  1.00  0.00     0.074 A 
ATOM     22  C   UNL A   1      38.553  29.688  28.510  1.00  0.00     0.031 C 
ATOM     23  C   UNL A   1      37.535  33.424  34.227  1.00  0.00     0.029 A 
ATOM     24  C   UNL A   1      38.661  32.499  34.297  1.00  0.00     0.049 A 
ATOM     25  H   UNL A   1      39.438  31.321  32.763  1.00  0.00     0.167 HD
ATOM     26  C   UNL A   1      40.647  28.678  29.396  1.00  0.00     0.034 A 
ATOM     27  C   UNL A   1      39.414  32.267  35.390  1.00  0.00     0.034 A 
ATOM     28  C   UNL A   1      41.636  28.531  30.436  1.00  0.00     0.049 A 
ATOM     29  C   UNL A   1      40.603  31.360  35.239  1.00  0.00     0.074 A 
ATOM     30  C   UNL A   1      42.796  27.781  30.417  1.00  0.00     0.029 A 
ATOM     31  N   UNL A   1      41.569  29.134  31.688  1.00  0.00    -0.354 N 
ATOM     32  N   UNL A   1      40.970  30.660  34.189  1.00  0.00    -0.248 NA
ATOM     33  C   UNL A   1      41.503  31.231  36.389  1.00  0.00     0.031 C 
ATOM     34  C   UNL A   1      43.394  27.876  31.676  1.00  0.00     0.029 A 
ATOM     35  C   UNL A   1      42.652  28.748  32.459  1.00  0.00     0.049 A 
ATOM     36  H   UNL A   1      40.857  29.747  31.982  1.00  0.00     0.167 HD
ATOM     37  C   UNL A   1      42.156  30.028  34.541  1.00  0.00     0.074 A 
ATOM     38  C   UNL A   1      42.455  30.447  35.898  1.00  0.00     0.031 C 
ATOM     39  C   UNL A   1      42.925  29.179  33.812  1.00  0.00     0.034 A 
BRANCH  26  40
ATOM     40  C   UNL A   1      40.833  27.886  28.121  1.00  0.00     0.023 A 
ATOM     41  C   UNL A   1      40.287  26.593  27.994  1.00  0.00     0.031 A 
ATOM     42  C   UNL A   1      41.680  28.347  27.096  1.00  0.00     0.131 A 
ATOM     43  C   UNL A   1      40.626  25.796  26.890  1.00  0.00     0.055 A 
ATOM     44  C   UNL A   1      41.980  27.565  25.978  1.00  0.00     0.041 A 
ATOM     45  F   UNL A   1      42.238  29.567  27.168  1.00  0.00    -0.206 F 
ATOM     46  C   UNL A   1      41.463  26.278  25.880  1.00  0.00     0.022 A 
BRANCH  43  47
ATOM     47  S   UNL A   1      40.054  24.079  26.755  1.00  0.00     0.124 S 
ATOM     48  O   UNL A   1      39.502  23.841  28.087  1.00  0.00    -0.237 OA
ATOM     49  O   UNL A   1      39.069  24.171  25.681  1.00  0.00    -0.237 OA
ATOM     50  O   UNL A   1      41.264  23.329  26.442  1.00  0.00    -0.744 OA
ENDBRANCH  43  47
ENDBRANCH  26  40
BRANCH  27  51
ATOM     51  C   UNL A   1      39.104  33.025  36.634  1.00  0.00     0.023 A 
ATOM     52  C   UNL A   1      39.784  34.219  36.942  1.00  0.00     0.031 A 
ATOM     53  C   UNL A   1      38.280  32.460  37.622  1.00  0.00     0.131 A 
ATOM     54  C   UNL A   1      39.692  34.761  38.231  1.00  0.00     0.055 A 
ATOM     55  C   UNL A   1      38.137  33.042  38.882  1.00  0.00     0.041 A 
ATOM     56  F   UNL A   1      37.635  31.307  37.384  1.00  0.00    -0.206 F 
ATOM     57  C   UNL A   1      38.863  34.186  39.199  1.00  0.00     0.022 A 
BRANCH  54  58
ATOM     58  S   UNL A   1      40.775  36.124  38.749  1.00  0.00     0.124 S 
ATOM     59  O   UNL A   1      39.954  37.294  38.455  1.00  0.00    -0.237 OA
ATOM     60  O   UNL A   1      40.969  35.830  40.168  1.00  0.00    -0.237 OA
ATOM     61  O   UNL A   1      41.961  35.958  37.917  1.00  0.00    -0.744 OA
ENDBRANCH  54  58
ENDBRANCH  27  51
BRANCH  39  62
ATOM     62  C   UNL A   1      44.170  28.620  34.453  1.00  0.00     0.023 A 
ATOM     63  C   UNL A   1      44.063  27.604  35.422  1.00  0.00     0.031 A 
ATOM     64  C   UNL A   1      45.427  29.207  34.233  1.00  0.00     0.131 A 
ATOM     65  C   UNL A   1      45.186  27.242  36.173  1.00  0.00     0.055 A 
ATOM     66  C   UNL A   1      46.555  28.805  34.949  1.00  0.00     0.041 A 
ATOM     67  F   UNL A   1      45.574  30.186  33.327  1.00  0.00    -0.206 F 
ATOM     68  C   UNL A   1      46.433  27.831  35.936  1.00  0.00     0.022 A 
BRANCH  65  69
ATOM     69  S   UNL A   1      45.050  26.067  37.549  1.00  0.00     0.124 S 
ATOM     70  O   UNL A   1      44.753  24.819  36.851  1.00  0.00    -0.237 OA
ATOM     71  O   UNL A   1      46.379  26.144  38.149  1.00  0.00    -0.237 OA
ATOM     72  O   UNL A   1      43.961  26.599  38.361  1.00  0.00    -0.744 OA
ENDBRANCH  65  69
ENDBRANCH  39  62
ENDBRANCH  13  14
ENDBRANCH   6   8
ENDBRANCH   5   6
ENDBRANCH   4   5
ENDBRANCH   3   4
ENDBRANCH   2   3
ENDBRANCH   1   2
BRANCH   1  73
ATOM     73  C   UNL A   1      31.292  29.641  24.679  1.00  0.00     0.261 C 
BRANCH  73  74
ATOM     74  O   UNL A   1      31.982  28.910  23.652  1.00  0.00    -0.460 OA
BRANCH  74  75
ATOM     75  C   UNL A   1      31.201  28.118  22.870  1.00  0.00     0.338 C 
ATOM     76  O   UNL A   1      30.489  28.445  21.947  1.00  0.00    -0.246 OA
BRANCH  75  77
ATOM     77  C   UNL A   1      31.609  26.721  23.160  1.00  0.00     0.062 A 
ATOM     78  C   UNL A   1      32.521  26.055  22.329  1.00  0.00     0.016 A 
ATOM     79  C   UNL A   1      30.920  26.026  24.168  1.00  0.00     0.042 A 
ATOM     80  C   UNL A   1      32.666  24.677  22.427  1.00  0.00     0.017 A 
ATOM     81  C   UNL A   1      31.090  24.650  24.274  1.00  0.00     0.056 A 
ATOM     82  C   UNL A   1      31.917  23.983  23.378  1.00  0.00     0.064 A 
ATOM     83  N   UNL A   1      30.431  23.911  25.256  1.00  0.00    -0.307 N 
ATOM     84  C   UNL A   1      31.996  22.520  23.478  1.00  0.00     0.264 A 
ATOM     85  C   UNL A   1      30.728  22.599  25.528  1.00  0.00     0.328 A 
ATOM     86  H   UNL A   1      29.720  24.350  25.777  1.00  0.00     0.171 HD
ATOM     87  O   UNL A   1      32.358  21.870  22.503  1.00  0.00    -0.268 OA
ATOM     88  N   UNL A   1      31.695  22.004  24.724  1.00  0.00    -0.260 N 
ATOM     89  O   UNL A   1      30.158  22.023  26.452  1.00  0.00    -0.248 OA
BRANCH  88  90
ATOM     90  C   UNL A   1      32.190  20.692  25.131  1.00  0.00     0.137 C 
BRANCH  90  91
ATOM     91  C   UNL A   1      33.581  20.597  25.790  1.00  0.00     0.083 C 
BRANCH  91  92
ATOM     92  C   UNL A   1      34.116  21.790  26.606  1.00  0.00     0.264 C 
BRANCH  92  93
ATOM     93  N   UNL A   1      35.522  22.202  26.500  1.00  0.00    -0.331 N 
ATOM     94  C   UNL A   1      35.784  23.644  26.374  1.00  0.00     0.291 C 
ATOM     95  C   UNL A   1      36.158  21.519  25.338  1.00  0.00     0.291 C 
ATOM     96  H   UNL A   1      35.921  21.928  27.398  1.00  0.00     0.348 HD
ATOM     97  C   UNL A   1      35.459  24.240  24.998  1.00  0.00     0.221 C 
ATOM     98  C   UNL A   1      35.811  22.151  23.973  1.00  0.00     0.221 C 
ATOM     99  O   UNL A   1      36.141  23.543  23.950  1.00  0.00    -0.370 OA
ENDBRANCH  92  93
ENDBRANCH  91  92
ENDBRANCH  90  91
ENDBRANCH  88  90
ENDBRANCH  75  77
ENDBRANCH  74  75
ENDBRANCH  73  74
ENDBRANCH   1  73
TORSDOF 21
ENDMDL
MODEL 3
REMARK VINA RESULT:     -10.4      2.031      2.402
REMARK SMILES O=C(OCCOCCOC(=O)c1ccc2c(=O)n(CCC[NH+]3CCOCC3)c(=O)[nH]c2c1)c1ccc(-c2c3nc(c(-c4cc(S(=O)(=O)[O-])ccc4F)c4ccc([nH]4)c(-c4cc(S(=O)(=O)[O-])ccc4F)c4nc(c(-c5cc(S(=O)(=O)[O-])ccc5F)c5ccc2[nH]5)C=C4)C=C3)cc1
REMARK SMILES IDX 7 1 6 2 5 3 4 4 3 5 2 6 1 7 33 8 34 9 95 10 35 11 94 12
REMARK SMILES IDX 36 13 37 14 38 15 88 16 39 17 93 18 87 19 89 20 40 21 92 22
REMARK SMILES IDX 86 23 85 24 41 26 73 27 53 28 72 29 54 30 57 31 71 32 90 33
REMARK SMILES IDX 55 34 56 35 70 37 91 38 58 39 42 40 43 41 51 42 44 43 50 44
REMARK SMILES IDX 52 45 49 46 45 47 46 48 47 49 48 50 74 51 75 52 83 53 76 54
REMARK SMILES IDX 82 55 84 56 81 57 77 58 78 59 79 60 80 61 59 62 60 63 68 64
REMARK SMILES IDX 61 65 67 66 69 67 66 68 62 69 63 70 64 71 65 72 8 73 9 74
REMARK SMILES IDX 10 75 11 76 12 77 13 78 32 79 14 80 31 81 15 82 30 83 16 84
REMARK SMILES IDX 28 85 17 87 18 88 29 89 19 90 20 91 21 92 22 93 23 94 27 95
REMARK SMILES IDX 24 97 26 98 25 99
REMARK H PARENT 89 25 57 36 30 86 22 96
REMARK Flexibility Score: inf
ROOT
ATOM      1  C   UNL A   1      31.949  29.396  25.797  1.00  0.00     0.202 C 
ENDROOT
BRANCH   1   2
ATOM      2  O   UNL A   1      32.483  30.659  26.206  1.00  0.00    -0.374 OA
BRANCH   2   3
ATOM      3  C   UNL A   1      31.546  31.603  26.720  1.00  0.00     0.202 C 
BRANCH   3   4
ATOM      4  C   UNL A   1      31.965  33.064  26.559  1.00  0.00     0.261 C 
BRANCH   4   5
ATOM      5  O   UNL A   1      32.021  33.720  27.831  1.00  0.00    -0.460 OA
BRANCH   5   6
ATOM      6  C   UNL A   1      33.044  34.394  28.404  1.00  0.00     0.338 C 
ATOM      7  O   UNL A   1      32.955  35.623  28.432  1.00  0.00    -0.246 OA
BRANCH   6   8
ATOM      8  C   UNL A   1      34.297  33.775  28.961  1.00  0.00     0.060 A 
ATOM      9  C   UNL A   1      34.111  32.830  29.989  1.00  0.00     0.016 A 
ATOM     10  C   UNL A   1      35.614  34.097  28.620  1.00  0.00     0.016 A 
ATOM     11  C   UNL A   1      35.195  32.256  30.662  1.00  0.00     0.010 A 
ATOM     12  C   UNL A   1      36.701  33.531  29.282  1.00  0.00     0.010 A 
ATOM     13  C   UNL A   1      36.497  32.615  30.310  1.00  0.00    -0.014 A 
BRANCH  13  14
ATOM     14  C   UNL A   1      37.677  31.956  30.894  1.00  0.00     0.031 A 
ATOM     15  C   UNL A   1      38.379  30.853  30.168  1.00  0.00     0.074 A 
ATOM     16  C   UNL A   1      37.989  32.282  32.160  1.00  0.00     0.049 A 
ATOM     17  N   UNL A   1      39.429  30.172  30.538  1.00  0.00    -0.248 NA
ATOM     18  C   UNL A   1      37.821  30.445  28.869  1.00  0.00     0.031 C 
ATOM     19  C   UNL A   1      37.261  33.268  32.962  1.00  0.00     0.029 A 
ATOM     20  N   UNL A   1      38.951  31.804  33.005  1.00  0.00    -0.354 N 
ATOM     21  C   UNL A   1      39.678  29.271  29.509  1.00  0.00     0.074 A 
ATOM     22  C   UNL A   1      38.631  29.450  28.527  1.00  0.00     0.031 C 
ATOM     23  C   UNL A   1      37.794  33.311  34.190  1.00  0.00     0.029 A 
ATOM     24  C   UNL A   1      38.895  32.356  34.262  1.00  0.00     0.049 A 
ATOM     25  H   UNL A   1      39.618  31.130  32.739  1.00  0.00     0.167 HD
ATOM     26  C   UNL A   1      40.708  28.397  29.404  1.00  0.00     0.034 A 
ATOM     27  C   UNL A   1      39.656  32.122  35.349  1.00  0.00     0.034 A 
ATOM     28  C   UNL A   1      41.706  28.241  30.433  1.00  0.00     0.049 A 
ATOM     29  C   UNL A   1      40.818  31.179  35.199  1.00  0.00     0.074 A 
ATOM     30  C   UNL A   1      42.845  27.459  30.413  1.00  0.00     0.029 A 
ATOM     31  N   UNL A   1      41.673  28.867  31.674  1.00  0.00    -0.354 N 
ATOM     32  N   UNL A   1      41.151  30.452  34.156  1.00  0.00    -0.248 NA
ATOM     33  C   UNL A   1      41.729  31.046  36.339  1.00  0.00     0.031 C 
ATOM     34  C   UNL A   1      43.462  27.558  31.661  1.00  0.00     0.029 A 
ATOM     35  C   UNL A   1      42.755  28.464  32.439  1.00  0.00     0.049 A 
ATOM     36  H   UNL A   1      40.982  29.504  31.967  1.00  0.00     0.167 HD
ATOM     37  C   UNL A   1      42.323  29.793  34.504  1.00  0.00     0.074 A 
ATOM     38  C   UNL A   1      42.652  30.227  35.849  1.00  0.00     0.031 C 
ATOM     39  C   UNL A   1      43.059  28.911  33.780  1.00  0.00     0.034 A 
BRANCH  26  40
ATOM     40  C   UNL A   1      40.854  27.578  28.141  1.00  0.00     0.023 A 
ATOM     41  C   UNL A   1      40.613  26.190  28.154  1.00  0.00     0.031 A 
ATOM     42  C   UNL A   1      41.383  28.143  26.965  1.00  0.00     0.131 A 
ATOM     43  C   UNL A   1      40.936  25.413  27.032  1.00  0.00     0.055 A 
ATOM     44  C   UNL A   1      41.663  27.372  25.836  1.00  0.00     0.041 A 
ATOM     45  F   UNL A   1      41.643  29.460  26.898  1.00  0.00    -0.206 F 
ATOM     46  C   UNL A   1      41.454  25.998  25.872  1.00  0.00     0.022 A 
BRANCH  43  47
ATOM     47  S   UNL A   1      40.768  23.606  27.054  1.00  0.00     0.124 S 
ATOM     48  O   UNL A   1      41.307  23.271  28.370  1.00  0.00    -0.237 OA
ATOM     49  O   UNL A   1      39.326  23.433  26.910  1.00  0.00    -0.237 OA
ATOM     50  O   UNL A   1      41.574  23.163  25.923  1.00  0.00    -0.744 OA
ENDBRANCH  43  47
ENDBRANCH  26  40
BRANCH  27  51
ATOM     51  C   UNL A   1      39.383  32.910  36.584  1.00  0.00     0.023 A 
ATOM     52  C   UNL A   1      40.116  34.078  36.872  1.00  0.00     0.031 A 
ATOM     53  C   UNL A   1      38.540  32.395  37.581  1.00  0.00     0.131 A 
ATOM     54  C   UNL A   1      40.052  34.641  38.154  1.00  0.00     0.055 A 
ATOM     55  C   UNL A   1      38.427  32.999  38.834  1.00  0.00     0.041 A 
ATOM     56  F   UNL A   1      37.845  31.268  37.362  1.00  0.00    -0.206 F 
ATOM     57  C   UNL A   1      39.203  34.116  39.133  1.00  0.00     0.022 A 
BRANCH  54  58
ATOM     58  S   UNL A   1      41.195  35.962  38.650  1.00  0.00     0.124 S 
ATOM     59  O   UNL A   1      41.249  35.791  40.098  1.00  0.00    -0.237 OA
ATOM     60  O   UNL A   1      42.411  35.594  37.926  1.00  0.00    -0.237 OA
ATOM     61  O   UNL A   1      40.542  37.179  38.180  1.00  0.00    -0.744 OA
ENDBRANCH  54  58
ENDBRANCH  27  51
BRANCH  39  62
ATOM     62  C   UNL A   1      44.296  28.328  34.415  1.00  0.00     0.023 A 
ATOM     63  C   UNL A   1      45.545  28.945  34.211  1.00  0.00     0.031 A 
ATOM     64  C   UNL A   1      44.261  27.084  35.066  1.00  0.00     0.131 A 
ATOM     65  C   UNL A   1      46.715  28.289  34.608  1.00  0.00     0.055 A 
ATOM     66  C   UNL A   1      45.428  26.460  35.508  1.00  0.00     0.041 A 
ATOM     67  F   UNL A   1      43.094  26.455  35.273  1.00  0.00    -0.206 F 
ATOM     68  C   UNL A   1      46.662  27.054  35.264  1.00  0.00     0.022 A 
BRANCH  65  69
ATOM     69  S   UNL A   1      48.348  28.967  34.204  1.00  0.00     0.124 S 
ATOM     70  O   UNL A   1      49.152  28.509  35.335  1.00  0.00    -0.237 OA
ATOM     71  O   UNL A   1      48.641  28.320  32.929  1.00  0.00    -0.237 OA
ATOM     72  O   UNL A   1      48.127  30.408  34.143  1.00  0.00    -0.744 OA
ENDBRANCH  65  69
ENDBRANCH  39  62
ENDBRANCH  13  14
ENDBRANCH   6   8
ENDBRANCH   5   6
ENDBRANCH   4   5
ENDBRANCH   3   4
ENDBRANCH   2   3
ENDBRANCH   1   2
BRANCH   1  73
ATOM     73  C   UNL A   1      31.181  29.572  24.481  1.00  0.00     0.261 C 
BRANCH  73  74
ATOM     74  O   UNL A   1      31.803  28.751  23.479  1.00  0.00    -0.460 OA
BRANCH  74  75
ATOM     75  C   UNL A   1      31.028  27.753  22.974  1.00  0.00     0.338 C 
ATOM     76  O   UNL A   1      30.396  27.747  21.942  1.00  0.00    -0.246 OA
BRANCH  75  77
ATOM     77  C   UNL A   1      31.336  26.545  23.777  1.00  0.00     0.062 A 
ATOM     78  C   UNL A   1      30.316  25.854  24.448  1.00  0.00     0.016 A 
ATOM     79  C   UNL A   1      32.685  26.224  24.001  1.00  0.00     0.042 A 
ATOM     80  C   UNL A   1      30.642  24.921  25.425  1.00  0.00     0.017 A 
ATOM     81  C   UNL A   1      33.000  25.272  24.965  1.00  0.00     0.056 A 
ATOM     82  C   UNL A   1      31.986  24.667  25.699  1.00  0.00     0.064 A 
ATOM     83  N   UNL A   1      34.322  24.915  25.228  1.00  0.00    -0.307 N 
ATOM     84  C   UNL A   1      32.374  23.732  26.762  1.00  0.00     0.264 A 
ATOM     85  C   UNL A   1      34.664  23.841  26.011  1.00  0.00     0.328 A 
ATOM     86  H   UNL A   1      35.043  25.459  24.835  1.00  0.00     0.171 HD
ATOM     87  O   UNL A   1      31.590  23.500  27.675  1.00  0.00    -0.268 OA
ATOM     88  N   UNL A   1      33.613  23.141  26.594  1.00  0.00    -0.260 N 
ATOM     89  O   UNL A   1      35.847  23.539  26.150  1.00  0.00    -0.248 OA
BRANCH  88  90
ATOM     90  C   UNL A   1      33.931  21.871  27.241  1.00  0.00     0.137 C 
BRANCH  90  91
ATOM     91  C   UNL A   1      33.183  20.602  26.787  1.00  0.00     0.083 C 
BRANCH  91  92
ATOM     92  C   UNL A   1      32.500  20.577  25.406  1.00  0.00     0.264 C 
BRANCH  92  93
ATOM     93  N   UNL A   1      33.280  20.317  24.188  1.00  0.00    -0.331 N 
ATOM     94  C   UNL A   1      32.540  19.814  23.020  1.00  0.00     0.291 C 
ATOM     95  C   UNL A   1      34.372  19.349  24.488  1.00  0.00     0.291 C 
ATOM     96  H   UNL A   1      33.620  21.241  23.920  1.00  0.00     0.348 HD
ATOM     97  C   UNL A   1      32.112  18.343  23.114  1.00  0.00     0.221 C 
ATOM     98  C   UNL A   1      33.904  17.881  24.568  1.00  0.00     0.221 C 
ATOM     99  O   UNL A   1      33.231  17.487  23.368  1.00  0.00    -0.370 OA
ENDBRANCH  92  93
ENDBRANCH  91  92
ENDBRANCH  90  91
ENDBRANCH  88  90
ENDBRANCH  75  77
ENDBRANCH  74  75
ENDBRANCH  73  74
ENDBRANCH   1  73
TORSDOF 21
ENDMDL
