MODEL 1
REMARK VINA RESULT:     -11.1      0.000      0.000
REMARK SMILES CCC(=O)Nc1cc(NC(=O)/C=C/C(=O)OCCOCCOC(=O)c2ccc(-c3c4nc(c(-c5cc(S(=O)(=O)[O-])ccc5F)c5ccc([nH]5)c(-c5cc(S(=O)(=O)[O-])ccc5F)c5nc(c(-c6cc(S(=O)(=O)[O-])ccc6F)c6ccc3[nH]6)C=C5)C=C4)cc2)ccc1C
REMARK SMILES IDX 18 1 17 2 16 3 14 4 15 5 13 6 12 7 10 8 9 9 11 11 8 12 6 13
REMARK SMILES IDX 7 14 90 15 89 16 91 17 88 18 5 19 3 20 4 21 2 23 1 24 19 25
REMARK SMILES IDX 20 26 21 27 22 28 23 29 24 30 25 31 26 32 87 33 27 34 86 35
REMARK SMILES IDX 28 36 29 37 30 38 80 39 31 40 85 41 79 42 81 43 32 44 84 45
REMARK SMILES IDX 78 46 77 47 33 49 65 50 45 51 64 52 46 53 49 54 63 55 82 56
REMARK SMILES IDX 47 57 48 58 62 60 83 61 50 62 34 63 35 64 43 65 36 66 42 67
REMARK SMILES IDX 44 68 41 69 37 70 38 71 39 72 40 73 66 74 67 75 75 76 68 77
REMARK SMILES IDX 74 78 76 79 73 80 69 81 70 82 71 83 72 84 51 85 52 86 60 87
REMARK SMILES IDX 53 88 59 89 61 90 58 91 54 92 55 93 56 94 57 95
REMARK H PARENT 9 10 5 22 81 48 49 59
REMARK Flexibility Score: inf
ROOT
ATOM      1  C   UNL A   1      34.300  29.203  26.644  1.00  0.00     0.202 C 
ENDROOT
BRANCH   1   2
ATOM      2  C   UNL A   1      33.706  27.909  26.172  1.00  0.00     0.261 C 
BRANCH   2   3
ATOM      3  O   UNL A   1      32.285  27.944  26.352  1.00  0.00    -0.460 OA
BRANCH   3   4
ATOM      4  C   UNL A   1      31.666  26.759  26.212  1.00  0.00     0.331 C 
ATOM      5  O   UNL A   1      30.729  26.333  26.861  1.00  0.00    -0.247 OA
BRANCH   4   6
ATOM      6  C   UNL A   1      32.204  26.016  25.082  1.00  0.00     0.099 C 
ATOM      7  C   UNL A   1      31.566  24.892  24.739  1.00  0.00     0.079 C 
BRANCH   7   8
ATOM      8  C   UNL A   1      31.692  24.379  23.365  1.00  0.00     0.248 C 
ATOM      9  N   UNL A   1      32.528  23.332  23.073  1.00  0.00    -0.322 N 
ATOM     10  H   UNL A   1      32.481  23.047  22.131  1.00  0.00     0.170 HD
ATOM     11  O   UNL A   1      31.019  24.879  22.464  1.00  0.00    -0.270 OA
BRANCH   9  12
ATOM     12  C   UNL A   1      33.440  22.576  23.841  1.00  0.00     0.043 A 
ATOM     13  C   UNL A   1      34.121  20.584  25.079  1.00  0.00     0.046 A 
ATOM     14  C   UNL A   1      33.121  21.441  24.587  1.00  0.00     0.052 A 
ATOM     15  C   UNL A   1      35.471  20.892  24.853  1.00  0.00    -0.027 A 
ATOM     16  C   UNL A   1      35.782  22.127  24.263  1.00  0.00     0.008 A 
ATOM     17  C   UNL A   1      36.604  19.912  25.003  1.00  0.00     0.046 C 
ATOM     18  C   UNL A   1      34.777  22.964  23.771  1.00  0.00     0.026 A 
BRANCH  13  19
ATOM     19  N   UNL A   1      33.703  19.347  25.597  1.00  0.00    -0.326 N 
ATOM     20  C   UNL A   1      33.061  18.337  24.928  1.00  0.00     0.224 C 
ATOM     21  O   UNL A   1      32.146  17.698  25.452  1.00  0.00    -0.275 OA
ATOM     22  H   UNL A   1      33.891  19.187  26.550  1.00  0.00     0.169 HD
BRANCH  20  23
ATOM     23  C   UNL A   1      33.618  17.956  23.570  1.00  0.00     0.097 C 
ATOM     24  C   UNL A   1      34.229  16.579  23.467  1.00  0.00     0.014 C 
ENDBRANCH  20  23
ENDBRANCH  13  19
ENDBRANCH   9  12
ENDBRANCH   7   8
ENDBRANCH   4   6
ENDBRANCH   3   4
ENDBRANCH   2   3
ENDBRANCH   1   2
BRANCH   1  25
ATOM     25  O   UNL A   1      33.205  29.907  27.222  1.00  0.00    -0.374 OA
BRANCH  25  26
ATOM     26  C   UNL A   1      33.297  31.309  27.262  1.00  0.00     0.202 C 
BRANCH  26  27
ATOM     27  C   UNL A   1      34.477  31.766  28.119  1.00  0.00     0.261 C 
BRANCH  27  28
ATOM     28  O   UNL A   1      34.019  32.340  29.369  1.00  0.00    -0.460 OA
BRANCH  28  29
ATOM     29  C   UNL A   1      34.532  33.562  29.702  1.00  0.00     0.338 C 
ATOM     30  O   UNL A   1      33.981  34.629  29.472  1.00  0.00    -0.246 OA
BRANCH  29  31
ATOM     31  C   UNL A   1      35.914  33.424  30.252  1.00  0.00     0.060 A 
ATOM     32  C   UNL A   1      37.043  33.824  29.504  1.00  0.00     0.016 A 
ATOM     33  C   UNL A   1      36.081  32.618  31.368  1.00  0.00     0.016 A 
ATOM     34  C   UNL A   1      38.311  33.274  29.778  1.00  0.00     0.010 A 
ATOM     35  C   UNL A   1      37.291  31.988  31.542  1.00  0.00     0.010 A 
ATOM     36  C   UNL A   1      38.413  32.283  30.750  1.00  0.00    -0.014 A 
BRANCH  36  37
ATOM     37  C   UNL A   1      39.562  31.417  31.048  1.00  0.00     0.031 A 
ATOM     38  C   UNL A   1      39.685  30.162  30.262  1.00  0.00     0.074 A 
ATOM     39  C   UNL A   1      40.635  31.879  31.740  1.00  0.00     0.049 A 
ATOM     40  N   UNL A   1      40.644  29.320  30.395  1.00  0.00    -0.248 NA
ATOM     41  C   UNL A   1      38.697  29.720  29.277  1.00  0.00     0.031 C 
ATOM     42  C   UNL A   1      42.039  31.470  31.621  1.00  0.00     0.029 A 
ATOM     43  N   UNL A   1      40.671  32.821  32.766  1.00  0.00    -0.354 N 
ATOM     44  C   UNL A   1      40.591  28.436  29.344  1.00  0.00     0.074 A 
ATOM     45  C   UNL A   1      39.307  28.659  28.742  1.00  0.00     0.031 C 
ATOM     46  C   UNL A   1      42.745  31.962  32.655  1.00  0.00     0.029 A 
ATOM     47  C   UNL A   1      41.805  32.597  33.559  1.00  0.00     0.049 A 
ATOM     48  H   UNL A   1      40.005  33.531  32.910  1.00  0.00     0.167 HD
ATOM     49  C   UNL A   1      41.716  27.720  29.066  1.00  0.00     0.034 A 
ATOM     50  C   UNL A   1      41.656  32.366  34.891  1.00  0.00     0.034 A 
ATOM     51  C   UNL A   1      42.670  27.836  30.181  1.00  0.00     0.049 A 
ATOM     52  C   UNL A   1      41.991  30.913  35.147  1.00  0.00     0.074 A 
ATOM     53  C   UNL A   1      43.887  28.474  30.351  1.00  0.00     0.029 A 
ATOM     54  N   UNL A   1      42.233  27.490  31.462  1.00  0.00    -0.354 N 
ATOM     55  N   UNL A   1      42.048  30.024  34.186  1.00  0.00    -0.248 NA
ATOM     56  C   UNL A   1      42.399  30.359  36.433  1.00  0.00     0.031 C 
ATOM     57  C   UNL A   1      44.100  28.628  31.756  1.00  0.00     0.029 A 
ATOM     58  C   UNL A   1      43.050  28.027  32.438  1.00  0.00     0.049 A 
ATOM     59  H   UNL A   1      41.443  26.932  31.647  1.00  0.00     0.167 HD
ATOM     60  C   UNL A   1      42.545  28.851  34.659  1.00  0.00     0.074 A 
ATOM     61  C   UNL A   1      42.724  29.100  36.084  1.00  0.00     0.031 C 
ATOM     62  C   UNL A   1      42.783  27.773  33.851  1.00  0.00     0.034 A 
BRANCH  49  63
ATOM     63  C   UNL A   1      42.056  27.081  27.727  1.00  0.00     0.023 A 
ATOM     64  C   UNL A   1      42.146  25.673  27.660  1.00  0.00     0.031 A 
ATOM     65  C   UNL A   1      42.438  27.754  26.543  1.00  0.00     0.131 A 
ATOM     66  C   UNL A   1      42.612  25.015  26.503  1.00  0.00     0.055 A 
ATOM     67  C   UNL A   1      42.862  27.097  25.379  1.00  0.00     0.041 A 
ATOM     68  F   UNL A   1      42.486  29.085  26.445  1.00  0.00    -0.206 F 
ATOM     69  C   UNL A   1      42.960  25.720  25.355  1.00  0.00     0.022 A 
BRANCH  66  70
ATOM     70  S   UNL A   1      42.820  23.215  26.533  1.00  0.00     0.124 S 
ATOM     71  O   UNL A   1      43.771  23.002  25.448  1.00  0.00    -0.237 OA
ATOM     72  O   UNL A   1      43.315  22.980  27.885  1.00  0.00    -0.237 OA
ATOM     73  O   UNL A   1      41.471  22.712  26.277  1.00  0.00    -0.744 OA
ENDBRANCH  66  70
ENDBRANCH  49  63
BRANCH  50  74
ATOM     74  C   UNL A   1      40.577  33.237  35.475  1.00  0.00     0.023 A 
ATOM     75  C   UNL A   1      39.461  32.574  36.067  1.00  0.00     0.031 A 
ATOM     76  C   UNL A   1      40.838  34.549  35.897  1.00  0.00     0.131 A 
ATOM     77  C   UNL A   1      38.729  33.172  37.114  1.00  0.00     0.055 A 
ATOM     78  C   UNL A   1      40.100  35.146  36.934  1.00  0.00     0.041 A 
ATOM     79  F   UNL A   1      41.900  35.217  35.426  1.00  0.00    -0.206 F 
ATOM     80  C   UNL A   1      39.063  34.453  37.564  1.00  0.00     0.022 A 
BRANCH  77  81
ATOM     81  S   UNL A   1      37.558  32.166  38.122  1.00  0.00     0.124 S 
ATOM     82  O   UNL A   1      38.233  32.107  39.412  1.00  0.00    -0.237 OA
ATOM     83  O   UNL A   1      36.326  32.950  38.085  1.00  0.00    -0.237 OA
ATOM     84  O   UNL A   1      37.492  30.895  37.400  1.00  0.00    -0.744 OA
ENDBRANCH  77  81
ENDBRANCH  50  74
BRANCH  62  85
ATOM     85  C   UNL A   1      42.858  26.367  34.380  1.00  0.00     0.023 A 
ATOM     86  C   UNL A   1      44.069  25.669  34.428  1.00  0.00     0.031 A 
ATOM     87  C   UNL A   1      41.745  25.718  34.957  1.00  0.00     0.131 A 
ATOM     88  C   UNL A   1      44.125  24.347  34.878  1.00  0.00     0.055 A 
ATOM     89  C   UNL A   1      41.830  24.444  35.525  1.00  0.00     0.041 A 
ATOM     90  F   UNL A   1      40.535  26.292  35.010  1.00  0.00    -0.206 F 
ATOM     91  C   UNL A   1      43.019  23.735  35.459  1.00  0.00     0.022 A 
BRANCH  88  92
ATOM     92  S   UNL A   1      45.645  23.429  34.549  1.00  0.00     0.124 S 
ATOM     93  O   UNL A   1      45.837  22.714  35.808  1.00  0.00    -0.237 OA
ATOM     94  O   UNL A   1      45.275  22.601  33.404  1.00  0.00    -0.237 OA
ATOM     95  O   UNL A   1      46.624  24.476  34.272  1.00  0.00    -0.744 OA
ENDBRANCH  88  92
ENDBRANCH  62  85
ENDBRANCH  36  37
ENDBRANCH  29  31
ENDBRANCH  28  29
ENDBRANCH  27  28
ENDBRANCH  26  27
ENDBRANCH  25  26
ENDBRANCH   1  25
TORSDOF 21
ENDMDL
MODEL 2
REMARK VINA RESULT:     -11.0      1.902      2.722
REMARK SMILES CCC(=O)Nc1cc(NC(=O)/C=C/C(=O)OCCOCCOC(=O)c2ccc(-c3c4nc(c(-c5cc(S(=O)(=O)[O-])ccc5F)c5ccc([nH]5)c(-c5cc(S(=O)(=O)[O-])ccc5F)c5nc(c(-c6cc(S(=O)(=O)[O-])ccc6F)c6ccc3[nH]6)C=C5)C=C4)cc2)ccc1C
REMARK SMILES IDX 18 1 17 2 16 3 14 4 15 5 13 6 12 7 10 8 9 9 11 11 8 12 6 13
REMARK SMILES IDX 7 14 90 15 89 16 91 17 88 18 5 19 3 20 4 21 2 23 1 24 19 25
REMARK SMILES IDX 20 26 21 27 22 28 23 29 24 30 25 31 26 32 87 33 27 34 86 35
REMARK SMILES IDX 28 36 29 37 30 38 80 39 31 40 85 41 79 42 81 43 32 44 84 45
REMARK SMILES IDX 78 46 77 47 33 49 65 50 45 51 64 52 46 53 49 54 63 55 82 56
REMARK SMILES IDX 47 57 48 58 62 60 83 61 50 62 34 63 35 64 43 65 36 66 42 67
REMARK SMILES IDX 44 68 41 69 37 70 38 71 39 72 40 73 66 74 67 75 75 76 68 77
REMARK SMILES IDX 74 78 76 79 73 80 69 81 70 82 71 83 72 84 51 85 52 86 60 87
REMARK SMILES IDX 53 88 59 89 61 90 58 91 54 92 55 93 56 94 57 95
REMARK H PARENT 9 10 5 22 81 48 49 59
REMARK Flexibility Score: inf
ROOT
ATOM      1  C   UNL A   1      34.322  32.488  27.651  1.00  0.00     0.202 C 
ENDROOT
BRANCH   1   2
ATOM      2  C   UNL A   1      33.920  31.054  27.832  1.00  0.00     0.261 C 
BRANCH   2   3
ATOM      3  O   UNL A   1      33.688  30.459  26.549  1.00  0.00    -0.460 OA
BRANCH   3   4
ATOM      4  C   UNL A   1      32.394  30.272  26.236  1.00  0.00     0.331 C 
ATOM      5  O   UNL A   1      31.420  30.644  26.864  1.00  0.00    -0.247 OA
BRANCH   4   6
ATOM      6  C   UNL A   1      32.255  29.610  24.946  1.00  0.00     0.099 C 
ATOM      7  C   UNL A   1      31.022  29.245  24.584  1.00  0.00     0.079 C 
BRANCH   7   8
ATOM      8  C   UNL A   1      30.709  29.066  23.157  1.00  0.00     0.248 C 
ATOM      9  N   UNL A   1      31.008  27.896  22.507  1.00  0.00    -0.322 N 
ATOM     10  H   UNL A   1      30.700  27.880  21.572  1.00  0.00     0.170 HD
ATOM     11  O   UNL A   1      30.148  29.970  22.538  1.00  0.00    -0.270 OA
BRANCH   9  12
ATOM     12  C   UNL A   1      31.664  26.709  22.900  1.00  0.00     0.043 A 
ATOM     13  C   UNL A   1      31.707  24.424  23.760  1.00  0.00     0.046 A 
ATOM     14  C   UNL A   1      31.098  25.687  23.661  1.00  0.00     0.052 A 
ATOM     15  C   UNL A   1      32.931  24.192  23.115  1.00  0.00    -0.027 A 
ATOM     16  C   UNL A   1      33.579  25.280  22.508  1.00  0.00     0.008 A 
ATOM     17  C   UNL A   1      33.505  22.827  22.844  1.00  0.00     0.046 C 
ATOM     18  C   UNL A   1      32.957  26.526  22.411  1.00  0.00     0.026 A 
BRANCH  13  19
ATOM     19  N   UNL A   1      30.946  23.392  24.335  1.00  0.00    -0.326 N 
ATOM     20  C   UNL A   1      31.253  22.650  25.445  1.00  0.00     0.224 C 
ATOM     21  O   UNL A   1      31.032  21.438  25.491  1.00  0.00    -0.275 OA
ATOM     22  H   UNL A   1      30.096  23.177  23.888  1.00  0.00     0.169 HD
BRANCH  20  23
ATOM     23  C   UNL A   1      31.749  23.410  26.659  1.00  0.00     0.097 C 
ATOM     24  C   UNL A   1      33.095  22.991  27.201  1.00  0.00     0.014 C 
ENDBRANCH  20  23
ENDBRANCH  13  19
ENDBRANCH   9  12
ENDBRANCH   7   8
ENDBRANCH   4   6
ENDBRANCH   3   4
ENDBRANCH   2   3
ENDBRANCH   1   2
BRANCH   1  25
ATOM     25  O   UNL A   1      33.236  33.232  28.195  1.00  0.00    -0.374 OA
BRANCH  25  26
ATOM     26  C   UNL A   1      33.365  34.632  28.206  1.00  0.00     0.202 C 
BRANCH  26  27
ATOM     27  C   UNL A   1      32.964  35.218  29.559  1.00  0.00     0.261 C 
BRANCH  27  28
ATOM     28  O   UNL A   1      34.128  35.438  30.394  1.00  0.00    -0.460 OA
BRANCH  28  29
ATOM     29  C   UNL A   1      34.212  34.684  31.531  1.00  0.00     0.338 C 
ATOM     30  O   UNL A   1      33.764  35.020  32.618  1.00  0.00    -0.246 OA
BRANCH  29  31
ATOM     31  C   UNL A   1      35.046  33.467  31.299  1.00  0.00     0.060 A 
ATOM     32  C   UNL A   1      34.929  32.330  32.128  1.00  0.00     0.016 A 
ATOM     33  C   UNL A   1      36.143  33.594  30.458  1.00  0.00     0.016 A 
ATOM     34  C   UNL A   1      35.995  31.414  32.236  1.00  0.00     0.010 A 
ATOM     35  C   UNL A   1      37.225  32.771  30.669  1.00  0.00     0.010 A 
ATOM     36  C   UNL A   1      37.182  31.689  31.564  1.00  0.00    -0.014 A 
BRANCH  36  37
ATOM     37  C   UNL A   1      38.482  31.016  31.702  1.00  0.00     0.031 A 
ATOM     38  C   UNL A   1      38.683  29.767  30.922  1.00  0.00     0.074 A 
ATOM     39  C   UNL A   1      39.558  31.656  32.225  1.00  0.00     0.049 A 
ATOM     40  N   UNL A   1      39.769  29.084  30.923  1.00  0.00    -0.248 NA
ATOM     41  C   UNL A   1      37.645  29.149  30.096  1.00  0.00     0.031 C 
ATOM     42  C   UNL A   1      40.976  31.459  31.908  1.00  0.00     0.029 A 
ATOM     43  N   UNL A   1      39.594  32.628  33.224  1.00  0.00    -0.354 N 
ATOM     44  C   UNL A   1      39.704  28.167  29.902  1.00  0.00     0.074 A 
ATOM     45  C   UNL A   1      38.328  28.175  29.490  1.00  0.00     0.031 C 
ATOM     46  C   UNL A   1      41.739  32.086  32.823  1.00  0.00     0.029 A 
ATOM     47  C   UNL A   1      40.850  32.604  33.846  1.00  0.00     0.049 A 
ATOM     48  H   UNL A   1      38.854  33.234  33.455  1.00  0.00     0.167 HD
ATOM     49  C   UNL A   1      40.874  27.619  29.471  1.00  0.00     0.034 A 
ATOM     50  C   UNL A   1      40.929  32.398  35.189  1.00  0.00     0.034 A 
ATOM     51  C   UNL A   1      41.947  27.915  30.435  1.00  0.00     0.049 A 
ATOM     52  C   UNL A   1      41.516  31.021  35.410  1.00  0.00     0.074 A 
ATOM     53  C   UNL A   1      43.064  28.733  30.419  1.00  0.00     0.029 A 
ATOM     54  N   UNL A   1      41.755  27.551  31.770  1.00  0.00    -0.354 N 
ATOM     55  N   UNL A   1      41.572  30.119  34.462  1.00  0.00    -0.248 NA
ATOM     56  C   UNL A   1      42.182  30.579  36.629  1.00  0.00     0.031 C 
ATOM     57  C   UNL A   1      43.448  28.965  31.776  1.00  0.00     0.029 A 
ATOM     58  C   UNL A   1      42.609  28.237  32.610  1.00  0.00     0.049 A 
ATOM     59  H   UNL A   1      41.094  26.887  32.074  1.00  0.00     0.167 HD
ATOM     60  C   UNL A   1      42.305  29.050  34.871  1.00  0.00     0.074 A 
ATOM     61  C   UNL A   1      42.644  29.372  36.252  1.00  0.00     0.031 C 
ATOM     62  C   UNL A   1      42.588  27.994  34.050  1.00  0.00     0.034 A 
BRANCH  49  63
ATOM     63  C   UNL A   1      41.114  26.994  28.106  1.00  0.00     0.023 A 
ATOM     64  C   UNL A   1      41.470  25.628  28.047  1.00  0.00     0.031 A 
ATOM     65  C   UNL A   1      41.160  27.669  26.863  1.00  0.00     0.131 A 
ATOM     66  C   UNL A   1      41.866  25.017  26.839  1.00  0.00     0.055 A 
ATOM     67  C   UNL A   1      41.513  27.051  25.656  1.00  0.00     0.041 A 
ATOM     68  F   UNL A   1      40.926  28.978  26.738  1.00  0.00    -0.206 F 
ATOM     69  C   UNL A   1      41.878  25.719  25.638  1.00  0.00     0.022 A 
BRANCH  66  70
ATOM     70  S   UNL A   1      42.430  23.294  26.863  1.00  0.00     0.124 S 
ATOM     71  O   UNL A   1      42.594  23.049  28.291  1.00  0.00    -0.237 OA
ATOM     72  O   UNL A   1      41.331  22.597  26.206  1.00  0.00    -0.237 OA
ATOM     73  O   UNL A   1      43.677  23.334  26.098  1.00  0.00    -0.744 OA
ENDBRANCH  66  70
ENDBRANCH  49  63
BRANCH  50  74
ATOM     74  C   UNL A   1      39.823  33.116  35.913  1.00  0.00     0.023 A 
ATOM     75  C   UNL A   1      38.853  32.308  36.576  1.00  0.00     0.031 A 
ATOM     76  C   UNL A   1      39.976  34.434  36.370  1.00  0.00     0.131 A 
ATOM     77  C   UNL A   1      38.166  32.778  37.715  1.00  0.00     0.055 A 
ATOM     78  C   UNL A   1      39.283  34.903  37.500  1.00  0.00     0.041 A 
ATOM     79  F   UNL A   1      40.905  35.237  35.832  1.00  0.00    -0.206 F 
ATOM     80  C   UNL A   1      38.398  34.071  38.192  1.00  0.00     0.022 A 
BRANCH  77  81
ATOM     81  S   UNL A   1      37.221  31.608  38.780  1.00  0.00     0.124 S 
ATOM     82  O   UNL A   1      35.937  32.284  38.920  1.00  0.00    -0.237 OA
ATOM     83  O   UNL A   1      37.207  30.377  37.995  1.00  0.00    -0.237 OA
ATOM     84  O   UNL A   1      38.019  31.540  40.005  1.00  0.00    -0.744 OA
ENDBRANCH  77  81
ENDBRANCH  50  74
BRANCH  62  85
ATOM     85  C   UNL A   1      42.953  26.633  34.578  1.00  0.00     0.023 A 
ATOM     86  C   UNL A   1      44.259  26.142  34.491  1.00  0.00     0.031 A 
ATOM     87  C   UNL A   1      42.034  25.829  35.288  1.00  0.00     0.131 A 
ATOM     88  C   UNL A   1      44.581  24.859  34.943  1.00  0.00     0.055 A 
ATOM     89  C   UNL A   1      42.390  24.602  35.853  1.00  0.00     0.041 A 
ATOM     90  F   UNL A   1      40.760  26.202  35.477  1.00  0.00    -0.206 F 
ATOM     91  C   UNL A   1      43.664  24.093  35.655  1.00  0.00     0.022 A 
BRANCH  88  92
ATOM     92  S   UNL A   1      46.184  24.190  34.446  1.00  0.00     0.124 S 
ATOM     93  O   UNL A   1      45.856  22.787  34.207  1.00  0.00    -0.237 OA
ATOM     94  O   UNL A   1      46.501  24.976  33.257  1.00  0.00    -0.237 OA
ATOM     95  O   UNL A   1      47.034  24.442  35.606  1.00  0.00    -0.744 OA
ENDBRANCH  88  92
ENDBRANCH  62  85
ENDBRANCH  36  37
ENDBRANCH  29  31
ENDBRANCH  28  29
ENDBRANCH  27  28
ENDBRANCH  26  27
ENDBRANCH  25  26
ENDBRANCH   1  25
TORSDOF 21
ENDMDL
MODEL 3
REMARK VINA RESULT:     -11.0      4.487     10.814
REMARK SMILES CCC(=O)Nc1cc(NC(=O)/C=C/C(=O)OCCOCCOC(=O)c2ccc(-c3c4nc(c(-c5cc(S(=O)(=O)[O-])ccc5F)c5ccc([nH]5)c(-c5cc(S(=O)(=O)[O-])ccc5F)c5nc(c(-c6cc(S(=O)(=O)[O-])ccc6F)c6ccc3[nH]6)C=C5)C=C4)cc2)ccc1C
REMARK SMILES IDX 18 1 17 2 16 3 14 4 15 5 13 6 12 7 10 8 9 9 11 11 8 12 6 13
REMARK SMILES IDX 7 14 90 15 89 16 91 17 88 18 5 19 3 20 4 21 2 23 1 24 19 25
REMARK SMILES IDX 20 26 21 27 22 28 23 29 24 30 25 31 26 32 87 33 27 34 86 35
REMARK SMILES IDX 28 36 29 37 30 38 80 39 31 40 85 41 79 42 81 43 32 44 84 45
REMARK SMILES IDX 78 46 77 47 33 49 65 50 45 51 64 52 46 53 49 54 63 55 82 56
REMARK SMILES IDX 47 57 48 58 62 60 83 61 50 62 34 63 35 64 43 65 36 66 42 67
REMARK SMILES IDX 44 68 41 69 37 70 38 71 39 72 40 73 66 74 67 75 75 76 68 77
REMARK SMILES IDX 74 78 76 79 73 80 69 81 70 82 71 83 72 84 51 85 52 86 60 87
REMARK SMILES IDX 53 88 59 89 61 90 58 91 54 92 55 93 56 94 57 95
REMARK H PARENT 9 10 5 22 81 48 49 59
REMARK Flexibility Score: inf
ROOT
ATOM      1  C   UNL A   1      37.731  22.209  25.461  1.00  0.00     0.202 C 
ENDROOT
BRANCH   1   2
ATOM      2  C   UNL A   1      36.415  21.541  25.196  1.00  0.00     0.261 C 
BRANCH   2   3
ATOM      3  O   UNL A   1      35.410  22.115  26.042  1.00  0.00    -0.460 OA
BRANCH   3   4
ATOM      4  C   UNL A   1      34.567  22.963  25.427  1.00  0.00     0.331 C 
ATOM      5  O   UNL A   1      34.745  23.550  24.376  1.00  0.00    -0.247 OA
BRANCH   4   6
ATOM      6  C   UNL A   1      33.301  23.055  26.140  1.00  0.00     0.099 C 
ATOM      7  C   UNL A   1      32.782  24.277  26.294  1.00  0.00     0.079 C 
BRANCH   7   8
ATOM      8  C   UNL A   1      31.334  24.426  26.511  1.00  0.00     0.248 C 
ATOM      9  N   UNL A   1      30.726  25.652  26.425  1.00  0.00    -0.322 N 
ATOM     10  H   UNL A   1      29.748  25.611  26.536  1.00  0.00     0.170 HD
ATOM     11  O   UNL A   1      30.648  23.432  26.749  1.00  0.00    -0.270 OA
BRANCH   9  12
ATOM     12  C   UNL A   1      31.211  26.961  26.210  1.00  0.00     0.043 A 
ATOM     13  C   UNL A   1      31.518  28.979  24.869  1.00  0.00     0.046 A 
ATOM     14  C   UNL A   1      31.308  27.593  24.970  1.00  0.00     0.052 A 
ATOM     15  C   UNL A   1      31.674  29.744  26.035  1.00  0.00    -0.027 A 
ATOM     16  C   UNL A   1      31.757  29.071  27.265  1.00  0.00     0.008 A 
ATOM     17  C   UNL A   1      31.550  31.243  26.093  1.00  0.00     0.046 C 
ATOM     18  C   UNL A   1      31.538  27.694  27.350  1.00  0.00     0.026 A 
BRANCH  13  19
ATOM     19  N   UNL A   1      31.353  29.558  23.600  1.00  0.00    -0.326 N 
ATOM     20  C   UNL A   1      30.213  29.592  22.841  1.00  0.00     0.224 C 
ATOM     21  O   UNL A   1      30.247  29.421  21.621  1.00  0.00    -0.275 OA
ATOM     22  H   UNL A   1      32.148  29.989  23.211  1.00  0.00     0.169 HD
BRANCH  20  23
ATOM     23  C   UNL A   1      28.931  29.981  23.551  1.00  0.00     0.097 C 
ATOM     24  C   UNL A   1      28.586  31.451  23.540  1.00  0.00     0.014 C 
ENDBRANCH  20  23
ENDBRANCH  13  19
ENDBRANCH   9  12
ENDBRANCH   7   8
ENDBRANCH   4   6
ENDBRANCH   3   4
ENDBRANCH   2   3
ENDBRANCH   1   2
BRANCH   1  25
ATOM     25  O   UNL A   1      38.664  21.136  25.545  1.00  0.00    -0.374 OA
BRANCH  25  26
ATOM     26  C   UNL A   1      39.808  21.346  26.334  1.00  0.00     0.202 C 
BRANCH  26  27
ATOM     27  C   UNL A   1      40.692  20.100  26.379  1.00  0.00     0.261 C 
BRANCH  27  28
ATOM     28  O   UNL A   1      41.996  20.409  26.931  1.00  0.00    -0.460 OA
BRANCH  28  29
ATOM     29  C   UNL A   1      42.769  21.279  26.215  1.00  0.00     0.338 C 
ATOM     30  O   UNL A   1      43.050  21.143  25.032  1.00  0.00    -0.246 OA
BRANCH  29  31
ATOM     31  C   UNL A   1      43.338  22.336  27.103  1.00  0.00     0.060 A 
ATOM     32  C   UNL A   1      42.935  22.456  28.451  1.00  0.00     0.016 A 
ATOM     33  C   UNL A   1      44.028  23.377  26.498  1.00  0.00     0.016 A 
ATOM     34  C   UNL A   1      43.073  23.684  29.130  1.00  0.00     0.010 A 
ATOM     35  C   UNL A   1      44.037  24.603  27.121  1.00  0.00     0.010 A 
ATOM     36  C   UNL A   1      43.549  24.786  28.426  1.00  0.00    -0.014 A 
BRANCH  36  37
ATOM     37  C   UNL A   1      43.566  26.195  28.846  1.00  0.00     0.031 A 
ATOM     38  C   UNL A   1      42.264  26.912  28.860  1.00  0.00     0.074 A 
ATOM     39  C   UNL A   1      44.625  26.722  29.511  1.00  0.00     0.049 A 
ATOM     40  N   UNL A   1      42.119  28.133  29.224  1.00  0.00    -0.248 NA
ATOM     41  C   UNL A   1      41.003  26.316  28.415  1.00  0.00     0.031 C 
ATOM     42  C   UNL A   1      44.629  27.795  30.510  1.00  0.00     0.029 A 
ATOM     43  N   UNL A   1      45.977  26.411  29.382  1.00  0.00    -0.354 N 
ATOM     44  C   UNL A   1      40.776  28.383  29.373  1.00  0.00     0.074 A 
ATOM     45  C   UNL A   1      40.124  27.261  28.758  1.00  0.00     0.031 C 
ATOM     46  C   UNL A   1      45.891  28.208  30.730  1.00  0.00     0.029 A 
ATOM     47  C   UNL A   1      46.745  27.512  29.785  1.00  0.00     0.049 A 
ATOM     48  H   UNL A   1      46.336  25.553  29.059  1.00  0.00     0.167 HD
ATOM     49  C   UNL A   1      40.415  29.464  30.119  1.00  0.00     0.034 A 
ATOM     50  C   UNL A   1      47.634  28.063  28.916  1.00  0.00     0.034 A 
ATOM     51  C   UNL A   1      41.587  30.325  30.349  1.00  0.00     0.049 A 
ATOM     52  C   UNL A   1      47.096  29.415  28.501  1.00  0.00     0.074 A 
ATOM     53  C   UNL A   1      42.367  30.623  31.453  1.00  0.00     0.029 A 
ATOM     54  N   UNL A   1      42.305  30.775  29.238  1.00  0.00    -0.354 N 
ATOM     55  N   UNL A   1      45.847  29.764  28.690  1.00  0.00    -0.248 NA
ATOM     56  C   UNL A   1      47.897  30.510  27.967  1.00  0.00     0.031 C 
ATOM     57  C   UNL A   1      43.616  31.128  30.976  1.00  0.00     0.029 A 
ATOM     58  C   UNL A   1      43.571  31.197  29.590  1.00  0.00     0.049 A 
ATOM     59  H   UNL A   1      41.950  30.791  28.319  1.00  0.00     0.167 HD
ATOM     60  C   UNL A   1      45.676  31.079  28.398  1.00  0.00     0.074 A 
ATOM     61  C   UNL A   1      46.987  31.501  27.919  1.00  0.00     0.031 C 
ATOM     62  C   UNL A   1      44.484  31.726  28.579  1.00  0.00     0.034 A 
BRANCH  49  63
ATOM     63  C   UNL A   1      39.075  29.661  30.811  1.00  0.00     0.023 A 
ATOM     64  C   UNL A   1      38.285  30.771  30.441  1.00  0.00     0.031 A 
ATOM     65  C   UNL A   1      38.574  28.921  31.909  1.00  0.00     0.131 A 
ATOM     66  C   UNL A   1      37.111  31.114  31.144  1.00  0.00     0.055 A 
ATOM     67  C   UNL A   1      37.386  29.238  32.581  1.00  0.00     0.041 A 
ATOM     68  F   UNL A   1      39.223  27.884  32.444  1.00  0.00    -0.206 F 
ATOM     69  C   UNL A   1      36.649  30.345  32.207  1.00  0.00     0.022 A 
BRANCH  66  70
ATOM     70  S   UNL A   1      36.218  32.624  30.690  1.00  0.00     0.124 S 
ATOM     71  O   UNL A   1      36.037  33.270  31.986  1.00  0.00    -0.237 OA
ATOM     72  O   UNL A   1      37.144  33.270  29.767  1.00  0.00    -0.237 OA
ATOM     73  O   UNL A   1      34.989  32.121  30.076  1.00  0.00    -0.744 OA
ENDBRANCH  66  70
ENDBRANCH  49  63
BRANCH  50  74
ATOM     74  C   UNL A   1      48.335  27.003  28.112  1.00  0.00     0.023 A 
ATOM     75  C   UNL A   1      48.024  26.933  26.722  1.00  0.00     0.031 A 
ATOM     76  C   UNL A   1      49.565  26.463  28.519  1.00  0.00     0.131 A 
ATOM     77  C   UNL A   1      48.963  26.450  25.787  1.00  0.00     0.055 A 
ATOM     78  C   UNL A   1      50.495  25.974  27.585  1.00  0.00     0.041 A 
ATOM     79  F   UNL A   1      49.951  26.539  29.800  1.00  0.00    -0.206 F 
ATOM     80  C   UNL A   1      50.210  25.990  26.216  1.00  0.00     0.022 A 
BRANCH  77  81
ATOM     81  S   UNL A   1      48.703  26.726  23.982  1.00  0.00     0.124 S 
ATOM     82  O   UNL A   1      47.924  25.556  23.599  1.00  0.00    -0.237 OA
ATOM     83  O   UNL A   1      47.995  28.002  23.937  1.00  0.00    -0.237 OA
ATOM     84  O   UNL A   1      50.064  26.765  23.444  1.00  0.00    -0.744 OA
ENDBRANCH  77  81
ENDBRANCH  50  74
BRANCH  62  85
ATOM     85  C   UNL A   1      44.127  32.988  27.843  1.00  0.00     0.023 A 
ATOM     86  C   UNL A   1      44.109  34.228  28.488  1.00  0.00     0.031 A 
ATOM     87  C   UNL A   1      43.904  33.009  26.449  1.00  0.00     0.131 A 
ATOM     88  C   UNL A   1      43.732  35.391  27.808  1.00  0.00     0.055 A 
ATOM     89  C   UNL A   1      43.654  34.191  25.747  1.00  0.00     0.041 A 
ATOM     90  F   UNL A   1      43.932  31.894  25.706  1.00  0.00    -0.206 F 
ATOM     91  C   UNL A   1      43.535  35.390  26.431  1.00  0.00     0.022 A 
BRANCH  88  92
ATOM     92  S   UNL A   1      43.381  36.852  28.810  1.00  0.00     0.124 S 
ATOM     93  O   UNL A   1      43.057  36.253  30.102  1.00  0.00    -0.237 OA
ATOM     94  O   UNL A   1      44.642  37.586  28.753  1.00  0.00    -0.237 OA
ATOM     95  O   UNL A   1      42.260  37.481  28.117  1.00  0.00    -0.744 OA
ENDBRANCH  88  92
ENDBRANCH  62  85
ENDBRANCH  36  37
ENDBRANCH  29  31
ENDBRANCH  28  29
ENDBRANCH  27  28
ENDBRANCH  26  27
ENDBRANCH  25  26
ENDBRANCH   1  25
TORSDOF 21
ENDMDL
