MODEL 1
REMARK VINA RESULT:     -11.4      0.000      0.000
REMARK SMILES CS(=O)(=O)Nc1ccc(-c2cc(Cl)cc3c2O[C@@H](C(F)(F)F)C(C(=O)OCCOCCOC(=O)c2ccc(-c4c5nc(c(-c6cc(S(=O)(=O)[O-])ccc6F)c6ccc([nH]6)c(-c6cc(S(=O)(=O)[O-])ccc6F)c6nc(c(-c7cc(S(=O)(=O)[O-])ccc7F)c7ccc4[nH]7)C=C6)C=C5)cc2)=C3)cc1
REMARK SMILES IDX 29 1 28 2 27 3 26 4 24 5 25 6 23 7 10 8 11 9 16 10 12 11
REMARK SMILES IDX 15 12 17 13 13 14 14 15 98 16 18 17 9 18 6 19 7 20 100 21
REMARK SMILES IDX 8 22 99 23 5 24 2 26 1 27 3 28 4 29 19 30 20 31 21 32 22 33
REMARK SMILES IDX 30 34 31 35 32 36 33 37 34 38 35 39 36 40 97 41 37 42 96 43
REMARK SMILES IDX 38 44 39 45 40 46 90 47 41 48 95 49 89 50 91 51 42 52 94 53
REMARK SMILES IDX 88 54 87 55 43 57 75 58 55 59 74 60 56 61 59 62 73 63 92 64
REMARK SMILES IDX 57 65 58 66 72 68 93 69 60 70 44 71 45 72 53 73 46 74 52 75
REMARK SMILES IDX 54 76 51 77 47 78 48 79 49 80 50 81 76 82 77 83 85 84 78 85
REMARK SMILES IDX 84 86 86 87 83 88 79 89 80 90 81 91 82 92 61 93 62 94 70 95
REMARK SMILES IDX 63 96 69 97 71 98 68 99 64 100 65 101 66 102 67 103
REMARK H PARENT 5 25 91 56 59 67
REMARK Flexibility Score: inf
ROOT
ATOM      1  O   UNL A   1      38.177  21.750  25.450  1.00  0.00    -0.374 OA
ENDROOT
BRANCH   1   2
ATOM      2  C   UNL A   1      37.507  20.601  24.949  1.00  0.00     0.202 C 
BRANCH   2   3
ATOM      3  C   UNL A   1      35.970  20.593  24.941  1.00  0.00     0.261 C 
BRANCH   3   4
ATOM      4  O   UNL A   1      35.400  21.491  23.973  1.00  0.00    -0.460 OA
BRANCH   4   5
ATOM      5  C   UNL A   1      34.354  22.225  24.394  1.00  0.00     0.338 C 
ATOM      6  O   UNL A   1      33.211  22.140  23.962  1.00  0.00    -0.246 OA
BRANCH   5   7
ATOM      7  C   UNL A   1      34.671  23.056  25.581  1.00  0.00     0.087 C 
ATOM      8  C   UNL A   1      32.874  26.801  25.764  1.00  0.00     0.026 A 
ATOM      9  C   UNL A   1      32.551  27.091  24.415  1.00  0.00     0.033 A 
ATOM     10  C   UNL A   1      33.611  25.611  25.951  1.00  0.00     0.135 A 
ATOM     11  C   UNL A   1      33.217  26.469  23.360  1.00  0.00     0.042 A 
ATOM     12  C   UNL A   1      34.472  25.178  24.925  1.00  0.00     0.019 A 
ATOM     13  O   UNL A   1      33.112  24.611  26.817  1.00  0.00    -0.475 OA
ATOM     14  Cl  UNL A   1      32.835  26.900  21.741  1.00  0.00    -0.084 Cl
ATOM     15  C   UNL A   1      34.253  25.586  23.615  1.00  0.00     0.032 A 
ATOM     16  C   UNL A   1      35.437  24.098  25.218  1.00  0.00     0.027 C 
ATOM     17  C   UNL A   1      33.834  23.303  26.817  1.00  0.00     0.316 C 
BRANCH   8  18
ATOM     18  C   UNL A   1      33.015  28.049  26.618  1.00  0.00    -0.014 A 
ATOM     19  C   UNL A   1      33.303  30.833  27.314  1.00  0.00     0.048 A 
ATOM     20  C   UNL A   1      32.045  30.242  27.183  1.00  0.00     0.027 A 
ATOM     21  C   UNL A   1      34.419  30.008  27.202  1.00  0.00     0.027 A 
ATOM     22  C   UNL A   1      31.903  28.876  26.873  1.00  0.00     0.011 A 
ATOM     23  C   UNL A   1      34.276  28.636  26.865  1.00  0.00     0.011 A 
BRANCH  19  24
ATOM     24  N   UNL A   1      33.328  32.262  27.357  1.00  0.00    -0.284 N 
ATOM     25  H   UNL A   1      32.713  32.723  26.742  1.00  0.00     0.180 HD
BRANCH  24  26
ATOM     26  S   UNL A   1      34.269  33.240  28.318  1.00  0.00     0.229 S 
ATOM     27  C   UNL A   1      34.704  32.190  29.693  1.00  0.00     0.183 C 
ATOM     28  O   UNL A   1      33.492  34.359  28.800  1.00  0.00    -0.207 OA
ATOM     29  O   UNL A   1      35.484  33.451  27.556  1.00  0.00    -0.207 OA
ENDBRANCH  24  26
ENDBRANCH  19  24
ENDBRANCH   8  18
BRANCH  17  30
ATOM     30  C   UNL A   1      33.066  22.069  27.344  1.00  0.00     0.430 C 
ATOM     31  F   UNL A   1      31.892  21.957  26.660  1.00  0.00    -0.167 F 
ATOM     32  F   UNL A   1      33.745  20.920  27.120  1.00  0.00    -0.167 F 
ATOM     33  F   UNL A   1      32.752  22.100  28.650  1.00  0.00    -0.167 F 
ENDBRANCH  17  30
ENDBRANCH   5   7
ENDBRANCH   4   5
ENDBRANCH   3   4
ENDBRANCH   2   3
ENDBRANCH   1   2
BRANCH   1  34
ATOM     34  C   UNL A   1      39.425  21.564  26.114  1.00  0.00     0.202 C 
BRANCH  34  35
ATOM     35  C   UNL A   1      40.003  20.151  26.237  1.00  0.00     0.261 C 
BRANCH  35  36
ATOM     36  O   UNL A   1      41.106  19.894  25.355  1.00  0.00    -0.460 OA
BRANCH  36  37
ATOM     37  C   UNL A   1      42.302  19.761  25.976  1.00  0.00     0.338 C 
ATOM     38  O   UNL A   1      42.893  18.714  26.222  1.00  0.00    -0.246 OA
BRANCH  37  39
ATOM     39  C   UNL A   1      42.912  21.081  26.185  1.00  0.00     0.060 A 
ATOM     40  C   UNL A   1      43.193  21.479  27.499  1.00  0.00     0.016 A 
ATOM     41  C   UNL A   1      43.106  21.958  25.117  1.00  0.00     0.016 A 
ATOM     42  C   UNL A   1      43.640  22.774  27.752  1.00  0.00     0.010 A 
ATOM     43  C   UNL A   1      43.546  23.260  25.375  1.00  0.00     0.010 A 
ATOM     44  C   UNL A   1      43.786  23.683  26.695  1.00  0.00    -0.014 A 
BRANCH  44  45
ATOM     45  C   UNL A   1      44.049  25.114  26.985  1.00  0.00     0.031 A 
ATOM     46  C   UNL A   1      45.442  25.650  26.793  1.00  0.00     0.074 A 
ATOM     47  C   UNL A   1      43.053  25.928  27.384  1.00  0.00     0.049 A 
ATOM     48  N   UNL A   1      45.920  26.835  27.066  1.00  0.00    -0.248 NA
ATOM     49  C   UNL A   1      46.428  24.720  26.220  1.00  0.00     0.031 C 
ATOM     50  C   UNL A   1      41.655  25.530  27.545  1.00  0.00     0.029 A 
ATOM     51  N   UNL A   1      43.068  27.254  27.735  1.00  0.00    -0.354 N 
ATOM     52  C   UNL A   1      47.260  26.799  26.693  1.00  0.00     0.074 A 
ATOM     53  C   UNL A   1      47.528  25.458  26.218  1.00  0.00     0.031 C 
ATOM     54  C   UNL A   1      40.948  26.589  27.975  1.00  0.00     0.029 A 
ATOM     55  C   UNL A   1      41.849  27.724  28.168  1.00  0.00     0.049 A 
ATOM     56  H   UNL A   1      43.874  27.817  27.682  1.00  0.00     0.167 HD
ATOM     57  C   UNL A   1      48.175  27.797  26.729  1.00  0.00     0.034 A 
ATOM     58  C   UNL A   1      41.512  28.920  28.692  1.00  0.00     0.034 A 
ATOM     59  C   UNL A   1      47.894  29.125  27.217  1.00  0.00     0.049 A 
ATOM     60  C   UNL A   1      42.583  29.981  28.829  1.00  0.00     0.074 A 
ATOM     61  C   UNL A   1      48.751  30.206  27.318  1.00  0.00     0.029 A 
ATOM     62  N   UNL A   1      46.659  29.553  27.686  1.00  0.00    -0.354 N 
ATOM     63  N   UNL A   1      43.850  29.929  28.483  1.00  0.00    -0.248 NA
ATOM     64  C   UNL A   1      42.176  31.266  29.414  1.00  0.00     0.031 C 
ATOM     65  C   UNL A   1      48.056  31.264  27.910  1.00  0.00     0.029 A 
ATOM     66  C   UNL A   1      46.741  30.874  28.099  1.00  0.00     0.049 A 
ATOM     67  H   UNL A   1      45.846  29.000  27.721  1.00  0.00     0.167 HD
ATOM     68  C   UNL A   1      44.373  31.189  28.769  1.00  0.00     0.074 A 
ATOM     69  C   UNL A   1      43.283  31.981  29.296  1.00  0.00     0.031 C 
ATOM     70  C   UNL A   1      45.639  31.653  28.610  1.00  0.00     0.034 A 
BRANCH  57  71
ATOM     71  C   UNL A   1      49.573  27.483  26.257  1.00  0.00     0.023 A 
ATOM     72  C   UNL A   1      50.047  27.930  25.012  1.00  0.00     0.031 A 
ATOM     73  C   UNL A   1      50.448  26.736  27.066  1.00  0.00     0.131 A 
ATOM     74  C   UNL A   1      51.341  27.587  24.591  1.00  0.00     0.055 A 
ATOM     75  C   UNL A   1      51.759  26.461  26.674  1.00  0.00     0.041 A 
ATOM     76  F   UNL A   1      50.042  26.262  28.254  1.00  0.00    -0.206 F 
ATOM     77  C   UNL A   1      52.210  26.880  25.425  1.00  0.00     0.022 A 
BRANCH  74  78
ATOM     78  S   UNL A   1      51.834  27.984  22.892  1.00  0.00     0.124 S 
ATOM     79  O   UNL A   1      50.911  29.067  22.562  1.00  0.00    -0.237 OA
ATOM     80  O   UNL A   1      53.233  28.364  23.048  1.00  0.00    -0.237 OA
ATOM     81  O   UNL A   1      51.602  26.735  22.168  1.00  0.00    -0.744 OA
ENDBRANCH  74  78
ENDBRANCH  57  71
BRANCH  58  82
ATOM     82  C   UNL A   1      40.125  29.184  29.181  1.00  0.00     0.023 A 
ATOM     83  C   UNL A   1      39.810  29.090  30.545  1.00  0.00     0.031 A 
ATOM     84  C   UNL A   1      39.071  29.421  28.281  1.00  0.00     0.131 A 
ATOM     85  C   UNL A   1      38.469  29.146  30.961  1.00  0.00     0.055 A 
ATOM     86  C   UNL A   1      37.748  29.556  28.708  1.00  0.00     0.041 A 
ATOM     87  F   UNL A   1      39.308  29.514  26.962  1.00  0.00    -0.206 F 
ATOM     88  C   UNL A   1      37.438  29.393  30.053  1.00  0.00     0.022 A 
BRANCH  85  89
ATOM     89  S   UNL A   1      38.081  28.730  32.684  1.00  0.00     0.124 S 
ATOM     90  O   UNL A   1      36.749  29.305  32.832  1.00  0.00    -0.237 OA
ATOM     91  O   UNL A   1      38.153  27.274  32.667  1.00  0.00    -0.237 OA
ATOM     92  O   UNL A   1      39.138  29.398  33.440  1.00  0.00    -0.744 OA
ENDBRANCH  85  89
ENDBRANCH  58  82
BRANCH  70  93
ATOM     93  C   UNL A   1      45.890  33.105  28.942  1.00  0.00     0.023 A 
ATOM     94  C   UNL A   1      45.571  34.140  28.047  1.00  0.00     0.031 A 
ATOM     95  C   UNL A   1      46.469  33.454  30.177  1.00  0.00     0.131 A 
ATOM     96  C   UNL A   1      45.887  35.467  28.372  1.00  0.00     0.055 A 
ATOM     97  C   UNL A   1      46.718  34.782  30.524  1.00  0.00     0.041 A 
ATOM     98  F   UNL A   1      46.796  32.507  31.070  1.00  0.00    -0.206 F 
ATOM     99  C   UNL A   1      46.441  35.797  29.613  1.00  0.00     0.022 A 
BRANCH  96 100
ATOM    100  S   UNL A   1      45.660  36.751  27.111  1.00  0.00     0.124 S 
ATOM    101  O   UNL A   1      46.138  37.944  27.802  1.00  0.00    -0.237 OA
ATOM    102  O   UNL A   1      46.500  36.268  26.020  1.00  0.00    -0.237 OA
ATOM    103  O   UNL A   1      44.224  36.722  26.845  1.00  0.00    -0.744 OA
ENDBRANCH  96 100
ENDBRANCH  70  93
ENDBRANCH  44  45
ENDBRANCH  37  39
ENDBRANCH  36  37
ENDBRANCH  35  36
ENDBRANCH  34  35
ENDBRANCH   1  34
TORSDOF 21
ENDMDL
MODEL 2
REMARK VINA RESULT:     -11.0      5.830     11.987
REMARK SMILES CS(=O)(=O)Nc1ccc(-c2cc(Cl)cc3c2O[C@@H](C(F)(F)F)C(C(=O)OCCOCCOC(=O)c2ccc(-c4c5nc(c(-c6cc(S(=O)(=O)[O-])ccc6F)c6ccc([nH]6)c(-c6cc(S(=O)(=O)[O-])ccc6F)c6nc(c(-c7cc(S(=O)(=O)[O-])ccc7F)c7ccc4[nH]7)C=C6)C=C5)cc2)=C3)cc1
REMARK SMILES IDX 29 1 28 2 27 3 26 4 24 5 25 6 23 7 10 8 11 9 16 10 12 11
REMARK SMILES IDX 15 12 17 13 13 14 14 15 98 16 18 17 9 18 6 19 7 20 100 21
REMARK SMILES IDX 8 22 99 23 5 24 2 26 1 27 3 28 4 29 19 30 20 31 21 32 22 33
REMARK SMILES IDX 30 34 31 35 32 36 33 37 34 38 35 39 36 40 97 41 37 42 96 43
REMARK SMILES IDX 38 44 39 45 40 46 90 47 41 48 95 49 89 50 91 51 42 52 94 53
REMARK SMILES IDX 88 54 87 55 43 57 75 58 55 59 74 60 56 61 59 62 73 63 92 64
REMARK SMILES IDX 57 65 58 66 72 68 93 69 60 70 44 71 45 72 53 73 46 74 52 75
REMARK SMILES IDX 54 76 51 77 47 78 48 79 49 80 50 81 76 82 77 83 85 84 78 85
REMARK SMILES IDX 84 86 86 87 83 88 79 89 80 90 81 91 82 92 61 93 62 94 70 95
REMARK SMILES IDX 63 96 69 97 71 98 68 99 64 100 65 101 66 102 67 103
REMARK H PARENT 5 25 91 56 59 67
REMARK Flexibility Score: inf
ROOT
ATOM      1  O   UNL A   1      32.561  30.462  27.191  1.00  0.00    -0.374 OA
ENDROOT
BRANCH   1   2
ATOM      2  C   UNL A   1      32.716  29.851  25.917  1.00  0.00     0.202 C 
BRANCH   2   3
ATOM      3  C   UNL A   1      31.911  28.579  25.610  1.00  0.00     0.261 C 
BRANCH   3   4
ATOM      4  O   UNL A   1      32.677  27.568  24.935  1.00  0.00    -0.460 OA
BRANCH   4   5
ATOM      5  C   UNL A   1      32.634  27.594  23.590  1.00  0.00     0.338 C 
ATOM      6  O   UNL A   1      33.040  28.511  22.887  1.00  0.00    -0.246 OA
BRANCH   5   7
ATOM      7  C   UNL A   1      32.191  26.307  23.001  1.00  0.00     0.087 C 
ATOM      8  C   UNL A   1      33.374  22.848  24.982  1.00  0.00     0.026 A 
ATOM      9  C   UNL A   1      34.509  23.252  25.726  1.00  0.00     0.033 A 
ATOM     10  C   UNL A   1      32.851  23.837  24.119  1.00  0.00     0.135 A 
ATOM     11  C   UNL A   1      35.254  24.373  25.362  1.00  0.00     0.042 A 
ATOM     12  C   UNL A   1      33.727  24.797  23.579  1.00  0.00     0.019 A 
ATOM     13  O   UNL A   1      31.495  24.220  24.239  1.00  0.00    -0.475 OA
ATOM     14  Cl  UNL A   1      36.660  24.788  26.257  1.00  0.00    -0.084 Cl
ATOM     15  C   UNL A   1      34.923  25.089  24.223  1.00  0.00     0.032 A 
ATOM     16  C   UNL A   1      33.244  25.657  22.478  1.00  0.00     0.027 C 
ATOM     17  C   UNL A   1      31.059  25.403  23.438  1.00  0.00     0.316 C 
BRANCH   8  18
ATOM     18  C   UNL A   1      33.355  21.356  24.697  1.00  0.00    -0.014 A 
ATOM     19  C   UNL A   1      33.551  18.513  25.145  1.00  0.00     0.048 A 
ATOM     20  C   UNL A   1      32.338  19.191  25.287  1.00  0.00     0.027 A 
ATOM     21  C   UNL A   1      34.644  19.238  24.677  1.00  0.00     0.027 A 
ATOM     22  C   UNL A   1      32.234  20.573  25.040  1.00  0.00     0.011 A 
ATOM     23  C   UNL A   1      34.545  20.636  24.450  1.00  0.00     0.011 A 
BRANCH  19  24
ATOM     24  N   UNL A   1      33.600  17.189  25.681  1.00  0.00    -0.284 N 
ATOM     25  H   UNL A   1      33.503  17.114  26.658  1.00  0.00     0.180 HD
BRANCH  24  26
ATOM     26  S   UNL A   1      33.801  15.759  24.856  1.00  0.00     0.229 S 
ATOM     27  C   UNL A   1      32.434  14.755  25.411  1.00  0.00     0.183 C 
ATOM     28  O   UNL A   1      35.043  15.131  25.243  1.00  0.00    -0.207 OA
ATOM     29  O   UNL A   1      33.536  16.091  23.469  1.00  0.00    -0.207 OA
ENDBRANCH  24  26
ENDBRANCH  19  24
ENDBRANCH   8  18
BRANCH  17  30
ATOM     30  C   UNL A   1      29.776  26.135  23.896  1.00  0.00     0.430 C 
ATOM     31  F   UNL A   1      29.827  26.306  25.247  1.00  0.00    -0.167 F 
ATOM     32  F   UNL A   1      29.687  27.375  23.360  1.00  0.00    -0.167 F 
ATOM     33  F   UNL A   1      28.623  25.500  23.628  1.00  0.00    -0.167 F 
ENDBRANCH  17  30
ENDBRANCH   5   7
ENDBRANCH   4   5
ENDBRANCH   3   4
ENDBRANCH   2   3
ENDBRANCH   1   2
BRANCH   1  34
ATOM     34  C   UNL A   1      33.629  31.267  27.685  1.00  0.00     0.202 C 
BRANCH  34  35
ATOM     35  C   UNL A   1      33.625  32.773  27.398  1.00  0.00     0.261 C 
BRANCH  35  36
ATOM     36  O   UNL A   1      32.685  33.515  28.189  1.00  0.00    -0.460 OA
BRANCH  36  37
ATOM     37  C   UNL A   1      33.216  34.577  28.840  1.00  0.00     0.338 C 
ATOM     38  O   UNL A   1      32.788  35.727  28.845  1.00  0.00    -0.246 OA
BRANCH  37  39
ATOM     39  C   UNL A   1      34.317  34.139  29.708  1.00  0.00     0.060 A 
ATOM     40  C   UNL A   1      35.628  34.433  29.312  1.00  0.00     0.016 A 
ATOM     41  C   UNL A   1      34.071  33.360  30.839  1.00  0.00     0.016 A 
ATOM     42  C   UNL A   1      36.704  33.916  30.031  1.00  0.00     0.010 A 
ATOM     43  C   UNL A   1      35.152  32.836  31.554  1.00  0.00     0.010 A 
ATOM     44  C   UNL A   1      36.472  33.086  31.136  1.00  0.00    -0.014 A 
BRANCH  44  45
ATOM     45  C   UNL A   1      37.605  32.363  31.766  1.00  0.00     0.031 A 
ATOM     46  C   UNL A   1      38.072  32.793  33.130  1.00  0.00     0.074 A 
ATOM     47  C   UNL A   1      38.187  31.322  31.141  1.00  0.00     0.049 A 
ATOM     48  N   UNL A   1      39.091  32.369  33.830  1.00  0.00    -0.248 NA
ATOM     49  C   UNL A   1      37.283  33.846  33.791  1.00  0.00     0.031 C 
ATOM     50  C   UNL A   1      37.777  30.783  29.844  1.00  0.00     0.029 A 
ATOM     51  N   UNL A   1      39.252  30.540  31.509  1.00  0.00    -0.354 N 
ATOM     52  C   UNL A   1      39.065  33.096  35.016  1.00  0.00     0.074 A 
ATOM     53  C   UNL A   1      37.956  34.020  34.919  1.00  0.00     0.031 C 
ATOM     54  C   UNL A   1      38.591  29.763  29.520  1.00  0.00     0.029 A 
ATOM     55  C   UNL A   1      39.608  29.609  30.559  1.00  0.00     0.049 A 
ATOM     56  H   UNL A   1      39.717  30.634  32.371  1.00  0.00     0.167 HD
ATOM     57  C   UNL A   1      39.883  32.989  36.091  1.00  0.00     0.034 A 
ATOM     58  C   UNL A   1      40.654  28.760  30.521  1.00  0.00     0.034 A 
ATOM     59  C   UNL A   1      40.992  32.070  36.167  1.00  0.00     0.049 A 
ATOM     60  C   UNL A   1      41.620  28.742  31.686  1.00  0.00     0.074 A 
ATOM     61  C   UNL A   1      41.896  31.893  37.198  1.00  0.00     0.029 A 
ATOM     62  N   UNL A   1      41.347  31.172  35.169  1.00  0.00    -0.354 N 
ATOM     63  N   UNL A   1      41.591  29.445  32.796  1.00  0.00    -0.248 NA
ATOM     64  C   UNL A   1      42.752  27.810  31.599  1.00  0.00     0.031 C 
ATOM     65  C   UNL A   1      42.837  30.939  36.798  1.00  0.00     0.029 A 
ATOM     66  C   UNL A   1      42.471  30.457  35.554  1.00  0.00     0.049 A 
ATOM     67  H   UNL A   1      40.872  31.060  34.315  1.00  0.00     0.167 HD
ATOM     68  C   UNL A   1      42.674  29.002  33.554  1.00  0.00     0.074 A 
ATOM     69  C   UNL A   1      43.322  27.963  32.783  1.00  0.00     0.031 C 
ATOM     70  C   UNL A   1      43.096  29.414  34.777  1.00  0.00     0.034 A 
BRANCH  57  71
ATOM     71  C   UNL A   1      39.628  33.909  37.259  1.00  0.00     0.023 A 
ATOM     72  C   UNL A   1      39.029  33.446  38.443  1.00  0.00     0.031 A 
ATOM     73  C   UNL A   1      39.997  35.264  37.193  1.00  0.00     0.131 A 
ATOM     74  C   UNL A   1      38.774  34.340  39.495  1.00  0.00     0.055 A 
ATOM     75  C   UNL A   1      39.808  36.132  38.271  1.00  0.00     0.041 A 
ATOM     76  F   UNL A   1      40.549  35.768  36.078  1.00  0.00    -0.206 F 
ATOM     77  C   UNL A   1      39.185  35.673  39.428  1.00  0.00     0.022 A 
BRANCH  74  78
ATOM     78  S   UNL A   1      37.798  33.759  40.908  1.00  0.00     0.124 S 
ATOM     79  O   UNL A   1      37.438  35.018  41.555  1.00  0.00    -0.237 OA
ATOM     80  O   UNL A   1      36.707  33.037  40.265  1.00  0.00    -0.237 OA
ATOM     81  O   UNL A   1      38.741  32.930  41.658  1.00  0.00    -0.744 OA
ENDBRANCH  74  78
ENDBRANCH  57  71
BRANCH  58  82
ATOM     82  C   UNL A   1      40.895  27.888  29.331  1.00  0.00     0.023 A 
ATOM     83  C   UNL A   1      41.893  28.201  28.396  1.00  0.00     0.031 A 
ATOM     84  C   UNL A   1      40.057  26.793  29.053  1.00  0.00     0.131 A 
ATOM     85  C   UNL A   1      41.973  27.485  27.190  1.00  0.00     0.055 A 
ATOM     86  C   UNL A   1      40.192  26.034  27.888  1.00  0.00     0.041 A 
ATOM     87  F   UNL A   1      39.080  26.448  29.907  1.00  0.00    -0.206 F 
ATOM     88  C   UNL A   1      41.140  26.395  26.937  1.00  0.00     0.022 A 
BRANCH  85  89
ATOM     89  S   UNL A   1      43.077  28.106  25.890  1.00  0.00     0.124 S 
ATOM     90  O   UNL A   1      42.161  28.228  24.761  1.00  0.00    -0.237 OA
ATOM     91  O   UNL A   1      43.552  29.356  26.469  1.00  0.00    -0.237 OA
ATOM     92  O   UNL A   1      44.082  27.052  25.768  1.00  0.00    -0.744 OA
ENDBRANCH  85  89
ENDBRANCH  58  82
BRANCH  70  93
ATOM     93  C   UNL A   1      44.272  28.685  35.384  1.00  0.00     0.023 A 
ATOM     94  C   UNL A   1      44.106  27.680  36.352  1.00  0.00     0.031 A 
ATOM     95  C   UNL A   1      45.583  29.012  34.989  1.00  0.00     0.131 A 
ATOM     96  C   UNL A   1      45.232  27.081  36.937  1.00  0.00     0.055 A 
ATOM     97  C   UNL A   1      46.696  28.364  35.524  1.00  0.00     0.041 A 
ATOM     98  F   UNL A   1      45.801  29.966  34.069  1.00  0.00    -0.206 F 
ATOM     99  C   UNL A   1      46.525  27.403  36.515  1.00  0.00     0.022 A 
BRANCH  96 100
ATOM    100  S   UNL A   1      44.989  25.947  38.331  1.00  0.00     0.124 S 
ATOM    101  O   UNL A   1      44.894  24.655  37.659  1.00  0.00    -0.237 OA
ATOM    102  O   UNL A   1      46.194  26.164  39.124  1.00  0.00    -0.237 OA
ATOM    103  O   UNL A   1      43.751  26.418  38.947  1.00  0.00    -0.744 OA
ENDBRANCH  96 100
ENDBRANCH  70  93
ENDBRANCH  44  45
ENDBRANCH  37  39
ENDBRANCH  36  37
ENDBRANCH  35  36
ENDBRANCH  34  35
ENDBRANCH   1  34
TORSDOF 21
ENDMDL
MODEL 3
REMARK VINA RESULT:     -10.9      6.023     10.319
REMARK SMILES CS(=O)(=O)Nc1ccc(-c2cc(Cl)cc3c2O[C@@H](C(F)(F)F)C(C(=O)OCCOCCOC(=O)c2ccc(-c4c5nc(c(-c6cc(S(=O)(=O)[O-])ccc6F)c6ccc([nH]6)c(-c6cc(S(=O)(=O)[O-])ccc6F)c6nc(c(-c7cc(S(=O)(=O)[O-])ccc7F)c7ccc4[nH]7)C=C6)C=C5)cc2)=C3)cc1
REMARK SMILES IDX 29 1 28 2 27 3 26 4 24 5 25 6 23 7 10 8 11 9 16 10 12 11
REMARK SMILES IDX 15 12 17 13 13 14 14 15 98 16 18 17 9 18 6 19 7 20 100 21
REMARK SMILES IDX 8 22 99 23 5 24 2 26 1 27 3 28 4 29 19 30 20 31 21 32 22 33
REMARK SMILES IDX 30 34 31 35 32 36 33 37 34 38 35 39 36 40 97 41 37 42 96 43
REMARK SMILES IDX 38 44 39 45 40 46 90 47 41 48 95 49 89 50 91 51 42 52 94 53
REMARK SMILES IDX 88 54 87 55 43 57 75 58 55 59 74 60 56 61 59 62 73 63 92 64
REMARK SMILES IDX 57 65 58 66 72 68 93 69 60 70 44 71 45 72 53 73 46 74 52 75
REMARK SMILES IDX 54 76 51 77 47 78 48 79 49 80 50 81 76 82 77 83 85 84 78 85
REMARK SMILES IDX 84 86 86 87 83 88 79 89 80 90 81 91 82 92 61 93 62 94 70 95
REMARK SMILES IDX 63 96 69 97 71 98 68 99 64 100 65 101 66 102 67 103
REMARK H PARENT 5 25 91 56 59 67
REMARK Flexibility Score: inf
ROOT
ATOM      1  O   UNL A   1      32.601  30.879  27.120  1.00  0.00    -0.374 OA
ENDROOT
BRANCH   1   2
ATOM      2  C   UNL A   1      33.242  30.008  26.197  1.00  0.00     0.202 C 
BRANCH   2   3
ATOM      3  C   UNL A   1      32.378  29.016  25.403  1.00  0.00     0.261 C 
BRANCH   3   4
ATOM      4  O   UNL A   1      33.147  28.027  24.698  1.00  0.00    -0.460 OA
BRANCH   4   5
ATOM      5  C   UNL A   1      33.168  28.142  23.357  1.00  0.00     0.338 C 
ATOM      6  O   UNL A   1      33.839  28.950  22.727  1.00  0.00    -0.246 OA
BRANCH   5   7
ATOM      7  C   UNL A   1      32.416  27.063  22.672  1.00  0.00     0.087 C 
ATOM      8  C   UNL A   1      32.518  23.305  24.449  1.00  0.00     0.026 A 
ATOM      9  C   UNL A   1      33.688  23.337  25.248  1.00  0.00     0.033 A 
ATOM     10  C   UNL A   1      32.325  24.448  23.641  1.00  0.00     0.135 A 
ATOM     11  C   UNL A   1      34.726  24.228  24.979  1.00  0.00     0.042 A 
ATOM     12  C   UNL A   1      33.452  25.157  23.189  1.00  0.00     0.019 A 
ATOM     13  O   UNL A   1      31.121  25.183  23.750  1.00  0.00    -0.475 OA
ATOM     14  Cl  UNL A   1      36.152  24.186  25.936  1.00  0.00    -0.084 Cl
ATOM     15  C   UNL A   1      34.653  25.070  23.882  1.00  0.00     0.032 A 
ATOM     16  C   UNL A   1      33.272  26.178  22.136  1.00  0.00     0.027 C 
ATOM     17  C   UNL A   1      31.061  26.484  23.019  1.00  0.00     0.316 C 
BRANCH   8  18
ATOM     18  C   UNL A   1      32.104  21.895  24.066  1.00  0.00    -0.014 A 
ATOM     19  C   UNL A   1      32.326  19.128  23.282  1.00  0.00     0.048 A 
ATOM     20  C   UNL A   1      32.286  19.503  24.627  1.00  0.00     0.027 A 
ATOM     21  C   UNL A   1      32.149  20.126  22.328  1.00  0.00     0.027 A 
ATOM     22  C   UNL A   1      32.147  20.851  25.011  1.00  0.00     0.011 A 
ATOM     23  C   UNL A   1      32.033  21.488  22.715  1.00  0.00     0.011 A 
BRANCH  19  24
ATOM     24  N   UNL A   1      32.741  17.787  23.014  1.00  0.00    -0.284 N 
ATOM     25  H   UNL A   1      32.230  17.308  22.322  1.00  0.00     0.180 HD
BRANCH  24  26
ATOM     26  S   UNL A   1      33.980  16.937  23.726  1.00  0.00     0.229 S 
ATOM     27  C   UNL A   1      33.172  16.020  25.027  1.00  0.00     0.183 C 
ATOM     28  O   UNL A   1      34.938  17.848  24.309  1.00  0.00    -0.207 OA
ATOM     29  O   UNL A   1      34.388  15.969  22.727  1.00  0.00    -0.207 OA
ENDBRANCH  24  26
ENDBRANCH  19  24
ENDBRANCH   8  18
BRANCH  17  30
ATOM     30  C   UNL A   1      30.010  27.515  23.491  1.00  0.00     0.430 C 
ATOM     31  F   UNL A   1      30.313  28.729  22.952  1.00  0.00    -0.167 F 
ATOM     32  F   UNL A   1      28.769  27.204  23.049  1.00  0.00    -0.167 F 
ATOM     33  F   UNL A   1      29.929  27.689  24.820  1.00  0.00    -0.167 F 
ENDBRANCH  17  30
ENDBRANCH   5   7
ENDBRANCH   4   5
ENDBRANCH   3   4
ENDBRANCH   2   3
ENDBRANCH   1   2
BRANCH   1  34
ATOM     34  C   UNL A   1      33.335  32.001  27.606  1.00  0.00     0.202 C 
BRANCH  34  35
ATOM     35  C   UNL A   1      32.728  33.402  27.482  1.00  0.00     0.261 C 
BRANCH  35  36
ATOM     36  O   UNL A   1      32.481  34.044  28.742  1.00  0.00    -0.460 OA
BRANCH  36  37
ATOM     37  C   UNL A   1      33.488  34.841  29.172  1.00  0.00     0.338 C 
ATOM     38  O   UNL A   1      33.450  36.058  29.328  1.00  0.00    -0.246 OA
BRANCH  37  39
ATOM     39  C   UNL A   1      34.632  34.025  29.600  1.00  0.00     0.060 A 
ATOM     40  C   UNL A   1      34.427  33.082  30.616  1.00  0.00     0.016 A 
ATOM     41  C   UNL A   1      35.909  34.256  29.087  1.00  0.00     0.016 A 
ATOM     42  C   UNL A   1      35.512  32.388  31.148  1.00  0.00     0.010 A 
ATOM     43  C   UNL A   1      36.996  33.564  29.628  1.00  0.00     0.010 A 
ATOM     44  C   UNL A   1      36.807  32.649  30.681  1.00  0.00    -0.014 A 
BRANCH  44  45
ATOM     45  C   UNL A   1      37.977  32.076  31.391  1.00  0.00     0.031 A 
ATOM     46  C   UNL A   1      38.736  30.948  30.747  1.00  0.00     0.074 A 
ATOM     47  C   UNL A   1      38.371  32.574  32.578  1.00  0.00     0.049 A 
ATOM     48  N   UNL A   1      39.727  30.238  31.219  1.00  0.00    -0.248 NA
ATOM     49  C   UNL A   1      38.316  30.567  29.388  1.00  0.00     0.031 C 
ATOM     50  C   UNL A   1      37.746  33.704  33.266  1.00  0.00     0.029 A 
ATOM     51  N   UNL A   1      39.384  32.189  33.418  1.00  0.00    -0.354 N 
ATOM     52  C   UNL A   1      40.056  29.332  30.215  1.00  0.00     0.074 A 
ATOM     53  C   UNL A   1      39.126  29.552  29.128  1.00  0.00     0.031 C 
ATOM     54  C   UNL A   1      38.385  33.912  34.430  1.00  0.00     0.029 A 
ATOM     55  C   UNL A   1      39.429  32.902  34.594  1.00  0.00     0.049 A 
ATOM     56  H   UNL A   1      40.021  31.470  33.200  1.00  0.00     0.167 HD
ATOM     57  C   UNL A   1      41.052  28.414  30.199  1.00  0.00     0.034 A 
ATOM     58  C   UNL A   1      40.200  32.732  35.688  1.00  0.00     0.034 A 
ATOM     59  C   UNL A   1      41.963  28.199  31.296  1.00  0.00     0.049 A 
ATOM     60  C   UNL A   1      41.228  31.622  35.688  1.00  0.00     0.074 A 
ATOM     61  C   UNL A   1      42.994  27.282  31.395  1.00  0.00     0.029 A 
ATOM     62  N   UNL A   1      41.951  28.912  32.488  1.00  0.00    -0.354 N 
ATOM     63  N   UNL A   1      41.519  30.763  34.737  1.00  0.00    -0.248 NA
ATOM     64  C   UNL A   1      42.039  31.466  36.903  1.00  0.00     0.031 C 
ATOM     65  C   UNL A   1      43.561  27.394  32.668  1.00  0.00     0.029 A 
ATOM     66  C   UNL A   1      42.942  28.438  33.334  1.00  0.00     0.049 A 
ATOM     67  H   UNL A   1      41.331  29.646  32.701  1.00  0.00     0.167 HD
ATOM     68  C   UNL A   1      42.577  29.999  35.227  1.00  0.00     0.074 A 
ATOM     69  C   UNL A   1      42.882  30.511  36.546  1.00  0.00     0.031 C 
ATOM     70  C   UNL A   1      43.240  28.969  34.642  1.00  0.00     0.034 A 
BRANCH  57  71
ATOM     71  C   UNL A   1      41.188  27.551  28.969  1.00  0.00     0.023 A 
ATOM     72  C   UNL A   1      42.151  27.823  27.982  1.00  0.00     0.031 A 
ATOM     73  C   UNL A   1      40.353  26.435  28.784  1.00  0.00     0.131 A 
ATOM     74  C   UNL A   1      42.224  27.020  26.834  1.00  0.00     0.055 A 
ATOM     75  C   UNL A   1      40.480  25.596  27.676  1.00  0.00     0.041 A 
ATOM     76  F   UNL A   1      39.399  26.140  29.681  1.00  0.00    -0.206 F 
ATOM     77  C   UNL A   1      41.414  25.892  26.687  1.00  0.00     0.022 A 
BRANCH  74  78
ATOM     78  S   UNL A   1      43.318  27.535  25.483  1.00  0.00     0.124 S 
ATOM     79  O   UNL A   1      43.867  26.255  25.043  1.00  0.00    -0.237 OA
ATOM     80  O   UNL A   1      42.397  28.186  24.560  1.00  0.00    -0.237 OA
ATOM     81  O   UNL A   1      44.277  28.423  26.139  1.00  0.00    -0.744 OA
ENDBRANCH  74  78
ENDBRANCH  57  71
BRANCH  58  82
ATOM     82  C   UNL A   1      40.012  33.584  36.902  1.00  0.00     0.023 A 
ATOM     83  C   UNL A   1      40.818  34.710  37.127  1.00  0.00     0.031 A 
ATOM     84  C   UNL A   1      39.100  33.220  37.909  1.00  0.00     0.131 A 
ATOM     85  C   UNL A   1      40.761  35.378  38.361  1.00  0.00     0.055 A 
ATOM     86  C   UNL A   1      38.990  33.936  39.103  1.00  0.00     0.041 A 
ATOM     87  F   UNL A   1      38.306  32.148  37.755  1.00  0.00    -0.206 F 
ATOM     88  C   UNL A   1      39.842  35.009  39.344  1.00  0.00     0.022 A 
BRANCH  85  89
ATOM     89  S   UNL A   1      42.018  36.637  38.720  1.00  0.00     0.124 S 
ATOM     90  O   UNL A   1      42.822  35.967  39.736  1.00  0.00    -0.237 OA
ATOM     91  O   UNL A   1      42.648  36.815  37.417  1.00  0.00    -0.237 OA
ATOM     92  O   UNL A   1      41.232  37.775  39.194  1.00  0.00    -0.744 OA
ENDBRANCH  85  89
ENDBRANCH  58  82
BRANCH  70  93
ATOM     93  C   UNL A   1      44.408  28.379  35.398  1.00  0.00     0.023 A 
ATOM     94  C   UNL A   1      45.719  28.854  35.231  1.00  0.00     0.031 A 
ATOM     95  C   UNL A   1      44.199  27.315  36.295  1.00  0.00     0.131 A 
ATOM     96  C   UNL A   1      46.779  28.228  35.904  1.00  0.00     0.055 A 
ATOM     97  C   UNL A   1      45.248  26.741  37.013  1.00  0.00     0.041 A 
ATOM     98  F   UNL A   1      42.966  26.819  36.492  1.00  0.00    -0.206 F 
ATOM     99  C   UNL A   1      46.550  27.187  36.808  1.00  0.00     0.022 A 
BRANCH  96 100
ATOM    100  S   UNL A   1      48.478  28.723  35.504  1.00  0.00     0.124 S 
ATOM    101  O   UNL A   1      48.386  28.996  34.074  1.00  0.00    -0.237 OA
ATOM    102  O   UNL A   1      48.674  29.886  36.362  1.00  0.00    -0.237 OA
ATOM    103  O   UNL A   1      49.272  27.550  35.862  1.00  0.00    -0.744 OA
ENDBRANCH  96 100
ENDBRANCH  70  93
ENDBRANCH  44  45
ENDBRANCH  37  39
ENDBRANCH  36  37
ENDBRANCH  35  36
ENDBRANCH  34  35
ENDBRANCH   1  34
TORSDOF 21
ENDMDL
