MODEL 1
REMARK VINA RESULT:     -10.4      0.000      0.000
REMARK SMILES CC(C)(C)OC(=O)N1CCC[C@H]1C(=O)N[C@@H](Cc1ccccc1)C(=O)OCCOCCOC(=O)c1ccc(-c2c3nc(c(-c4cc(S(=O)(=O)[O-])ccc4F)c4ccc([nH]4)c(-c4cc(S(=O)(=O)[O-])ccc4F)c4nc(c(-c5cc(S(=O)(=O)[O-])ccc5F)c5ccc2[nH]5)C=C4)C=C3)cc1
REMARK SMILES IDX 28 1 27 2 26 3 24 4 25 5 16 6 15 7 13 8 14 9 12 11 8 12 9 13
REMARK SMILES IDX 10 14 11 15 6 16 7 17 5 18 2 19 1 20 3 21 4 22 17 23 18 24
REMARK SMILES IDX 19 25 23 26 20 27 22 28 21 29 29 30 30 31 31 32 32 33 33 34
REMARK SMILES IDX 34 35 35 36 36 37 97 38 37 39 96 40 38 41 39 42 40 43 90 44
REMARK SMILES IDX 41 45 95 46 89 47 91 48 42 49 94 50 88 51 87 52 43 54 75 55
REMARK SMILES IDX 55 56 74 57 56 58 59 59 73 60 92 61 57 62 58 63 72 65 93 66
REMARK SMILES IDX 60 67 44 68 45 69 53 70 46 71 52 72 54 73 51 74 47 75 48 76
REMARK SMILES IDX 49 77 50 78 76 79 77 80 85 81 78 82 84 83 86 84 83 85 79 86
REMARK SMILES IDX 80 87 81 88 82 89 61 90 62 91 70 92 63 93 69 94 71 95 68 96
REMARK SMILES IDX 64 97 65 98 66 99 67 100
REMARK H PARENT 15 10 91 53 59 64
REMARK Flexibility Score: inf
ROOT
ATOM      1  C   UNL A   1      31.734  27.507  25.484  1.00  0.00     0.202 C 
ENDROOT
BRANCH   1   2
ATOM      2  C   UNL A   1      30.500  26.634  25.742  1.00  0.00     0.261 C 
BRANCH   2   3
ATOM      3  O   UNL A   1      30.551  25.342  25.113  1.00  0.00    -0.462 OA
BRANCH   3   4
ATOM      4  C   UNL A   1      31.275  25.280  23.959  1.00  0.00     0.329 C 
ATOM      5  O   UNL A   1      30.984  25.881  22.928  1.00  0.00    -0.250 OA
BRANCH   4   6
ATOM      6  C   UNL A   1      32.418  24.257  24.015  1.00  0.00     0.196 C 
BRANCH   6   7
ATOM      7  N   UNL A   1      32.250  23.072  23.168  1.00  0.00    -0.341 N 
ATOM      8  C   UNL A   1      32.079  21.755  23.483  1.00  0.00     0.243 C 
ATOM      9  O   UNL A   1      31.928  20.988  22.525  1.00  0.00    -0.273 OA
ATOM     10  H   UNL A   1      32.262  23.259  22.202  1.00  0.00     0.164 HD
BRANCH   8  11
ATOM     11  C   UNL A   1      32.128  21.212  24.952  1.00  0.00     0.178 C 
ATOM     12  N   UNL A   1      33.201  20.234  25.158  1.00  0.00    -0.296 N 
ATOM     13  C   UNL A   1      34.344  20.854  25.796  1.00  0.00     0.124 C 
ATOM     14  C   UNL A   1      33.682  21.821  26.757  1.00  0.00     0.024 C 
ATOM     15  C   UNL A   1      32.476  22.335  25.963  1.00  0.00     0.037 C 
BRANCH  12  16
ATOM     16  C   UNL A   1      32.962  18.881  25.250  1.00  0.00     0.410 C 
ATOM     17  O   UNL A   1      32.340  18.383  26.177  1.00  0.00    -0.224 OA
BRANCH  16  18
ATOM     18  O   UNL A   1      33.433  18.221  24.168  1.00  0.00    -0.444 OA
BRANCH  18  19
ATOM     19  C   UNL A   1      34.045  16.897  24.217  1.00  0.00     0.106 C 
ATOM     20  C   UNL A   1      34.345  16.488  22.774  1.00  0.00     0.056 C 
ATOM     21  C   UNL A   1      32.963  15.970  24.786  1.00  0.00     0.056 C 
ATOM     22  C   UNL A   1      35.321  16.752  25.057  1.00  0.00     0.056 C 
ENDBRANCH  18  19
ENDBRANCH  16  18
ENDBRANCH  12  16
ENDBRANCH   8  11
ENDBRANCH   6   7
BRANCH   6  23
ATOM     23  C   UNL A   1      33.753  24.994  23.761  1.00  0.00     0.072 C 
BRANCH  23  24
ATOM     24  C   UNL A   1      35.020  24.277  24.179  1.00  0.00    -0.045 A 
ATOM     25  C   UNL A   1      35.612  23.341  23.322  1.00  0.00     0.004 A 
ATOM     26  C   UNL A   1      35.600  24.481  25.442  1.00  0.00     0.004 A 
ATOM     27  C   UNL A   1      36.772  22.660  23.705  1.00  0.00     0.000 A 
ATOM     28  C   UNL A   1      36.776  23.829  25.809  1.00  0.00     0.000 A 
ATOM     29  C   UNL A   1      37.364  22.918  24.939  1.00  0.00     0.000 A 
ENDBRANCH  23  24
ENDBRANCH   6  23
ENDBRANCH   4   6
ENDBRANCH   3   4
ENDBRANCH   2   3
ENDBRANCH   1   2
BRANCH   1  30
ATOM     30  O   UNL A   1      31.537  28.841  25.040  1.00  0.00    -0.374 OA
BRANCH  30  31
ATOM     31  C   UNL A   1      31.876  29.897  25.932  1.00  0.00     0.202 C 
BRANCH  31  32
ATOM     32  C   UNL A   1      32.784  29.603  27.138  1.00  0.00     0.261 C 
BRANCH  32  33
ATOM     33  O   UNL A   1      34.162  29.960  26.948  1.00  0.00    -0.460 OA
BRANCH  33  34
ATOM     34  C   UNL A   1      34.558  31.036  27.675  1.00  0.00     0.338 C 
ATOM     35  O   UNL A   1      33.967  32.096  27.802  1.00  0.00    -0.246 OA
BRANCH  34  36
ATOM     36  C   UNL A   1      35.757  30.710  28.466  1.00  0.00     0.060 A 
ATOM     37  C   UNL A   1      36.983  31.232  28.033  1.00  0.00     0.016 A 
ATOM     38  C   UNL A   1      35.702  29.798  29.521  1.00  0.00     0.016 A 
ATOM     39  C   UNL A   1      38.168  30.804  28.623  1.00  0.00     0.010 A 
ATOM     40  C   UNL A   1      36.897  29.361  30.104  1.00  0.00     0.010 A 
ATOM     41  C   UNL A   1      38.135  29.832  29.632  1.00  0.00    -0.014 A 
BRANCH  41  42
ATOM     42  C   UNL A   1      39.405  29.200  30.068  1.00  0.00     0.031 A 
ATOM     43  C   UNL A   1      40.116  29.753  31.275  1.00  0.00     0.074 A 
ATOM     44  C   UNL A   1      39.887  28.121  29.426  1.00  0.00     0.049 A 
ATOM     45  N   UNL A   1      41.244  29.377  31.818  1.00  0.00    -0.248 NA
ATOM     46  C   UNL A   1      39.466  30.882  31.959  1.00  0.00     0.031 C 
ATOM     47  C   UNL A   1      39.253  27.471  28.279  1.00  0.00     0.029 A 
ATOM     48  N   UNL A   1      41.022  27.382  29.647  1.00  0.00    -0.354 N 
ATOM     49  C   UNL A   1      41.445  30.225  32.902  1.00  0.00     0.074 A 
ATOM     50  C   UNL A   1      40.335  31.153  32.922  1.00  0.00     0.031 C 
ATOM     51  C   UNL A   1      40.017  26.434  27.891  1.00  0.00     0.029 A 
ATOM     52  C   UNL A   1      41.210  26.371  28.733  1.00  0.00     0.049 A 
ATOM     53  H   UNL A   1      41.643  27.559  30.389  1.00  0.00     0.167 HD
ATOM     54  C   UNL A   1      42.460  30.224  33.801  1.00  0.00     0.034 A 
ATOM     55  C   UNL A   1      42.239  25.515  28.579  1.00  0.00     0.034 A 
ATOM     56  C   UNL A   1      43.562  29.293  33.765  1.00  0.00     0.049 A 
ATOM     57  C   UNL A   1      43.396  25.582  29.551  1.00  0.00     0.074 A 
ATOM     58  C   UNL A   1      44.635  29.195  34.632  1.00  0.00     0.029 A 
ATOM     59  N   UNL A   1      43.739  28.307  32.803  1.00  0.00    -0.354 N 
ATOM     60  N   UNL A   1      43.568  26.384  30.578  1.00  0.00    -0.248 NA
ATOM     61  C   UNL A   1      44.490  24.623  29.348  1.00  0.00     0.031 C 
ATOM     62  C   UNL A   1      45.495  28.198  34.157  1.00  0.00     0.029 A 
ATOM     63  C   UNL A   1      44.919  27.619  33.037  1.00  0.00     0.049 A 
ATOM     64  H   UNL A   1      43.116  28.124  32.062  1.00  0.00     0.167 HD
ATOM     65  C   UNL A   1      44.772  25.999  31.162  1.00  0.00     0.074 A 
ATOM     66  C   UNL A   1      45.274  24.886  30.383  1.00  0.00     0.031 C 
ATOM     67  C   UNL A   1      45.407  26.513  32.247  1.00  0.00     0.034 A 
BRANCH  54  68
ATOM     68  C   UNL A   1      42.455  31.297  34.863  1.00  0.00     0.023 A 
ATOM     69  C   UNL A   1      42.958  32.588  34.621  1.00  0.00     0.031 A 
ATOM     70  C   UNL A   1      41.938  31.020  36.141  1.00  0.00     0.131 A 
ATOM     71  C   UNL A   1      42.980  33.535  35.657  1.00  0.00     0.055 A 
ATOM     72  C   UNL A   1      41.900  31.987  37.147  1.00  0.00     0.041 A 
ATOM     73  F   UNL A   1      41.465  29.799  36.436  1.00  0.00    -0.206 F 
ATOM     74  C   UNL A   1      42.433  33.251  36.911  1.00  0.00     0.022 A 
BRANCH  71  75
ATOM     75  S   UNL A   1      43.838  35.109  35.381  1.00  0.00     0.124 S 
ATOM     76  O   UNL A   1      43.697  35.755  36.682  1.00  0.00    -0.237 OA
ATOM     77  O   UNL A   1      45.185  34.677  35.025  1.00  0.00    -0.237 OA
ATOM     78  O   UNL A   1      43.077  35.729  34.298  1.00  0.00    -0.744 OA
ENDBRANCH  71  75
ENDBRANCH  54  68
BRANCH  55  79
ATOM     79  C   UNL A   1      42.261  24.550  27.442  1.00  0.00     0.023 A 
ATOM     80  C   UNL A   1      41.560  23.335  27.501  1.00  0.00     0.031 A 
ATOM     81  C   UNL A   1      43.051  24.798  26.303  1.00  0.00     0.131 A 
ATOM     82  C   UNL A   1      41.708  22.391  26.472  1.00  0.00     0.055 A 
ATOM     83  C   UNL A   1      43.147  23.882  25.255  1.00  0.00     0.041 A 
ATOM     84  F   UNL A   1      43.743  25.944  26.193  1.00  0.00    -0.206 F 
ATOM     85  C   UNL A   1      42.485  22.661  25.344  1.00  0.00     0.022 A 
BRANCH  82  86
ATOM     86  S   UNL A   1      40.953  20.755  26.681  1.00  0.00     0.124 S 
ATOM     87  O   UNL A   1      40.911  20.631  28.134  1.00  0.00    -0.237 OA
ATOM     88  O   UNL A   1      39.667  20.928  26.014  1.00  0.00    -0.237 OA
ATOM     89  O   UNL A   1      41.889  19.859  26.004  1.00  0.00    -0.744 OA
ENDBRANCH  82  86
ENDBRANCH  55  79
BRANCH  67  90
ATOM     90  C   UNL A   1      46.684  25.835  32.683  1.00  0.00     0.023 A 
ATOM     91  C   UNL A   1      47.917  26.108  32.066  1.00  0.00     0.031 A 
ATOM     92  C   UNL A   1      46.661  24.893  33.727  1.00  0.00     0.131 A 
ATOM     93  C   UNL A   1      49.066  25.402  32.457  1.00  0.00     0.055 A 
ATOM     94  C   UNL A   1      47.817  24.240  34.155  1.00  0.00     0.041 A 
ATOM     95  F   UNL A   1      45.511  24.593  34.353  1.00  0.00    -0.206 F 
ATOM     96  C   UNL A   1      49.026  24.482  33.508  1.00  0.00     0.022 A 
BRANCH  93  97
ATOM     97  S   UNL A   1      50.595  25.628  31.508  1.00  0.00     0.124 S 
ATOM     98  O   UNL A   1      51.169  26.813  32.137  1.00  0.00    -0.237 OA
ATOM     99  O   UNL A   1      51.300  24.374  31.749  1.00  0.00    -0.237 OA
ATOM    100  O   UNL A   1      50.123  25.821  30.138  1.00  0.00    -0.744 OA
ENDBRANCH  93  97
ENDBRANCH  67  90
ENDBRANCH  41  42
ENDBRANCH  34  36
ENDBRANCH  33  34
ENDBRANCH  32  33
ENDBRANCH  31  32
ENDBRANCH  30  31
ENDBRANCH   1  30
TORSDOF 24
ENDMDL
MODEL 2
REMARK VINA RESULT:     -10.1      3.009      8.483
REMARK SMILES CC(C)(C)OC(=O)N1CCC[C@H]1C(=O)N[C@@H](Cc1ccccc1)C(=O)OCCOCCOC(=O)c1ccc(-c2c3nc(c(-c4cc(S(=O)(=O)[O-])ccc4F)c4ccc([nH]4)c(-c4cc(S(=O)(=O)[O-])ccc4F)c4nc(c(-c5cc(S(=O)(=O)[O-])ccc5F)c5ccc2[nH]5)C=C4)C=C3)cc1
REMARK SMILES IDX 28 1 27 2 26 3 24 4 25 5 16 6 15 7 13 8 14 9 12 11 8 12 9 13
REMARK SMILES IDX 10 14 11 15 6 16 7 17 5 18 2 19 1 20 3 21 4 22 17 23 18 24
REMARK SMILES IDX 19 25 23 26 20 27 22 28 21 29 29 30 30 31 31 32 32 33 33 34
REMARK SMILES IDX 34 35 35 36 36 37 97 38 37 39 96 40 38 41 39 42 40 43 90 44
REMARK SMILES IDX 41 45 95 46 89 47 91 48 42 49 94 50 88 51 87 52 43 54 75 55
REMARK SMILES IDX 55 56 74 57 56 58 59 59 73 60 92 61 57 62 58 63 72 65 93 66
REMARK SMILES IDX 60 67 44 68 45 69 53 70 46 71 52 72 54 73 51 74 47 75 48 76
REMARK SMILES IDX 49 77 50 78 76 79 77 80 85 81 78 82 84 83 86 84 83 85 79 86
REMARK SMILES IDX 80 87 81 88 82 89 61 90 62 91 70 92 63 93 69 94 71 95 68 96
REMARK SMILES IDX 64 97 65 98 66 99 67 100
REMARK H PARENT 15 10 91 53 59 64
REMARK Flexibility Score: inf
ROOT
ATOM      1  C   UNL A   1      31.494  29.112  27.192  1.00  0.00     0.202 C 
ENDROOT
BRANCH   1   2
ATOM      2  C   UNL A   1      32.358  27.854  27.043  1.00  0.00     0.261 C 
BRANCH   2   3
ATOM      3  O   UNL A   1      31.605  26.638  26.890  1.00  0.00    -0.462 OA
BRANCH   3   4
ATOM      4  C   UNL A   1      31.981  25.843  25.847  1.00  0.00     0.329 C 
ATOM      5  O   UNL A   1      33.143  25.693  25.477  1.00  0.00    -0.250 OA
BRANCH   4   6
ATOM      6  C   UNL A   1      30.793  25.265  25.066  1.00  0.00     0.196 C 
BRANCH   6   7
ATOM      7  N   UNL A   1      30.267  23.990  25.565  1.00  0.00    -0.341 N 
ATOM      8  C   UNL A   1      30.820  22.743  25.613  1.00  0.00     0.243 C 
ATOM      9  O   UNL A   1      30.121  21.865  26.134  1.00  0.00    -0.273 OA
ATOM     10  H   UNL A   1      29.354  24.043  25.928  1.00  0.00     0.164 HD
BRANCH   8  11
ATOM     11  C   UNL A   1      32.221  22.402  25.001  1.00  0.00     0.178 C 
ATOM     12  N   UNL A   1      33.003  21.495  25.846  1.00  0.00    -0.296 N 
ATOM     13  C   UNL A   1      32.925  20.137  25.350  1.00  0.00     0.124 C 
ATOM     14  C   UNL A   1      32.929  20.348  23.850  1.00  0.00     0.024 C 
ATOM     15  C   UNL A   1      32.084  21.614  23.671  1.00  0.00     0.037 C 
BRANCH  12  16
ATOM     16  C   UNL A   1      34.058  21.928  26.618  1.00  0.00     0.410 C 
ATOM     17  O   UNL A   1      34.326  21.436  27.704  1.00  0.00    -0.224 OA
BRANCH  16  18
ATOM     18  O   UNL A   1      34.771  22.888  25.987  1.00  0.00    -0.444 OA
BRANCH  18  19
ATOM     19  C   UNL A   1      36.021  22.646  25.274  1.00  0.00     0.106 C 
ATOM     20  C   UNL A   1      37.094  23.505  25.945  1.00  0.00     0.056 C 
ATOM     21  C   UNL A   1      35.783  23.166  23.850  1.00  0.00     0.056 C 
ATOM     22  C   UNL A   1      36.511  21.194  25.201  1.00  0.00     0.056 C 
ENDBRANCH  18  19
ENDBRANCH  16  18
ENDBRANCH  12  16
ENDBRANCH   8  11
ENDBRANCH   6   7
BRANCH   6  23
ATOM     23  C   UNL A   1      29.706  26.357  24.939  1.00  0.00     0.072 C 
BRANCH  23  24
ATOM     24  C   UNL A   1      29.960  27.458  23.930  1.00  0.00    -0.045 A 
ATOM     25  C   UNL A   1      28.883  28.139  23.348  1.00  0.00     0.004 A 
ATOM     26  C   UNL A   1      31.260  27.788  23.511  1.00  0.00     0.004 A 
ATOM     27  C   UNL A   1      29.106  29.145  22.403  1.00  0.00     0.000 A 
ATOM     28  C   UNL A   1      31.482  28.817  22.596  1.00  0.00     0.000 A 
ATOM     29  C   UNL A   1      30.404  29.496  22.042  1.00  0.00     0.000 A 
ENDBRANCH  23  24
ENDBRANCH   6  23
ENDBRANCH   4   6
ENDBRANCH   3   4
ENDBRANCH   2   3
ENDBRANCH   1   2
BRANCH   1  30
ATOM     30  O   UNL A   1      31.746  30.210  26.328  1.00  0.00    -0.374 OA
BRANCH  30  31
ATOM     31  C   UNL A   1      32.666  31.204  26.766  1.00  0.00     0.202 C 
BRANCH  31  32
ATOM     32  C   UNL A   1      32.205  32.667  26.865  1.00  0.00     0.261 C 
BRANCH  32  33
ATOM     33  O   UNL A   1      32.435  33.280  28.143  1.00  0.00    -0.460 OA
BRANCH  33  34
ATOM     34  C   UNL A   1      33.535  34.073  28.185  1.00  0.00     0.338 C 
ATOM     35  O   UNL A   1      33.572  35.286  28.067  1.00  0.00    -0.246 OA
BRANCH  34  36
ATOM     36  C   UNL A   1      34.720  33.290  28.574  1.00  0.00     0.060 A 
ATOM     37  C   UNL A   1      34.516  32.149  29.361  1.00  0.00     0.016 A 
ATOM     38  C   UNL A   1      36.011  33.743  28.295  1.00  0.00     0.016 A 
ATOM     39  C   UNL A   1      35.605  31.484  29.918  1.00  0.00     0.010 A 
ATOM     40  C   UNL A   1      37.103  33.078  28.866  1.00  0.00     0.010 A 
ATOM     41  C   UNL A   1      36.902  31.971  29.710  1.00  0.00    -0.014 A 
BRANCH  41  42
ATOM     42  C   UNL A   1      38.020  31.413  30.511  1.00  0.00     0.031 A 
ATOM     43  C   UNL A   1      38.933  30.397  29.877  1.00  0.00     0.074 A 
ATOM     44  C   UNL A   1      38.243  31.845  31.765  1.00  0.00     0.049 A 
ATOM     45  N   UNL A   1      39.953  29.763  30.393  1.00  0.00    -0.248 NA
ATOM     46  C   UNL A   1      38.656  30.052  28.473  1.00  0.00     0.031 C 
ATOM     47  C   UNL A   1      37.455  32.863  32.459  1.00  0.00     0.029 A 
ATOM     48  N   UNL A   1      39.200  31.480  32.678  1.00  0.00    -0.354 N 
ATOM     49  C   UNL A   1      40.437  28.938  29.382  1.00  0.00     0.074 A 
ATOM     50  C   UNL A   1      39.580  29.133  28.232  1.00  0.00     0.031 C 
ATOM     51  C   UNL A   1      37.955  33.032  33.695  1.00  0.00     0.029 A 
ATOM     52  C   UNL A   1      39.071  32.110  33.895  1.00  0.00     0.049 A 
ATOM     53  H   UNL A   1      39.911  30.828  32.482  1.00  0.00     0.167 HD
ATOM     54  C   UNL A   1      41.502  28.099  29.412  1.00  0.00     0.034 A 
ATOM     55  C   UNL A   1      39.758  31.939  35.042  1.00  0.00     0.034 A 
ATOM     56  C   UNL A   1      42.344  27.913  30.568  1.00  0.00     0.049 A 
ATOM     57  C   UNL A   1      40.895  30.943  35.071  1.00  0.00     0.074 A 
ATOM     58  C   UNL A   1      43.455  27.100  30.702  1.00  0.00     0.029 A 
ATOM     59  N   UNL A   1      42.161  28.540  31.794  1.00  0.00    -0.354 N 
ATOM     60  N   UNL A   1      41.348  30.177  34.104  1.00  0.00    -0.248 NA
ATOM     61  C   UNL A   1      41.619  30.799  36.341  1.00  0.00     0.031 C 
ATOM     62  C   UNL A   1      43.901  27.181  32.026  1.00  0.00     0.029 A 
ATOM     63  C   UNL A   1      43.118  28.106  32.698  1.00  0.00     0.049 A 
ATOM     64  H   UNL A   1      41.454  29.196  31.992  1.00  0.00     0.167 HD
ATOM     65  C   UNL A   1      42.432  29.487  34.643  1.00  0.00     0.074 A 
ATOM     66  C   UNL A   1      42.572  29.940  36.011  1.00  0.00     0.031 C 
ATOM     67  C   UNL A   1      43.242  28.566  34.061  1.00  0.00     0.034 A 
BRANCH  54  68
ATOM     68  C   UNL A   1      41.779  27.278  28.176  1.00  0.00     0.023 A 
ATOM     69  C   UNL A   1      41.520  25.897  28.124  1.00  0.00     0.031 A 
ATOM     70  C   UNL A   1      42.315  27.892  27.029  1.00  0.00     0.131 A 
ATOM     71  C   UNL A   1      41.846  25.167  26.970  1.00  0.00     0.055 A 
ATOM     72  C   UNL A   1      42.573  27.173  25.860  1.00  0.00     0.041 A 
ATOM     73  F   UNL A   1      42.604  29.202  27.028  1.00  0.00    -0.206 F 
ATOM     74  C   UNL A   1      42.348  25.800  25.829  1.00  0.00     0.022 A 
BRANCH  71  75
ATOM     75  S   UNL A   1      41.712  23.359  27.015  1.00  0.00     0.124 S 
ATOM     76  O   UNL A   1      40.463  23.173  27.749  1.00  0.00    -0.237 OA
ATOM     77  O   UNL A   1      41.678  23.008  25.600  1.00  0.00    -0.237 OA
ATOM     78  O   UNL A   1      42.916  22.943  27.731  1.00  0.00    -0.744 OA
ENDBRANCH  71  75
ENDBRANCH  54  68
BRANCH  55  79
ATOM     79  C   UNL A   1      39.372  32.683  36.276  1.00  0.00     0.023 A 
ATOM     80  C   UNL A   1      39.998  33.890  36.627  1.00  0.00     0.031 A 
ATOM     81  C   UNL A   1      38.418  32.154  37.166  1.00  0.00     0.131 A 
ATOM     82  C   UNL A   1      39.706  34.497  37.860  1.00  0.00     0.055 A 
ATOM     83  C   UNL A   1      38.088  32.793  38.362  1.00  0.00     0.041 A 
ATOM     84  F   UNL A   1      37.788  31.003  36.882  1.00  0.00    -0.206 F 
ATOM     85  C   UNL A   1      38.747  33.963  38.723  1.00  0.00     0.022 A 
BRANCH  82  86
ATOM     86  S   UNL A   1      40.682  35.938  38.369  1.00  0.00     0.124 S 
ATOM     87  O   UNL A   1      39.984  37.024  37.690  1.00  0.00    -0.237 OA
ATOM     88  O   UNL A   1      40.548  35.896  39.821  1.00  0.00    -0.237 OA
ATOM     89  O   UNL A   1      42.020  35.640  37.859  1.00  0.00    -0.744 OA
ENDBRANCH  82  86
ENDBRANCH  55  79
BRANCH  67  90
ATOM     90  C   UNL A   1      44.386  28.034  34.891  1.00  0.00     0.023 A 
ATOM     91  C   UNL A   1      44.245  26.898  35.709  1.00  0.00     0.031 A 
ATOM     92  C   UNL A   1      45.634  28.682  34.870  1.00  0.00     0.131 A 
ATOM     93  C   UNL A   1      45.315  26.482  36.517  1.00  0.00     0.055 A 
ATOM     94  C   UNL A   1      46.714  28.226  35.627  1.00  0.00     0.041 A 
ATOM     95  F   UNL A   1      45.826  29.771  34.108  1.00  0.00    -0.206 F 
ATOM     96  C   UNL A   1      46.553  27.128  36.468  1.00  0.00     0.022 A 
BRANCH  93  97
ATOM     97  S   UNL A   1      45.038  25.141  37.707  1.00  0.00     0.124 S 
ATOM     98  O   UNL A   1      43.832  24.512  37.180  1.00  0.00    -0.237 OA
ATOM     99  O   UNL A   1      46.267  24.362  37.589  1.00  0.00    -0.237 OA
ATOM    100  O   UNL A   1      44.868  25.842  38.978  1.00  0.00    -0.744 OA
ENDBRANCH  93  97
ENDBRANCH  67  90
ENDBRANCH  41  42
ENDBRANCH  34  36
ENDBRANCH  33  34
ENDBRANCH  32  33
ENDBRANCH  31  32
ENDBRANCH  30  31
ENDBRANCH   1  30
TORSDOF 24
ENDMDL
MODEL 3
REMARK VINA RESULT:      -9.7      2.185      3.411
REMARK SMILES CC(C)(C)OC(=O)N1CCC[C@H]1C(=O)N[C@@H](Cc1ccccc1)C(=O)OCCOCCOC(=O)c1ccc(-c2c3nc(c(-c4cc(S(=O)(=O)[O-])ccc4F)c4ccc([nH]4)c(-c4cc(S(=O)(=O)[O-])ccc4F)c4nc(c(-c5cc(S(=O)(=O)[O-])ccc5F)c5ccc2[nH]5)C=C4)C=C3)cc1
REMARK SMILES IDX 28 1 27 2 26 3 24 4 25 5 16 6 15 7 13 8 14 9 12 11 8 12 9 13
REMARK SMILES IDX 10 14 11 15 6 16 7 17 5 18 2 19 1 20 3 21 4 22 17 23 18 24
REMARK SMILES IDX 19 25 23 26 20 27 22 28 21 29 29 30 30 31 31 32 32 33 33 34
REMARK SMILES IDX 34 35 35 36 36 37 97 38 37 39 96 40 38 41 39 42 40 43 90 44
REMARK SMILES IDX 41 45 95 46 89 47 91 48 42 49 94 50 88 51 87 52 43 54 75 55
REMARK SMILES IDX 55 56 74 57 56 58 59 59 73 60 92 61 57 62 58 63 72 65 93 66
REMARK SMILES IDX 60 67 44 68 45 69 53 70 46 71 52 72 54 73 51 74 47 75 48 76
REMARK SMILES IDX 49 77 50 78 76 79 77 80 85 81 78 82 84 83 86 84 83 85 79 86
REMARK SMILES IDX 80 87 81 88 82 89 61 90 62 91 70 92 63 93 69 94 71 95 68 96
REMARK SMILES IDX 64 97 65 98 66 99 67 100
REMARK H PARENT 15 10 91 53 59 64
REMARK Flexibility Score: inf
ROOT
ATOM      1  C   UNL A   1      31.801  29.007  27.170  1.00  0.00     0.202 C 
ENDROOT
BRANCH   1   2
ATOM      2  C   UNL A   1      32.617  27.723  26.986  1.00  0.00     0.261 C 
BRANCH   2   3
ATOM      3  O   UNL A   1      31.819  26.537  26.820  1.00  0.00    -0.462 OA
BRANCH   3   4
ATOM      4  C   UNL A   1      32.162  25.743  25.766  1.00  0.00     0.329 C 
ATOM      5  O   UNL A   1      33.312  25.587  25.364  1.00  0.00    -0.250 OA
BRANCH   4   6
ATOM      6  C   UNL A   1      30.949  25.172  25.017  1.00  0.00     0.196 C 
BRANCH   6   7
ATOM      7  N   UNL A   1      30.403  23.923  25.555  1.00  0.00    -0.341 N 
ATOM      8  C   UNL A   1      30.914  22.657  25.596  1.00  0.00     0.243 C 
ATOM      9  O   UNL A   1      30.209  21.811  26.159  1.00  0.00    -0.273 OA
ATOM     10  H   UNL A   1      29.509  24.012  25.958  1.00  0.00     0.164 HD
BRANCH   8  11
ATOM     11  C   UNL A   1      32.273  22.260  24.927  1.00  0.00     0.178 C 
ATOM     12  N   UNL A   1      33.147  21.502  25.828  1.00  0.00    -0.296 N 
ATOM     13  C   UNL A   1      33.074  20.085  25.539  1.00  0.00     0.124 C 
ATOM     14  C   UNL A   1      32.956  20.077  24.028  1.00  0.00     0.024 C 
ATOM     15  C   UNL A   1      32.060  21.286  23.739  1.00  0.00     0.037 C 
BRANCH  12  16
ATOM     16  C   UNL A   1      34.244  22.064  26.441  1.00  0.00     0.410 C 
ATOM     17  O   UNL A   1      34.546  21.824  27.601  1.00  0.00    -0.224 OA
BRANCH  16  18
ATOM     18  O   UNL A   1      34.953  22.831  25.582  1.00  0.00    -0.444 OA
BRANCH  18  19
ATOM     19  C   UNL A   1      36.221  22.432  24.981  1.00  0.00     0.106 C 
ATOM     20  C   UNL A   1      37.318  23.250  25.664  1.00  0.00     0.056 C 
ATOM     21  C   UNL A   1      36.123  22.855  23.509  1.00  0.00     0.056 C 
ATOM     22  C   UNL A   1      36.586  20.943  25.050  1.00  0.00     0.056 C 
ENDBRANCH  18  19
ENDBRANCH  16  18
ENDBRANCH  12  16
ENDBRANCH   8  11
ENDBRANCH   6   7
BRANCH   6  23
ATOM     23  C   UNL A   1      29.886  26.285  24.877  1.00  0.00     0.072 C 
BRANCH  23  24
ATOM     24  C   UNL A   1      30.181  27.391  23.884  1.00  0.00    -0.045 A 
ATOM     25  C   UNL A   1      31.249  27.262  22.987  1.00  0.00     0.004 A 
ATOM     26  C   UNL A   1      29.440  28.584  23.869  1.00  0.00     0.004 A 
ATOM     27  C   UNL A   1      31.540  28.283  22.078  1.00  0.00     0.000 A 
ATOM     28  C   UNL A   1      29.708  29.587  22.938  1.00  0.00     0.000 A 
ATOM     29  C   UNL A   1      30.759  29.436  22.041  1.00  0.00     0.000 A 
ENDBRANCH  23  24
ENDBRANCH   6  23
ENDBRANCH   4   6
ENDBRANCH   3   4
ENDBRANCH   2   3
ENDBRANCH   1   2
BRANCH   1  30
ATOM     30  O   UNL A   1      32.182  30.161  26.436  1.00  0.00    -0.374 OA
BRANCH  30  31
ATOM     31  C   UNL A   1      33.289  30.918  26.913  1.00  0.00     0.202 C 
BRANCH  31  32
ATOM     32  C   UNL A   1      33.056  32.344  27.440  1.00  0.00     0.261 C 
BRANCH  32  33
ATOM     33  O   UNL A   1      33.494  32.560  28.791  1.00  0.00    -0.460 OA
BRANCH  33  34
ATOM     34  C   UNL A   1      34.608  33.329  28.893  1.00  0.00     0.338 C 
ATOM     35  O   UNL A   1      34.655  34.540  29.032  1.00  0.00    -0.246 OA
BRANCH  34  36
ATOM     36  C   UNL A   1      35.810  32.484  28.990  1.00  0.00     0.060 A 
ATOM     37  C   UNL A   1      35.654  31.186  29.493  1.00  0.00     0.016 A 
ATOM     38  C   UNL A   1      37.081  33.001  28.731  1.00  0.00     0.016 A 
ATOM     39  C   UNL A   1      36.774  30.414  29.787  1.00  0.00     0.010 A 
ATOM     40  C   UNL A   1      38.205  32.227  29.040  1.00  0.00     0.010 A 
ATOM     41  C   UNL A   1      38.057  30.947  29.604  1.00  0.00    -0.014 A 
BRANCH  41  42
ATOM     42  C   UNL A   1      39.226  30.221  30.160  1.00  0.00     0.031 A 
ATOM     43  C   UNL A   1      39.753  30.619  31.514  1.00  0.00     0.074 A 
ATOM     44  C   UNL A   1      39.776  29.194  29.487  1.00  0.00     0.049 A 
ATOM     45  N   UNL A   1      40.771  30.142  32.180  1.00  0.00    -0.248 NA
ATOM     46  C   UNL A   1      39.032  31.699  32.206  1.00  0.00     0.031 C 
ATOM     47  C   UNL A   1      39.314  28.690  28.194  1.00  0.00     0.029 A 
ATOM     48  N   UNL A   1      40.843  28.390  29.800  1.00  0.00    -0.354 N 
ATOM     49  C   UNL A   1      40.820  30.867  33.367  1.00  0.00     0.074 A 
ATOM     50  C   UNL A   1      39.745  31.834  33.315  1.00  0.00     0.031 C 
ATOM     51  C   UNL A   1      40.102  27.668  27.819  1.00  0.00     0.029 A 
ATOM     52  C   UNL A   1      41.146  27.470  28.823  1.00  0.00     0.049 A 
ATOM     53  H   UNL A   1      41.344  28.464  30.644  1.00  0.00     0.167 HD
ATOM     54  C   UNL A   1      41.681  30.732  34.406  1.00  0.00     0.034 A 
ATOM     55  C   UNL A   1      42.165  26.591  28.739  1.00  0.00     0.034 A 
ATOM     56  C   UNL A   1      42.752  29.765  34.440  1.00  0.00     0.049 A 
ATOM     57  C   UNL A   1      43.156  26.512  29.878  1.00  0.00     0.074 A 
ATOM     58  C   UNL A   1      43.672  29.534  35.447  1.00  0.00     0.029 A 
ATOM     59  N   UNL A   1      43.052  28.875  33.416  1.00  0.00    -0.354 N 
ATOM     60  N   UNL A   1      43.184  27.197  30.999  1.00  0.00    -0.248 NA
ATOM     61  C   UNL A   1      44.243  25.534  29.744  1.00  0.00     0.031 C 
ATOM     62  C   UNL A   1      44.570  28.556  35.005  1.00  0.00     0.029 A 
ATOM     63  C   UNL A   1      44.163  28.118  33.754  1.00  0.00     0.049 A 
ATOM     64  H   UNL A   1      42.549  28.794  32.574  1.00  0.00     0.167 HD
ATOM     65  C   UNL A   1      44.272  26.705  31.717  1.00  0.00     0.074 A 
ATOM     66  C   UNL A   1      44.862  25.657  30.910  1.00  0.00     0.031 C 
ATOM     67  C   UNL A   1      44.741  27.079  32.935  1.00  0.00     0.034 A 
BRANCH  54  68
ATOM     68  C   UNL A   1      41.536  31.691  35.562  1.00  0.00     0.023 A 
ATOM     69  C   UNL A   1      40.363  31.755  36.335  1.00  0.00     0.031 A 
ATOM     70  C   UNL A   1      42.593  32.557  35.895  1.00  0.00     0.131 A 
ATOM     71  C   UNL A   1      40.256  32.702  37.367  1.00  0.00     0.055 A 
ATOM     72  C   UNL A   1      42.506  33.449  36.966  1.00  0.00     0.041 A 
ATOM     73  F   UNL A   1      43.728  32.556  35.179  1.00  0.00    -0.206 F 
ATOM     74  C   UNL A   1      41.329  33.532  37.703  1.00  0.00     0.022 A 
BRANCH  71  75
ATOM     75  S   UNL A   1      38.655  32.914  38.192  1.00  0.00     0.124 S 
ATOM     76  O   UNL A   1      38.177  31.536  38.269  1.00  0.00    -0.237 OA
ATOM     77  O   UNL A   1      39.032  33.531  39.459  1.00  0.00    -0.237 OA
ATOM     78  O   UNL A   1      37.908  33.776  37.277  1.00  0.00    -0.744 OA
ENDBRANCH  71  75
ENDBRANCH  54  68
BRANCH  55  79
ATOM     79  C   UNL A   1      42.341  25.747  27.521  1.00  0.00     0.023 A 
ATOM     80  C   UNL A   1      41.918  24.409  27.494  1.00  0.00     0.031 A 
ATOM     81  C   UNL A   1      43.009  26.250  26.389  1.00  0.00     0.131 A 
ATOM     82  C   UNL A   1      42.217  23.603  26.383  1.00  0.00     0.055 A 
ATOM     83  C   UNL A   1      43.250  25.462  25.262  1.00  0.00     0.041 A 
ATOM     84  F   UNL A   1      43.436  27.522  26.360  1.00  0.00    -0.206 F 
ATOM     85  C   UNL A   1      42.868  24.124  25.263  1.00  0.00     0.022 A 
BRANCH  82  86
ATOM     86  S   UNL A   1      41.838  21.832  26.469  1.00  0.00     0.124 S 
ATOM     87  O   UNL A   1      40.431  21.810  26.087  1.00  0.00    -0.237 OA
ATOM     88  O   UNL A   1      42.776  21.275  25.500  1.00  0.00    -0.237 OA
ATOM     89  O   UNL A   1      42.112  21.493  27.865  1.00  0.00    -0.744 OA
ENDBRANCH  82  86
ENDBRANCH  55  79
BRANCH  67  90
ATOM     90  C   UNL A   1      45.916  26.308  33.487  1.00  0.00     0.023 A 
ATOM     91  C   UNL A   1      47.231  26.546  33.051  1.00  0.00     0.031 A 
ATOM     92  C   UNL A   1      45.712  25.311  34.458  1.00  0.00     0.131 A 
ATOM     93  C   UNL A   1      48.284  25.756  33.540  1.00  0.00     0.055 A 
ATOM     94  C   UNL A   1      46.770  24.571  34.988  1.00  0.00     0.041 A 
ATOM     95  F   UNL A   1      44.476  25.041  34.911  1.00  0.00    -0.206 F 
ATOM     96  C   UNL A   1      48.063  24.782  34.518  1.00  0.00     0.022 A 
BRANCH  93  97
ATOM     97  S   UNL A   1      49.933  25.951  32.811  1.00  0.00     0.124 S 
ATOM     98  O   UNL A   1      49.670  26.870  31.708  1.00  0.00    -0.237 OA
ATOM     99  O   UNL A   1      50.704  26.495  33.924  1.00  0.00    -0.237 OA
ATOM    100  O   UNL A   1      50.294  24.592  32.413  1.00  0.00    -0.744 OA
ENDBRANCH  93  97
ENDBRANCH  67  90
ENDBRANCH  41  42
ENDBRANCH  34  36
ENDBRANCH  33  34
ENDBRANCH  32  33
ENDBRANCH  31  32
ENDBRANCH  30  31
ENDBRANCH   1  30
TORSDOF 24
ENDMDL
