MODEL 1
REMARK VINA RESULT:      -9.0      0.000      0.000
REMARK SMILES O=C(C/C(=C/c1ccc(N2CCOCC2)c(F)c1)c1nc2ccccc2s1)OCCOCCOC(=O)c1ccc(-c2c3nc(c(-c4cc(S(=O)(=O)[O-])ccc4F)c4ccc([nH]4)c(-c4cc(S(=O)(=O)[O-])ccc4F)c4nc(c(-c5cc(S(=O)(=O)[O-])ccc5F)c5ccc2[nH]5)C=C4)C=C3)cc1
REMARK SMILES IDX 31 1 30 2 29 3 28 4 2 5 1 6 3 7 4 8 5 9 19 10 20 11 27 12
REMARK SMILES IDX 21 13 26 14 22 15 25 16 23 17 24 18 6 19 7 20 18 21 8 22
REMARK SMILES IDX 16 23 9 24 17 25 10 26 11 27 15 28 12 29 14 30 13 31 32 32
REMARK SMILES IDX 33 33 34 34 35 35 36 36 37 37 38 38 99 39 39 40 98 41 40 42
REMARK SMILES IDX 41 43 42 44 92 45 43 46 97 47 91 48 93 49 44 50 96 51 90 52
REMARK SMILES IDX 89 53 45 55 77 56 57 57 76 58 58 59 61 60 75 61 94 62 59 63
REMARK SMILES IDX 60 64 74 66 95 67 62 68 46 69 47 70 55 71 48 72 54 73 56 74
REMARK SMILES IDX 53 75 49 76 50 77 51 78 52 79 78 80 79 81 87 82 80 83 86 84
REMARK SMILES IDX 88 85 85 86 81 87 82 88 83 89 84 90 63 91 64 92 72 93 65 94
REMARK SMILES IDX 71 95 73 96 70 97 66 98 67 99 68 100 69 101
REMARK H PARENT 93 54 61 65
REMARK Flexibility Score: inf
ROOT
ATOM      1  O   UNL A   1      41.631  21.493  26.453  1.00  0.00    -0.374 OA
ENDROOT
BRANCH   1   2
ATOM      2  C   UNL A   1      41.454  21.887  27.811  1.00  0.00     0.202 C 
BRANCH   2   3
ATOM      3  C   UNL A   1      42.697  21.999  28.691  1.00  0.00     0.261 C 
BRANCH   3   4
ATOM      4  O   UNL A   1      43.327  23.288  28.694  1.00  0.00    -0.463 OA
BRANCH   4   5
ATOM      5  C   UNL A   1      44.618  23.552  29.000  1.00  0.00     0.310 C 
ATOM      6  O   UNL A   1      44.942  23.641  30.187  1.00  0.00    -0.252 OA
BRANCH   5   7
ATOM      7  C   UNL A   1      45.653  23.804  27.914  1.00  0.00     0.161 C 
BRANCH   7   8
ATOM      8  C   UNL A   1      46.489  25.045  28.096  1.00  0.00    -0.000 C 
ATOM      9  C   UNL A   1      46.088  25.964  29.012  1.00  0.00     0.015 C 
BRANCH   8  10
ATOM     10  C   UNL A   1      47.701  25.268  27.353  1.00  0.00     0.121 A 
ATOM     11  N   UNL A   1      48.912  24.904  27.728  1.00  0.00    -0.236 NA
ATOM     12  S   UNL A   1      47.651  26.090  25.833  1.00  0.00    -0.114 S 
ATOM     13  C   UNL A   1      49.857  25.336  26.818  1.00  0.00     0.082 A 
ATOM     14  C   UNL A   1      49.351  25.984  25.694  1.00  0.00     0.055 A 
ATOM     15  C   UNL A   1      51.247  25.171  26.937  1.00  0.00     0.030 A 
ATOM     16  C   UNL A   1      50.179  26.451  24.663  1.00  0.00     0.021 A 
ATOM     17  C   UNL A   1      52.087  25.638  25.921  1.00  0.00     0.002 A 
ATOM     18  C   UNL A   1      51.557  26.264  24.796  1.00  0.00     0.002 A 
ENDBRANCH   8  10
BRANCH   9  19
ATOM     19  C   UNL A   1      46.667  27.301  29.198  1.00  0.00    -0.022 A 
ATOM     20  C   UNL A   1      47.591  27.549  30.223  1.00  0.00     0.010 A 
ATOM     21  C   UNL A   1      46.285  28.345  28.366  1.00  0.00     0.049 A 
ATOM     22  C   UNL A   1      48.001  28.850  30.513  1.00  0.00     0.029 A 
ATOM     23  C   UNL A   1      46.701  29.639  28.667  1.00  0.00     0.147 A 
ATOM     24  C   UNL A   1      47.517  29.932  29.776  1.00  0.00     0.073 A 
ATOM     25  F   UNL A   1      46.286  30.631  27.859  1.00  0.00    -0.205 F 
BRANCH  24  26
ATOM     26  N   UNL A   1      47.803  31.219  30.167  1.00  0.00    -0.365 N 
ATOM     27  C   UNL A   1      48.871  31.991  29.531  1.00  0.00     0.145 C 
ATOM     28  C   UNL A   1      47.122  31.884  31.279  1.00  0.00     0.145 C 
ATOM     29  C   UNL A   1      49.855  32.471  30.603  1.00  0.00     0.181 C 
ATOM     30  C   UNL A   1      48.184  32.381  32.277  1.00  0.00     0.181 C 
ATOM     31  O   UNL A   1      49.178  33.209  31.640  1.00  0.00    -0.378 OA
ENDBRANCH  24  26
ENDBRANCH   9  19
ENDBRANCH   7   8
ENDBRANCH   5   7
ENDBRANCH   4   5
ENDBRANCH   3   4
ENDBRANCH   2   3
ENDBRANCH   1   2
BRANCH   1  32
ATOM     32  C   UNL A   1      42.971  21.201  26.038  1.00  0.00     0.202 C 
BRANCH  32  33
ATOM     33  C   UNL A   1      43.608  22.110  24.984  1.00  0.00     0.261 C 
BRANCH  33  34
ATOM     34  O   UNL A   1      42.894  23.342  24.838  1.00  0.00    -0.460 OA
BRANCH  34  35
ATOM     35  C   UNL A   1      43.649  24.442  25.067  1.00  0.00     0.338 C 
ATOM     36  O   UNL A   1      44.684  24.750  24.493  1.00  0.00    -0.246 OA
BRANCH  35  37
ATOM     37  C   UNL A   1      42.922  25.360  25.964  1.00  0.00     0.060 A 
ATOM     38  C   UNL A   1      43.510  26.608  26.206  1.00  0.00     0.016 A 
ATOM     39  C   UNL A   1      41.705  25.016  26.559  1.00  0.00     0.016 A 
ATOM     40  C   UNL A   1      42.935  27.477  27.121  1.00  0.00     0.010 A 
ATOM     41  C   UNL A   1      41.127  25.890  27.480  1.00  0.00     0.010 A 
ATOM     42  C   UNL A   1      41.774  27.094  27.805  1.00  0.00    -0.014 A 
BRANCH  42  43
ATOM     43  C   UNL A   1      41.369  27.875  28.993  1.00  0.00     0.031 A 
ATOM     44  C   UNL A   1      40.088  28.661  28.928  1.00  0.00     0.074 A 
ATOM     45  C   UNL A   1      42.079  27.800  30.131  1.00  0.00     0.049 A 
ATOM     46  N   UNL A   1      39.504  29.367  29.859  1.00  0.00    -0.248 NA
ATOM     47  C   UNL A   1      39.367  28.645  27.644  1.00  0.00     0.031 C 
ATOM     48  C   UNL A   1      43.304  27.018  30.304  1.00  0.00     0.029 A 
ATOM     49  N   UNL A   1      41.863  28.367  31.358  1.00  0.00    -0.354 N 
ATOM     50  C   UNL A   1      38.351  29.878  29.274  1.00  0.00     0.074 A 
ATOM     51  C   UNL A   1      38.339  29.439  27.898  1.00  0.00     0.031 C 
ATOM     52  C   UNL A   1      43.718  27.137  31.576  1.00  0.00     0.029 A 
ATOM     53  C   UNL A   1      42.811  28.032  32.294  1.00  0.00     0.049 A 
ATOM     54  H   UNL A   1      41.100  28.959  31.552  1.00  0.00     0.167 HD
ATOM     55  C   UNL A   1      37.386  30.637  29.844  1.00  0.00     0.034 A 
ATOM     56  C   UNL A   1      42.936  28.410  33.581  1.00  0.00     0.034 A 
ATOM     57  C   UNL A   1      37.420  31.058  31.220  1.00  0.00     0.049 A 
ATOM     58  C   UNL A   1      41.897  29.322  34.175  1.00  0.00     0.074 A 
ATOM     59  C   UNL A   1      36.489  31.813  31.909  1.00  0.00     0.029 A 
ATOM     60  N   UNL A   1      38.444  30.769  32.113  1.00  0.00    -0.354 N 
ATOM     61  N   UNL A   1      40.820  29.816  33.608  1.00  0.00    -0.248 NA
ATOM     62  C   UNL A   1      42.081  29.729  35.573  1.00  0.00     0.031 C 
ATOM     63  C   UNL A   1      36.988  32.049  33.193  1.00  0.00     0.029 A 
ATOM     64  C   UNL A   1      38.187  31.367  33.335  1.00  0.00     0.049 A 
ATOM     65  H   UNL A   1      39.235  30.222  31.906  1.00  0.00     0.167 HD
ATOM     66  C   UNL A   1      40.185  30.573  34.587  1.00  0.00     0.074 A 
ATOM     67  C   UNL A   1      41.003  30.478  35.779  1.00  0.00     0.031 C 
ATOM     68  C   UNL A   1      39.023  31.268  34.508  1.00  0.00     0.034 A 
BRANCH  55  69
ATOM     69  C   UNL A   1      36.244  31.095  28.973  1.00  0.00     0.023 A 
ATOM     70  C   UNL A   1      35.324  30.192  28.416  1.00  0.00     0.031 A 
ATOM     71  C   UNL A   1      36.071  32.465  28.706  1.00  0.00     0.131 A 
ATOM     72  C   UNL A   1      34.298  30.665  27.584  1.00  0.00     0.055 A 
ATOM     73  C   UNL A   1      35.007  32.936  27.934  1.00  0.00     0.041 A 
ATOM     74  F   UNL A   1      36.934  33.371  29.192  1.00  0.00    -0.206 F 
ATOM     75  C   UNL A   1      34.118  32.032  27.361  1.00  0.00     0.022 A 
BRANCH  72  76
ATOM     76  S   UNL A   1      33.252  29.461  26.719  1.00  0.00     0.124 S 
ATOM     77  O   UNL A   1      32.872  30.208  25.523  1.00  0.00    -0.237 OA
ATOM     78  O   UNL A   1      34.164  28.341  26.511  1.00  0.00    -0.237 OA
ATOM     79  O   UNL A   1      32.165  29.212  27.662  1.00  0.00    -0.744 OA
ENDBRANCH  72  76
ENDBRANCH  55  69
BRANCH  56  80
ATOM     80  C   UNL A   1      44.100  27.925  34.371  1.00  0.00     0.023 A 
ATOM     81  C   UNL A   1      43.999  26.801  35.202  1.00  0.00     0.031 A 
ATOM     82  C   UNL A   1      45.356  28.550  34.249  1.00  0.00     0.131 A 
ATOM     83  C   UNL A   1      45.135  26.331  35.880  1.00  0.00     0.055 A 
ATOM     84  C   UNL A   1      46.489  28.060  34.899  1.00  0.00     0.041 A 
ATOM     85  F   UNL A   1      45.504  29.622  33.455  1.00  0.00    -0.206 F 
ATOM     86  C   UNL A   1      46.382  26.943  35.722  1.00  0.00     0.022 A 
BRANCH  83  87
ATOM     87  S   UNL A   1      44.970  24.894  36.974  1.00  0.00     0.124 S 
ATOM     88  O   UNL A   1      44.330  23.923  36.093  1.00  0.00    -0.237 OA
ATOM     89  O   UNL A   1      46.358  24.621  37.332  1.00  0.00    -0.237 OA
ATOM     90  O   UNL A   1      44.137  25.392  38.066  1.00  0.00    -0.744 OA
ENDBRANCH  83  87
ENDBRANCH  56  80
BRANCH  68  91
ATOM     91  C   UNL A   1      38.528  31.961  35.750  1.00  0.00     0.023 A 
ATOM     92  C   UNL A   1      37.942  31.248  36.806  1.00  0.00     0.031 A 
ATOM     93  C   UNL A   1      38.757  33.339  35.916  1.00  0.00     0.131 A 
ATOM     94  C   UNL A   1      37.598  31.920  37.989  1.00  0.00     0.055 A 
ATOM     95  C   UNL A   1      38.454  33.992  37.110  1.00  0.00     0.041 A 
ATOM     96  F   UNL A   1      39.324  34.060  34.934  1.00  0.00    -0.206 F 
ATOM     97  C   UNL A   1      37.871  33.282  38.155  1.00  0.00     0.022 A 
BRANCH  94  98
ATOM     98  S   UNL A   1      36.788  30.992  39.319  1.00  0.00     0.124 S 
ATOM     99  O   UNL A   1      37.623  31.326  40.469  1.00  0.00    -0.237 OA
ATOM    100  O   UNL A   1      35.442  31.554  39.325  1.00  0.00    -0.237 OA
ATOM    101  O   UNL A   1      36.876  29.603  38.872  1.00  0.00    -0.744 OA
ENDBRANCH  94  98
ENDBRANCH  68  91
ENDBRANCH  42  43
ENDBRANCH  35  37
ENDBRANCH  34  35
ENDBRANCH  33  34
ENDBRANCH  32  33
ENDBRANCH   1  32
TORSDOF 21
ENDMDL
MODEL 2
REMARK VINA RESULT:      -8.8      3.626      9.614
REMARK SMILES O=C(C/C(=C/c1ccc(N2CCOCC2)c(F)c1)c1nc2ccccc2s1)OCCOCCOC(=O)c1ccc(-c2c3nc(c(-c4cc(S(=O)(=O)[O-])ccc4F)c4ccc([nH]4)c(-c4cc(S(=O)(=O)[O-])ccc4F)c4nc(c(-c5cc(S(=O)(=O)[O-])ccc5F)c5ccc2[nH]5)C=C4)C=C3)cc1
REMARK SMILES IDX 31 1 30 2 29 3 28 4 2 5 1 6 3 7 4 8 5 9 19 10 20 11 27 12
REMARK SMILES IDX 21 13 26 14 22 15 25 16 23 17 24 18 6 19 7 20 18 21 8 22
REMARK SMILES IDX 16 23 9 24 17 25 10 26 11 27 15 28 12 29 14 30 13 31 32 32
REMARK SMILES IDX 33 33 34 34 35 35 36 36 37 37 38 38 99 39 39 40 98 41 40 42
REMARK SMILES IDX 41 43 42 44 92 45 43 46 97 47 91 48 93 49 44 50 96 51 90 52
REMARK SMILES IDX 89 53 45 55 77 56 57 57 76 58 58 59 61 60 75 61 94 62 59 63
REMARK SMILES IDX 60 64 74 66 95 67 62 68 46 69 47 70 55 71 48 72 54 73 56 74
REMARK SMILES IDX 53 75 49 76 50 77 51 78 52 79 78 80 79 81 87 82 80 83 86 84
REMARK SMILES IDX 88 85 85 86 81 87 82 88 83 89 84 90 63 91 64 92 72 93 65 94
REMARK SMILES IDX 71 95 73 96 70 97 66 98 67 99 68 100 69 101
REMARK H PARENT 93 54 61 65
REMARK Flexibility Score: inf
ROOT
ATOM      1  O   UNL A   1      42.680  22.084  28.008  1.00  0.00    -0.374 OA
ENDROOT
BRANCH   1   2
ATOM      2  C   UNL A   1      41.693  23.060  28.330  1.00  0.00     0.202 C 
BRANCH   2   3
ATOM      3  C   UNL A   1      40.446  23.133  27.450  1.00  0.00     0.261 C 
BRANCH   3   4
ATOM      4  O   UNL A   1      40.098  24.448  26.995  1.00  0.00    -0.463 OA
BRANCH   4   5
ATOM      5  C   UNL A   1      39.692  25.484  27.763  1.00  0.00     0.310 C 
ATOM      6  O   UNL A   1      38.990  25.253  28.751  1.00  0.00    -0.252 OA
BRANCH   5   7
ATOM      7  C   UNL A   1      40.030  26.922  27.396  1.00  0.00     0.161 C 
BRANCH   7   8
ATOM      8  C   UNL A   1      40.243  27.851  28.564  1.00  0.00    -0.000 C 
ATOM      9  C   UNL A   1      41.447  27.833  29.192  1.00  0.00     0.015 C 
BRANCH   8  10
ATOM     10  C   UNL A   1      39.225  28.767  29.009  1.00  0.00     0.121 A 
ATOM     11  N   UNL A   1      38.934  29.925  28.452  1.00  0.00    -0.236 NA
ATOM     12  S   UNL A   1      38.266  28.392  30.398  1.00  0.00    -0.114 S 
ATOM     13  C   UNL A   1      37.958  30.584  29.172  1.00  0.00     0.082 A 
ATOM     14  C   UNL A   1      37.446  29.885  30.262  1.00  0.00     0.055 A 
ATOM     15  C   UNL A   1      37.454  31.866  28.892  1.00  0.00     0.030 A 
ATOM     16  C   UNL A   1      36.426  30.404  31.072  1.00  0.00     0.021 A 
ATOM     17  C   UNL A   1      36.442  32.401  29.695  1.00  0.00     0.002 A 
ATOM     18  C   UNL A   1      35.931  31.674  30.767  1.00  0.00     0.002 A 
ENDBRANCH   8  10
BRANCH   9  19
ATOM     19  C   UNL A   1      41.773  28.528  30.444  1.00  0.00    -0.022 A 
ATOM     20  C   UNL A   1      41.745  27.851  31.672  1.00  0.00     0.010 A 
ATOM     21  C   UNL A   1      42.096  29.879  30.426  1.00  0.00     0.049 A 
ATOM     22  C   UNL A   1      41.877  28.547  32.872  1.00  0.00     0.029 A 
ATOM     23  C   UNL A   1      42.223  30.563  31.631  1.00  0.00     0.147 A 
ATOM     24  C   UNL A   1      42.060  29.931  32.879  1.00  0.00     0.073 A 
ATOM     25  F   UNL A   1      42.503  31.877  31.577  1.00  0.00    -0.205 F 
BRANCH  24  26
ATOM     26  N   UNL A   1      42.031  30.627  34.065  1.00  0.00    -0.365 N 
ATOM     27  C   UNL A   1      42.738  30.144  35.252  1.00  0.00     0.145 C 
ATOM     28  C   UNL A   1      41.249  31.850  34.252  1.00  0.00     0.145 C 
ATOM     29  C   UNL A   1      41.747  30.018  36.413  1.00  0.00     0.181 C 
ATOM     30  C   UNL A   1      40.324  31.657  35.469  1.00  0.00     0.181 C 
ATOM     31  O   UNL A   1      41.056  31.261  36.647  1.00  0.00    -0.378 OA
ENDBRANCH  24  26
ENDBRANCH   9  19
ENDBRANCH   7   8
ENDBRANCH   5   7
ENDBRANCH   4   5
ENDBRANCH   3   4
ENDBRANCH   2   3
ENDBRANCH   1   2
BRANCH   1  32
ATOM     32  C   UNL A   1      42.360  21.169  26.952  1.00  0.00     0.202 C 
BRANCH  32  33
ATOM     33  C   UNL A   1      43.261  21.160  25.715  1.00  0.00     0.261 C 
BRANCH  33  34
ATOM     34  O   UNL A   1      42.964  22.245  24.829  1.00  0.00    -0.460 OA
BRANCH  34  35
ATOM     35  C   UNL A   1      44.057  22.940  24.431  1.00  0.00     0.338 C 
ATOM     36  O   UNL A   1      44.707  22.755  23.411  1.00  0.00    -0.246 OA
BRANCH  35  37
ATOM     37  C   UNL A   1      44.229  24.123  25.293  1.00  0.00     0.060 A 
ATOM     38  C   UNL A   1      45.515  24.356  25.800  1.00  0.00     0.016 A 
ATOM     39  C   UNL A   1      43.171  24.980  25.608  1.00  0.00     0.016 A 
ATOM     40  C   UNL A   1      45.725  25.389  26.701  1.00  0.00     0.010 A 
ATOM     41  C   UNL A   1      43.383  26.018  26.515  1.00  0.00     0.010 A 
ATOM     42  C   UNL A   1      44.647  26.185  27.107  1.00  0.00    -0.014 A 
BRANCH  42  43
ATOM     43  C   UNL A   1      44.819  27.049  28.294  1.00  0.00     0.031 A 
ATOM     44  C   UNL A   1      44.909  26.396  29.646  1.00  0.00     0.074 A 
ATOM     45  C   UNL A   1      44.991  28.374  28.151  1.00  0.00     0.049 A 
ATOM     46  N   UNL A   1      45.119  26.941  30.814  1.00  0.00    -0.248 NA
ATOM     47  C   UNL A   1      44.745  24.933  29.686  1.00  0.00     0.031 C 
ATOM     48  C   UNL A   1      44.976  29.088  26.874  1.00  0.00     0.029 A 
ATOM     49  N   UNL A   1      45.235  29.349  29.081  1.00  0.00    -0.354 N 
ATOM     50  C   UNL A   1      45.111  25.891  31.725  1.00  0.00     0.074 A 
ATOM     51  C   UNL A   1      44.833  24.683  30.983  1.00  0.00     0.031 C 
ATOM     52  C   UNL A   1      45.226  30.387  27.101  1.00  0.00     0.029 A 
ATOM     53  C   UNL A   1      45.379  30.603  28.539  1.00  0.00     0.049 A 
ATOM     54  H   UNL A   1      45.300  29.168  30.047  1.00  0.00     0.167 HD
ATOM     55  C   UNL A   1      45.329  25.936  33.061  1.00  0.00     0.034 A 
ATOM     56  C   UNL A   1      45.602  31.789  29.137  1.00  0.00     0.034 A 
ATOM     57  C   UNL A   1      45.609  27.153  33.776  1.00  0.00     0.049 A 
ATOM     58  C   UNL A   1      45.760  31.831  30.634  1.00  0.00     0.074 A 
ATOM     59  C   UNL A   1      45.863  27.315  35.125  1.00  0.00     0.029 A 
ATOM     60  N   UNL A   1      45.660  28.416  33.202  1.00  0.00    -0.354 N 
ATOM     61  N   UNL A   1      45.731  30.835  31.488  1.00  0.00    -0.248 NA
ATOM     62  C   UNL A   1      45.979  33.146  31.249  1.00  0.00     0.031 C 
ATOM     63  C   UNL A   1      45.988  28.683  35.381  1.00  0.00     0.029 A 
ATOM     64  C   UNL A   1      45.901  29.368  34.178  1.00  0.00     0.049 A 
ATOM     65  H   UNL A   1      45.542  28.606  32.243  1.00  0.00     0.167 HD
ATOM     66  C   UNL A   1      45.952  31.398  32.740  1.00  0.00     0.074 A 
ATOM     67  C   UNL A   1      46.105  32.824  32.532  1.00  0.00     0.031 C 
ATOM     68  C   UNL A   1      46.038  30.787  33.948  1.00  0.00     0.034 A 
BRANCH  55  69
ATOM     69  C   UNL A   1      45.228  24.646  33.834  1.00  0.00     0.023 A 
ATOM     70  C   UNL A   1      46.348  23.833  34.076  1.00  0.00     0.031 A 
ATOM     71  C   UNL A   1      43.986  24.230  34.346  1.00  0.00     0.131 A 
ATOM     72  C   UNL A   1      46.196  22.625  34.773  1.00  0.00     0.055 A 
ATOM     73  C   UNL A   1      43.854  23.062  35.098  1.00  0.00     0.041 A 
ATOM     74  F   UNL A   1      42.878  24.955  34.124  1.00  0.00    -0.206 F 
ATOM     75  C   UNL A   1      44.962  22.247  35.307  1.00  0.00     0.022 A 
BRANCH  72  76
ATOM     76  S   UNL A   1      47.617  21.504  34.893  1.00  0.00     0.124 S 
ATOM     77  O   UNL A   1      48.685  22.321  34.322  1.00  0.00    -0.237 OA
ATOM     78  O   UNL A   1      47.701  21.252  36.327  1.00  0.00    -0.237 OA
ATOM     79  O   UNL A   1      47.218  20.356  34.082  1.00  0.00    -0.744 OA
ENDBRANCH  72  76
ENDBRANCH  55  69
BRANCH  56  80
ATOM     80  C   UNL A   1      45.675  33.020  28.304  1.00  0.00     0.023 A 
ATOM     81  C   UNL A   1      44.534  33.789  28.039  1.00  0.00     0.031 A 
ATOM     82  C   UNL A   1      46.913  33.478  27.815  1.00  0.00     0.131 A 
ATOM     83  C   UNL A   1      44.652  34.981  27.306  1.00  0.00     0.055 A 
ATOM     84  C   UNL A   1      47.030  34.680  27.116  1.00  0.00     0.041 A 
ATOM     85  F   UNL A   1      48.036  32.781  28.054  1.00  0.00    -0.206 F 
ATOM     86  C   UNL A   1      45.894  35.439  26.857  1.00  0.00     0.022 A 
BRANCH  83  87
ATOM     87  S   UNL A   1      43.155  35.942  26.950  1.00  0.00     0.124 S 
ATOM     88  O   UNL A   1      42.708  35.339  25.700  1.00  0.00    -0.237 OA
ATOM     89  O   UNL A   1      42.333  35.672  28.126  1.00  0.00    -0.237 OA
ATOM     90  O   UNL A   1      43.648  37.313  26.843  1.00  0.00    -0.744 OA
ENDBRANCH  83  87
ENDBRANCH  56  80
BRANCH  68  91
ATOM     91  C   UNL A   1      46.346  31.639  35.151  1.00  0.00     0.023 A 
ATOM     92  C   UNL A   1      45.327  32.191  35.942  1.00  0.00     0.031 A 
ATOM     93  C   UNL A   1      47.680  31.797  35.569  1.00  0.00     0.131 A 
ATOM     94  C   UNL A   1      45.660  32.883  37.116  1.00  0.00     0.055 A 
ATOM     95  C   UNL A   1      48.001  32.448  36.759  1.00  0.00     0.041 A 
ATOM     96  F   UNL A   1      48.687  31.278  34.847  1.00  0.00    -0.206 F 
ATOM     97  C   UNL A   1      46.989  32.995  37.540  1.00  0.00     0.022 A 
BRANCH  94  98
ATOM     98  S   UNL A   1      44.333  33.639  38.093  1.00  0.00     0.124 S 
ATOM     99  O   UNL A   1      43.489  34.219  37.054  1.00  0.00    -0.237 OA
ATOM    100  O   UNL A   1      43.771  32.495  38.805  1.00  0.00    -0.237 OA
ATOM    101  O   UNL A   1      45.034  34.606  38.935  1.00  0.00    -0.744 OA
ENDBRANCH  94  98
ENDBRANCH  68  91
ENDBRANCH  42  43
ENDBRANCH  35  37
ENDBRANCH  34  35
ENDBRANCH  33  34
ENDBRANCH  32  33
ENDBRANCH   1  32
TORSDOF 21
ENDMDL
MODEL 3
REMARK VINA RESULT:      -8.7      4.032     13.415
REMARK SMILES O=C(C/C(=C/c1ccc(N2CCOCC2)c(F)c1)c1nc2ccccc2s1)OCCOCCOC(=O)c1ccc(-c2c3nc(c(-c4cc(S(=O)(=O)[O-])ccc4F)c4ccc([nH]4)c(-c4cc(S(=O)(=O)[O-])ccc4F)c4nc(c(-c5cc(S(=O)(=O)[O-])ccc5F)c5ccc2[nH]5)C=C4)C=C3)cc1
REMARK SMILES IDX 31 1 30 2 29 3 28 4 2 5 1 6 3 7 4 8 5 9 19 10 20 11 27 12
REMARK SMILES IDX 21 13 26 14 22 15 25 16 23 17 24 18 6 19 7 20 18 21 8 22
REMARK SMILES IDX 16 23 9 24 17 25 10 26 11 27 15 28 12 29 14 30 13 31 32 32
REMARK SMILES IDX 33 33 34 34 35 35 36 36 37 37 38 38 99 39 39 40 98 41 40 42
REMARK SMILES IDX 41 43 42 44 92 45 43 46 97 47 91 48 93 49 44 50 96 51 90 52
REMARK SMILES IDX 89 53 45 55 77 56 57 57 76 58 58 59 61 60 75 61 94 62 59 63
REMARK SMILES IDX 60 64 74 66 95 67 62 68 46 69 47 70 55 71 48 72 54 73 56 74
REMARK SMILES IDX 53 75 49 76 50 77 51 78 52 79 78 80 79 81 87 82 80 83 86 84
REMARK SMILES IDX 88 85 85 86 81 87 82 88 83 89 84 90 63 91 64 92 72 93 65 94
REMARK SMILES IDX 71 95 73 96 70 97 66 98 67 99 68 100 69 101
REMARK H PARENT 93 54 61 65
REMARK Flexibility Score: inf
ROOT
ATOM      1  O   UNL A   1      34.235  35.425  31.874  1.00  0.00    -0.374 OA
ENDROOT
BRANCH   1   2
ATOM      2  C   UNL A   1      33.538  36.041  30.794  1.00  0.00     0.202 C 
BRANCH   2   3
ATOM      3  C   UNL A   1      33.104  35.157  29.627  1.00  0.00     0.261 C 
BRANCH   3   4
ATOM      4  O   UNL A   1      34.094  34.967  28.606  1.00  0.00    -0.463 OA
BRANCH   4   5
ATOM      5  C   UNL A   1      34.820  33.848  28.387  1.00  0.00     0.310 C 
ATOM      6  O   UNL A   1      35.526  33.784  27.378  1.00  0.00    -0.252 OA
BRANCH   5   7
ATOM      7  C   UNL A   1      34.730  32.651  29.323  1.00  0.00     0.161 C 
BRANCH   7   8
ATOM      8  C   UNL A   1      34.773  31.303  28.649  1.00  0.00    -0.000 C 
ATOM      9  C   UNL A   1      33.706  30.921  27.901  1.00  0.00     0.015 C 
BRANCH   8  10
ATOM     10  C   UNL A   1      35.913  30.431  28.754  1.00  0.00     0.121 A 
ATOM     11  N   UNL A   1      36.179  29.629  29.767  1.00  0.00    -0.236 NA
ATOM     12  S   UNL A   1      37.091  30.382  27.489  1.00  0.00    -0.114 S 
ATOM     13  C   UNL A   1      37.387  28.988  29.580  1.00  0.00     0.082 A 
ATOM     14  C   UNL A   1      38.024  29.254  28.371  1.00  0.00     0.055 A 
ATOM     15  C   UNL A   1      38.001  28.109  30.489  1.00  0.00     0.030 A 
ATOM     16  C   UNL A   1      39.241  28.654  28.017  1.00  0.00     0.021 A 
ATOM     17  C   UNL A   1      39.218  27.508  30.155  1.00  0.00     0.002 A 
ATOM     18  C   UNL A   1      39.825  27.774  28.930  1.00  0.00     0.002 A 
ENDBRANCH   8  10
BRANCH   9  19
ATOM     19  C   UNL A   1      33.493  29.586  27.326  1.00  0.00    -0.022 A 
ATOM     20  C   UNL A   1      34.481  28.975  26.541  1.00  0.00     0.010 A 
ATOM     21  C   UNL A   1      32.294  28.920  27.541  1.00  0.00     0.049 A 
ATOM     22  C   UNL A   1      34.212  27.794  25.850  1.00  0.00     0.029 A 
ATOM     23  C   UNL A   1      32.037  27.743  26.843  1.00  0.00     0.147 A 
ATOM     24  C   UNL A   1      32.960  27.183  25.940  1.00  0.00     0.073 A 
ATOM     25  F   UNL A   1      30.852  27.141  27.050  1.00  0.00    -0.205 F 
BRANCH  24  26
ATOM     26  N   UNL A   1      32.654  26.111  25.135  1.00  0.00    -0.365 N 
ATOM     27  C   UNL A   1      32.435  26.273  23.698  1.00  0.00     0.145 C 
ATOM     28  C   UNL A   1      32.458  24.756  25.653  1.00  0.00     0.145 C 
ATOM     29  C   UNL A   1      31.057  25.712  23.331  1.00  0.00     0.181 C 
ATOM     30  C   UNL A   1      31.078  24.251  25.193  1.00  0.00     0.181 C 
ATOM     31  O   UNL A   1      30.919  24.344  23.762  1.00  0.00    -0.378 OA
ENDBRANCH  24  26
ENDBRANCH   9  19
ENDBRANCH   7   8
ENDBRANCH   5   7
ENDBRANCH   4   5
ENDBRANCH   3   4
ENDBRANCH   2   3
ENDBRANCH   1   2
BRANCH   1  32
ATOM     32  C   UNL A   1      33.471  34.555  32.720  1.00  0.00     0.202 C 
BRANCH  32  33
ATOM     33  C   UNL A   1      34.139  33.269  33.212  1.00  0.00     0.261 C 
BRANCH  33  34
ATOM     34  O   UNL A   1      35.535  33.236  32.897  1.00  0.00    -0.460 OA
BRANCH  34  35
ATOM     35  C   UNL A   1      36.341  33.215  33.985  1.00  0.00     0.338 C 
ATOM     36  O   UNL A   1      36.059  33.603  35.109  1.00  0.00    -0.246 OA
BRANCH  35  37
ATOM     37  C   UNL A   1      37.556  32.436  33.682  1.00  0.00     0.060 A 
ATOM     38  C   UNL A   1      38.671  32.656  34.501  1.00  0.00     0.016 A 
ATOM     39  C   UNL A   1      37.613  31.519  32.628  1.00  0.00     0.016 A 
ATOM     40  C   UNL A   1      39.876  32.036  34.208  1.00  0.00     0.010 A 
ATOM     41  C   UNL A   1      38.826  30.896  32.333  1.00  0.00     0.010 A 
ATOM     42  C   UNL A   1      39.972  31.201  33.087  1.00  0.00    -0.014 A 
BRANCH  42  43
ATOM     43  C   UNL A   1      41.317  30.819  32.608  1.00  0.00     0.031 A 
ATOM     44  C   UNL A   1      42.003  29.651  33.262  1.00  0.00     0.074 A 
ATOM     45  C   UNL A   1      41.864  31.440  31.550  1.00  0.00     0.049 A 
ATOM     46  N   UNL A   1      43.151  29.100  32.973  1.00  0.00    -0.248 NA
ATOM     47  C   UNL A   1      41.299  29.018  34.391  1.00  0.00     0.031 C 
ATOM     48  C   UNL A   1      41.246  32.546  30.816  1.00  0.00     0.029 A 
ATOM     49  N   UNL A   1      43.044  31.217  30.895  1.00  0.00    -0.354 N 
ATOM     50  C   UNL A   1      43.307  28.059  33.881  1.00  0.00     0.074 A 
ATOM     51  C   UNL A   1      42.159  28.081  34.758  1.00  0.00     0.031 C 
ATOM     52  C   UNL A   1      42.047  32.888  29.794  1.00  0.00     0.029 A 
ATOM     53  C   UNL A   1      43.248  32.054  29.824  1.00  0.00     0.049 A 
ATOM     54  H   UNL A   1      43.688  30.521  31.164  1.00  0.00     0.167 HD
ATOM     55  C   UNL A   1      44.316  27.159  33.963  1.00  0.00     0.034 A 
ATOM     56  C   UNL A   1      44.287  32.142  28.972  1.00  0.00     0.034 A 
ATOM     57  C   UNL A   1      45.447  27.156  33.074  1.00  0.00     0.049 A 
ATOM     58  C   UNL A   1      45.440  31.186  29.130  1.00  0.00     0.074 A 
ATOM     59  C   UNL A   1      46.518  26.283  33.052  1.00  0.00     0.029 A 
ATOM     60  N   UNL A   1      45.658  28.077  32.056  1.00  0.00    -0.354 N 
ATOM     61  N   UNL A   1      45.586  30.217  30.005  1.00  0.00    -0.248 NA
ATOM     62  C   UNL A   1      46.563  31.328  28.196  1.00  0.00     0.031 C 
ATOM     63  C   UNL A   1      47.416  26.723  32.075  1.00  0.00     0.029 A 
ATOM     64  C   UNL A   1      46.863  27.817  31.427  1.00  0.00     0.049 A 
ATOM     65  H   UNL A   1      45.042  28.807  31.818  1.00  0.00     0.167 HD
ATOM     66  C   UNL A   1      46.806  29.618  29.711  1.00  0.00     0.074 A 
ATOM     67  C   UNL A   1      47.361  30.339  28.583  1.00  0.00     0.031 C 
ATOM     68  C   UNL A   1      47.403  28.558  30.311  1.00  0.00     0.034 A 
BRANCH  55  69
ATOM     69  C   UNL A   1      44.262  26.141  35.074  1.00  0.00     0.023 A 
ATOM     70  C   UNL A   1      44.570  26.475  36.403  1.00  0.00     0.031 A 
ATOM     71  C   UNL A   1      43.885  24.816  34.794  1.00  0.00     0.131 A 
ATOM     72  C   UNL A   1      44.538  25.483  37.396  1.00  0.00     0.055 A 
ATOM     73  C   UNL A   1      43.788  23.851  35.798  1.00  0.00     0.041 A 
ATOM     74  F   UNL A   1      43.604  24.437  33.538  1.00  0.00    -0.206 F 
ATOM     75  C   UNL A   1      44.124  24.181  37.107  1.00  0.00     0.022 A 
BRANCH  72  76
ATOM     76  S   UNL A   1      45.134  25.896  39.059  1.00  0.00     0.124 S 
ATOM     77  O   UNL A   1      46.425  26.514  38.763  1.00  0.00    -0.237 OA
ATOM     78  O   UNL A   1      44.096  26.791  39.555  1.00  0.00    -0.237 OA
ATOM     79  O   UNL A   1      45.210  24.599  39.727  1.00  0.00    -0.744 OA
ENDBRANCH  72  76
ENDBRANCH  55  69
BRANCH  56  80
ATOM     80  C   UNL A   1      44.270  33.184  27.910  1.00  0.00     0.023 A 
ATOM     81  C   UNL A   1      44.612  34.514  28.190  1.00  0.00     0.031 A 
ATOM     82  C   UNL A   1      43.972  32.840  26.578  1.00  0.00     0.131 A 
ATOM     83  C   UNL A   1      44.651  35.456  27.149  1.00  0.00     0.055 A 
ATOM     84  C   UNL A   1      44.044  33.772  25.542  1.00  0.00     0.041 A 
ATOM     85  F   UNL A   1      43.652  31.575  26.260  1.00  0.00    -0.206 F 
ATOM     86  C   UNL A   1      44.385  35.091  25.826  1.00  0.00     0.022 A 
BRANCH  83  87
ATOM     87  S   UNL A   1      45.064  37.177  27.542  1.00  0.00     0.124 S 
ATOM     88  O   UNL A   1      43.984  37.900  26.881  1.00  0.00    -0.237 OA
ATOM     89  O   UNL A   1      45.037  37.172  29.001  1.00  0.00    -0.237 OA
ATOM     90  O   UNL A   1      46.389  37.353  26.951  1.00  0.00    -0.744 OA
ENDBRANCH  83  87
ENDBRANCH  56  80
BRANCH  68  91
ATOM     91  C   UNL A   1      48.713  28.073  29.749  1.00  0.00     0.023 A 
ATOM     92  C   UNL A   1      48.767  27.080  28.761  1.00  0.00     0.031 A 
ATOM     93  C   UNL A   1      49.911  28.703  30.133  1.00  0.00     0.131 A 
ATOM     94  C   UNL A   1      50.001  26.739  28.187  1.00  0.00     0.055 A 
ATOM     95  C   UNL A   1      51.128  28.392  29.528  1.00  0.00     0.041 A 
ATOM     96  F   UNL A   1      49.905  29.666  31.070  1.00  0.00    -0.206 F 
ATOM     97  C   UNL A   1      51.178  27.405  28.549  1.00  0.00     0.022 A 
BRANCH  94  98
ATOM     98  S   UNL A   1      50.058  25.412  26.953  1.00  0.00     0.124 S 
ATOM     99  O   UNL A   1      51.466  25.029  26.988  1.00  0.00    -0.237 OA
ATOM    100  O   UNL A   1      49.118  24.435  27.494  1.00  0.00    -0.237 OA
ATOM    101  O   UNL A   1      49.624  26.069  25.721  1.00  0.00    -0.744 OA
ENDBRANCH  94  98
ENDBRANCH  68  91
ENDBRANCH  42  43
ENDBRANCH  35  37
ENDBRANCH  34  35
ENDBRANCH  33  34
ENDBRANCH  32  33
ENDBRANCH   1  32
TORSDOF 21
ENDMDL
