MODEL 1
REMARK VINA RESULT:     -12.1      0.000      0.000
REMARK SMILES O=C(OCCOCCOC(=O)c1ccc(-c2c3nc(c(-c4cc(S(=O)(=O)[O-])ccc4F)c4ccc([nH]4)c(-c4cc(S(=O)(=O)[O-])ccc4F)c4nc(c(-c5cc(S(=O)(=O)[O-])ccc5F)c5ccc2[nH]5)C=C4)C=C3)cc1)C1=Cc2cc(Cl)cc(Cl)c2O[C@@H]1C(F)(F)F
REMARK SMILES IDX 7 1 6 2 5 3 4 4 3 5 2 6 1 7 75 8 76 9 86 10 77 11 85 12
REMARK SMILES IDX 78 13 84 14 79 15 82 16 80 17 81 18 83 19 87 20 88 21 89 22
REMARK SMILES IDX 90 23 8 24 9 25 10 26 11 27 12 28 13 29 74 30 14 31 73 32
REMARK SMILES IDX 15 33 16 34 17 35 67 36 18 37 72 38 66 39 68 40 19 41 71 42
REMARK SMILES IDX 65 43 64 44 20 46 52 47 32 48 51 49 33 50 36 51 50 52 69 53
REMARK SMILES IDX 34 54 35 55 49 57 70 58 37 59 21 60 22 61 30 62 23 63 29 64
REMARK SMILES IDX 31 65 28 66 24 67 25 68 26 69 27 70 53 71 54 72 62 73 55 74
REMARK SMILES IDX 61 75 63 76 60 77 56 78 57 79 58 80 59 81 38 82 39 83 47 84
REMARK SMILES IDX 40 85 46 86 48 87 45 88 41 89 42 90 43 91 44 92
REMARK H PARENT 68 45 36 56
REMARK Flexibility Score: inf
ROOT
ATOM      1  C   UNL A   1      31.169  30.136  24.490  1.00  0.00     0.202 C 
ENDROOT
BRANCH   1   2
ATOM      2  O   UNL A   1      30.079  29.363  23.971  1.00  0.00    -0.374 OA
BRANCH   2   3
ATOM      3  C   UNL A   1      29.927  27.907  23.367  1.00  0.00     0.202 C 
BRANCH   3   4
ATOM      4  C   UNL A   1      31.166  26.692  22.064  1.00  0.00     0.261 C 
BRANCH   4   5
ATOM      5  O   UNL A   1      31.447  25.174  22.201  1.00  0.00    -0.460 OA
BRANCH   5   6
ATOM      6  C   UNL A   1      32.733  24.902  22.441  1.00  0.00     0.338 C 
ATOM      7  O   UNL A   1      33.654  24.760  21.680  1.00  0.00    -0.246 OA
BRANCH   6   8
ATOM      8  C   UNL A   1      32.533  24.519  23.818  1.00  0.00     0.087 C 
ATOM      9  C   UNL A   1      32.220  23.060  23.916  1.00  0.00     0.027 C 
ATOM     10  C   UNL A   1      34.135  25.352  24.525  1.00  0.00     0.316 C 
ATOM     11  C   UNL A   1      33.391  21.827  24.576  1.00  0.00     0.020 A 
ATOM     12  O   UNL A   1      35.402  24.050  25.161  1.00  0.00    -0.474 OA
ATOM     13  C   UNL A   1      33.099  20.495  24.461  1.00  0.00     0.032 A 
ATOM     14  C   UNL A   1      34.991  22.279  25.078  1.00  0.00     0.146 A 
ATOM     15  C   UNL A   1      34.178  19.625  24.713  1.00  0.00     0.043 A 
ATOM     16  C   UNL A   1      36.000  21.360  25.131  1.00  0.00     0.085 A 
ATOM     17  Cl  UNL A   1      33.844  17.925  24.605  1.00  0.00    -0.084 Cl
ATOM     18  C   UNL A   1      35.552  20.026  24.982  1.00  0.00     0.045 A 
ATOM     19  Cl  UNL A   1      37.645  21.778  25.016  1.00  0.00    -0.080 Cl
BRANCH  10  20
ATOM     20  C   UNL A   1      33.519  26.613  25.244  1.00  0.00     0.430 C 
ATOM     21  F   UNL A   1      33.966  26.845  26.490  1.00  0.00    -0.167 F 
ATOM     22  F   UNL A   1      33.908  27.709  24.524  1.00  0.00    -0.167 F 
ATOM     23  F   UNL A   1      32.168  26.670  25.235  1.00  0.00    -0.167 F 
ENDBRANCH  10  20
ENDBRANCH   6   8
ENDBRANCH   5   6
ENDBRANCH   4   5
ENDBRANCH   3   4
ENDBRANCH   2   3
ENDBRANCH   1   2
BRANCH   1  24
ATOM     24  C   UNL A   1      31.683  29.912  25.901  1.00  0.00     0.261 C 
BRANCH  24  25
ATOM     25  O   UNL A   1      33.025  30.322  26.073  1.00  0.00    -0.460 OA
BRANCH  25  26
ATOM     26  C   UNL A   1      33.189  31.296  26.993  1.00  0.00     0.338 C 
ATOM     27  O   UNL A   1      32.440  32.225  27.232  1.00  0.00    -0.246 OA
BRANCH  26  28
ATOM     28  C   UNL A   1      34.439  31.015  27.717  1.00  0.00     0.060 A 
ATOM     29  C   UNL A   1      34.720  29.688  28.048  1.00  0.00     0.016 A 
ATOM     30  C   UNL A   1      35.353  32.042  28.002  1.00  0.00     0.016 A 
ATOM     31  C   UNL A   1      35.945  29.373  28.626  1.00  0.00     0.010 A 
ATOM     32  C   UNL A   1      36.576  31.728  28.576  1.00  0.00     0.010 A 
ATOM     33  C   UNL A   1      36.870  30.393  28.892  1.00  0.00    -0.014 A 
BRANCH  33  34
ATOM     34  C   UNL A   1      38.056  30.106  29.717  1.00  0.00     0.031 A 
ATOM     35  C   UNL A   1      39.043  29.128  29.161  1.00  0.00     0.074 A 
ATOM     36  C   UNL A   1      38.230  30.685  30.917  1.00  0.00     0.049 A 
ATOM     37  N   UNL A   1      40.148  28.678  29.685  1.00  0.00    -0.248 NA
ATOM     38  C   UNL A   1      38.729  28.576  27.831  1.00  0.00     0.031 C 
ATOM     39  C   UNL A   1      37.326  31.658  31.525  1.00  0.00     0.029 A 
ATOM     40  N   UNL A   1      39.226  30.525  31.844  1.00  0.00    -0.354 N 
ATOM     41  C   UNL A   1      40.668  27.798  28.746  1.00  0.00     0.074 A 
ATOM     42  C   UNL A   1      39.731  27.735  27.647  1.00  0.00     0.031 C 
ATOM     43  C   UNL A   1      37.803  32.001  32.734  1.00  0.00     0.029 A 
ATOM     44  C   UNL A   1      39.025  31.244  32.999  1.00  0.00     0.049 A 
ATOM     45  H   UNL A   1      40.010  29.948  31.698  1.00  0.00     0.167 HD
ATOM     46  C   UNL A   1      41.834  27.114  28.797  1.00  0.00     0.034 A 
ATOM     47  C   UNL A   1      39.739  31.260  34.143  1.00  0.00     0.034 A 
ATOM     48  C   UNL A   1      42.718  27.157  29.930  1.00  0.00     0.049 A 
ATOM     49  C   UNL A   1      40.984  30.404  34.220  1.00  0.00     0.074 A 
ATOM     50  C   UNL A   1      43.926  26.511  30.104  1.00  0.00     0.029 A 
ATOM     51  N   UNL A   1      42.470  27.867  31.101  1.00  0.00    -0.354 N 
ATOM     52  N   UNL A   1      41.499  29.608  33.309  1.00  0.00    -0.248 NA
ATOM     53  C   UNL A   1      41.749  30.456  35.472  1.00  0.00     0.031 C 
ATOM     54  C   UNL A   1      44.361  26.752  31.411  1.00  0.00     0.029 A 
ATOM     55  C   UNL A   1      43.481  27.636  32.018  1.00  0.00     0.049 A 
ATOM     56  H   UNL A   1      41.691  28.448  31.254  1.00  0.00     0.167 HD
ATOM     57  C   UNL A   1      42.668  29.094  33.866  1.00  0.00     0.074 A 
ATOM     58  C   UNL A   1      42.784  29.678  35.187  1.00  0.00     0.031 C 
ATOM     59  C   UNL A   1      43.569  28.228  33.334  1.00  0.00     0.034 A 
BRANCH  46  60
ATOM     60  C   UNL A   1      42.153  26.221  27.625  1.00  0.00     0.023 A 
ATOM     61  C   UNL A   1      41.733  24.879  27.585  1.00  0.00     0.031 A 
ATOM     62  C   UNL A   1      42.953  26.693  26.572  1.00  0.00     0.131 A 
ATOM     63  C   UNL A   1      42.188  24.036  26.561  1.00  0.00     0.055 A 
ATOM     64  C   UNL A   1      43.323  25.873  25.506  1.00  0.00     0.041 A 
ATOM     65  F   UNL A   1      43.415  27.954  26.576  1.00  0.00    -0.206 F 
ATOM     66  C   UNL A   1      42.956  24.531  25.506  1.00  0.00     0.022 A 
BRANCH  63  67
ATOM     67  S   UNL A   1      41.916  22.250  26.729  1.00  0.00     0.124 S 
ATOM     68  O   UNL A   1      40.467  22.189  26.911  1.00  0.00    -0.237 OA
ATOM     69  O   UNL A   1      42.423  21.732  25.464  1.00  0.00    -0.237 OA
ATOM     70  O   UNL A   1      42.700  21.893  27.910  1.00  0.00    -0.744 OA
ENDBRANCH  63  67
ENDBRANCH  46  60
BRANCH  47  71
ATOM     71  C   UNL A   1      39.286  32.067  35.313  1.00  0.00     0.023 A 
ATOM     72  C   UNL A   1      39.705  33.395  35.495  1.00  0.00     0.031 A 
ATOM     73  C   UNL A   1      38.466  31.497  36.305  1.00  0.00     0.131 A 
ATOM     74  C   UNL A   1      39.345  34.089  36.662  1.00  0.00     0.055 A 
ATOM     75  C   UNL A   1      38.062  32.212  37.435  1.00  0.00     0.041 A 
ATOM     76  F   UNL A   1      38.040  30.229  36.189  1.00  0.00    -0.206 F 
ATOM     77  C   UNL A   1      38.514  33.513  37.625  1.00  0.00     0.022 A 
BRANCH  74  78
ATOM     78  S   UNL A   1      40.065  35.730  36.956  1.00  0.00     0.124 S 
ATOM     79  O   UNL A   1      39.651  36.453  35.758  1.00  0.00    -0.237 OA
ATOM     80  O   UNL A   1      39.417  36.126  38.202  1.00  0.00    -0.237 OA
ATOM     81  O   UNL A   1      41.498  35.459  37.059  1.00  0.00    -0.744 OA
ENDBRANCH  74  78
ENDBRANCH  47  71
BRANCH  59  82
ATOM     82  C   UNL A   1      44.790  27.903  34.161  1.00  0.00     0.023 A 
ATOM     83  C   UNL A   1      44.822  26.818  35.052  1.00  0.00     0.031 A 
ATOM     84  C   UNL A   1      45.954  28.684  34.026  1.00  0.00     0.131 A 
ATOM     85  C   UNL A   1      45.977  26.573  35.810  1.00  0.00     0.055 A 
ATOM     86  C   UNL A   1      47.122  28.390  34.727  1.00  0.00     0.041 A 
ATOM     87  F   UNL A   1      45.978  29.737  33.192  1.00  0.00    -0.206 F 
ATOM     88  C   UNL A   1      47.135  27.335  35.633  1.00  0.00     0.022 A 
BRANCH  85  89
ATOM     89  S   UNL A   1      45.919  25.299  37.098  1.00  0.00     0.124 S 
ATOM     90  O   UNL A   1      47.306  25.266  37.552  1.00  0.00    -0.237 OA
ATOM     91  O   UNL A   1      44.953  25.851  38.042  1.00  0.00    -0.237 OA
ATOM     92  O   UNL A   1      45.473  24.106  36.381  1.00  0.00    -0.744 OA
ENDBRANCH  85  89
ENDBRANCH  59  82
ENDBRANCH  33  34
ENDBRANCH  26  28
ENDBRANCH  25  26
ENDBRANCH  24  25
ENDBRANCH   1  24
TORSDOF 18
ENDMDL
MODEL 2
REMARK VINA RESULT:     -12.1      2.804      8.398
REMARK SMILES O=C(OCCOCCOC(=O)c1ccc(-c2c3nc(c(-c4cc(S(=O)(=O)[O-])ccc4F)c4ccc([nH]4)c(-c4cc(S(=O)(=O)[O-])ccc4F)c4nc(c(-c5cc(S(=O)(=O)[O-])ccc5F)c5ccc2[nH]5)C=C4)C=C3)cc1)C1=Cc2cc(Cl)cc(Cl)c2O[C@@H]1C(F)(F)F
REMARK SMILES IDX 7 1 6 2 5 3 4 4 3 5 2 6 1 7 75 8 76 9 86 10 77 11 85 12
REMARK SMILES IDX 78 13 84 14 79 15 82 16 80 17 81 18 83 19 87 20 88 21 89 22
REMARK SMILES IDX 90 23 8 24 9 25 10 26 11 27 12 28 13 29 74 30 14 31 73 32
REMARK SMILES IDX 15 33 16 34 17 35 67 36 18 37 72 38 66 39 68 40 19 41 71 42
REMARK SMILES IDX 65 43 64 44 20 46 52 47 32 48 51 49 33 50 36 51 50 52 69 53
REMARK SMILES IDX 34 54 35 55 49 57 70 58 37 59 21 60 22 61 30 62 23 63 29 64
REMARK SMILES IDX 31 65 28 66 24 67 25 68 26 69 27 70 53 71 54 72 62 73 55 74
REMARK SMILES IDX 61 75 63 76 60 77 56 78 57 79 58 80 59 81 38 82 39 83 47 84
REMARK SMILES IDX 40 85 46 86 48 87 45 88 41 89 42 90 43 91 44 92
REMARK H PARENT 68 45 36 56
REMARK Flexibility Score: inf
ROOT
ATOM      1  C   UNL A   1      42.618  20.603  26.008  1.00  0.00     0.202 C 
ENDROOT
BRANCH   1   2
ATOM      2  O   UNL A   1      41.207  20.711  25.785  1.00  0.00    -0.374 OA
BRANCH   2   3
ATOM      3  C   UNL A   1      40.007  21.424  26.533  1.00  0.00     0.202 C 
BRANCH   3   4
ATOM      4  C   UNL A   1      38.294  22.571  25.856  1.00  0.00     0.261 C 
BRANCH   4   5
ATOM      5  O   UNL A   1      36.874  22.028  25.553  1.00  0.00    -0.460 OA
BRANCH   5   6
ATOM      6  C   UNL A   1      36.328  22.578  24.465  1.00  0.00     0.338 C 
ATOM      7  O   UNL A   1      36.841  22.976  23.453  1.00  0.00    -0.246 OA
BRANCH   6   8
ATOM      8  C   UNL A   1      35.041  22.819  25.071  1.00  0.00     0.087 C 
ATOM      9  C   UNL A   1      34.914  24.253  25.479  1.00  0.00     0.027 C 
ATOM     10  C   UNL A   1      33.973  21.969  23.694  1.00  0.00     0.316 C 
ATOM     11  C   UNL A   1      33.842  25.449  24.616  1.00  0.00     0.020 A 
ATOM     12  O   UNL A   1      32.891  23.239  22.735  1.00  0.00    -0.474 OA
ATOM     13  C   UNL A   1      33.924  26.777  24.936  1.00  0.00     0.032 A 
ATOM     14  C   UNL A   1      32.938  24.997  23.204  1.00  0.00     0.146 A 
ATOM     15  C   UNL A   1      33.297  27.650  24.024  1.00  0.00     0.043 A 
ATOM     16  C   UNL A   1      32.518  25.935  22.304  1.00  0.00     0.085 A 
ATOM     17  Cl  UNL A   1      33.353  29.342  24.408  1.00  0.00    -0.084 Cl
ATOM     18  C   UNL A   1      32.678  27.264  22.764  1.00  0.00     0.045 A 
ATOM     19  Cl  UNL A   1      32.188  25.578  20.673  1.00  0.00    -0.080 Cl
BRANCH  10  20
ATOM     20  C   UNL A   1      33.573  20.627  24.418  1.00  0.00     0.430 C 
ATOM     21  F   UNL A   1      32.808  19.787  23.699  1.00  0.00    -0.167 F 
ATOM     22  F   UNL A   1      34.732  19.936  24.642  1.00  0.00    -0.167 F 
ATOM     23  F   UNL A   1      33.033  20.783  25.648  1.00  0.00    -0.167 F 
ENDBRANCH  10  20
ENDBRANCH   6   8
ENDBRANCH   5   6
ENDBRANCH   4   5
ENDBRANCH   3   4
ENDBRANCH   2   3
ENDBRANCH   1   2
BRANCH   1  24
ATOM     24  C   UNL A   1      43.569  21.692  25.542  1.00  0.00     0.261 C 
BRANCH  24  25
ATOM     25  O   UNL A   1      42.903  22.807  24.983  1.00  0.00    -0.460 OA
BRANCH  25  26
ATOM     26  C   UNL A   1      43.629  23.944  24.997  1.00  0.00     0.338 C 
ATOM     27  O   UNL A   1      44.569  24.234  24.280  1.00  0.00    -0.246 OA
BRANCH  26  28
ATOM     28  C   UNL A   1      43.050  24.826  26.022  1.00  0.00     0.060 A 
ATOM     29  C   UNL A   1      43.612  26.093  26.190  1.00  0.00     0.016 A 
ATOM     30  C   UNL A   1      41.923  24.431  26.760  1.00  0.00     0.016 A 
ATOM     31  C   UNL A   1      43.017  26.994  27.066  1.00  0.00     0.010 A 
ATOM     32  C   UNL A   1      41.328  25.330  27.633  1.00  0.00     0.010 A 
ATOM     33  C   UNL A   1      41.878  26.611  27.788  1.00  0.00    -0.014 A 
BRANCH  33  34
ATOM     34  C   UNL A   1      41.389  27.462  28.886  1.00  0.00     0.031 A 
ATOM     35  C   UNL A   1      42.156  27.414  30.170  1.00  0.00     0.074 A 
ATOM     36  C   UNL A   1      40.297  28.230  28.741  1.00  0.00     0.049 A 
ATOM     37  N   UNL A   1      41.930  28.034  31.294  1.00  0.00    -0.248 NA
ATOM     38  C   UNL A   1      43.338  26.533  30.186  1.00  0.00     0.031 C 
ATOM     39  C   UNL A   1      39.500  28.346  27.522  1.00  0.00     0.029 A 
ATOM     40  N   UNL A   1      39.662  29.050  29.637  1.00  0.00    -0.354 N 
ATOM     41  C   UNL A   1      42.946  27.629  32.149  1.00  0.00     0.074 A 
ATOM     42  C   UNL A   1      43.754  26.668  31.432  1.00  0.00     0.031 C 
ATOM     43  C   UNL A   1      38.472  29.181  27.750  1.00  0.00     0.029 A 
ATOM     44  C   UNL A   1      38.517  29.629  29.140  1.00  0.00     0.049 A 
ATOM     45  H   UNL A   1      39.993  29.207  30.551  1.00  0.00     0.167 HD
ATOM     46  C   UNL A   1      43.185  28.035  33.416  1.00  0.00     0.034 A 
ATOM     47  C   UNL A   1      37.605  30.407  29.757  1.00  0.00     0.034 A 
ATOM     48  C   UNL A   1      42.328  28.953  34.118  1.00  0.00     0.049 A 
ATOM     49  C   UNL A   1      37.833  30.765  31.208  1.00  0.00     0.074 A 
ATOM     50  C   UNL A   1      42.460  29.442  35.403  1.00  0.00     0.029 A 
ATOM     51  N   UNL A   1      41.156  29.494  33.601  1.00  0.00    -0.354 N 
ATOM     52  N   UNL A   1      38.823  30.416  32.000  1.00  0.00    -0.248 NA
ATOM     53  C   UNL A   1      36.830  31.626  31.846  1.00  0.00     0.031 C 
ATOM     54  C   UNL A   1      41.323  30.201  35.695  1.00  0.00     0.029 A 
ATOM     55  C   UNL A   1      40.532  30.276  34.558  1.00  0.00     0.049 A 
ATOM     56  H   UNL A   1      40.819  29.345  32.688  1.00  0.00     0.167 HD
ATOM     57  C   UNL A   1      38.580  31.048  33.218  1.00  0.00     0.074 A 
ATOM     58  C   UNL A   1      37.356  31.804  33.050  1.00  0.00     0.031 C 
ATOM     59  C   UNL A   1      39.305  31.017  34.366  1.00  0.00     0.034 A 
BRANCH  46  60
ATOM     60  C   UNL A   1      44.371  27.425  34.117  1.00  0.00     0.023 A 
ATOM     61  C   UNL A   1      44.274  26.197  34.797  1.00  0.00     0.031 A 
ATOM     62  C   UNL A   1      45.593  28.115  34.173  1.00  0.00     0.131 A 
ATOM     63  C   UNL A   1      45.349  25.744  35.575  1.00  0.00     0.055 A 
ATOM     64  C   UNL A   1      46.691  27.610  34.870  1.00  0.00     0.041 A 
ATOM     65  F   UNL A   1      45.733  29.308  33.575  1.00  0.00    -0.206 F 
ATOM     66  C   UNL A   1      46.567  26.427  35.592  1.00  0.00     0.022 A 
BRANCH  63  67
ATOM     67  S   UNL A   1      45.070  24.352  36.705  1.00  0.00     0.124 S 
ATOM     68  O   UNL A   1      44.315  24.992  37.780  1.00  0.00    -0.237 OA
ATOM     69  O   UNL A   1      44.326  23.413  35.874  1.00  0.00    -0.237 OA
ATOM     70  O   UNL A   1      46.421  23.930  37.069  1.00  0.00    -0.744 OA
ENDBRANCH  63  67
ENDBRANCH  46  60
BRANCH  47  71
ATOM     71  C   UNL A   1      36.381  30.864  29.035  1.00  0.00     0.023 A 
ATOM     72  C   UNL A   1      35.914  32.184  29.145  1.00  0.00     0.031 A 
ATOM     73  C   UNL A   1      35.623  29.964  28.262  1.00  0.00     0.131 A 
ATOM     74  C   UNL A   1      34.702  32.551  28.538  1.00  0.00     0.055 A 
ATOM     75  C   UNL A   1      34.450  30.351  27.611  1.00  0.00     0.041 A 
ATOM     76  F   UNL A   1      36.017  28.688  28.125  1.00  0.00    -0.206 F 
ATOM     77  C   UNL A   1      33.975  31.649  27.760  1.00  0.00     0.022 A 
BRANCH  74  78
ATOM     78  S   UNL A   1      34.031  34.206  28.866  1.00  0.00     0.124 S 
ATOM     79  O   UNL A   1      32.798  34.185  28.085  1.00  0.00    -0.237 OA
ATOM     80  O   UNL A   1      33.873  34.186  30.317  1.00  0.00    -0.237 OA
ATOM     81  O   UNL A   1      35.073  35.101  28.367  1.00  0.00    -0.744 OA
ENDBRANCH  74  78
ENDBRANCH  47  71
BRANCH  59  82
ATOM     82  C   UNL A   1      38.822  31.869  35.515  1.00  0.00     0.023 A 
ATOM     83  C   UNL A   1      38.198  31.315  36.645  1.00  0.00     0.031 A 
ATOM     84  C   UNL A   1      39.020  33.262  35.483  1.00  0.00     0.131 A 
ATOM     85  C   UNL A   1      37.752  32.156  37.676  1.00  0.00     0.055 A 
ATOM     86  C   UNL A   1      38.640  34.084  36.544  1.00  0.00     0.041 A 
ATOM     87  F   UNL A   1      39.605  33.846  34.425  1.00  0.00    -0.206 F 
ATOM     88  C   UNL A   1      37.992  33.532  37.644  1.00  0.00     0.022 A 
BRANCH  85  89
ATOM     89  S   UNL A   1      36.769  31.440  39.020  1.00  0.00     0.124 S 
ATOM     90  O   UNL A   1      36.538  30.082  38.535  1.00  0.00    -0.237 OA
ATOM     91  O   UNL A   1      37.666  31.564  40.165  1.00  0.00    -0.237 OA
ATOM     92  O   UNL A   1      35.582  32.291  39.068  1.00  0.00    -0.744 OA
ENDBRANCH  85  89
ENDBRANCH  59  82
ENDBRANCH  33  34
ENDBRANCH  26  28
ENDBRANCH  25  26
ENDBRANCH  24  25
ENDBRANCH   1  24
TORSDOF 18
ENDMDL
MODEL 3
REMARK VINA RESULT:     -12.1      5.057      7.614
REMARK SMILES O=C(OCCOCCOC(=O)c1ccc(-c2c3nc(c(-c4cc(S(=O)(=O)[O-])ccc4F)c4ccc([nH]4)c(-c4cc(S(=O)(=O)[O-])ccc4F)c4nc(c(-c5cc(S(=O)(=O)[O-])ccc5F)c5ccc2[nH]5)C=C4)C=C3)cc1)C1=Cc2cc(Cl)cc(Cl)c2O[C@@H]1C(F)(F)F
REMARK SMILES IDX 7 1 6 2 5 3 4 4 3 5 2 6 1 7 75 8 76 9 86 10 77 11 85 12
REMARK SMILES IDX 78 13 84 14 79 15 82 16 80 17 81 18 83 19 87 20 88 21 89 22
REMARK SMILES IDX 90 23 8 24 9 25 10 26 11 27 12 28 13 29 74 30 14 31 73 32
REMARK SMILES IDX 15 33 16 34 17 35 67 36 18 37 72 38 66 39 68 40 19 41 71 42
REMARK SMILES IDX 65 43 64 44 20 46 52 47 32 48 51 49 33 50 36 51 50 52 69 53
REMARK SMILES IDX 34 54 35 55 49 57 70 58 37 59 21 60 22 61 30 62 23 63 29 64
REMARK SMILES IDX 31 65 28 66 24 67 25 68 26 69 27 70 53 71 54 72 62 73 55 74
REMARK SMILES IDX 61 75 63 76 60 77 56 78 57 79 58 80 59 81 38 82 39 83 47 84
REMARK SMILES IDX 40 85 46 86 48 87 45 88 41 89 42 90 43 91 44 92
REMARK H PARENT 68 45 36 56
REMARK Flexibility Score: inf
ROOT
ATOM      1  C   UNL A   1      36.407  20.164  24.905  1.00  0.00     0.202 C 
ENDROOT
BRANCH   1   2
ATOM      2  O   UNL A   1      35.125  20.477  25.466  1.00  0.00    -0.374 OA
BRANCH   2   3
ATOM      3  C   UNL A   1      33.662  20.651  24.886  1.00  0.00     0.202 C 
BRANCH   3   4
ATOM      4  C   UNL A   1      31.862  21.607  25.630  1.00  0.00     0.261 C 
BRANCH   4   5
ATOM      5  O   UNL A   1      31.145  22.838  25.019  1.00  0.00    -0.460 OA
BRANCH   5   6
ATOM      6  C   UNL A   1      31.293  23.944  25.753  1.00  0.00     0.338 C 
ATOM      7  O   UNL A   1      30.703  24.313  26.734  1.00  0.00    -0.246 OA
BRANCH   6   8
ATOM      8  C   UNL A   1      32.116  24.634  24.789  1.00  0.00     0.087 C 
ATOM      9  C   UNL A   1      31.287  25.569  23.967  1.00  0.00     0.027 C 
ATOM     10  C   UNL A   1      33.505  25.189  26.022  1.00  0.00     0.316 C 
ATOM     11  C   UNL A   1      31.359  27.383  24.136  1.00  0.00     0.020 A 
ATOM     12  O   UNL A   1      33.539  27.098  26.256  1.00  0.00    -0.474 OA
ATOM     13  C   UNL A   1      30.439  28.156  23.480  1.00  0.00     0.032 A 
ATOM     14  C   UNL A   1      32.368  28.139  25.331  1.00  0.00     0.146 A 
ATOM     15  C   UNL A   1      30.378  29.498  23.904  1.00  0.00     0.043 A 
ATOM     16  C   UNL A   1      32.104  29.403  25.779  1.00  0.00     0.085 A 
ATOM     17  Cl  UNL A   1      29.243  30.520  23.079  1.00  0.00    -0.084 Cl
ATOM     18  C   UNL A   1      31.123  30.076  25.014  1.00  0.00     0.045 A 
ATOM     19  Cl  UNL A   1      32.616  29.976  27.297  1.00  0.00    -0.080 Cl
BRANCH  10  20
ATOM     20  C   UNL A   1      34.659  24.186  25.637  1.00  0.00     0.430 C 
ATOM     21  F   UNL A   1      34.609  23.699  24.385  1.00  0.00    -0.167 F 
ATOM     22  F   UNL A   1      35.831  24.891  25.690  1.00  0.00    -0.167 F 
ATOM     23  F   UNL A   1      34.842  23.168  26.507  1.00  0.00    -0.167 F 
ENDBRANCH  10  20
ENDBRANCH   6   8
ENDBRANCH   5   6
ENDBRANCH   4   5
ENDBRANCH   3   4
ENDBRANCH   2   3
ENDBRANCH   1   2
BRANCH   1  24
ATOM     24  C   UNL A   1      37.471  21.235  24.742  1.00  0.00     0.261 C 
BRANCH  24  25
ATOM     25  O   UNL A   1      37.876  21.805  25.971  1.00  0.00    -0.460 OA
BRANCH  25  26
ATOM     26  C   UNL A   1      39.193  21.670  26.232  1.00  0.00     0.338 C 
ATOM     27  O   UNL A   1      39.884  20.680  26.073  1.00  0.00    -0.246 OA
BRANCH  26  28
ATOM     28  C   UNL A   1      39.685  22.971  26.712  1.00  0.00     0.060 A 
ATOM     29  C   UNL A   1      39.004  24.120  26.303  1.00  0.00     0.016 A 
ATOM     30  C   UNL A   1      40.762  23.048  27.610  1.00  0.00     0.016 A 
ATOM     31  C   UNL A   1      39.369  25.354  26.831  1.00  0.00     0.010 A 
ATOM     32  C   UNL A   1      41.124  24.279  28.138  1.00  0.00     0.010 A 
ATOM     33  C   UNL A   1      40.430  25.432  27.745  1.00  0.00    -0.014 A 
BRANCH  33  34
ATOM     34  C   UNL A   1      40.975  26.748  28.120  1.00  0.00     0.031 A 
ATOM     35  C   UNL A   1      42.419  26.991  27.815  1.00  0.00     0.074 A 
ATOM     36  C   UNL A   1      40.210  27.675  28.722  1.00  0.00     0.049 A 
ATOM     37  N   UNL A   1      43.152  28.041  28.061  1.00  0.00    -0.248 NA
ATOM     38  C   UNL A   1      43.135  25.890  27.146  1.00  0.00     0.031 C 
ATOM     39  C   UNL A   1      38.793  27.524  29.042  1.00  0.00     0.029 A 
ATOM     40  N   UNL A   1      40.528  28.925  29.183  1.00  0.00    -0.354 N 
ATOM     41  C   UNL A   1      44.413  27.732  27.569  1.00  0.00     0.074 A 
ATOM     42  C   UNL A   1      44.359  26.379  27.062  1.00  0.00     0.031 C 
ATOM     43  C   UNL A   1      38.364  28.638  29.661  1.00  0.00     0.029 A 
ATOM     44  C   UNL A   1      39.486  29.563  29.812  1.00  0.00     0.049 A 
ATOM     45  H   UNL A   1      41.420  29.328  29.075  1.00  0.00     0.167 HD
ATOM     46  C   UNL A   1      45.513  28.518  27.535  1.00  0.00     0.034 A 
ATOM     47  C   UNL A   1      39.459  30.747  30.458  1.00  0.00     0.034 A 
ATOM     48  C   UNL A   1      45.547  29.841  28.098  1.00  0.00     0.049 A 
ATOM     49  C   UNL A   1      40.730  31.566  30.502  1.00  0.00     0.074 A 
ATOM     50  C   UNL A   1      46.599  30.737  28.129  1.00  0.00     0.029 A 
ATOM     51  N   UNL A   1      44.485  30.446  28.762  1.00  0.00    -0.354 N 
ATOM     52  N   UNL A   1      41.910  31.289  29.993  1.00  0.00    -0.248 NA
ATOM     53  C   UNL A   1      40.665  32.857  31.198  1.00  0.00     0.031 C 
ATOM     54  C   UNL A   1      46.204  31.840  28.890  1.00  0.00     0.029 A 
ATOM     55  C   UNL A   1      44.871  31.685  29.245  1.00  0.00     0.049 A 
ATOM     56  H   UNL A   1      43.589  30.053  28.871  1.00  0.00     0.167 HD
ATOM     57  C   UNL A   1      42.716  32.391  30.274  1.00  0.00     0.074 A 
ATOM     58  C   UNL A   1      41.884  33.335  30.990  1.00  0.00     0.031 C 
ATOM     59  C   UNL A   1      44.021  32.607  29.963  1.00  0.00     0.034 A 
BRANCH  46  60
ATOM     60  C   UNL A   1      46.761  27.921  26.937  1.00  0.00     0.023 A 
ATOM     61  C   UNL A   1      47.089  28.105  25.581  1.00  0.00     0.031 A 
ATOM     62  C   UNL A   1      47.591  27.094  27.710  1.00  0.00     0.131 A 
ATOM     63  C   UNL A   1      48.165  27.400  25.022  1.00  0.00     0.055 A 
ATOM     64  C   UNL A   1      48.716  26.471  27.169  1.00  0.00     0.041 A 
ATOM     65  F   UNL A   1      47.306  26.851  28.999  1.00  0.00    -0.206 F 
ATOM     66  C   UNL A   1      48.998  26.608  25.813  1.00  0.00     0.022 A 
BRANCH  63  67
ATOM     67  S   UNL A   1      48.344  27.390  23.217  1.00  0.00     0.124 S 
ATOM     68  O   UNL A   1      47.167  28.148  22.799  1.00  0.00    -0.237 OA
ATOM     69  O   UNL A   1      49.630  28.050  23.023  1.00  0.00    -0.237 OA
ATOM     70  O   UNL A   1      48.313  25.969  22.877  1.00  0.00    -0.744 OA
ENDBRANCH  63  67
ENDBRANCH  46  60
BRANCH  47  71
ATOM     71  C   UNL A   1      38.220  31.213  31.145  1.00  0.00     0.023 A 
ATOM     72  C   UNL A   1      37.173  31.826  30.437  1.00  0.00     0.031 A 
ATOM     73  C   UNL A   1      38.088  31.102  32.543  1.00  0.00     0.131 A 
ATOM     74  C   UNL A   1      36.069  32.347  31.131  1.00  0.00     0.055 A 
ATOM     75  C   UNL A   1      36.960  31.568  33.220  1.00  0.00     0.041 A 
ATOM     76  F   UNL A   1      39.058  30.530  33.273  1.00  0.00    -0.206 F 
ATOM     77  C   UNL A   1      35.948  32.209  32.515  1.00  0.00     0.022 A 
BRANCH  74  78
ATOM     78  S   UNL A   1      34.835  33.306  30.207  1.00  0.00     0.124 S 
ATOM     79  O   UNL A   1      33.992  33.818  31.283  1.00  0.00    -0.237 OA
ATOM     80  O   UNL A   1      35.666  34.288  29.519  1.00  0.00    -0.237 OA
ATOM     81  O   UNL A   1      34.207  32.309  29.342  1.00  0.00    -0.744 OA
ENDBRANCH  74  78
ENDBRANCH  47  71
BRANCH  59  82
ATOM     82  C   UNL A   1      44.613  33.943  30.346  1.00  0.00     0.023 A 
ATOM     83  C   UNL A   1      44.523  35.067  29.509  1.00  0.00     0.031 A 
ATOM     84  C   UNL A   1      45.253  34.092  31.590  1.00  0.00     0.131 A 
ATOM     85  C   UNL A   1      45.107  36.279  29.907  1.00  0.00     0.055 A 
ATOM     86  C   UNL A   1      45.767  35.318  32.011  1.00  0.00     0.041 A 
ATOM     87  F   UNL A   1      45.373  33.048  32.427  1.00  0.00    -0.206 F 
ATOM     88  C   UNL A   1      45.705  36.419  31.162  1.00  0.00     0.022 A 
BRANCH  85  89
ATOM     89  S   UNL A   1      45.157  37.652  28.724  1.00  0.00     0.124 S 
ATOM     90  O   UNL A   1      44.037  37.332  27.843  1.00  0.00    -0.237 OA
ATOM     91  O   UNL A   1      44.978  38.815  29.585  1.00  0.00    -0.237 OA
ATOM     92  O   UNL A   1      46.479  37.530  28.113  1.00  0.00    -0.744 OA
ENDBRANCH  85  89
ENDBRANCH  59  82
ENDBRANCH  33  34
ENDBRANCH  26  28
ENDBRANCH  25  26
ENDBRANCH  24  25
ENDBRANCH   1  24
TORSDOF 18
ENDMDL
