MODEL 1
REMARK VINA RESULT:     -11.9      0.000      0.000
REMARK SMILES O=C(OCCOCCOC(=O)[C@@H]1CN(c2ncccn2)CCN1C(=O)C1CCOCC1)c1ccc(-c2c3nc(c(-c4cc(S(=O)(=O)[O-])ccc4F)c4ccc([nH]4)c(-c4cc(S(=O)(=O)[O-])ccc4F)c4nc(c(-c5cc(S(=O)(=O)[O-])ccc5F)c5ccc2[nH]5)C=C4)C=C3)cc1
REMARK SMILES IDX 5 1 4 2 3 3 2 4 1 5 32 6 33 7 94 8 34 9 93 10 35 11 36 12
REMARK SMILES IDX 37 13 87 14 38 15 92 16 86 17 88 18 39 19 91 20 85 21 84 22
REMARK SMILES IDX 40 24 72 25 52 26 71 27 53 28 56 29 70 30 89 31 54 32 55 33
REMARK SMILES IDX 69 35 90 36 57 37 41 38 42 39 50 40 43 41 49 42 51 43 48 44
REMARK SMILES IDX 44 45 45 46 46 47 47 48 73 49 74 50 82 51 75 52 81 53 83 54
REMARK SMILES IDX 80 55 76 56 77 57 78 58 79 59 58 60 59 61 67 62 60 63 66 64
REMARK SMILES IDX 68 65 65 66 61 67 62 68 63 69 64 70 6 71 7 72 8 73 9 74
REMARK SMILES IDX 10 75 11 76 12 77 13 78 23 79 14 80 22 81 21 82 24 83 25 84
REMARK SMILES IDX 26 85 27 86 31 87 28 88 30 89 29 90 15 91 16 92 20 93 17 94
REMARK SMILES IDX 19 95 18 96
REMARK H PARENT 88 23 56 34
REMARK Flexibility Score: inf
ROOT
ATOM      1  C   UNL A   1      32.993  31.469  26.987  1.00  0.00     0.202 C 
ENDROOT
BRANCH   1   2
ATOM      2  C   UNL A   1      31.853  32.469  27.224  1.00  0.00     0.261 C 
BRANCH   2   3
ATOM      3  O   UNL A   1      32.384  33.794  27.422  1.00  0.00    -0.460 OA
BRANCH   3   4
ATOM      4  C   UNL A   1      33.097  34.258  28.474  1.00  0.00     0.338 C 
ATOM      5  O   UNL A   1      32.816  35.374  28.917  1.00  0.00    -0.246 OA
BRANCH   4   6
ATOM      6  C   UNL A   1      34.322  33.570  28.996  1.00  0.00     0.060 A 
ATOM      7  C   UNL A   1      34.330  32.564  29.964  1.00  0.00     0.016 A 
ATOM      8  C   UNL A   1      35.548  33.894  28.383  1.00  0.00     0.016 A 
ATOM      9  C   UNL A   1      35.475  31.842  30.255  1.00  0.00     0.010 A 
ATOM     10  C   UNL A   1      36.726  33.216  28.715  1.00  0.00     0.010 A 
ATOM     11  C   UNL A   1      36.678  32.182  29.651  1.00  0.00    -0.014 A 
BRANCH  11  12
ATOM     12  C   UNL A   1      37.873  31.566  30.241  1.00  0.00     0.031 A 
ATOM     13  C   UNL A   1      38.166  31.916  31.668  1.00  0.00     0.074 A 
ATOM     14  C   UNL A   1      38.493  30.564  29.598  1.00  0.00     0.049 A 
ATOM     15  N   UNL A   1      39.066  31.429  32.474  1.00  0.00    -0.248 NA
ATOM     16  C   UNL A   1      37.278  32.919  32.283  1.00  0.00     0.031 C 
ATOM     17  C   UNL A   1      38.123  30.058  28.274  1.00  0.00     0.029 A 
ATOM     18  N   UNL A   1      39.527  29.759  29.989  1.00  0.00    -0.354 N 
ATOM     19  C   UNL A   1      38.844  32.054  33.695  1.00  0.00     0.074 A 
ATOM     20  C   UNL A   1      37.729  32.956  33.523  1.00  0.00     0.031 C 
ATOM     21  C   UNL A   1      38.921  29.020  27.965  1.00  0.00     0.029 A 
ATOM     22  C   UNL A   1      39.885  28.825  29.043  1.00  0.00     0.049 A 
ATOM     23  H   UNL A   1      39.973  29.840  30.863  1.00  0.00     0.167 HD
ATOM     24  C   UNL A   1      39.531  31.895  34.850  1.00  0.00     0.034 A 
ATOM     25  C   UNL A   1      40.906  27.944  29.056  1.00  0.00     0.034 A 
ATOM     26  C   UNL A   1      40.693  31.051  34.939  1.00  0.00     0.049 A 
ATOM     27  C   UNL A   1      41.775  27.918  30.291  1.00  0.00     0.074 A 
ATOM     28  C   UNL A   1      41.596  30.917  35.974  1.00  0.00     0.029 A 
ATOM     29  N   UNL A   1      41.124  30.208  33.917  1.00  0.00    -0.354 N 
ATOM     30  N   UNL A   1      41.631  28.587  31.416  1.00  0.00    -0.248 NA
ATOM     31  C   UNL A   1      42.946  27.036  30.261  1.00  0.00     0.031 C 
ATOM     32  C   UNL A   1      42.607  30.044  35.554  1.00  0.00     0.029 A 
ATOM     33  C   UNL A   1      42.297  29.573  34.285  1.00  0.00     0.049 A 
ATOM     34  H   UNL A   1      40.662  30.082  33.058  1.00  0.00     0.167 HD
ATOM     35  C   UNL A   1      42.688  28.197  32.231  1.00  0.00     0.074 A 
ATOM     36  C   UNL A   1      43.445  27.215  31.476  1.00  0.00     0.031 C 
ATOM     37  C   UNL A   1      43.017  28.610  33.484  1.00  0.00     0.034 A 
BRANCH  24  38
ATOM     38  C   UNL A   1      39.106  32.768  36.003  1.00  0.00     0.023 A 
ATOM     39  C   UNL A   1      39.588  34.082  36.153  1.00  0.00     0.031 A 
ATOM     40  C   UNL A   1      38.340  32.222  37.046  1.00  0.00     0.131 A 
ATOM     41  C   UNL A   1      39.372  34.771  37.358  1.00  0.00     0.055 A 
ATOM     42  C   UNL A   1      38.062  32.943  38.209  1.00  0.00     0.041 A 
ATOM     43  F   UNL A   1      37.892  30.959  36.977  1.00  0.00    -0.206 F 
ATOM     44  C   UNL A   1      38.594  34.218  38.379  1.00  0.00     0.022 A 
BRANCH  41  45
ATOM     45  S   UNL A   1      40.269  36.323  37.648  1.00  0.00     0.124 S 
ATOM     46  O   UNL A   1      39.313  37.070  38.463  1.00  0.00    -0.237 OA
ATOM     47  O   UNL A   1      41.474  35.870  38.333  1.00  0.00    -0.237 OA
ATOM     48  O   UNL A   1      40.479  36.855  36.304  1.00  0.00    -0.744 OA
ENDBRANCH  41  45
ENDBRANCH  24  38
BRANCH  25  49
ATOM     49  C   UNL A   1      41.212  27.104  27.860  1.00  0.00     0.023 A 
ATOM     50  C   UNL A   1      40.939  25.726  27.826  1.00  0.00     0.031 A 
ATOM     51  C   UNL A   1      41.846  27.668  26.734  1.00  0.00     0.131 A 
ATOM     52  C   UNL A   1      41.328  24.958  26.714  1.00  0.00     0.055 A 
ATOM     53  C   UNL A   1      42.181  26.913  25.609  1.00  0.00     0.041 A 
ATOM     54  F   UNL A   1      42.148  28.977  26.709  1.00  0.00    -0.206 F 
ATOM     55  C   UNL A   1      41.934  25.545  25.600  1.00  0.00     0.022 A 
BRANCH  52  56
ATOM     56  S   UNL A   1      41.115  23.156  26.774  1.00  0.00     0.124 S 
ATOM     57  O   UNL A   1      41.486  22.858  28.151  1.00  0.00    -0.237 OA
ATOM     58  O   UNL A   1      39.702  23.007  26.442  1.00  0.00    -0.237 OA
ATOM     59  O   UNL A   1      42.046  22.669  25.757  1.00  0.00    -0.744 OA
ENDBRANCH  52  56
ENDBRANCH  25  49
BRANCH  37  60
ATOM     60  C   UNL A   1      44.229  27.968  34.103  1.00  0.00     0.023 A 
ATOM     61  C   UNL A   1      44.130  26.779  34.843  1.00  0.00     0.031 A 
ATOM     62  C   UNL A   1      45.496  28.553  33.939  1.00  0.00     0.131 A 
ATOM     63  C   UNL A   1      45.276  26.236  35.438  1.00  0.00     0.055 A 
ATOM     64  C   UNL A   1      46.642  27.977  34.485  1.00  0.00     0.041 A 
ATOM     65  F   UNL A   1      45.639  29.688  33.236  1.00  0.00    -0.206 F 
ATOM     66  C   UNL A   1      46.534  26.817  35.249  1.00  0.00     0.022 A 
BRANCH  63  67
ATOM     67  S   UNL A   1      45.091  24.799  36.527  1.00  0.00     0.124 S 
ATOM     68  O   UNL A   1      46.476  24.382  36.716  1.00  0.00    -0.237 OA
ATOM     69  O   UNL A   1      44.434  25.376  37.696  1.00  0.00    -0.237 OA
ATOM     70  O   UNL A   1      44.267  23.880  35.744  1.00  0.00    -0.744 OA
ENDBRANCH  63  67
ENDBRANCH  37  60
ENDBRANCH  11  12
ENDBRANCH   4   6
ENDBRANCH   3   4
ENDBRANCH   2   3
ENDBRANCH   1   2
BRANCH   1  71
ATOM     71  O   UNL A   1      32.650  30.078  27.003  1.00  0.00    -0.374 OA
BRANCH  71  72
ATOM     72  C   UNL A   1      33.468  29.200  26.212  1.00  0.00     0.202 C 
BRANCH  72  73
ATOM     73  C   UNL A   1      32.601  28.396  25.259  1.00  0.00     0.261 C 
BRANCH  73  74
ATOM     74  O   UNL A   1      32.617  27.079  25.809  1.00  0.00    -0.462 OA
BRANCH  74  75
ATOM     75  C   UNL A   1      31.479  26.659  26.387  1.00  0.00     0.330 C 
ATOM     76  O   UNL A   1      30.974  27.181  27.371  1.00  0.00    -0.250 OA
BRANCH  75  77
ATOM     77  C   UNL A   1      30.838  25.591  25.489  1.00  0.00     0.214 C 
ATOM     78  C   UNL A   1      31.982  24.525  25.443  1.00  0.00     0.157 C 
ATOM     79  N   UNL A   1      30.186  25.896  24.153  1.00  0.00    -0.325 N 
ATOM     80  N   UNL A   1      31.662  23.407  24.564  1.00  0.00    -0.336 N 
ATOM     81  C   UNL A   1      30.190  24.743  23.210  1.00  0.00     0.142 C 
ATOM     82  C   UNL A   1      31.418  23.827  23.202  1.00  0.00     0.141 C 
BRANCH  79  83
ATOM     83  C   UNL A   1      29.068  26.712  23.903  1.00  0.00     0.226 C 
ATOM     84  O   UNL A   1      27.931  26.252  24.123  1.00  0.00    -0.275 OA
BRANCH  83  85
ATOM     85  C   UNL A   1      29.056  28.152  23.375  1.00  0.00     0.083 C 
ATOM     86  C   UNL A   1      27.707  28.768  23.022  1.00  0.00     0.042 C 
ATOM     87  C   UNL A   1      30.231  28.431  22.437  1.00  0.00     0.042 C 
ATOM     88  C   UNL A   1      27.835  30.072  22.233  1.00  0.00     0.161 C 
ATOM     89  C   UNL A   1      30.145  29.813  21.807  1.00  0.00     0.161 C 
ATOM     90  O   UNL A   1      28.858  30.025  21.243  1.00  0.00    -0.381 OA
ENDBRANCH  83  85
ENDBRANCH  79  83
BRANCH  80  91
ATOM     91  C   UNL A   1      32.486  22.322  24.791  1.00  0.00     0.225 A 
ATOM     92  N   UNL A   1      31.954  21.140  25.144  1.00  0.00    -0.221 NA
ATOM     93  N   UNL A   1      33.800  22.505  24.574  1.00  0.00    -0.221 NA
ATOM     94  C   UNL A   1      32.799  20.093  25.223  1.00  0.00     0.117 A 
ATOM     95  C   UNL A   1      34.608  21.438  24.702  1.00  0.00     0.117 A 
ATOM     96  C   UNL A   1      34.152  20.184  25.013  1.00  0.00     0.040 A 
ENDBRANCH  80  91
ENDBRANCH  75  77
ENDBRANCH  74  75
ENDBRANCH  73  74
ENDBRANCH  72  73
ENDBRANCH  71  72
ENDBRANCH   1  71
TORSDOF 20
ENDMDL
MODEL 2
REMARK VINA RESULT:     -11.8      2.352      4.355
REMARK SMILES O=C(OCCOCCOC(=O)[C@@H]1CN(c2ncccn2)CCN1C(=O)C1CCOCC1)c1ccc(-c2c3nc(c(-c4cc(S(=O)(=O)[O-])ccc4F)c4ccc([nH]4)c(-c4cc(S(=O)(=O)[O-])ccc4F)c4nc(c(-c5cc(S(=O)(=O)[O-])ccc5F)c5ccc2[nH]5)C=C4)C=C3)cc1
REMARK SMILES IDX 5 1 4 2 3 3 2 4 1 5 32 6 33 7 94 8 34 9 93 10 35 11 36 12
REMARK SMILES IDX 37 13 87 14 38 15 92 16 86 17 88 18 39 19 91 20 85 21 84 22
REMARK SMILES IDX 40 24 72 25 52 26 71 27 53 28 56 29 70 30 89 31 54 32 55 33
REMARK SMILES IDX 69 35 90 36 57 37 41 38 42 39 50 40 43 41 49 42 51 43 48 44
REMARK SMILES IDX 44 45 45 46 46 47 47 48 73 49 74 50 82 51 75 52 81 53 83 54
REMARK SMILES IDX 80 55 76 56 77 57 78 58 79 59 58 60 59 61 67 62 60 63 66 64
REMARK SMILES IDX 68 65 65 66 61 67 62 68 63 69 64 70 6 71 7 72 8 73 9 74
REMARK SMILES IDX 10 75 11 76 12 77 13 78 23 79 14 80 22 81 21 82 24 83 25 84
REMARK SMILES IDX 26 85 27 86 31 87 28 88 30 89 29 90 15 91 16 92 20 93 17 94
REMARK SMILES IDX 19 95 18 96
REMARK H PARENT 88 23 56 34
REMARK Flexibility Score: inf
ROOT
ATOM      1  C   UNL A   1      32.038  31.090  26.489  1.00  0.00     0.202 C 
ENDROOT
BRANCH   1   2
ATOM      2  C   UNL A   1      31.656  32.384  27.221  1.00  0.00     0.261 C 
BRANCH   2   3
ATOM      3  O   UNL A   1      32.763  33.305  27.219  1.00  0.00    -0.460 OA
BRANCH   3   4
ATOM      4  C   UNL A   1      33.470  33.763  28.278  1.00  0.00     0.338 C 
ATOM      5  O   UNL A   1      33.166  34.863  28.746  1.00  0.00    -0.246 OA
BRANCH   4   6
ATOM      6  C   UNL A   1      34.711  33.090  28.782  1.00  0.00     0.060 A 
ATOM      7  C   UNL A   1      34.743  31.905  29.519  1.00  0.00     0.016 A 
ATOM      8  C   UNL A   1      35.944  33.646  28.388  1.00  0.00     0.016 A 
ATOM      9  C   UNL A   1      35.929  31.243  29.782  1.00  0.00     0.010 A 
ATOM     10  C   UNL A   1      37.155  33.019  28.703  1.00  0.00     0.010 A 
ATOM     11  C   UNL A   1      37.137  31.809  29.398  1.00  0.00    -0.014 A 
BRANCH  11  12
ATOM     12  C   UNL A   1      38.335  31.190  29.978  1.00  0.00     0.031 A 
ATOM     13  C   UNL A   1      38.642  31.542  31.402  1.00  0.00     0.074 A 
ATOM     14  C   UNL A   1      38.945  30.183  29.334  1.00  0.00     0.049 A 
ATOM     15  N   UNL A   1      39.547  31.054  32.201  1.00  0.00    -0.248 NA
ATOM     16  C   UNL A   1      37.764  32.551  32.022  1.00  0.00     0.031 C 
ATOM     17  C   UNL A   1      38.561  29.674  28.014  1.00  0.00     0.029 A 
ATOM     18  N   UNL A   1      39.979  29.375  29.717  1.00  0.00    -0.354 N 
ATOM     19  C   UNL A   1      39.339  31.683  33.422  1.00  0.00     0.074 A 
ATOM     20  C   UNL A   1      38.226  32.589  33.258  1.00  0.00     0.031 C 
ATOM     21  C   UNL A   1      39.351  28.633  27.701  1.00  0.00     0.029 A 
ATOM     22  C   UNL A   1      40.325  28.437  28.771  1.00  0.00     0.049 A 
ATOM     23  H   UNL A   1      40.433  29.457  30.587  1.00  0.00     0.167 HD
ATOM     24  C   UNL A   1      40.036  31.525  34.571  1.00  0.00     0.034 A 
ATOM     25  C   UNL A   1      41.341  27.551  28.777  1.00  0.00     0.034 A 
ATOM     26  C   UNL A   1      41.195  30.676  34.653  1.00  0.00     0.049 A 
ATOM     27  C   UNL A   1      42.222  27.526  30.004  1.00  0.00     0.074 A 
ATOM     28  C   UNL A   1      42.107  30.541  35.680  1.00  0.00     0.029 A 
ATOM     29  N   UNL A   1      41.614  29.829  33.630  1.00  0.00    -0.354 N 
ATOM     30  N   UNL A   1      42.091  28.198  31.128  1.00  0.00    -0.248 NA
ATOM     31  C   UNL A   1      43.388  26.638  29.966  1.00  0.00     0.031 C 
ATOM     32  C   UNL A   1      43.110  29.663  35.253  1.00  0.00     0.029 A 
ATOM     33  C   UNL A   1      42.786  29.190  33.989  1.00  0.00     0.049 A 
ATOM     34  H   UNL A   1      41.143  29.702  32.775  1.00  0.00     0.167 HD
ATOM     35  C   UNL A   1      43.153  27.806  31.935  1.00  0.00     0.074 A 
ATOM     36  C   UNL A   1      43.899  26.818  31.176  1.00  0.00     0.031 C 
ATOM     37  C   UNL A   1      43.495  28.221  33.184  1.00  0.00     0.034 A 
BRANCH  24  38
ATOM     38  C   UNL A   1      39.625  32.403  35.726  1.00  0.00     0.023 A 
ATOM     39  C   UNL A   1      38.833  31.915  36.782  1.00  0.00     0.031 A 
ATOM     40  C   UNL A   1      39.894  33.782  35.684  1.00  0.00     0.131 A 
ATOM     41  C   UNL A   1      38.266  32.813  37.702  1.00  0.00     0.055 A 
ATOM     42  C   UNL A   1      39.391  34.658  36.648  1.00  0.00     0.041 A 
ATOM     43  F   UNL A   1      40.606  34.310  34.676  1.00  0.00    -0.206 F 
ATOM     44  C   UNL A   1      38.556  34.179  37.653  1.00  0.00     0.022 A 
BRANCH  41  45
ATOM     45  S   UNL A   1      36.999  32.200  38.850  1.00  0.00     0.124 S 
ATOM     46  O   UNL A   1      37.014  30.766  38.570  1.00  0.00    -0.237 OA
ATOM     47  O   UNL A   1      37.526  32.603  40.148  1.00  0.00    -0.237 OA
ATOM     48  O   UNL A   1      35.786  32.897  38.426  1.00  0.00    -0.744 OA
ENDBRANCH  41  45
ENDBRANCH  24  38
BRANCH  25  49
ATOM     49  C   UNL A   1      41.633  26.706  27.580  1.00  0.00     0.023 A 
ATOM     50  C   UNL A   1      41.320  25.338  27.540  1.00  0.00     0.031 A 
ATOM     51  C   UNL A   1      42.294  27.255  26.463  1.00  0.00     0.131 A 
ATOM     52  C   UNL A   1      41.696  24.563  26.428  1.00  0.00     0.055 A 
ATOM     53  C   UNL A   1      42.617  26.494  25.338  1.00  0.00     0.041 A 
ATOM     54  F   UNL A   1      42.636  28.555  26.445  1.00  0.00    -0.206 F 
ATOM     55  C   UNL A   1      42.329  25.135  25.322  1.00  0.00     0.022 A 
BRANCH  52  56
ATOM     56  S   UNL A   1      41.428  22.767  26.479  1.00  0.00     0.124 S 
ATOM     57  O   UNL A   1      42.234  22.313  25.353  1.00  0.00    -0.237 OA
ATOM     58  O   UNL A   1      41.927  22.425  27.807  1.00  0.00    -0.237 OA
ATOM     59  O   UNL A   1      39.982  22.634  26.306  1.00  0.00    -0.744 OA
ENDBRANCH  52  56
ENDBRANCH  25  49
BRANCH  37  60
ATOM     60  C   UNL A   1      44.711  27.577  33.794  1.00  0.00     0.023 A 
ATOM     61  C   UNL A   1      45.988  28.143  33.653  1.00  0.00     0.031 A 
ATOM     62  C   UNL A   1      44.581  26.388  34.531  1.00  0.00     0.131 A 
ATOM     63  C   UNL A   1      47.099  27.490  34.201  1.00  0.00     0.055 A 
ATOM     64  C   UNL A   1      45.684  25.773  35.123  1.00  0.00     0.041 A 
ATOM     65  F   UNL A   1      43.379  25.812  34.695  1.00  0.00    -0.206 F 
ATOM     66  C   UNL A   1      46.953  26.318  34.950  1.00  0.00     0.022 A 
BRANCH  63  67
ATOM     67  S   UNL A   1      48.752  28.151  33.858  1.00  0.00     0.124 S 
ATOM     68  O   UNL A   1      48.594  28.672  32.504  1.00  0.00    -0.237 OA
ATOM     69  O   UNL A   1      48.914  29.149  34.910  1.00  0.00    -0.237 OA
ATOM     70  O   UNL A   1      49.620  26.981  33.976  1.00  0.00    -0.744 OA
ENDBRANCH  63  67
ENDBRANCH  37  60
ENDBRANCH  11  12
ENDBRANCH   4   6
ENDBRANCH   3   4
ENDBRANCH   2   3
ENDBRANCH   1   2
BRANCH   1  71
ATOM     71  O   UNL A   1      32.665  30.063  27.267  1.00  0.00    -0.374 OA
BRANCH  71  72
ATOM     72  C   UNL A   1      33.948  29.600  26.815  1.00  0.00     0.202 C 
BRANCH  72  73
ATOM     73  C   UNL A   1      33.897  28.107  26.540  1.00  0.00     0.261 C 
BRANCH  73  74
ATOM     74  O   UNL A   1      32.557  27.743  26.871  1.00  0.00    -0.462 OA
BRANCH  74  75
ATOM     75  C   UNL A   1      32.016  26.745  26.153  1.00  0.00     0.330 C 
ATOM     76  O   UNL A   1      31.350  25.837  26.632  1.00  0.00    -0.250 OA
BRANCH  75  77
ATOM     77  C   UNL A   1      32.188  27.063  24.661  1.00  0.00     0.214 C 
ATOM     78  C   UNL A   1      30.952  27.989  24.416  1.00  0.00     0.157 C 
ATOM     79  N   UNL A   1      32.425  26.007  23.597  1.00  0.00    -0.325 N 
ATOM     80  N   UNL A   1      30.822  28.383  23.018  1.00  0.00    -0.336 N 
ATOM     81  C   UNL A   1      31.966  26.415  22.240  1.00  0.00     0.142 C 
ATOM     82  C   UNL A   1      30.683  27.245  22.135  1.00  0.00     0.141 C 
BRANCH  79  83
ATOM     83  C   UNL A   1      33.510  25.119  23.486  1.00  0.00     0.226 C 
ATOM     84  O   UNL A   1      34.207  25.153  22.454  1.00  0.00    -0.275 OA
BRANCH  83  85
ATOM     85  C   UNL A   1      33.973  24.072  24.506  1.00  0.00     0.083 C 
ATOM     86  C   UNL A   1      35.086  24.464  25.473  1.00  0.00     0.042 C 
ATOM     87  C   UNL A   1      34.016  22.665  23.909  1.00  0.00     0.042 C 
ATOM     88  C   UNL A   1      35.669  23.269  26.228  1.00  0.00     0.161 C 
ATOM     89  C   UNL A   1      34.604  21.649  24.875  1.00  0.00     0.161 C 
ATOM     90  O   UNL A   1      35.837  22.119  25.404  1.00  0.00    -0.381 OA
ENDBRANCH  83  85
ENDBRANCH  79  83
BRANCH  80  91
ATOM     91  C   UNL A   1      29.969  29.456  22.863  1.00  0.00     0.225 A 
ATOM     92  N   UNL A   1      29.762  30.300  23.889  1.00  0.00    -0.221 NA
ATOM     93  N   UNL A   1      29.435  29.635  21.643  1.00  0.00    -0.221 NA
ATOM     94  C   UNL A   1      29.022  31.397  23.633  1.00  0.00     0.117 A 
ATOM     95  C   UNL A   1      28.674  30.725  21.447  1.00  0.00     0.117 A 
ATOM     96  C   UNL A   1      28.443  31.664  22.417  1.00  0.00     0.040 A 
ENDBRANCH  80  91
ENDBRANCH  75  77
ENDBRANCH  74  75
ENDBRANCH  73  74
ENDBRANCH  72  73
ENDBRANCH  71  72
ENDBRANCH   1  71
TORSDOF 20
ENDMDL
MODEL 3
REMARK VINA RESULT:     -11.7      1.656      1.960
REMARK SMILES O=C(OCCOCCOC(=O)[C@@H]1CN(c2ncccn2)CCN1C(=O)C1CCOCC1)c1ccc(-c2c3nc(c(-c4cc(S(=O)(=O)[O-])ccc4F)c4ccc([nH]4)c(-c4cc(S(=O)(=O)[O-])ccc4F)c4nc(c(-c5cc(S(=O)(=O)[O-])ccc5F)c5ccc2[nH]5)C=C4)C=C3)cc1
REMARK SMILES IDX 5 1 4 2 3 3 2 4 1 5 32 6 33 7 94 8 34 9 93 10 35 11 36 12
REMARK SMILES IDX 37 13 87 14 38 15 92 16 86 17 88 18 39 19 91 20 85 21 84 22
REMARK SMILES IDX 40 24 72 25 52 26 71 27 53 28 56 29 70 30 89 31 54 32 55 33
REMARK SMILES IDX 69 35 90 36 57 37 41 38 42 39 50 40 43 41 49 42 51 43 48 44
REMARK SMILES IDX 44 45 45 46 46 47 47 48 73 49 74 50 82 51 75 52 81 53 83 54
REMARK SMILES IDX 80 55 76 56 77 57 78 58 79 59 58 60 59 61 67 62 60 63 66 64
REMARK SMILES IDX 68 65 65 66 61 67 62 68 63 69 64 70 6 71 7 72 8 73 9 74
REMARK SMILES IDX 10 75 11 76 12 77 13 78 23 79 14 80 22 81 21 82 24 83 25 84
REMARK SMILES IDX 26 85 27 86 31 87 28 88 30 89 29 90 15 91 16 92 20 93 17 94
REMARK SMILES IDX 19 95 18 96
REMARK H PARENT 88 23 56 34
REMARK Flexibility Score: inf
ROOT
ATOM      1  C   UNL A   1      31.800  32.036  27.204  1.00  0.00     0.202 C 
ENDROOT
BRANCH   1   2
ATOM      2  C   UNL A   1      32.482  33.406  27.096  1.00  0.00     0.261 C 
BRANCH   2   3
ATOM      3  O   UNL A   1      32.404  34.104  28.354  1.00  0.00    -0.460 OA
BRANCH   3   4
ATOM      4  C   UNL A   1      33.411  34.672  29.057  1.00  0.00     0.338 C 
ATOM      5  O   UNL A   1      33.409  35.898  29.185  1.00  0.00    -0.246 OA
BRANCH   4   6
ATOM      6  C   UNL A   1      34.615  33.907  29.519  1.00  0.00     0.060 A 
ATOM      7  C   UNL A   1      34.589  32.798  30.365  1.00  0.00     0.016 A 
ATOM      8  C   UNL A   1      35.858  34.279  28.969  1.00  0.00     0.016 A 
ATOM      9  C   UNL A   1      35.717  32.028  30.592  1.00  0.00     0.010 A 
ATOM     10  C   UNL A   1      37.018  33.546  29.241  1.00  0.00     0.010 A 
ATOM     11  C   UNL A   1      36.937  32.414  30.053  1.00  0.00    -0.014 A 
BRANCH  11  12
ATOM     12  C   UNL A   1      38.111  31.714  30.589  1.00  0.00     0.031 A 
ATOM     13  C   UNL A   1      38.456  31.995  32.019  1.00  0.00     0.074 A 
ATOM     14  C   UNL A   1      38.660  30.705  29.895  1.00  0.00     0.049 A 
ATOM     15  N   UNL A   1      39.347  31.432  32.784  1.00  0.00    -0.248 NA
ATOM     16  C   UNL A   1      37.638  33.021  32.692  1.00  0.00     0.031 C 
ATOM     17  C   UNL A   1      38.232  30.268  28.564  1.00  0.00     0.029 A 
ATOM     18  N   UNL A   1      39.659  29.833  30.230  1.00  0.00    -0.354 N 
ATOM     19  C   UNL A   1      39.189  32.022  34.031  1.00  0.00     0.074 A 
ATOM     20  C   UNL A   1      38.120  32.988  33.921  1.00  0.00     0.031 C 
ATOM     21  C   UNL A   1      38.965  29.202  28.198  1.00  0.00     0.029 A 
ATOM     22  C   UNL A   1      39.943  28.917  29.243  1.00  0.00     0.049 A 
ATOM     23  H   UNL A   1      40.129  29.858  31.094  1.00  0.00     0.167 HD
ATOM     24  C   UNL A   1      39.894  31.785  35.162  1.00  0.00     0.034 A 
ATOM     25  C   UNL A   1      40.915  27.982  29.198  1.00  0.00     0.034 A 
ATOM     26  C   UNL A   1      41.010  30.878  35.191  1.00  0.00     0.049 A 
ATOM     27  C   UNL A   1      41.811  27.865  30.409  1.00  0.00     0.074 A 
ATOM     28  C   UNL A   1      41.930  30.658  36.197  1.00  0.00     0.029 A 
ATOM     29  N   UNL A   1      41.371  30.052  34.129  1.00  0.00    -0.354 N 
ATOM     30  N   UNL A   1      41.730  28.499  31.559  1.00  0.00    -0.248 NA
ATOM     31  C   UNL A   1      42.931  26.924  30.317  1.00  0.00     0.031 C 
ATOM     32  C   UNL A   1      42.882  29.749  35.720  1.00  0.00     0.029 A 
ATOM     33  C   UNL A   1      42.516  29.343  34.444  1.00  0.00     0.049 A 
ATOM     34  H   UNL A   1      40.882  29.982  33.278  1.00  0.00     0.167 HD
ATOM     35  C   UNL A   1      42.784  28.024  32.333  1.00  0.00     0.074 A 
ATOM     36  C   UNL A   1      43.468  27.032  31.524  1.00  0.00     0.031 C 
ATOM     37  C   UNL A   1      43.164  28.373  33.591  1.00  0.00     0.034 A 
BRANCH  24  38
ATOM     38  C   UNL A   1      39.545  32.637  36.356  1.00  0.00     0.023 A 
ATOM     39  C   UNL A   1      38.695  32.168  37.376  1.00  0.00     0.031 A 
ATOM     40  C   UNL A   1      39.936  33.985  36.390  1.00  0.00     0.131 A 
ATOM     41  C   UNL A   1      38.195  33.066  38.334  1.00  0.00     0.055 A 
ATOM     42  C   UNL A   1      39.498  34.853  37.392  1.00  0.00     0.041 A 
ATOM     43  F   UNL A   1      40.710  34.498  35.420  1.00  0.00    -0.206 F 
ATOM     44  C   UNL A   1      38.608  34.400  38.361  1.00  0.00     0.022 A 
BRANCH  41  45
ATOM     45  S   UNL A   1      36.859  32.512  39.433  1.00  0.00     0.124 S 
ATOM     46  O   UNL A   1      35.675  32.796  38.626  1.00  0.00    -0.237 OA
ATOM     47  O   UNL A   1      37.174  31.103  39.631  1.00  0.00    -0.237 OA
ATOM     48  O   UNL A   1      37.015  33.358  40.615  1.00  0.00    -0.744 OA
ENDBRANCH  41  45
ENDBRANCH  24  38
BRANCH  25  49
ATOM     49  C   UNL A   1      41.147  27.172  27.965  1.00  0.00     0.023 A 
ATOM     50  C   UNL A   1      40.849  25.801  27.908  1.00  0.00     0.031 A 
ATOM     51  C   UNL A   1      41.733  27.758  26.826  1.00  0.00     0.131 A 
ATOM     52  C   UNL A   1      41.168  25.058  26.756  1.00  0.00     0.055 A 
ATOM     53  C   UNL A   1      41.999  27.029  25.665  1.00  0.00     0.041 A 
ATOM     54  F   UNL A   1      42.056  29.062  26.821  1.00  0.00    -0.206 F 
ATOM     55  C   UNL A   1      41.728  25.667  25.630  1.00  0.00     0.022 A 
BRANCH  52  56
ATOM     56  S   UNL A   1      40.928  23.259  26.777  1.00  0.00     0.124 S 
ATOM     57  O   UNL A   1      39.505  23.145  26.484  1.00  0.00    -0.237 OA
ATOM     58  O   UNL A   1      41.838  22.819  25.726  1.00  0.00    -0.237 OA
ATOM     59  O   UNL A   1      41.317  22.879  28.135  1.00  0.00    -0.744 OA
ENDBRANCH  52  56
ENDBRANCH  25  49
BRANCH  37  60
ATOM     60  C   UNL A   1      44.355  27.646  34.155  1.00  0.00     0.023 A 
ATOM     61  C   UNL A   1      44.206  26.460  34.892  1.00  0.00     0.031 A 
ATOM     62  C   UNL A   1      45.650  28.145  33.942  1.00  0.00     0.131 A 
ATOM     63  C   UNL A   1      45.336  25.836  35.435  1.00  0.00     0.055 A 
ATOM     64  C   UNL A   1      46.776  27.488  34.437  1.00  0.00     0.041 A 
ATOM     65  F   UNL A   1      45.841  29.273  33.240  1.00  0.00    -0.206 F 
ATOM     66  C   UNL A   1      46.621  26.332  35.198  1.00  0.00     0.022 A 
BRANCH  63  67
ATOM     67  S   UNL A   1      45.099  24.405  36.524  1.00  0.00     0.124 S 
ATOM     68  O   UNL A   1      46.474  24.026  36.829  1.00  0.00    -0.237 OA
ATOM     69  O   UNL A   1      44.335  24.977  37.629  1.00  0.00    -0.237 OA
ATOM     70  O   UNL A   1      44.364  23.458  35.688  1.00  0.00    -0.744 OA
ENDBRANCH  63  67
ENDBRANCH  37  60
ENDBRANCH  11  12
ENDBRANCH   4   6
ENDBRANCH   3   4
ENDBRANCH   2   3
ENDBRANCH   1   2
BRANCH   1  71
ATOM     71  O   UNL A   1      31.154  31.537  26.026  1.00  0.00    -0.374 OA
BRANCH  71  72
ATOM     72  C   UNL A   1      31.558  30.236  25.568  1.00  0.00     0.202 C 
BRANCH  72  73
ATOM     73  C   UNL A   1      32.930  29.891  26.120  1.00  0.00     0.261 C 
BRANCH  73  74
ATOM     74  O   UNL A   1      33.021  28.477  25.954  1.00  0.00    -0.462 OA
BRANCH  74  75
ATOM     75  C   UNL A   1      33.232  28.035  24.702  1.00  0.00     0.330 C 
ATOM     76  O   UNL A   1      33.923  28.614  23.876  1.00  0.00    -0.250 OA
BRANCH  75  77
ATOM     77  C   UNL A   1      32.654  26.618  24.578  1.00  0.00     0.214 C 
ATOM     78  C   UNL A   1      33.956  25.796  24.305  1.00  0.00     0.157 C 
ATOM     79  N   UNL A   1      31.471  26.266  23.695  1.00  0.00    -0.325 N 
ATOM     80  N   UNL A   1      33.679  24.386  24.059  1.00  0.00    -0.336 N 
ATOM     81  C   UNL A   1      31.460  24.844  23.251  1.00  0.00     0.142 C 
ATOM     82  C   UNL A   1      32.804  24.184  22.925  1.00  0.00     0.141 C 
BRANCH  79  83
ATOM     83  C   UNL A   1      30.152  26.747  23.784  1.00  0.00     0.226 C 
ATOM     84  O   UNL A   1      29.277  26.005  24.271  1.00  0.00    -0.275 OA
BRANCH  83  85
ATOM     85  C   UNL A   1      29.622  28.118  23.348  1.00  0.00     0.083 C 
ATOM     86  C   UNL A   1      28.114  28.276  23.178  1.00  0.00     0.042 C 
ATOM     87  C   UNL A   1      30.526  28.781  22.308  1.00  0.00     0.042 C 
ATOM     88  C   UNL A   1      27.727  29.568  22.459  1.00  0.00     0.161 C 
ATOM     89  C   UNL A   1      29.932  30.076  21.775  1.00  0.00     0.161 C 
ATOM     90  O   UNL A   1      28.586  29.876  21.365  1.00  0.00    -0.381 OA
ENDBRANCH  83  85
ENDBRANCH  79  83
BRANCH  80  91
ATOM     91  C   UNL A   1      34.817  23.611  24.170  1.00  0.00     0.225 A 
ATOM     92  N   UNL A   1      35.103  23.006  25.334  1.00  0.00    -0.221 NA
ATOM     93  N   UNL A   1      35.552  23.452  23.056  1.00  0.00    -0.221 NA
ATOM     94  C   UNL A   1      36.154  22.163  25.339  1.00  0.00     0.117 A 
ATOM     95  C   UNL A   1      36.613  22.629  23.119  1.00  0.00     0.117 A 
ATOM     96  C   UNL A   1      36.957  21.934  24.249  1.00  0.00     0.040 A 
ENDBRANCH  80  91
ENDBRANCH  75  77
ENDBRANCH  74  75
ENDBRANCH  73  74
ENDBRANCH  72  73
ENDBRANCH  71  72
ENDBRANCH   1  71
TORSDOF 20
ENDMDL
