MODEL 1
REMARK VINA RESULT:     -11.8      0.000      0.000
REMARK SMILES CC(C)(C)c1ccc(C(=O)N/C(=C/c2ccc(O)cc2)C(=O)OCCOCCOC(=O)c2ccc(-c3c4nc(c(-c5cc(S(=O)(=O)[O-])ccc5F)c5ccc([nH]5)c(-c5cc(S(=O)(=O)[O-])ccc5F)c5nc(c(-c6cc(S(=O)(=O)[O-])ccc6F)c6ccc3[nH]6)C=C5)C=C4)cc2)cc1
REMARK SMILES IDX 26 1 25 2 24 3 23 4 21 5 22 6 12 7 13 8 11 9 9 10 10 11 8 13
REMARK SMILES IDX 5 14 6 15 96 16 7 17 95 18 2 19 1 20 3 21 4 22 14 23 15 24
REMARK SMILES IDX 20 25 16 26 19 27 17 28 18 29 27 31 28 32 29 33 30 34 31 35
REMARK SMILES IDX 32 36 33 37 94 38 34 39 93 40 35 41 36 42 37 43 87 44 38 45
REMARK SMILES IDX 92 46 86 47 88 48 39 49 91 50 85 51 84 52 40 54 72 55 52 56
REMARK SMILES IDX 71 57 53 58 56 59 70 60 89 61 54 62 55 63 69 65 90 66 57 67
REMARK SMILES IDX 41 68 42 69 50 70 43 71 49 72 51 73 48 74 44 75 45 76 46 77
REMARK SMILES IDX 47 78 73 79 74 80 82 81 75 82 81 83 83 84 80 85 76 86 77 87
REMARK SMILES IDX 78 88 79 89 58 90 59 91 67 92 60 93 66 94 68 95 65 96 61 97
REMARK SMILES IDX 62 98 63 99 64 100
REMARK H PARENT 11 12 18 30 88 53 56 64
REMARK Flexibility Score: inf
ROOT
ATOM      1  O   UNL A   1      32.536  30.004  25.421  1.00  0.00    -0.374 OA
ENDROOT
BRANCH   1   2
ATOM      2  C   UNL A   1      33.501  28.955  25.342  1.00  0.00     0.202 C 
BRANCH   2   3
ATOM      3  C   UNL A   1      33.468  27.871  26.409  1.00  0.00     0.261 C 
BRANCH   3   4
ATOM      4  O   UNL A   1      32.652  26.819  25.919  1.00  0.00    -0.459 OA
BRANCH   4   5
ATOM      5  C   UNL A   1      31.387  26.793  26.373  1.00  0.00     0.354 C 
ATOM      6  O   UNL A   1      30.846  27.596  27.116  1.00  0.00    -0.244 OA
BRANCH   5   7
ATOM      7  C   UNL A   1      30.752  25.550  25.871  1.00  0.00     0.128 C 
ATOM      8  C   UNL A   1      30.359  25.569  24.573  1.00  0.00     0.042 C 
BRANCH   7   9
ATOM      9  N   UNL A   1      30.532  24.437  26.673  1.00  0.00    -0.316 N 
ATOM     10  C   UNL A   1      31.174  23.229  26.925  1.00  0.00     0.255 C 
ATOM     11  O   UNL A   1      30.675  22.497  27.787  1.00  0.00    -0.269 OA
ATOM     12  H   UNL A   1      29.706  24.527  27.200  1.00  0.00     0.170 HD
BRANCH  10  13
ATOM     13  C   UNL A   1      32.481  22.809  26.356  1.00  0.00     0.040 A 
ATOM     14  C   UNL A   1      35.092  22.443  25.282  1.00  0.00    -0.043 A 
ATOM     15  C   UNL A   1      34.886  22.544  26.667  1.00  0.00     0.005 A 
ATOM     16  C   UNL A   1      33.939  22.288  24.495  1.00  0.00     0.005 A 
ATOM     17  C   UNL A   1      33.597  22.732  27.198  1.00  0.00     0.014 A 
ATOM     18  C   UNL A   1      32.650  22.426  25.037  1.00  0.00     0.014 A 
BRANCH  14  19
ATOM     19  C   UNL A   1      36.508  22.523  24.670  1.00  0.00    -0.013 C 
ATOM     20  C   UNL A   1      37.401  23.591  25.350  1.00  0.00     0.016 C 
ATOM     21  C   UNL A   1      36.405  22.870  23.177  1.00  0.00     0.016 C 
ATOM     22  C   UNL A   1      37.279  21.183  24.796  1.00  0.00     0.016 C 
ENDBRANCH  14  19
ENDBRANCH  10  13
ENDBRANCH   7   9
BRANCH   8  23
ATOM     23  C   UNL A   1      30.414  26.740  23.654  1.00  0.00    -0.023 A 
ATOM     24  C   UNL A   1      29.375  27.682  23.687  1.00  0.00     0.012 A 
ATOM     25  C   UNL A   1      31.499  26.987  22.795  1.00  0.00     0.012 A 
ATOM     26  C   UNL A   1      29.469  28.875  22.959  1.00  0.00     0.047 A 
ATOM     27  C   UNL A   1      31.619  28.200  22.108  1.00  0.00     0.047 A 
ATOM     28  C   UNL A   1      30.608  29.142  22.210  1.00  0.00     0.115 A 
BRANCH  28  29
ATOM     29  O   UNL A   1      30.691  30.351  21.590  1.00  0.00    -0.508 OA
ATOM     30  H   UNL A   1      30.358  30.456  20.720  1.00  0.00     0.293 HD
ENDBRANCH  28  29
ENDBRANCH   8  23
ENDBRANCH   5   7
ENDBRANCH   4   5
ENDBRANCH   3   4
ENDBRANCH   2   3
ENDBRANCH   1   2
BRANCH   1  31
ATOM     31  C   UNL A   1      32.383  30.733  26.635  1.00  0.00     0.202 C 
BRANCH  31  32
ATOM     32  C   UNL A   1      32.266  32.261  26.575  1.00  0.00     0.261 C 
BRANCH  32  33
ATOM     33  O   UNL A   1      32.257  32.898  27.852  1.00  0.00    -0.460 OA
BRANCH  33  34
ATOM     34  C   UNL A   1      33.261  33.802  28.011  1.00  0.00     0.338 C 
ATOM     35  O   UNL A   1      33.158  35.013  28.056  1.00  0.00    -0.246 OA
BRANCH  34  36
ATOM     36  C   UNL A   1      34.502  33.081  28.353  1.00  0.00     0.060 A 
ATOM     37  C   UNL A   1      34.369  31.858  29.025  1.00  0.00     0.016 A 
ATOM     38  C   UNL A   1      35.760  33.583  28.020  1.00  0.00     0.016 A 
ATOM     39  C   UNL A   1      35.502  31.155  29.413  1.00  0.00     0.010 A 
ATOM     40  C   UNL A   1      36.898  32.885  28.429  1.00  0.00     0.010 A 
ATOM     41  C   UNL A   1      36.770  31.691  29.159  1.00  0.00    -0.014 A 
BRANCH  41  42
ATOM     42  C   UNL A   1      37.942  31.083  29.827  1.00  0.00     0.031 A 
ATOM     43  C   UNL A   1      38.218  31.450  31.258  1.00  0.00     0.074 A 
ATOM     44  C   UNL A   1      38.694  30.170  29.189  1.00  0.00     0.049 A 
ATOM     45  N   UNL A   1      39.165  31.032  32.056  1.00  0.00    -0.248 NA
ATOM     46  C   UNL A   1      37.299  32.423  31.870  1.00  0.00     0.031 C 
ATOM     47  C   UNL A   1      38.474  29.708  27.817  1.00  0.00     0.029 A 
ATOM     48  N   UNL A   1      39.787  29.462  29.613  1.00  0.00    -0.354 N 
ATOM     49  C   UNL A   1      38.956  31.689  33.264  1.00  0.00     0.074 A 
ATOM     50  C   UNL A   1      37.821  32.565  33.078  1.00  0.00     0.031 C 
ATOM     51  C   UNL A   1      39.407  28.787  27.516  1.00  0.00     0.029 A 
ATOM     52  C   UNL A   1      40.307  28.625  28.655  1.00  0.00     0.049 A 
ATOM     53  H   UNL A   1      40.164  29.544  30.519  1.00  0.00     0.167 HD
ATOM     54  C   UNL A   1      39.646  31.562  34.424  1.00  0.00     0.034 A 
ATOM     55  C   UNL A   1      41.398  27.835  28.694  1.00  0.00     0.034 A 
ATOM     56  C   UNL A   1      40.789  30.694  34.578  1.00  0.00     0.049 A 
ATOM     57  C   UNL A   1      42.199  27.772  29.973  1.00  0.00     0.074 A 
ATOM     58  C   UNL A   1      41.568  30.483  35.702  1.00  0.00     0.029 A 
ATOM     59  N   UNL A   1      41.327  29.902  33.570  1.00  0.00    -0.354 N 
ATOM     60  N   UNL A   1      41.990  28.391  31.114  1.00  0.00    -0.248 NA
ATOM     61  C   UNL A   1      43.369  26.888  29.973  1.00  0.00     0.031 C 
ATOM     62  C   UNL A   1      42.621  29.631  35.351  1.00  0.00     0.029 A 
ATOM     63  C   UNL A   1      42.447  29.230  34.036  1.00  0.00     0.049 A 
ATOM     64  H   UNL A   1      40.966  29.829  32.657  1.00  0.00     0.167 HD
ATOM     65  C   UNL A   1      42.989  27.944  31.977  1.00  0.00     0.074 A 
ATOM     66  C   UNL A   1      43.776  26.984  31.230  1.00  0.00     0.031 C 
ATOM     67  C   UNL A   1      43.236  28.292  33.269  1.00  0.00     0.034 A 
BRANCH  54  68
ATOM     68  C   UNL A   1      39.217  32.427  35.587  1.00  0.00     0.023 A 
ATOM     69  C   UNL A   1      39.633  33.764  35.717  1.00  0.00     0.031 A 
ATOM     70  C   UNL A   1      38.404  31.892  36.603  1.00  0.00     0.131 A 
ATOM     71  C   UNL A   1      39.295  34.495  36.867  1.00  0.00     0.055 A 
ATOM     72  C   UNL A   1      38.000  32.652  37.703  1.00  0.00     0.041 A 
ATOM     73  F   UNL A   1      37.998  30.613  36.552  1.00  0.00    -0.206 F 
ATOM     74  C   UNL A   1      38.458  33.958  37.846  1.00  0.00     0.022 A 
BRANCH  71  75
ATOM     75  S   UNL A   1      40.084  36.107  37.136  1.00  0.00     0.124 S 
ATOM     76  O   UNL A   1      39.891  36.750  35.838  1.00  0.00    -0.237 OA
ATOM     77  O   UNL A   1      39.309  36.656  38.243  1.00  0.00    -0.237 OA
ATOM     78  O   UNL A   1      41.468  35.762  37.452  1.00  0.00    -0.744 OA
ENDBRANCH  71  75
ENDBRANCH  54  68
BRANCH  55  79
ATOM     79  C   UNL A   1      41.819  27.064  27.488  1.00  0.00     0.023 A 
ATOM     80  C   UNL A   1      41.631  25.675  27.407  1.00  0.00     0.031 A 
ATOM     81  C   UNL A   1      42.471  27.702  26.417  1.00  0.00     0.131 A 
ATOM     82  C   UNL A   1      42.136  24.964  26.307  1.00  0.00     0.055 A 
ATOM     83  C   UNL A   1      42.919  26.998  25.298  1.00  0.00     0.041 A 
ATOM     84  F   UNL A   1      42.674  29.030  26.438  1.00  0.00    -0.206 F 
ATOM     85  C   UNL A   1      42.765  25.617  25.246  1.00  0.00     0.022 A 
BRANCH  82  86
ATOM     86  S   UNL A   1      42.041  23.152  26.327  1.00  0.00     0.124 S 
ATOM     87  O   UNL A   1      42.566  22.813  25.010  1.00  0.00    -0.237 OA
ATOM     88  O   UNL A   1      42.892  22.818  27.465  1.00  0.00    -0.237 OA
ATOM     89  O   UNL A   1      40.616  22.890  26.520  1.00  0.00    -0.744 OA
ENDBRANCH  82  86
ENDBRANCH  55  79
BRANCH  67  90
ATOM     90  C   UNL A   1      44.385  27.586  33.955  1.00  0.00     0.023 A 
ATOM     91  C   UNL A   1      44.229  26.317  34.540  1.00  0.00     0.031 A 
ATOM     92  C   UNL A   1      45.638  28.215  34.072  1.00  0.00     0.131 A 
ATOM     93  C   UNL A   1      45.271  25.763  35.298  1.00  0.00     0.055 A 
ATOM     94  C   UNL A   1      46.700  27.618  34.753  1.00  0.00     0.041 A 
ATOM     95  F   UNL A   1      45.849  29.427  33.536  1.00  0.00    -0.206 F 
ATOM     96  C   UNL A   1      46.513  26.396  35.391  1.00  0.00     0.022 A 
BRANCH  93  97
ATOM     97  S   UNL A   1      44.927  24.285  36.293  1.00  0.00     0.124 S 
ATOM     98  O   UNL A   1      46.049  23.420  35.946  1.00  0.00    -0.237 OA
ATOM     99  O   UNL A   1      44.927  24.817  37.651  1.00  0.00    -0.237 OA
ATOM    100  O   UNL A   1      43.625  23.838  35.801  1.00  0.00    -0.744 OA
ENDBRANCH  93  97
ENDBRANCH  67  90
ENDBRANCH  41  42
ENDBRANCH  34  36
ENDBRANCH  33  34
ENDBRANCH  32  33
ENDBRANCH  31  32
ENDBRANCH   1  31
TORSDOF 22
ENDMDL
MODEL 2
REMARK VINA RESULT:     -11.6      0.612      7.531
REMARK SMILES CC(C)(C)c1ccc(C(=O)N/C(=C/c2ccc(O)cc2)C(=O)OCCOCCOC(=O)c2ccc(-c3c4nc(c(-c5cc(S(=O)(=O)[O-])ccc5F)c5ccc([nH]5)c(-c5cc(S(=O)(=O)[O-])ccc5F)c5nc(c(-c6cc(S(=O)(=O)[O-])ccc6F)c6ccc3[nH]6)C=C5)C=C4)cc2)cc1
REMARK SMILES IDX 26 1 25 2 24 3 23 4 21 5 22 6 12 7 13 8 11 9 9 10 10 11 8 13
REMARK SMILES IDX 5 14 6 15 96 16 7 17 95 18 2 19 1 20 3 21 4 22 14 23 15 24
REMARK SMILES IDX 20 25 16 26 19 27 17 28 18 29 27 31 28 32 29 33 30 34 31 35
REMARK SMILES IDX 32 36 33 37 94 38 34 39 93 40 35 41 36 42 37 43 87 44 38 45
REMARK SMILES IDX 92 46 86 47 88 48 39 49 91 50 85 51 84 52 40 54 72 55 52 56
REMARK SMILES IDX 71 57 53 58 56 59 70 60 89 61 54 62 55 63 69 65 90 66 57 67
REMARK SMILES IDX 41 68 42 69 50 70 43 71 49 72 51 73 48 74 44 75 45 76 46 77
REMARK SMILES IDX 47 78 73 79 74 80 82 81 75 82 81 83 83 84 80 85 76 86 77 87
REMARK SMILES IDX 78 88 79 89 58 90 59 91 67 92 60 93 66 94 68 95 65 96 61 97
REMARK SMILES IDX 62 98 63 99 64 100
REMARK H PARENT 11 12 18 30 88 53 56 64
REMARK Flexibility Score: inf
ROOT
ATOM      1  O   UNL A   1      32.565  29.462  25.086  1.00  0.00    -0.374 OA
ENDROOT
BRANCH   1   2
ATOM      2  C   UNL A   1      33.531  28.917  25.984  1.00  0.00     0.202 C 
BRANCH   2   3
ATOM      3  C   UNL A   1      33.367  27.467  26.415  1.00  0.00     0.261 C 
BRANCH   3   4
ATOM      4  O   UNL A   1      32.235  26.947  25.734  1.00  0.00    -0.459 OA
BRANCH   4   5
ATOM      5  C   UNL A   1      31.114  26.822  26.465  1.00  0.00     0.354 C 
ATOM      6  O   UNL A   1      30.804  27.447  27.466  1.00  0.00    -0.244 OA
BRANCH   5   7
ATOM      7  C   UNL A   1      30.318  25.714  25.884  1.00  0.00     0.128 C 
ATOM      8  C   UNL A   1      29.861  25.912  24.622  1.00  0.00     0.042 C 
BRANCH   7   9
ATOM      9  N   UNL A   1      30.018  24.552  26.584  1.00  0.00    -0.316 N 
ATOM     10  C   UNL A   1      30.614  23.312  26.790  1.00  0.00     0.255 C 
ATOM     11  O   UNL A   1      30.040  22.533  27.558  1.00  0.00    -0.269 OA
ATOM     12  H   UNL A   1      29.158  24.625  27.057  1.00  0.00     0.170 HD
BRANCH  10  13
ATOM     13  C   UNL A   1      31.950  22.900  26.284  1.00  0.00     0.040 A 
ATOM     14  C   UNL A   1      34.630  22.539  25.395  1.00  0.00    -0.043 A 
ATOM     15  C   UNL A   1      34.304  22.477  26.759  1.00  0.00     0.005 A 
ATOM     16  C   UNL A   1      33.547  22.540  24.501  1.00  0.00     0.005 A 
ATOM     17  C   UNL A   1      32.982  22.664  27.200  1.00  0.00     0.014 A 
ATOM     18  C   UNL A   1      32.220  22.675  24.945  1.00  0.00     0.014 A 
BRANCH  14  19
ATOM     19  C   UNL A   1      36.096  22.622  24.920  1.00  0.00    -0.013 C 
ATOM     20  C   UNL A   1      36.226  22.892  23.400  1.00  0.00     0.016 C 
ATOM     21  C   UNL A   1      36.815  21.299  25.229  1.00  0.00     0.016 C 
ATOM     22  C   UNL A   1      36.879  23.763  25.621  1.00  0.00     0.016 C 
ENDBRANCH  14  19
ENDBRANCH  10  13
ENDBRANCH   7   9
BRANCH   8  23
ATOM     23  C   UNL A   1      29.997  27.161  23.822  1.00  0.00    -0.023 A 
ATOM     24  C   UNL A   1      31.087  27.295  22.949  1.00  0.00     0.012 A 
ATOM     25  C   UNL A   1      29.044  28.193  23.849  1.00  0.00     0.012 A 
ATOM     26  C   UNL A   1      31.163  28.378  22.064  1.00  0.00     0.047 A 
ATOM     27  C   UNL A   1      29.090  29.249  22.931  1.00  0.00     0.047 A 
ATOM     28  C   UNL A   1      30.144  29.322  22.034  1.00  0.00     0.115 A 
BRANCH  28  29
ATOM     29  O   UNL A   1      30.219  30.308  21.098  1.00  0.00    -0.508 OA
ATOM     30  H   UNL A   1      30.971  30.866  21.065  1.00  0.00     0.293 HD
ENDBRANCH  28  29
ENDBRANCH   8  23
ENDBRANCH   5   7
ENDBRANCH   4   5
ENDBRANCH   3   4
ENDBRANCH   2   3
ENDBRANCH   1   2
BRANCH   1  31
ATOM     31  C   UNL A   1      31.531  30.304  25.587  1.00  0.00     0.202 C 
BRANCH  31  32
ATOM     32  C   UNL A   1      31.851  31.274  26.731  1.00  0.00     0.261 C 
BRANCH  32  33
ATOM     33  O   UNL A   1      32.805  32.281  26.396  1.00  0.00    -0.460 OA
BRANCH  33  34
ATOM     34  C   UNL A   1      33.198  33.028  27.462  1.00  0.00     0.338 C 
ATOM     35  O   UNL A   1      32.555  33.886  28.036  1.00  0.00    -0.246 OA
BRANCH  34  36
ATOM     36  C   UNL A   1      34.467  32.482  27.983  1.00  0.00     0.060 A 
ATOM     37  C   UNL A   1      34.465  31.147  28.408  1.00  0.00     0.016 A 
ATOM     38  C   UNL A   1      35.627  33.254  28.048  1.00  0.00     0.016 A 
ATOM     39  C   UNL A   1      35.617  30.591  28.948  1.00  0.00     0.010 A 
ATOM     40  C   UNL A   1      36.778  32.700  28.611  1.00  0.00     0.010 A 
ATOM     41  C   UNL A   1      36.763  31.382  29.097  1.00  0.00    -0.014 A 
BRANCH  41  42
ATOM     42  C   UNL A   1      37.874  30.868  29.930  1.00  0.00     0.031 A 
ATOM     43  C   UNL A   1      38.812  29.862  29.326  1.00  0.00     0.074 A 
ATOM     44  C   UNL A   1      38.076  31.348  31.168  1.00  0.00     0.049 A 
ATOM     45  N   UNL A   1      39.865  29.289  29.847  1.00  0.00    -0.248 NA
ATOM     46  C   UNL A   1      38.521  29.445  27.944  1.00  0.00     0.031 C 
ATOM     47  C   UNL A   1      37.252  32.365  31.823  1.00  0.00     0.029 A 
ATOM     48  N   UNL A   1      39.043  31.051  32.092  1.00  0.00    -0.354 N 
ATOM     49  C   UNL A   1      40.362  28.445  28.859  1.00  0.00     0.074 A 
ATOM     50  C   UNL A   1      39.470  28.550  27.725  1.00  0.00     0.031 C 
ATOM     51  C   UNL A   1      37.755  32.609  33.045  1.00  0.00     0.029 A 
ATOM     52  C   UNL A   1      38.908  31.741  33.273  1.00  0.00     0.049 A 
ATOM     53  H   UNL A   1      39.767  30.405  31.925  1.00  0.00     0.167 HD
ATOM     54  C   UNL A   1      41.469  27.664  28.895  1.00  0.00     0.034 A 
ATOM     55  C   UNL A   1      39.626  31.662  34.410  1.00  0.00     0.034 A 
ATOM     56  C   UNL A   1      42.333  27.563  30.047  1.00  0.00     0.049 A 
ATOM     57  C   UNL A   1      40.808  30.723  34.454  1.00  0.00     0.074 A 
ATOM     58  C   UNL A   1      43.481  26.806  30.202  1.00  0.00     0.029 A 
ATOM     59  N   UNL A   1      42.135  28.231  31.250  1.00  0.00    -0.354 N 
ATOM     60  N   UNL A   1      41.276  29.934  33.512  1.00  0.00    -0.248 NA
ATOM     61  C   UNL A   1      41.567  30.680  35.708  1.00  0.00     0.031 C 
ATOM     62  C   UNL A   1      43.927  26.952  31.520  1.00  0.00     0.029 A 
ATOM     63  C   UNL A   1      43.118  27.876  32.162  1.00  0.00     0.049 A 
ATOM     64  H   UNL A   1      41.404  28.865  31.430  1.00  0.00     0.167 HD
ATOM     65  C   UNL A   1      42.406  29.325  34.054  1.00  0.00     0.074 A 
ATOM     66  C   UNL A   1      42.560  29.864  35.391  1.00  0.00     0.031 C 
ATOM     67  C   UNL A   1      43.244  28.406  33.502  1.00  0.00     0.034 A 
BRANCH  54  68
ATOM     68  C   UNL A   1      41.764  26.818  27.678  1.00  0.00     0.023 A 
ATOM     69  C   UNL A   1      41.415  25.457  27.611  1.00  0.00     0.031 A 
ATOM     70  C   UNL A   1      42.440  27.376  26.577  1.00  0.00     0.131 A 
ATOM     71  C   UNL A   1      41.801  24.687  26.504  1.00  0.00     0.055 A 
ATOM     72  C   UNL A   1      42.746  26.624  25.441  1.00  0.00     0.041 A 
ATOM     73  F   UNL A   1      42.827  28.661  26.591  1.00  0.00    -0.206 F 
ATOM     74  C   UNL A   1      42.440  25.267  25.406  1.00  0.00     0.022 A 
BRANCH  71  75
ATOM     75  S   UNL A   1      41.591  22.887  26.581  1.00  0.00     0.124 S 
ATOM     76  O   UNL A   1      42.204  22.573  27.869  1.00  0.00    -0.237 OA
ATOM     77  O   UNL A   1      40.143  22.735  26.507  1.00  0.00    -0.237 OA
ATOM     78  O   UNL A   1      42.330  22.405  25.415  1.00  0.00    -0.744 OA
ENDBRANCH  71  75
ENDBRANCH  54  68
BRANCH  55  79
ATOM     79  C   UNL A   1      39.239  32.464  35.608  1.00  0.00     0.023 A 
ATOM     80  C   UNL A   1      39.671  33.790  35.769  1.00  0.00     0.031 A 
ATOM     81  C   UNL A   1      38.476  31.891  36.641  1.00  0.00     0.131 A 
ATOM     82  C   UNL A   1      39.382  34.481  36.956  1.00  0.00     0.055 A 
ATOM     83  C   UNL A   1      38.141  32.602  37.796  1.00  0.00     0.041 A 
ATOM     84  F   UNL A   1      38.033  30.628  36.540  1.00  0.00    -0.206 F 
ATOM     85  C   UNL A   1      38.608  33.902  37.963  1.00  0.00     0.022 A 
BRANCH  82  86
ATOM     86  S   UNL A   1      40.114  36.122  37.206  1.00  0.00     0.124 S 
ATOM     87  O   UNL A   1      39.917  36.737  35.899  1.00  0.00    -0.237 OA
ATOM     88  O   UNL A   1      39.300  36.652  38.295  1.00  0.00    -0.237 OA
ATOM     89  O   UNL A   1      41.501  35.824  37.555  1.00  0.00    -0.744 OA
ENDBRANCH  82  86
ENDBRANCH  55  79
BRANCH  67  90
ATOM     90  C   UNL A   1      44.422  27.968  34.342  1.00  0.00     0.023 A 
ATOM     91  C   UNL A   1      44.339  26.869  35.216  1.00  0.00     0.031 A 
ATOM     92  C   UNL A   1      45.628  28.692  34.310  1.00  0.00     0.131 A 
ATOM     93  C   UNL A   1      45.401  26.588  36.089  1.00  0.00     0.055 A 
ATOM     94  C   UNL A   1      46.714  28.353  35.119  1.00  0.00     0.041 A 
ATOM     95  F   UNL A   1      45.769  29.751  33.498  1.00  0.00    -0.206 F 
ATOM     96  C   UNL A   1      46.595  27.310  36.032  1.00  0.00     0.022 A 
BRANCH  93  97
ATOM     97  S   UNL A   1      45.135  25.372  37.410  1.00  0.00     0.124 S 
ATOM     98  O   UNL A   1      44.687  24.204  36.658  1.00  0.00    -0.237 OA
ATOM     99  O   UNL A   1      46.459  25.274  38.014  1.00  0.00    -0.237 OA
ATOM    100  O   UNL A   1      44.115  25.997  38.250  1.00  0.00    -0.744 OA
ENDBRANCH  93  97
ENDBRANCH  67  90
ENDBRANCH  41  42
ENDBRANCH  34  36
ENDBRANCH  33  34
ENDBRANCH  32  33
ENDBRANCH  31  32
ENDBRANCH   1  31
TORSDOF 22
ENDMDL
MODEL 3
REMARK VINA RESULT:     -11.5      2.094      4.624
REMARK SMILES CC(C)(C)c1ccc(C(=O)N/C(=C/c2ccc(O)cc2)C(=O)OCCOCCOC(=O)c2ccc(-c3c4nc(c(-c5cc(S(=O)(=O)[O-])ccc5F)c5ccc([nH]5)c(-c5cc(S(=O)(=O)[O-])ccc5F)c5nc(c(-c6cc(S(=O)(=O)[O-])ccc6F)c6ccc3[nH]6)C=C5)C=C4)cc2)cc1
REMARK SMILES IDX 26 1 25 2 24 3 23 4 21 5 22 6 12 7 13 8 11 9 9 10 10 11 8 13
REMARK SMILES IDX 5 14 6 15 96 16 7 17 95 18 2 19 1 20 3 21 4 22 14 23 15 24
REMARK SMILES IDX 20 25 16 26 19 27 17 28 18 29 27 31 28 32 29 33 30 34 31 35
REMARK SMILES IDX 32 36 33 37 94 38 34 39 93 40 35 41 36 42 37 43 87 44 38 45
REMARK SMILES IDX 92 46 86 47 88 48 39 49 91 50 85 51 84 52 40 54 72 55 52 56
REMARK SMILES IDX 71 57 53 58 56 59 70 60 89 61 54 62 55 63 69 65 90 66 57 67
REMARK SMILES IDX 41 68 42 69 50 70 43 71 49 72 51 73 48 74 44 75 45 76 46 77
REMARK SMILES IDX 47 78 73 79 74 80 82 81 75 82 81 83 83 84 80 85 76 86 77 87
REMARK SMILES IDX 78 88 79 89 58 90 59 91 67 92 60 93 66 94 68 95 65 96 61 97
REMARK SMILES IDX 62 98 63 99 64 100
REMARK H PARENT 11 12 18 30 88 53 56 64
REMARK Flexibility Score: inf
ROOT
ATOM      1  O   UNL A   1      32.443  28.596  27.582  1.00  0.00    -0.374 OA
ENDROOT
BRANCH   1   2
ATOM      2  C   UNL A   1      32.952  27.567  26.734  1.00  0.00     0.202 C 
BRANCH   2   3
ATOM      3  C   UNL A   1      32.104  26.320  26.533  1.00  0.00     0.261 C 
BRANCH   3   4
ATOM      4  O   UNL A   1      32.377  25.827  25.230  1.00  0.00    -0.459 OA
BRANCH   4   5
ATOM      5  C   UNL A   1      33.603  25.312  25.040  1.00  0.00     0.354 C 
ATOM      6  O   UNL A   1      34.456  25.089  25.883  1.00  0.00    -0.244 OA
BRANCH   5   7
ATOM      7  C   UNL A   1      33.790  25.118  23.582  1.00  0.00     0.128 C 
ATOM      8  C   UNL A   1      33.614  23.852  23.125  1.00  0.00     0.042 C 
BRANCH   7   9
ATOM      9  N   UNL A   1      34.157  26.148  22.724  1.00  0.00    -0.316 N 
ATOM     10  C   UNL A   1      33.574  27.312  22.235  1.00  0.00     0.255 C 
ATOM     11  O   UNL A   1      34.273  28.027  21.507  1.00  0.00    -0.269 OA
ATOM     12  H   UNL A   1      35.066  26.019  22.369  1.00  0.00     0.170 HD
BRANCH  10  13
ATOM     13  C   UNL A   1      32.242  27.844  22.625  1.00  0.00     0.040 A 
ATOM     14  C   UNL A   1      29.650  28.979  22.936  1.00  0.00    -0.043 A 
ATOM     15  C   UNL A   1      29.815  27.665  22.470  1.00  0.00     0.005 A 
ATOM     16  C   UNL A   1      30.797  29.596  23.462  1.00  0.00     0.005 A 
ATOM     17  C   UNL A   1      31.095  27.106  22.309  1.00  0.00     0.014 A 
ATOM     18  C   UNL A   1      32.071  29.013  23.345  1.00  0.00     0.014 A 
BRANCH  14  19
ATOM     19  C   UNL A   1      28.288  29.699  22.850  1.00  0.00    -0.013 C 
ATOM     20  C   UNL A   1      27.103  28.810  23.304  1.00  0.00     0.016 C 
ATOM     21  C   UNL A   1      28.026  30.135  21.400  1.00  0.00     0.016 C 
ATOM     22  C   UNL A   1      28.234  30.966  23.745  1.00  0.00     0.016 C 
ENDBRANCH  14  19
ENDBRANCH  10  13
ENDBRANCH   7   9
BRANCH   8  23
ATOM     23  C   UNL A   1      33.357  22.645  23.957  1.00  0.00    -0.023 A 
ATOM     24  C   UNL A   1      32.046  22.373  24.377  1.00  0.00     0.012 A 
ATOM     25  C   UNL A   1      34.360  21.718  24.290  1.00  0.00     0.012 A 
ATOM     26  C   UNL A   1      31.738  21.167  25.020  1.00  0.00     0.047 A 
ATOM     27  C   UNL A   1      34.046  20.491  24.886  1.00  0.00     0.047 A 
ATOM     28  C   UNL A   1      32.732  20.220  25.232  1.00  0.00     0.115 A 
BRANCH  28  29
ATOM     29  O   UNL A   1      32.367  19.029  25.782  1.00  0.00    -0.508 OA
ATOM     30  H   UNL A   1      32.983  18.324  25.824  1.00  0.00     0.293 HD
ENDBRANCH  28  29
ENDBRANCH   8  23
ENDBRANCH   5   7
ENDBRANCH   4   5
ENDBRANCH   3   4
ENDBRANCH   2   3
ENDBRANCH   1   2
BRANCH   1  31
ATOM     31  C   UNL A   1      31.632  29.629  27.031  1.00  0.00     0.202 C 
BRANCH  31  32
ATOM     32  C   UNL A   1      32.155  31.071  27.043  1.00  0.00     0.261 C 
BRANCH  32  33
ATOM     33  O   UNL A   1      33.567  31.183  26.863  1.00  0.00    -0.460 OA
BRANCH  33  34
ATOM     34  C   UNL A   1      34.164  31.998  27.773  1.00  0.00     0.338 C 
ATOM     35  O   UNL A   1      33.655  32.926  28.372  1.00  0.00    -0.246 OA
BRANCH  34  36
ATOM     36  C   UNL A   1      35.490  31.446  28.108  1.00  0.00     0.060 A 
ATOM     37  C   UNL A   1      35.577  30.062  28.312  1.00  0.00     0.016 A 
ATOM     38  C   UNL A   1      36.619  32.259  28.216  1.00  0.00     0.016 A 
ATOM     39  C   UNL A   1      36.790  29.491  28.674  1.00  0.00     0.010 A 
ATOM     40  C   UNL A   1      37.833  31.685  28.599  1.00  0.00     0.010 A 
ATOM     41  C   UNL A   1      37.910  30.308  28.866  1.00  0.00    -0.014 A 
BRANCH  41  42
ATOM     42  C   UNL A   1      39.103  29.730  29.526  1.00  0.00     0.031 A 
ATOM     43  C   UNL A   1      39.459  30.212  30.904  1.00  0.00     0.074 A 
ATOM     44  C   UNL A   1      39.802  28.748  28.933  1.00  0.00     0.049 A 
ATOM     45  N   UNL A   1      40.437  29.841  31.687  1.00  0.00    -0.248 NA
ATOM     46  C   UNL A   1      38.593  31.256  31.474  1.00  0.00     0.031 C 
ATOM     47  C   UNL A   1      39.502  28.175  27.619  1.00  0.00     0.029 A 
ATOM     48  N   UNL A   1      40.901  28.052  29.362  1.00  0.00    -0.354 N 
ATOM     49  C   UNL A   1      40.305  30.604  32.843  1.00  0.00     0.074 A 
ATOM     50  C   UNL A   1      39.179  31.489  32.638  1.00  0.00     0.031 C 
ATOM     51  C   UNL A   1      40.399  27.209  27.354  1.00  0.00     0.029 A 
ATOM     52  C   UNL A   1      41.354  27.123  28.456  1.00  0.00     0.049 A 
ATOM     53  H   UNL A   1      41.325  28.202  30.238  1.00  0.00     0.167 HD
ATOM     54  C   UNL A   1      41.051  30.560  33.974  1.00  0.00     0.034 A 
ATOM     55  C   UNL A   1      42.429  26.312  28.509  1.00  0.00     0.034 A 
ATOM     56  C   UNL A   1      42.182  29.680  34.146  1.00  0.00     0.049 A 
ATOM     57  C   UNL A   1      43.293  26.340  29.748  1.00  0.00     0.074 A 
ATOM     58  C   UNL A   1      43.013  29.547  35.244  1.00  0.00     0.029 A 
ATOM     59  N   UNL A   1      42.651  28.792  33.184  1.00  0.00    -0.354 N 
ATOM     60  N   UNL A   1      43.155  27.060  30.840  1.00  0.00    -0.248 NA
ATOM     61  C   UNL A   1      44.443  25.431  29.767  1.00  0.00     0.031 C 
ATOM     62  C   UNL A   1      44.029  28.642  34.916  1.00  0.00     0.029 A 
ATOM     63  C   UNL A   1      43.780  28.135  33.651  1.00  0.00     0.049 A 
ATOM     64  H   UNL A   1      42.242  28.649  32.300  1.00  0.00     0.167 HD
ATOM     65  C   UNL A   1      44.188  26.664  31.688  1.00  0.00     0.074 A 
ATOM     66  C   UNL A   1      44.916  25.623  30.989  1.00  0.00     0.031 C 
ATOM     67  C   UNL A   1      44.509  27.115  32.930  1.00  0.00     0.034 A 
BRANCH  54  68
ATOM     68  C   UNL A   1      40.699  31.531  35.077  1.00  0.00     0.023 A 
ATOM     69  C   UNL A   1      39.667  31.274  35.998  1.00  0.00     0.031 A 
ATOM     70  C   UNL A   1      41.387  32.754  35.188  1.00  0.00     0.131 A 
ATOM     71  C   UNL A   1      39.309  32.251  36.940  1.00  0.00     0.055 A 
ATOM     72  C   UNL A   1      41.081  33.686  36.182  1.00  0.00     0.041 A 
ATOM     73  F   UNL A   1      42.361  33.072  34.321  1.00  0.00    -0.206 F 
ATOM     74  C   UNL A   1      40.026  33.443  37.057  1.00  0.00     0.022 A 
BRANCH  71  75
ATOM     75  S   UNL A   1      37.797  32.006  37.913  1.00  0.00     0.124 S 
ATOM     76  O   UNL A   1      36.915  33.024  37.348  1.00  0.00    -0.237 OA
ATOM     77  O   UNL A   1      37.450  30.621  37.614  1.00  0.00    -0.237 OA
ATOM     78  O   UNL A   1      38.229  32.260  39.287  1.00  0.00    -0.744 OA
ENDBRANCH  71  75
ENDBRANCH  54  68
BRANCH  55  79
ATOM     79  C   UNL A   1      42.771  25.430  27.355  1.00  0.00     0.023 A 
ATOM     80  C   UNL A   1      42.275  24.120  27.266  1.00  0.00     0.031 A 
ATOM     81  C   UNL A   1      43.651  25.871  26.350  1.00  0.00     0.131 A 
ATOM     82  C   UNL A   1      42.703  23.280  26.226  1.00  0.00     0.055 A 
ATOM     83  C   UNL A   1      44.027  25.050  25.285  1.00  0.00     0.041 A 
ATOM     84  F   UNL A   1      44.153  27.116  26.382  1.00  0.00    -0.206 F 
ATOM     85  C   UNL A   1      43.563  23.740  25.227  1.00  0.00     0.022 A 
BRANCH  82  86
ATOM     86  S   UNL A   1      42.189  21.540  26.248  1.00  0.00     0.124 S 
ATOM     87  O   UNL A   1      42.415  21.182  27.643  1.00  0.00    -0.237 OA
ATOM     88  O   UNL A   1      40.795  21.633  25.826  1.00  0.00    -0.237 OA
ATOM     89  O   UNL A   1      43.089  20.909  25.285  1.00  0.00    -0.744 OA
ENDBRANCH  82  86
ENDBRANCH  55  79
BRANCH  67  90
ATOM     90  C   UNL A   1      45.677  26.442  33.617  1.00  0.00     0.023 A 
ATOM     91  C   UNL A   1      45.508  25.284  34.398  1.00  0.00     0.031 A 
ATOM     92  C   UNL A   1      46.966  26.997  33.534  1.00  0.00     0.131 A 
ATOM     93  C   UNL A   1      46.585  24.780  35.142  1.00  0.00     0.055 A 
ATOM     94  C   UNL A   1      48.054  26.438  34.207  1.00  0.00     0.041 A 
ATOM     95  F   UNL A   1      47.191  28.102  32.806  1.00  0.00    -0.206 F 
ATOM     96  C   UNL A   1      47.862  25.336  35.036  1.00  0.00     0.022 A 
BRANCH  93  97
ATOM     97  S   UNL A   1      46.256  23.488  36.373  1.00  0.00     0.124 S 
ATOM     98  O   UNL A   1      44.841  23.697  36.657  1.00  0.00    -0.237 OA
ATOM     99  O   UNL A   1      46.587  22.269  35.642  1.00  0.00    -0.237 OA
ATOM    100  O   UNL A   1      47.164  23.820  37.468  1.00  0.00    -0.744 OA
ENDBRANCH  93  97
ENDBRANCH  67  90
ENDBRANCH  41  42
ENDBRANCH  34  36
ENDBRANCH  33  34
ENDBRANCH  32  33
ENDBRANCH  31  32
ENDBRANCH   1  31
TORSDOF 22
ENDMDL
