MODEL 1
REMARK VINA RESULT:     -11.8      0.000      0.000
REMARK SMILES C[C@H]1OCC[C@@H]1C(=O)Nc1sc2c(c1C(=O)OCCOCCOC(=O)c1ccc(-c3c4nc(c(-c5cc(S(=O)(=O)[O-])ccc5F)c5ccc([nH]5)c(-c5cc(S(=O)(=O)[O-])ccc5F)c5nc(c(-c6cc(S(=O)(=O)[O-])ccc6F)c6ccc3[nH]6)C=C5)C=C4)cc1)CCC2
REMARK SMILES IDX 21 1 20 2 19 3 18 4 17 5 15 6 16 7 14 8 10 9 11 10 12 11
REMARK SMILES IDX 13 12 91 13 89 14 90 15 9 16 7 17 8 18 6 20 1 21 2 22 3 23
REMARK SMILES IDX 4 24 5 25 22 26 23 27 24 28 25 29 26 30 27 31 88 32 28 33
REMARK SMILES IDX 87 34 29 35 30 36 31 37 81 38 32 39 86 40 80 41 82 42 33 43
REMARK SMILES IDX 85 44 79 45 78 46 34 48 66 49 46 50 65 51 47 52 50 53 64 54
REMARK SMILES IDX 83 55 48 56 49 57 63 59 84 60 51 61 35 62 36 63 44 64 37 65
REMARK SMILES IDX 43 66 45 67 42 68 38 69 39 70 40 71 41 72 67 73 68 74 76 75
REMARK SMILES IDX 69 76 75 77 77 78 74 79 70 80 71 81 72 82 73 83 52 84 53 85
REMARK SMILES IDX 61 86 54 87 60 88 62 89 59 90 55 91 56 92 57 93 58 94
REMARK H PARENT 9 19 82 47 50 58
REMARK Flexibility Score: inf
ROOT
ATOM      1  C   UNL A   1      39.376  21.042  26.126  1.00  0.00     0.202 C 
ENDROOT
BRANCH   1   2
ATOM      2  O   UNL A   1      38.429  21.606  25.230  1.00  0.00    -0.374 OA
BRANCH   2   3
ATOM      3  C   UNL A   1      37.357  22.321  25.883  1.00  0.00     0.202 C 
BRANCH   3   4
ATOM      4  C   UNL A   1      37.246  23.803  25.461  1.00  0.00     0.261 C 
BRANCH   4   5
ATOM      5  O   UNL A   1      35.985  24.104  24.794  1.00  0.00    -0.460 OA
BRANCH   5   6
ATOM      6  C   UNL A   1      35.746  23.402  23.632  1.00  0.00     0.341 C 
ATOM      7  O   UNL A   1      36.571  23.288  22.732  1.00  0.00    -0.246 OA
BRANCH   6   8
ATOM      8  C   UNL A   1      34.423  22.762  23.564  1.00  0.00     0.098 A 
ATOM      9  C   UNL A   1      33.340  23.245  22.828  1.00  0.00     0.110 A 
ATOM     10  S   UNL A   1      31.848  22.470  23.176  1.00  0.00    -0.122 S 
ATOM     11  C   UNL A   1      32.663  21.300  24.028  1.00  0.00     0.011 A 
ATOM     12  C   UNL A   1      34.007  21.535  24.173  1.00  0.00    -0.017 A 
ATOM     13  C   UNL A   1      32.180  20.035  24.620  1.00  0.00     0.047 C 
ATOM     14  C   UNL A   1      34.639  20.416  24.921  1.00  0.00     0.038 C 
ATOM     15  C   UNL A   1      33.534  19.308  24.863  1.00  0.00     0.010 C 
BRANCH   9  16
ATOM     16  N   UNL A   1      33.191  24.276  21.929  1.00  0.00    -0.317 N 
ATOM     17  C   UNL A   1      33.283  25.598  22.288  1.00  0.00     0.230 C 
ATOM     18  O   UNL A   1      33.796  26.364  21.459  1.00  0.00    -0.274 OA
ATOM     19  H   UNL A   1      33.011  24.057  20.987  1.00  0.00     0.170 HD
BRANCH  17  20
ATOM     20  C   UNL A   1      32.739  26.189  23.582  1.00  0.00     0.110 C 
ATOM     21  C   UNL A   1      30.603  26.989  24.631  1.00  0.00     0.039 C 
ATOM     22  C   UNL A   1      31.628  27.221  23.512  1.00  0.00     0.127 C 
ATOM     23  O   UNL A   1      32.226  28.501  23.756  1.00  0.00    -0.378 OA
ATOM     24  C   UNL A   1      33.410  28.308  24.520  1.00  0.00     0.161 C 
ATOM     25  C   UNL A   1      33.740  26.827  24.483  1.00  0.00     0.044 C 
ENDBRANCH  17  20
ENDBRANCH   9  16
ENDBRANCH   6   8
ENDBRANCH   5   6
ENDBRANCH   4   5
ENDBRANCH   3   4
ENDBRANCH   2   3
ENDBRANCH   1   2
BRANCH   1  26
ATOM     26  C   UNL A   1      40.741  21.722  26.204  1.00  0.00     0.261 C 
BRANCH  26  27
ATOM     27  O   UNL A   1      40.692  22.728  27.204  1.00  0.00    -0.460 OA
BRANCH  27  28
ATOM     28  C   UNL A   1      41.883  23.270  27.519  1.00  0.00     0.338 C 
ATOM     29  O   UNL A   1      42.998  22.785  27.382  1.00  0.00    -0.246 OA
BRANCH  28  30
ATOM     30  C   UNL A   1      41.578  24.492  28.250  1.00  0.00     0.060 A 
ATOM     31  C   UNL A   1      40.346  25.050  27.941  1.00  0.00     0.016 A 
ATOM     32  C   UNL A   1      42.572  25.186  28.967  1.00  0.00     0.016 A 
ATOM     33  C   UNL A   1      40.198  26.394  28.154  1.00  0.00     0.010 A 
ATOM     34  C   UNL A   1      42.408  26.535  29.201  1.00  0.00     0.010 A 
ATOM     35  C   UNL A   1      41.252  27.135  28.723  1.00  0.00    -0.014 A 
BRANCH  35  36
ATOM     36  C   UNL A   1      40.950  28.523  28.995  1.00  0.00     0.031 A 
ATOM     37  C   UNL A   1      41.987  29.399  28.409  1.00  0.00     0.074 A 
ATOM     38  C   UNL A   1      39.916  28.975  29.722  1.00  0.00     0.049 A 
ATOM     39  N   UNL A   1      42.951  29.970  29.048  1.00  0.00    -0.248 NA
ATOM     40  C   UNL A   1      42.148  29.392  26.947  1.00  0.00     0.031 C 
ATOM     41  C   UNL A   1      38.722  28.271  30.181  1.00  0.00     0.029 A 
ATOM     42  N   UNL A   1      39.717  30.242  30.166  1.00  0.00    -0.354 N 
ATOM     43  C   UNL A   1      43.727  30.585  28.080  1.00  0.00     0.074 A 
ATOM     44  C   UNL A   1      43.317  30.020  26.825  1.00  0.00     0.031 C 
ATOM     45  C   UNL A   1      37.827  29.180  30.644  1.00  0.00     0.029 A 
ATOM     46  C   UNL A   1      38.437  30.502  30.637  1.00  0.00     0.049 A 
ATOM     47  H   UNL A   1      40.426  30.925  30.154  1.00  0.00     0.167 HD
ATOM     48  C   UNL A   1      44.460  31.686  28.388  1.00  0.00     0.034 A 
ATOM     49  C   UNL A   1      37.927  31.732  30.923  1.00  0.00     0.034 A 
ATOM     50  C   UNL A   1      44.707  31.752  29.816  1.00  0.00     0.049 A 
ATOM     51  C   UNL A   1      39.086  32.623  31.200  1.00  0.00     0.074 A 
ATOM     52  C   UNL A   1      45.344  30.916  30.716  1.00  0.00     0.029 A 
ATOM     53  N   UNL A   1      43.917  32.581  30.584  1.00  0.00    -0.354 N 
ATOM     54  N   UNL A   1      39.863  32.475  32.239  1.00  0.00    -0.248 NA
ATOM     55  C   UNL A   1      39.690  33.335  30.081  1.00  0.00     0.031 C 
ATOM     56  C   UNL A   1      44.535  30.949  31.891  1.00  0.00     0.029 A 
ATOM     57  C   UNL A   1      43.501  31.863  31.681  1.00  0.00     0.049 A 
ATOM     58  H   UNL A   1      43.691  33.518  30.383  1.00  0.00     0.167 HD
ATOM     59  C   UNL A   1      41.150  32.671  31.763  1.00  0.00     0.074 A 
ATOM     60  C   UNL A   1      40.975  33.279  30.443  1.00  0.00     0.031 C 
ATOM     61  C   UNL A   1      42.227  32.068  32.351  1.00  0.00     0.034 A 
BRANCH  48  62
ATOM     62  C   UNL A   1      44.548  32.886  27.471  1.00  0.00     0.023 A 
ATOM     63  C   UNL A   1      43.871  34.043  27.892  1.00  0.00     0.031 A 
ATOM     64  C   UNL A   1      44.970  32.882  26.119  1.00  0.00     0.131 A 
ATOM     65  C   UNL A   1      43.509  35.039  26.971  1.00  0.00     0.055 A 
ATOM     66  C   UNL A   1      44.658  33.904  25.221  1.00  0.00     0.041 A 
ATOM     67  F   UNL A   1      45.638  31.870  25.557  1.00  0.00    -0.206 F 
ATOM     68  C   UNL A   1      43.888  34.973  25.634  1.00  0.00     0.022 A 
BRANCH  65  69
ATOM     69  S   UNL A   1      42.366  36.324  27.525  1.00  0.00     0.124 S 
ATOM     70  O   UNL A   1      42.565  37.345  26.502  1.00  0.00    -0.237 OA
ATOM     71  O   UNL A   1      41.089  35.620  27.495  1.00  0.00    -0.237 OA
ATOM     72  O   UNL A   1      42.862  36.663  28.856  1.00  0.00    -0.744 OA
ENDBRANCH  65  69
ENDBRANCH  48  62
BRANCH  49  73
ATOM     73  C   UNL A   1      36.560  32.245  30.610  1.00  0.00     0.023 A 
ATOM     74  C   UNL A   1      35.874  33.151  31.452  1.00  0.00     0.031 A 
ATOM     75  C   UNL A   1      36.012  32.046  29.323  1.00  0.00     0.131 A 
ATOM     76  C   UNL A   1      34.708  33.812  30.994  1.00  0.00     0.055 A 
ATOM     77  C   UNL A   1      34.863  32.702  28.876  1.00  0.00     0.041 A 
ATOM     78  F   UNL A   1      36.626  31.273  28.414  1.00  0.00    -0.206 F 
ATOM     79  C   UNL A   1      34.212  33.598  29.706  1.00  0.00     0.022 A 
BRANCH  76  80
ATOM     80  S   UNL A   1      33.862  35.051  32.033  1.00  0.00     0.124 S 
ATOM     81  O   UNL A   1      33.158  35.856  31.043  1.00  0.00    -0.237 OA
ATOM     82  O   UNL A   1      33.036  34.224  32.906  1.00  0.00    -0.237 OA
ATOM     83  O   UNL A   1      34.964  35.737  32.709  1.00  0.00    -0.744 OA
ENDBRANCH  76  80
ENDBRANCH  49  73
BRANCH  61  84
ATOM     84  C   UNL A   1      42.035  31.406  33.705  1.00  0.00     0.023 A 
ATOM     85  C   UNL A   1      42.076  32.071  34.954  1.00  0.00     0.031 A 
ATOM     86  C   UNL A   1      41.696  30.040  33.712  1.00  0.00     0.131 A 
ATOM     87  C   UNL A   1      41.805  31.362  36.144  1.00  0.00     0.055 A 
ATOM     88  C   UNL A   1      41.404  29.349  34.887  1.00  0.00     0.041 A 
ATOM     89  F   UNL A   1      41.617  29.353  32.561  1.00  0.00    -0.206 F 
ATOM     90  C   UNL A   1      41.466  30.006  36.109  1.00  0.00     0.022 A 
BRANCH  87  91
ATOM     91  S   UNL A   1      41.917  32.181  37.770  1.00  0.00     0.124 S 
ATOM     92  O   UNL A   1      42.690  33.387  37.494  1.00  0.00    -0.237 OA
ATOM     93  O   UNL A   1      40.513  32.388  38.117  1.00  0.00    -0.237 OA
ATOM     94  O   UNL A   1      42.606  31.193  38.601  1.00  0.00    -0.744 OA
ENDBRANCH  87  91
ENDBRANCH  61  84
ENDBRANCH  35  36
ENDBRANCH  28  30
ENDBRANCH  27  28
ENDBRANCH  26  27
ENDBRANCH   1  26
TORSDOF 19
ENDMDL
MODEL 2
REMARK VINA RESULT:     -11.7      3.795      9.762
REMARK SMILES C[C@H]1OCC[C@@H]1C(=O)Nc1sc2c(c1C(=O)OCCOCCOC(=O)c1ccc(-c3c4nc(c(-c5cc(S(=O)(=O)[O-])ccc5F)c5ccc([nH]5)c(-c5cc(S(=O)(=O)[O-])ccc5F)c5nc(c(-c6cc(S(=O)(=O)[O-])ccc6F)c6ccc3[nH]6)C=C5)C=C4)cc1)CCC2
REMARK SMILES IDX 21 1 20 2 19 3 18 4 17 5 15 6 16 7 14 8 10 9 11 10 12 11
REMARK SMILES IDX 13 12 91 13 89 14 90 15 9 16 7 17 8 18 6 20 1 21 2 22 3 23
REMARK SMILES IDX 4 24 5 25 22 26 23 27 24 28 25 29 26 30 27 31 88 32 28 33
REMARK SMILES IDX 87 34 29 35 30 36 31 37 81 38 32 39 86 40 80 41 82 42 33 43
REMARK SMILES IDX 85 44 79 45 78 46 34 48 66 49 46 50 65 51 47 52 50 53 64 54
REMARK SMILES IDX 83 55 48 56 49 57 63 59 84 60 51 61 35 62 36 63 44 64 37 65
REMARK SMILES IDX 43 66 45 67 42 68 38 69 39 70 40 71 41 72 67 73 68 74 76 75
REMARK SMILES IDX 69 76 75 77 77 78 74 79 70 80 71 81 72 82 73 83 52 84 53 85
REMARK SMILES IDX 61 86 54 87 60 88 62 89 59 90 55 91 56 92 57 93 58 94
REMARK H PARENT 9 19 82 47 50 58
REMARK Flexibility Score: inf
ROOT
ATOM      1  C   UNL A   1      33.723  32.389  27.712  1.00  0.00     0.202 C 
ENDROOT
BRANCH   1   2
ATOM      2  O   UNL A   1      34.350  31.170  27.342  1.00  0.00    -0.374 OA
BRANCH   2   3
ATOM      3  C   UNL A   1      33.481  30.019  27.408  1.00  0.00     0.202 C 
BRANCH   3   4
ATOM      4  C   UNL A   1      33.892  28.870  26.460  1.00  0.00     0.261 C 
BRANCH   4   5
ATOM      5  O   UNL A   1      33.323  27.587  26.854  1.00  0.00    -0.460 OA
BRANCH   5   6
ATOM      6  C   UNL A   1      31.956  27.572  27.031  1.00  0.00     0.341 C 
ATOM      7  O   UNL A   1      31.412  27.842  28.096  1.00  0.00    -0.246 OA
BRANCH   6   8
ATOM      8  C   UNL A   1      31.186  27.240  25.822  1.00  0.00     0.098 A 
ATOM      9  C   UNL A   1      30.619  25.992  25.556  1.00  0.00     0.110 A 
ATOM     10  S   UNL A   1      30.046  25.806  23.948  1.00  0.00    -0.122 S 
ATOM     11  C   UNL A   1      30.232  27.439  23.701  1.00  0.00     0.011 A 
ATOM     12  C   UNL A   1      30.830  28.106  24.739  1.00  0.00    -0.017 A 
ATOM     13  C   UNL A   1      29.823  28.287  22.562  1.00  0.00     0.047 C 
ATOM     14  C   UNL A   1      30.918  29.556  24.425  1.00  0.00     0.038 C 
ATOM     15  C   UNL A   1      29.939  29.696  23.211  1.00  0.00     0.010 C 
BRANCH   9  16
ATOM     16  N   UNL A   1      30.490  24.835  26.290  1.00  0.00    -0.317 N 
ATOM     17  C   UNL A   1      31.550  24.011  26.575  1.00  0.00     0.230 C 
ATOM     18  O   UNL A   1      31.537  23.453  27.682  1.00  0.00    -0.274 OA
ATOM     19  H   UNL A   1      29.599  24.588  26.625  1.00  0.00     0.170 HD
BRANCH  17  20
ATOM     20  C   UNL A   1      32.682  23.682  25.610  1.00  0.00     0.110 C 
ATOM     21  C   UNL A   1      33.369  21.982  23.895  1.00  0.00     0.039 C 
ATOM     22  C   UNL A   1      33.052  22.229  25.376  1.00  0.00     0.127 C 
ATOM     23  O   UNL A   1      34.262  21.979  26.106  1.00  0.00    -0.378 OA
ATOM     24  C   UNL A   1      34.957  23.211  26.262  1.00  0.00     0.161 C 
ATOM     25  C   UNL A   1      33.994  24.326  25.895  1.00  0.00     0.044 C 
ENDBRANCH  17  20
ENDBRANCH   9  16
ENDBRANCH   6   8
ENDBRANCH   5   6
ENDBRANCH   4   5
ENDBRANCH   3   4
ENDBRANCH   2   3
ENDBRANCH   1   2
BRANCH   1  26
ATOM     26  C   UNL A   1      34.577  33.400  28.473  1.00  0.00     0.261 C 
BRANCH  26  27
ATOM     27  O   UNL A   1      35.916  32.933  28.507  1.00  0.00    -0.460 OA
BRANCH  27  28
ATOM     28  C   UNL A   1      36.300  32.401  29.683  1.00  0.00     0.338 C 
ATOM     29  O   UNL A   1      35.864  32.639  30.801  1.00  0.00    -0.246 OA
BRANCH  28  30
ATOM     30  C   UNL A   1      37.489  31.615  29.389  1.00  0.00     0.060 A 
ATOM     31  C   UNL A   1      37.229  30.315  28.980  1.00  0.00     0.016 A 
ATOM     32  C   UNL A   1      38.771  32.050  29.778  1.00  0.00     0.016 A 
ATOM     33  C   UNL A   1      38.215  29.388  29.181  1.00  0.00     0.010 A 
ATOM     34  C   UNL A   1      39.769  31.116  29.957  1.00  0.00     0.010 A 
ATOM     35  C   UNL A   1      39.452  29.784  29.726  1.00  0.00    -0.014 A 
BRANCH  35  36
ATOM     36  C   UNL A   1      40.453  28.743  29.802  1.00  0.00     0.031 A 
ATOM     37  C   UNL A   1      40.804  28.469  31.212  1.00  0.00     0.074 A 
ATOM     38  C   UNL A   1      41.036  28.136  28.757  1.00  0.00     0.049 A 
ATOM     39  N   UNL A   1      41.861  28.880  31.827  1.00  0.00    -0.248 NA
ATOM     40  C   UNL A   1      39.747  27.957  32.098  1.00  0.00     0.031 C 
ATOM     41  C   UNL A   1      40.662  28.145  27.346  1.00  0.00     0.029 A 
ATOM     42  N   UNL A   1      42.114  27.310  28.785  1.00  0.00    -0.354 N 
ATOM     43  C   UNL A   1      41.703  28.484  33.144  1.00  0.00     0.074 A 
ATOM     44  C   UNL A   1      40.320  28.127  33.289  1.00  0.00     0.031 C 
ATOM     45  C   UNL A   1      41.367  27.184  26.697  1.00  0.00     0.029 A 
ATOM     46  C   UNL A   1      42.331  26.593  27.616  1.00  0.00     0.049 A 
ATOM     47  H   UNL A   1      42.696  27.226  29.574  1.00  0.00     0.167 HD
ATOM     48  C   UNL A   1      42.792  28.250  33.922  1.00  0.00     0.034 A 
ATOM     49  C   UNL A   1      43.194  25.550  27.468  1.00  0.00     0.034 A 
ATOM     50  C   UNL A   1      43.954  28.939  33.396  1.00  0.00     0.049 A 
ATOM     51  C   UNL A   1      44.226  25.696  28.530  1.00  0.00     0.074 A 
ATOM     52  C   UNL A   1      44.250  30.270  33.155  1.00  0.00     0.029 A 
ATOM     53  N   UNL A   1      44.862  28.222  32.645  1.00  0.00    -0.354 N 
ATOM     54  N   UNL A   1      45.088  26.676  28.553  1.00  0.00    -0.248 NA
ATOM     55  C   UNL A   1      43.977  25.069  29.822  1.00  0.00     0.031 C 
ATOM     56  C   UNL A   1      44.959  30.275  31.916  1.00  0.00     0.029 A 
ATOM     57  C   UNL A   1      45.134  28.951  31.510  1.00  0.00     0.049 A 
ATOM     58  H   UNL A   1      45.246  27.346  32.879  1.00  0.00     0.167 HD
ATOM     59  C   UNL A   1      45.155  27.073  29.880  1.00  0.00     0.074 A 
ATOM     60  C   UNL A   1      44.511  25.992  30.629  1.00  0.00     0.031 C 
ATOM     61  C   UNL A   1      45.466  28.358  30.225  1.00  0.00     0.034 A 
BRANCH  48  62
ATOM     62  C   UNL A   1      42.880  27.069  34.863  1.00  0.00     0.023 A 
ATOM     63  C   UNL A   1      43.650  25.978  34.425  1.00  0.00     0.031 A 
ATOM     64  C   UNL A   1      42.041  26.817  35.977  1.00  0.00     0.131 A 
ATOM     65  C   UNL A   1      43.458  24.698  34.969  1.00  0.00     0.055 A 
ATOM     66  C   UNL A   1      41.900  25.554  36.553  1.00  0.00     0.041 A 
ATOM     67  F   UNL A   1      41.253  27.742  36.532  1.00  0.00    -0.206 F 
ATOM     68  C   UNL A   1      42.580  24.475  36.024  1.00  0.00     0.022 A 
BRANCH  65  69
ATOM     69  S   UNL A   1      44.244  23.302  34.134  1.00  0.00     0.124 S 
ATOM     70  O   UNL A   1      44.301  22.319  35.210  1.00  0.00    -0.237 OA
ATOM     71  O   UNL A   1      43.298  23.028  33.058  1.00  0.00    -0.237 OA
ATOM     72  O   UNL A   1      45.532  23.845  33.710  1.00  0.00    -0.744 OA
ENDBRANCH  65  69
ENDBRANCH  48  62
BRANCH  49  73
ATOM     73  C   UNL A   1      42.964  24.277  26.723  1.00  0.00     0.023 A 
ATOM     74  C   UNL A   1      43.992  23.611  26.015  1.00  0.00     0.031 A 
ATOM     75  C   UNL A   1      41.767  23.554  26.919  1.00  0.00     0.131 A 
ATOM     76  C   UNL A   1      43.800  22.287  25.551  1.00  0.00     0.055 A 
ATOM     77  C   UNL A   1      41.584  22.248  26.460  1.00  0.00     0.041 A 
ATOM     78  F   UNL A   1      40.757  24.056  27.647  1.00  0.00    -0.206 F 
ATOM     79  C   UNL A   1      42.605  21.603  25.784  1.00  0.00     0.022 A 
BRANCH  76  80
ATOM     80  S   UNL A   1      45.147  21.382  24.716  1.00  0.00     0.124 S 
ATOM     81  O   UNL A   1      44.646  21.271  23.351  1.00  0.00    -0.237 OA
ATOM     82  O   UNL A   1      46.294  22.258  24.919  1.00  0.00    -0.237 OA
ATOM     83  O   UNL A   1      45.211  20.116  25.449  1.00  0.00    -0.744 OA
ENDBRANCH  76  80
ENDBRANCH  49  73
BRANCH  61  84
ATOM     84  C   UNL A   1      46.016  29.282  29.151  1.00  0.00     0.023 A 
ATOM     85  C   UNL A   1      45.272  30.270  28.462  1.00  0.00     0.031 A 
ATOM     86  C   UNL A   1      47.396  29.212  28.886  1.00  0.00     0.131 A 
ATOM     87  C   UNL A   1      45.912  31.123  27.538  1.00  0.00     0.055 A 
ATOM     88  C   UNL A   1      48.029  30.073  27.991  1.00  0.00     0.041 A 
ATOM     89  F   UNL A   1      48.166  28.313  29.521  1.00  0.00    -0.206 F 
ATOM     90  C   UNL A   1      47.287  31.027  27.306  1.00  0.00     0.022 A 
BRANCH  87  91
ATOM     91  S   UNL A   1      44.963  32.359  26.590  1.00  0.00     0.124 S 
ATOM     92  O   UNL A   1      44.432  33.247  27.618  1.00  0.00    -0.237 OA
ATOM     93  O   UNL A   1      45.980  32.933  25.712  1.00  0.00    -0.237 OA
ATOM     94  O   UNL A   1      43.952  31.554  25.900  1.00  0.00    -0.744 OA
ENDBRANCH  87  91
ENDBRANCH  61  84
ENDBRANCH  35  36
ENDBRANCH  28  30
ENDBRANCH  27  28
ENDBRANCH  26  27
ENDBRANCH   1  26
TORSDOF 19
ENDMDL
MODEL 3
REMARK VINA RESULT:     -11.4      4.191      9.296
REMARK SMILES C[C@H]1OCC[C@@H]1C(=O)Nc1sc2c(c1C(=O)OCCOCCOC(=O)c1ccc(-c3c4nc(c(-c5cc(S(=O)(=O)[O-])ccc5F)c5ccc([nH]5)c(-c5cc(S(=O)(=O)[O-])ccc5F)c5nc(c(-c6cc(S(=O)(=O)[O-])ccc6F)c6ccc3[nH]6)C=C5)C=C4)cc1)CCC2
REMARK SMILES IDX 21 1 20 2 19 3 18 4 17 5 15 6 16 7 14 8 10 9 11 10 12 11
REMARK SMILES IDX 13 12 91 13 89 14 90 15 9 16 7 17 8 18 6 20 1 21 2 22 3 23
REMARK SMILES IDX 4 24 5 25 22 26 23 27 24 28 25 29 26 30 27 31 88 32 28 33
REMARK SMILES IDX 87 34 29 35 30 36 31 37 81 38 32 39 86 40 80 41 82 42 33 43
REMARK SMILES IDX 85 44 79 45 78 46 34 48 66 49 46 50 65 51 47 52 50 53 64 54
REMARK SMILES IDX 83 55 48 56 49 57 63 59 84 60 51 61 35 62 36 63 44 64 37 65
REMARK SMILES IDX 43 66 45 67 42 68 38 69 39 70 40 71 41 72 67 73 68 74 76 75
REMARK SMILES IDX 69 76 75 77 77 78 74 79 70 80 71 81 72 82 73 83 52 84 53 85
REMARK SMILES IDX 61 86 54 87 60 88 62 89 59 90 55 91 56 92 57 93 58 94
REMARK H PARENT 9 19 82 47 50 58
REMARK Flexibility Score: inf
ROOT
ATOM      1  C   UNL A   1      34.902  31.944  28.655  1.00  0.00     0.202 C 
ENDROOT
BRANCH   1   2
ATOM      2  O   UNL A   1      34.899  31.190  27.451  1.00  0.00    -0.374 OA
BRANCH   2   3
ATOM      3  C   UNL A   1      34.271  29.896  27.571  1.00  0.00     0.202 C 
BRANCH   3   4
ATOM      4  C   UNL A   1      32.843  29.837  26.982  1.00  0.00     0.261 C 
BRANCH   4   5
ATOM      5  O   UNL A   1      32.143  28.606  27.330  1.00  0.00    -0.460 OA
BRANCH   5   6
ATOM      6  C   UNL A   1      32.336  27.549  26.466  1.00  0.00     0.341 C 
ATOM      7  O   UNL A   1      33.337  26.840  26.481  1.00  0.00    -0.246 OA
BRANCH   6   8
ATOM      8  C   UNL A   1      31.222  27.308  25.536  1.00  0.00     0.098 A 
ATOM      9  C   UNL A   1      30.431  26.157  25.519  1.00  0.00     0.110 A 
ATOM     10  S   UNL A   1      29.414  26.019  24.143  1.00  0.00    -0.122 S 
ATOM     11  C   UNL A   1      29.754  27.595  23.743  1.00  0.00     0.011 A 
ATOM     12  C   UNL A   1      30.706  28.188  24.532  1.00  0.00    -0.017 A 
ATOM     13  C   UNL A   1      29.171  28.465  22.701  1.00  0.00     0.047 C 
ATOM     14  C   UNL A   1      30.909  29.599  24.107  1.00  0.00     0.038 C 
ATOM     15  C   UNL A   1      29.662  29.856  23.195  1.00  0.00     0.010 C 
BRANCH   9  16
ATOM     16  N   UNL A   1      30.347  25.055  26.339  1.00  0.00    -0.317 N 
ATOM     17  C   UNL A   1      31.354  24.128  26.448  1.00  0.00     0.230 C 
ATOM     18  O   UNL A   1      31.526  23.623  27.567  1.00  0.00    -0.274 OA
ATOM     19  H   UNL A   1      29.530  24.925  26.870  1.00  0.00     0.170 HD
BRANCH  17  20
ATOM     20  C   UNL A   1      32.210  23.631  25.290  1.00  0.00     0.110 C 
ATOM     21  C   UNL A   1      32.027  22.479  23.066  1.00  0.00     0.039 C 
ATOM     22  C   UNL A   1      31.818  22.348  24.581  1.00  0.00     0.127 C 
ATOM     23  O   UNL A   1      32.713  21.324  25.037  1.00  0.00    -0.378 OA
ATOM     24  C   UNL A   1      33.922  21.941  25.465  1.00  0.00     0.161 C 
ATOM     25  C   UNL A   1      33.657  23.430  25.582  1.00  0.00     0.044 C 
ENDBRANCH  17  20
ENDBRANCH   9  16
ENDBRANCH   6   8
ENDBRANCH   5   6
ENDBRANCH   4   5
ENDBRANCH   3   4
ENDBRANCH   2   3
ENDBRANCH   1   2
BRANCH   1  26
ATOM     26  C   UNL A   1      35.853  31.480  29.756  1.00  0.00     0.261 C 
BRANCH  26  27
ATOM     27  O   UNL A   1      36.846  30.645  29.180  1.00  0.00    -0.460 OA
BRANCH  27  28
ATOM     28  C   UNL A   1      37.072  29.496  29.842  1.00  0.00     0.338 C 
ATOM     29  O   UNL A   1      36.540  29.094  30.868  1.00  0.00    -0.246 OA
BRANCH  28  30
ATOM     30  C   UNL A   1      38.233  28.896  29.202  1.00  0.00     0.060 A 
ATOM     31  C   UNL A   1      39.017  28.122  30.046  1.00  0.00     0.016 A 
ATOM     32  C   UNL A   1      38.669  29.316  27.930  1.00  0.00     0.016 A 
ATOM     33  C   UNL A   1      40.332  27.962  29.705  1.00  0.00     0.010 A 
ATOM     34  C   UNL A   1      39.990  29.132  27.580  1.00  0.00     0.010 A 
ATOM     35  C   UNL A   1      40.822  28.521  28.509  1.00  0.00    -0.014 A 
BRANCH  35  36
ATOM     36  C   UNL A   1      42.199  28.205  28.200  1.00  0.00     0.031 A 
ATOM     37  C   UNL A   1      42.284  26.902  27.505  1.00  0.00     0.074 A 
ATOM     38  C   UNL A   1      43.268  28.943  28.536  1.00  0.00     0.049 A 
ATOM     39  N   UNL A   1      42.637  25.780  28.033  1.00  0.00    -0.248 NA
ATOM     40  C   UNL A   1      41.631  26.778  26.194  1.00  0.00     0.031 C 
ATOM     41  C   UNL A   1      43.336  30.316  29.026  1.00  0.00     0.029 A 
ATOM     42  N   UNL A   1      44.574  28.583  28.445  1.00  0.00    -0.354 N 
ATOM     43  C   UNL A   1      42.455  24.829  27.043  1.00  0.00     0.074 A 
ATOM     44  C   UNL A   1      41.645  25.455  26.036  1.00  0.00     0.031 C 
ATOM     45  C   UNL A   1      44.624  30.740  28.974  1.00  0.00     0.029 A 
ATOM     46  C   UNL A   1      45.479  29.628  28.579  1.00  0.00     0.049 A 
ATOM     47  H   UNL A   1      44.858  27.653  28.296  1.00  0.00     0.167 HD
ATOM     48  C   UNL A   1      43.204  23.697  27.037  1.00  0.00     0.034 A 
ATOM     49  C   UNL A   1      46.812  29.569  28.308  1.00  0.00     0.034 A 
ATOM     50  C   UNL A   1      43.734  23.427  28.360  1.00  0.00     0.049 A 
ATOM     51  C   UNL A   1      47.208  28.138  28.418  1.00  0.00     0.074 A 
ATOM     52  C   UNL A   1      43.152  23.191  29.594  1.00  0.00     0.029 A 
ATOM     53  N   UNL A   1      45.037  23.784  28.635  1.00  0.00    -0.354 N 
ATOM     54  N   UNL A   1      47.197  27.483  29.547  1.00  0.00    -0.248 NA
ATOM     55  C   UNL A   1      47.114  27.304  27.226  1.00  0.00     0.031 C 
ATOM     56  C   UNL A   1      43.966  23.896  30.530  1.00  0.00     0.029 A 
ATOM     57  C   UNL A   1      45.044  24.450  29.838  1.00  0.00     0.049 A 
ATOM     58  H   UNL A   1      45.822  23.596  28.070  1.00  0.00     0.167 HD
ATOM     59  C   UNL A   1      46.666  26.239  29.243  1.00  0.00     0.074 A 
ATOM     60  C   UNL A   1      46.710  26.158  27.782  1.00  0.00     0.031 C 
ATOM     61  C   UNL A   1      45.980  25.510  30.174  1.00  0.00     0.034 A 
BRANCH  48  62
ATOM     62  C   UNL A   1      43.798  23.122  25.770  1.00  0.00     0.023 A 
ATOM     63  C   UNL A   1      43.605  21.746  25.559  1.00  0.00     0.031 A 
ATOM     64  C   UNL A   1      44.769  23.737  24.942  1.00  0.00     0.131 A 
ATOM     65  C   UNL A   1      44.447  21.027  24.696  1.00  0.00     0.055 A 
ATOM     66  C   UNL A   1      45.562  23.026  24.040  1.00  0.00     0.041 A 
ATOM     67  F   UNL A   1      45.069  25.039  24.998  1.00  0.00    -0.206 F 
ATOM     68  C   UNL A   1      45.432  21.655  23.941  1.00  0.00     0.022 A 
BRANCH  65  69
ATOM     69  S   UNL A   1      44.345  19.223  24.729  1.00  0.00     0.124 S 
ATOM     70  O   UNL A   1      45.234  18.906  25.842  1.00  0.00    -0.237 OA
ATOM     71  O   UNL A   1      42.921  19.010  24.959  1.00  0.00    -0.237 OA
ATOM     72  O   UNL A   1      44.829  18.835  23.407  1.00  0.00    -0.744 OA
ENDBRANCH  65  69
ENDBRANCH  48  62
BRANCH  49  73
ATOM     73  C   UNL A   1      47.647  30.595  27.615  1.00  0.00     0.023 A 
ATOM     74  C   UNL A   1      47.095  31.756  27.026  1.00  0.00     0.031 A 
ATOM     75  C   UNL A   1      49.053  30.569  27.756  1.00  0.00     0.131 A 
ATOM     76  C   UNL A   1      47.936  32.821  26.619  1.00  0.00     0.055 A 
ATOM     77  C   UNL A   1      49.876  31.623  27.354  1.00  0.00     0.041 A 
ATOM     78  F   UNL A   1      49.675  29.554  28.375  1.00  0.00    -0.206 F 
ATOM     79  C   UNL A   1      49.320  32.760  26.794  1.00  0.00     0.022 A 
BRANCH  76  80
ATOM     80  S   UNL A   1      47.234  34.363  25.940  1.00  0.00     0.124 S 
ATOM     81  O   UNL A   1      48.189  34.702  24.892  1.00  0.00    -0.237 OA
ATOM     82  O   UNL A   1      45.908  33.944  25.502  1.00  0.00    -0.237 OA
ATOM     83  O   UNL A   1      47.236  35.271  27.088  1.00  0.00    -0.744 OA
ENDBRANCH  76  80
ENDBRANCH  49  73
BRANCH  61  84
ATOM     84  C   UNL A   1      46.048  25.947  31.628  1.00  0.00     0.023 A 
ATOM     85  C   UNL A   1      44.963  26.459  32.380  1.00  0.00     0.031 A 
ATOM     86  C   UNL A   1      47.263  25.740  32.307  1.00  0.00     0.131 A 
ATOM     87  C   UNL A   1      45.129  26.759  33.749  1.00  0.00     0.055 A 
ATOM     88  C   UNL A   1      47.415  26.014  33.665  1.00  0.00     0.041 A 
ATOM     89  F   UNL A   1      48.327  25.236  31.660  1.00  0.00    -0.206 F 
ATOM     90  C   UNL A   1      46.351  26.533  34.390  1.00  0.00     0.022 A 
BRANCH  87  91
ATOM     91  S   UNL A   1      43.766  27.482  34.722  1.00  0.00     0.124 S 
ATOM     92  O   UNL A   1      42.822  26.379  34.862  1.00  0.00    -0.237 OA
ATOM     93  O   UNL A   1      44.441  27.905  35.946  1.00  0.00    -0.237 OA
ATOM     94  O   UNL A   1      43.294  28.583  33.879  1.00  0.00    -0.744 OA
ENDBRANCH  87  91
ENDBRANCH  61  84
ENDBRANCH  35  36
ENDBRANCH  28  30
ENDBRANCH  27  28
ENDBRANCH  26  27
ENDBRANCH   1  26
TORSDOF 19
ENDMDL
