MODEL 1
REMARK VINA RESULT:     -11.0      0.000      0.000
REMARK SMILES O=C(COCC(=O)OCCOCCOC(=O)c1ccc(-c2c3nc(c(-c4cc(S(=O)(=O)[O-])ccc4F)c4ccc([nH]4)c(-c4cc(S(=O)(=O)[O-])ccc4F)c4nc(c(-c5cc(S(=O)(=O)[O-])ccc5F)c5ccc2[nH]5)C=C4)C=C3)cc1)/[NH+]=C1\S[C@@H]2CS(=O)(=O)C[C@H]2N1c1ccc(Cl)cc1
REMARK SMILES IDX 10 1 9 2 8 3 6 4 7 5 5 6 4 7 3 8 2 9 1 10 80 11 81 12 82 14
REMARK SMILES IDX 90 15 83 16 89 17 84 18 88 19 85 20 86 21 87 22 91 23 92 24
REMARK SMILES IDX 97 25 93 26 96 27 94 28 95 29 11 30 12 31 13 32 14 33 15 34
REMARK SMILES IDX 16 35 17 36 18 37 79 38 19 39 78 40 20 41 21 42 22 43 72 44
REMARK SMILES IDX 23 45 77 46 71 47 73 48 24 49 76 50 70 51 69 52 25 54 57 55
REMARK SMILES IDX 37 56 56 57 38 58 41 59 55 60 74 61 39 62 40 63 54 65 75 66
REMARK SMILES IDX 42 67 26 68 27 69 35 70 28 71 34 72 36 73 33 74 29 75 30 76
REMARK SMILES IDX 31 77 32 78 58 79 59 80 67 81 60 82 66 83 68 84 65 85 61 86
REMARK SMILES IDX 62 87 63 88 64 89 43 90 44 91 52 92 45 93 51 94 53 95 50 96
REMARK SMILES IDX 46 97 47 98 48 99 49 100
REMARK H PARENT 80 13 73 53 41 64
REMARK Flexibility Score: inf
ROOT
ATOM      1  C   UNL A   1      36.062  21.824  24.104  1.00  0.00     0.202 C 
ENDROOT
BRANCH   1   2
ATOM      2  C   UNL A   1      35.050  21.424  25.180  1.00  0.00     0.261 C 
BRANCH   2   3
ATOM      3  O   UNL A   1      34.161  20.372  24.747  1.00  0.00    -0.462 OA
BRANCH   3   4
ATOM      4  C   UNL A   1      32.982  20.773  24.200  1.00  0.00     0.332 C 
ATOM      5  O   UNL A   1      32.300  20.108  23.429  1.00  0.00    -0.250 OA
BRANCH   4   6
ATOM      6  C   UNL A   1      32.572  22.194  24.634  1.00  0.00     0.283 C 
BRANCH   6   7
ATOM      7  O   UNL A   1      31.666  22.453  25.693  1.00  0.00    -0.358 OA
BRANCH   7   8
ATOM      8  C   UNL A   1      31.590  23.820  26.049  1.00  0.00     0.288 C 
BRANCH   8   9
ATOM      9  C   UNL A   1      32.882  24.619  26.396  1.00  0.00     0.333 C 
ATOM     10  O   UNL A   1      33.931  24.022  26.631  1.00  0.00    -0.244 OA
ATOM     11  N   UNL A   1      32.793  25.988  26.493  1.00  0.00    -0.202 N 
ATOM     12  C   UNL A   1      32.432  26.690  25.474  1.00  0.00     0.319 C 
ATOM     13  H   UNL A   1      33.008  26.435  27.344  1.00  0.00     0.316 HD
ATOM     14  S   UNL A   1      31.999  26.004  23.873  1.00  0.00    -0.029 SA
ATOM     15  N   UNL A   1      32.189  28.070  25.433  1.00  0.00    -0.217 N 
ATOM     16  C   UNL A   1      30.699  27.237  23.796  1.00  0.00     0.120 C 
ATOM     17  C   UNL A   1      31.519  28.480  24.180  1.00  0.00     0.212 C 
ATOM     18  C   UNL A   1      29.957  27.506  22.520  1.00  0.00     0.156 C 
ATOM     19  C   UNL A   1      30.492  29.582  24.177  1.00  0.00     0.188 C 
ATOM     20  S   UNL A   1      29.567  29.249  22.673  1.00  0.00     0.155 S 
ATOM     21  O   UNL A   1      28.164  29.406  22.965  1.00  0.00    -0.229 OA
ATOM     22  O   UNL A   1      30.222  29.951  21.585  1.00  0.00    -0.229 OA
BRANCH  15  23
ATOM     23  C   UNL A   1      32.907  29.019  26.179  1.00  0.00     0.128 A 
ATOM     24  C   UNL A   1      32.311  30.218  26.602  1.00  0.00     0.053 A 
ATOM     25  C   UNL A   1      34.252  28.813  26.535  1.00  0.00     0.053 A 
ATOM     26  C   UNL A   1      33.032  31.193  27.303  1.00  0.00     0.025 A 
ATOM     27  C   UNL A   1      34.981  29.785  27.235  1.00  0.00     0.025 A 
ATOM     28  C   UNL A   1      34.368  30.976  27.609  1.00  0.00     0.041 A 
ATOM     29  Cl  UNL A   1      35.259  32.179  28.456  1.00  0.00    -0.084 Cl
ENDBRANCH  15  23
ENDBRANCH   8   9
ENDBRANCH   7   8
ENDBRANCH   6   7
ENDBRANCH   4   6
ENDBRANCH   3   4
ENDBRANCH   2   3
ENDBRANCH   1   2
BRANCH   1  30
ATOM     30  O   UNL A   1      37.425  21.970  24.497  1.00  0.00    -0.374 OA
BRANCH  30  31
ATOM     31  C   UNL A   1      37.877  21.195  25.604  1.00  0.00     0.202 C 
BRANCH  31  32
ATOM     32  C   UNL A   1      39.346  21.375  26.039  1.00  0.00     0.261 C 
BRANCH  32  33
ATOM     33  O   UNL A   1      39.916  20.215  26.682  1.00  0.00    -0.460 OA
BRANCH  33  34
ATOM     34  C   UNL A   1      41.178  19.916  26.271  1.00  0.00     0.338 C 
ATOM     35  O   UNL A   1      41.537  18.899  25.700  1.00  0.00    -0.246 OA
BRANCH  34  36
ATOM     36  C   UNL A   1      42.077  21.080  26.417  1.00  0.00     0.060 A 
ATOM     37  C   UNL A   1      42.400  21.473  27.722  1.00  0.00     0.016 A 
ATOM     38  C   UNL A   1      42.490  21.848  25.328  1.00  0.00     0.016 A 
ATOM     39  C   UNL A   1      43.101  22.657  27.948  1.00  0.00     0.010 A 
ATOM     40  C   UNL A   1      43.189  23.044  25.558  1.00  0.00     0.010 A 
ATOM     41  C   UNL A   1      43.468  23.474  26.871  1.00  0.00    -0.014 A 
BRANCH  41  42
ATOM     42  C   UNL A   1      44.010  24.834  27.140  1.00  0.00     0.031 A 
ATOM     43  C   UNL A   1      43.107  25.882  27.736  1.00  0.00     0.074 A 
ATOM     44  C   UNL A   1      45.308  25.116  26.919  1.00  0.00     0.049 A 
ATOM     45  N   UNL A   1      43.362  27.133  28.025  1.00  0.00    -0.248 NA
ATOM     46  C   UNL A   1      41.733  25.460  28.049  1.00  0.00     0.031 C 
ATOM     47  C   UNL A   1      46.300  24.170  26.411  1.00  0.00     0.029 A 
ATOM     48  N   UNL A   1      46.016  26.280  27.096  1.00  0.00    -0.354 N 
ATOM     49  C   UNL A   1      42.180  27.651  28.548  1.00  0.00     0.074 A 
ATOM     50  C   UNL A   1      41.201  26.586  28.499  1.00  0.00     0.031 C 
ATOM     51  C   UNL A   1      47.487  24.791  26.316  1.00  0.00     0.029 A 
ATOM     52  C   UNL A   1      47.333  26.191  26.707  1.00  0.00     0.049 A 
ATOM     53  H   UNL A   1      45.619  27.101  27.468  1.00  0.00     0.167 HD
ATOM     54  C   UNL A   1      41.939  28.896  29.033  1.00  0.00     0.034 A 
ATOM     55  C   UNL A   1      48.295  27.135  26.643  1.00  0.00     0.034 A 
ATOM     56  C   UNL A   1      42.926  29.950  29.070  1.00  0.00     0.049 A 
ATOM     57  C   UNL A   1      47.972  28.544  27.084  1.00  0.00     0.074 A 
ATOM     58  C   UNL A   1      42.787  31.242  29.550  1.00  0.00     0.029 A 
ATOM     59  N   UNL A   1      44.228  29.843  28.599  1.00  0.00    -0.354 N 
ATOM     60  N   UNL A   1      46.849  29.022  27.569  1.00  0.00    -0.248 NA
ATOM     61  C   UNL A   1      49.047  29.539  26.970  1.00  0.00     0.031 C 
ATOM     62  C   UNL A   1      43.971  31.937  29.290  1.00  0.00     0.029 A 
ATOM     63  C   UNL A   1      44.886  31.057  28.736  1.00  0.00     0.049 A 
ATOM     64  H   UNL A   1      44.625  29.025  28.221  1.00  0.00     0.167 HD
ATOM     65  C   UNL A   1      47.097  30.365  27.851  1.00  0.00     0.074 A 
ATOM     66  C   UNL A   1      48.477  30.615  27.492  1.00  0.00     0.031 C 
ATOM     67  C   UNL A   1      46.261  31.302  28.365  1.00  0.00     0.034 A 
BRANCH  54  68
ATOM     68  C   UNL A   1      40.537  29.202  29.506  1.00  0.00     0.023 A 
ATOM     69  C   UNL A   1      40.208  29.268  30.871  1.00  0.00     0.031 A 
ATOM     70  C   UNL A   1      39.507  29.418  28.571  1.00  0.00     0.131 A 
ATOM     71  C   UNL A   1      38.877  29.473  31.261  1.00  0.00     0.055 A 
ATOM     72  C   UNL A   1      38.199  29.706  28.968  1.00  0.00     0.041 A 
ATOM     73  F   UNL A   1      39.752  29.344  27.255  1.00  0.00    -0.206 F 
ATOM     74  C   UNL A   1      37.875  29.720  30.320  1.00  0.00     0.022 A 
BRANCH  71  75
ATOM     75  S   UNL A   1      38.444  29.268  33.011  1.00  0.00     0.124 S 
ATOM     76  O   UNL A   1      38.328  30.656  33.451  1.00  0.00    -0.237 OA
ATOM     77  O   UNL A   1      37.198  28.514  32.940  1.00  0.00    -0.237 OA
ATOM     78  O   UNL A   1      39.584  28.539  33.564  1.00  0.00    -0.744 OA
ENDBRANCH  71  75
ENDBRANCH  54  68
BRANCH  55  79
ATOM     79  C   UNL A   1      49.644  26.805  26.096  1.00  0.00     0.023 A 
ATOM     80  C   UNL A   1      50.026  27.205  24.805  1.00  0.00     0.031 A 
ATOM     81  C   UNL A   1      50.551  26.027  26.838  1.00  0.00     0.131 A 
ATOM     82  C   UNL A   1      51.259  26.785  24.279  1.00  0.00     0.055 A 
ATOM     83  C   UNL A   1      51.801  25.664  26.333  1.00  0.00     0.041 A 
ATOM     84  F   UNL A   1      50.237  25.609  28.074  1.00  0.00    -0.206 F 
ATOM     85  C   UNL A   1      52.156  26.032  25.040  1.00  0.00     0.022 A 
BRANCH  82  86
ATOM     86  S   UNL A   1      51.632  27.152  22.541  1.00  0.00     0.124 S 
ATOM     87  O   UNL A   1      50.313  27.049  21.928  1.00  0.00    -0.237 OA
ATOM     88  O   UNL A   1      52.196  28.495  22.631  1.00  0.00    -0.237 OA
ATOM     89  O   UNL A   1      52.579  26.104  22.169  1.00  0.00    -0.744 OA
ENDBRANCH  82  86
ENDBRANCH  55  79
BRANCH  67  90
ATOM     90  C   UNL A   1      46.832  32.679  28.618  1.00  0.00     0.023 A 
ATOM     91  C   UNL A   1      46.744  33.709  27.666  1.00  0.00     0.031 A 
ATOM     92  C   UNL A   1      47.479  32.962  29.836  1.00  0.00     0.131 A 
ATOM     93  C   UNL A   1      47.337  34.956  27.925  1.00  0.00     0.055 A 
ATOM     94  C   UNL A   1      48.008  34.223  30.115  1.00  0.00     0.041 A 
ATOM     95  F   UNL A   1      47.599  32.017  30.782  1.00  0.00    -0.206 F 
ATOM     96  C   UNL A   1      47.949  35.225  29.151  1.00  0.00     0.022 A 
BRANCH  93  97
ATOM     97  S   UNL A   1      47.381  36.192  26.598  1.00  0.00     0.124 S 
ATOM     98  O   UNL A   1      48.809  36.476  26.496  1.00  0.00    -0.237 OA
ATOM     99  O   UNL A   1      46.793  35.468  25.476  1.00  0.00    -0.237 OA
ATOM    100  O   UNL A   1      46.568  37.287  27.122  1.00  0.00    -0.744 OA
ENDBRANCH  93  97
ENDBRANCH  67  90
ENDBRANCH  41  42
ENDBRANCH  34  36
ENDBRANCH  33  34
ENDBRANCH  32  33
ENDBRANCH  31  32
ENDBRANCH  30  31
ENDBRANCH   1  30
TORSDOF 21
ENDMDL
MODEL 2
REMARK VINA RESULT:     -10.7      1.813      2.094
REMARK SMILES O=C(COCC(=O)OCCOCCOC(=O)c1ccc(-c2c3nc(c(-c4cc(S(=O)(=O)[O-])ccc4F)c4ccc([nH]4)c(-c4cc(S(=O)(=O)[O-])ccc4F)c4nc(c(-c5cc(S(=O)(=O)[O-])ccc5F)c5ccc2[nH]5)C=C4)C=C3)cc1)/[NH+]=C1\S[C@@H]2CS(=O)(=O)C[C@H]2N1c1ccc(Cl)cc1
REMARK SMILES IDX 10 1 9 2 8 3 6 4 7 5 5 6 4 7 3 8 2 9 1 10 80 11 81 12 82 14
REMARK SMILES IDX 90 15 83 16 89 17 84 18 88 19 85 20 86 21 87 22 91 23 92 24
REMARK SMILES IDX 97 25 93 26 96 27 94 28 95 29 11 30 12 31 13 32 14 33 15 34
REMARK SMILES IDX 16 35 17 36 18 37 79 38 19 39 78 40 20 41 21 42 22 43 72 44
REMARK SMILES IDX 23 45 77 46 71 47 73 48 24 49 76 50 70 51 69 52 25 54 57 55
REMARK SMILES IDX 37 56 56 57 38 58 41 59 55 60 74 61 39 62 40 63 54 65 75 66
REMARK SMILES IDX 42 67 26 68 27 69 35 70 28 71 34 72 36 73 33 74 29 75 30 76
REMARK SMILES IDX 31 77 32 78 58 79 59 80 67 81 60 82 66 83 68 84 65 85 61 86
REMARK SMILES IDX 62 87 63 88 64 89 43 90 44 91 52 92 45 93 51 94 53 95 50 96
REMARK SMILES IDX 46 97 47 98 48 99 49 100
REMARK H PARENT 80 13 73 53 41 64
REMARK Flexibility Score: inf
ROOT
ATOM      1  C   UNL A   1      36.172  22.104  24.821  1.00  0.00     0.202 C 
ENDROOT
BRANCH   1   2
ATOM      2  C   UNL A   1      34.940  21.519  25.515  1.00  0.00     0.261 C 
BRANCH   2   3
ATOM      3  O   UNL A   1      34.183  20.637  24.660  1.00  0.00    -0.462 OA
BRANCH   3   4
ATOM      4  C   UNL A   1      32.868  20.482  24.974  1.00  0.00     0.332 C 
ATOM      5  O   UNL A   1      32.333  19.419  25.266  1.00  0.00    -0.250 OA
BRANCH   4   6
ATOM      6  C   UNL A   1      32.077  21.803  24.908  1.00  0.00     0.283 C 
BRANCH   6   7
ATOM      7  O   UNL A   1      31.630  22.500  26.058  1.00  0.00    -0.358 OA
BRANCH   7   8
ATOM      8  C   UNL A   1      31.627  23.906  25.900  1.00  0.00     0.288 C 
BRANCH   8   9
ATOM      9  C   UNL A   1      32.880  24.747  26.286  1.00  0.00     0.333 C 
ATOM     10  O   UNL A   1      33.944  24.186  26.542  1.00  0.00    -0.244 OA
ATOM     11  N   UNL A   1      32.740  26.112  26.392  1.00  0.00    -0.202 N 
ATOM     12  C   UNL A   1      32.378  26.809  25.371  1.00  0.00     0.319 C 
ATOM     13  H   UNL A   1      32.916  26.557  27.252  1.00  0.00     0.316 HD
ATOM     14  S   UNL A   1      32.010  26.123  23.753  1.00  0.00    -0.029 SA
ATOM     15  N   UNL A   1      32.087  28.180  25.335  1.00  0.00    -0.217 N 
ATOM     16  C   UNL A   1      30.668  27.309  23.655  1.00  0.00     0.120 C 
ATOM     17  C   UNL A   1      31.433  28.577  24.069  1.00  0.00     0.212 C 
ATOM     18  C   UNL A   1      29.950  27.563  22.363  1.00  0.00     0.156 C 
ATOM     19  C   UNL A   1      30.368  29.641  24.050  1.00  0.00     0.188 C 
ATOM     20  S   UNL A   1      29.493  29.289  22.520  1.00  0.00     0.155 S 
ATOM     21  O   UNL A   1      28.078  29.394  22.778  1.00  0.00    -0.229 OA
ATOM     22  O   UNL A   1      30.149  30.025  21.455  1.00  0.00    -0.229 OA
BRANCH  15  23
ATOM     23  C   UNL A   1      32.751  29.148  26.107  1.00  0.00     0.128 A 
ATOM     24  C   UNL A   1      34.070  28.952  26.547  1.00  0.00     0.053 A 
ATOM     25  C   UNL A   1      32.126  30.352  26.475  1.00  0.00     0.053 A 
ATOM     26  C   UNL A   1      34.723  29.889  27.358  1.00  0.00     0.025 A 
ATOM     27  C   UNL A   1      32.772  31.294  27.289  1.00  0.00     0.025 A 
ATOM     28  C   UNL A   1      34.067  31.053  27.734  1.00  0.00     0.041 A 
ATOM     29  Cl  UNL A   1      34.862  32.196  28.744  1.00  0.00    -0.084 Cl
ENDBRANCH  15  23
ENDBRANCH   8   9
ENDBRANCH   7   8
ENDBRANCH   6   7
ENDBRANCH   4   6
ENDBRANCH   3   4
ENDBRANCH   2   3
ENDBRANCH   1   2
BRANCH   1  30
ATOM     30  O   UNL A   1      37.407  22.085  25.534  1.00  0.00    -0.374 OA
BRANCH  30  31
ATOM     31  C   UNL A   1      38.289  20.993  25.291  1.00  0.00     0.202 C 
BRANCH  31  32
ATOM     32  C   UNL A   1      39.567  20.913  26.152  1.00  0.00     0.261 C 
BRANCH  32  33
ATOM     33  O   UNL A   1      40.579  20.030  25.622  1.00  0.00    -0.460 OA
BRANCH  33  34
ATOM     34  C   UNL A   1      41.643  19.845  26.450  1.00  0.00     0.338 C 
ATOM     35  O   UNL A   1      42.020  18.788  26.929  1.00  0.00    -0.246 OA
BRANCH  34  36
ATOM     36  C   UNL A   1      42.452  21.077  26.563  1.00  0.00     0.060 A 
ATOM     37  C   UNL A   1      42.756  21.521  27.857  1.00  0.00     0.016 A 
ATOM     38  C   UNL A   1      42.794  21.852  25.455  1.00  0.00     0.016 A 
ATOM     39  C   UNL A   1      43.366  22.759  28.051  1.00  0.00     0.010 A 
ATOM     40  C   UNL A   1      43.401  23.102  25.654  1.00  0.00     0.010 A 
ATOM     41  C   UNL A   1      43.659  23.580  26.954  1.00  0.00    -0.014 A 
BRANCH  41  42
ATOM     42  C   UNL A   1      44.097  24.982  27.190  1.00  0.00     0.031 A 
ATOM     43  C   UNL A   1      43.111  25.981  27.739  1.00  0.00     0.074 A 
ATOM     44  C   UNL A   1      45.376  25.351  26.982  1.00  0.00     0.049 A 
ATOM     45  N   UNL A   1      43.271  27.254  27.994  1.00  0.00    -0.248 NA
ATOM     46  C   UNL A   1      41.765  25.470  28.043  1.00  0.00     0.031 C 
ATOM     47  C   UNL A   1      46.441  24.464  26.519  1.00  0.00     0.029 A 
ATOM     48  N   UNL A   1      45.995  26.567  27.135  1.00  0.00    -0.354 N 
ATOM     49  C   UNL A   1      42.045  27.701  28.481  1.00  0.00     0.074 A 
ATOM     50  C   UNL A   1      41.145  26.568  28.449  1.00  0.00     0.031 C 
ATOM     51  C   UNL A   1      47.583  25.165  26.424  1.00  0.00     0.029 A 
ATOM     52  C   UNL A   1      47.322  26.562  26.770  1.00  0.00     0.049 A 
ATOM     53  H   UNL A   1      45.534  27.368  27.474  1.00  0.00     0.167 HD
ATOM     54  C   UNL A   1      41.707  28.939  28.923  1.00  0.00     0.034 A 
ATOM     55  C   UNL A   1      48.216  27.570  26.693  1.00  0.00     0.034 A 
ATOM     56  C   UNL A   1      42.615  30.062  28.944  1.00  0.00     0.049 A 
ATOM     57  C   UNL A   1      47.785  28.965  27.084  1.00  0.00     0.074 A 
ATOM     58  C   UNL A   1      42.375  31.355  29.382  1.00  0.00     0.029 A 
ATOM     59  N   UNL A   1      43.930  30.035  28.498  1.00  0.00    -0.354 N 
ATOM     60  N   UNL A   1      46.622  29.375  27.537  1.00  0.00    -0.248 NA
ATOM     61  C   UNL A   1      48.787  30.031  26.957  1.00  0.00     0.031 C 
ATOM     62  C   UNL A   1      43.512  32.125  29.120  1.00  0.00     0.029 A 
ATOM     63  C   UNL A   1      44.497  31.297  28.608  1.00  0.00     0.049 A 
ATOM     64  H   UNL A   1      44.392  29.237  28.152  1.00  0.00     0.167 HD
ATOM     65  C   UNL A   1      46.768  30.740  27.781  1.00  0.00     0.074 A 
ATOM     66  C   UNL A   1      48.133  31.078  27.437  1.00  0.00     0.031 C 
ATOM     67  C   UNL A   1      45.857  31.629  28.253  1.00  0.00     0.034 A 
BRANCH  54  68
ATOM     68  C   UNL A   1      40.278  29.157  29.364  1.00  0.00     0.023 A 
ATOM     69  C   UNL A   1      39.894  29.080  30.714  1.00  0.00     0.031 A 
ATOM     70  C   UNL A   1      39.279  29.435  28.412  1.00  0.00     0.131 A 
ATOM     71  C   UNL A   1      38.542  29.208  31.066  1.00  0.00     0.055 A 
ATOM     72  C   UNL A   1      37.948  29.645  28.779  1.00  0.00     0.041 A 
ATOM     73  F   UNL A   1      39.579  29.498  27.106  1.00  0.00    -0.206 F 
ATOM     74  C   UNL A   1      37.571  29.517  30.111  1.00  0.00     0.022 A 
BRANCH  71  75
ATOM     75  S   UNL A   1      38.047  28.819  32.767  1.00  0.00     0.124 S 
ATOM     76  O   UNL A   1      39.073  29.518  33.539  1.00  0.00    -0.237 OA
ATOM     77  O   UNL A   1      36.703  29.378  32.840  1.00  0.00    -0.237 OA
ATOM     78  O   UNL A   1      38.121  27.361  32.822  1.00  0.00    -0.744 OA
ENDBRANCH  71  75
ENDBRANCH  54  68
BRANCH  55  79
ATOM     79  C   UNL A   1      49.595  27.322  26.178  1.00  0.00     0.023 A 
ATOM     80  C   UNL A   1      50.680  27.150  27.052  1.00  0.00     0.031 A 
ATOM     81  C   UNL A   1      49.857  27.316  24.796  1.00  0.00     0.131 A 
ATOM     82  C   UNL A   1      51.981  27.029  26.537  1.00  0.00     0.055 A 
ATOM     83  C   UNL A   1      51.144  27.133  24.288  1.00  0.00     0.041 A 
ATOM     84  F   UNL A   1      48.859  27.485  23.914  1.00  0.00    -0.206 F 
ATOM     85  C   UNL A   1      52.218  27.002  25.161  1.00  0.00     0.022 A 
BRANCH  82  86
ATOM     86  S   UNL A   1      53.377  27.008  27.696  1.00  0.00     0.124 S 
ATOM     87  O   UNL A   1      54.237  28.047  27.142  1.00  0.00    -0.237 OA
ATOM     88  O   UNL A   1      52.722  27.323  28.962  1.00  0.00    -0.237 OA
ATOM     89  O   UNL A   1      53.890  25.645  27.584  1.00  0.00    -0.744 OA
ENDBRANCH  82  86
ENDBRANCH  55  79
BRANCH  67  90
ATOM     90  C   UNL A   1      46.324  33.051  28.472  1.00  0.00     0.023 A 
ATOM     91  C   UNL A   1      46.948  33.455  29.666  1.00  0.00     0.031 A 
ATOM     92  C   UNL A   1      46.140  34.018  27.467  1.00  0.00     0.131 A 
ATOM     93  C   UNL A   1      47.315  34.798  29.845  1.00  0.00     0.055 A 
ATOM     94  C   UNL A   1      46.568  35.337  27.624  1.00  0.00     0.041 A 
ATOM     95  F   UNL A   1      45.546  33.694  26.307  1.00  0.00    -0.206 F 
ATOM     96  C   UNL A   1      47.148  35.735  28.823  1.00  0.00     0.022 A 
BRANCH  93  97
ATOM     97  S   UNL A   1      47.929  35.325  31.469  1.00  0.00     0.124 S 
ATOM     98  O   UNL A   1      47.038  34.609  32.376  1.00  0.00    -0.237 OA
ATOM     99  O   UNL A   1      49.315  34.868  31.442  1.00  0.00    -0.237 OA
ATOM    100  O   UNL A   1      47.756  36.776  31.447  1.00  0.00    -0.744 OA
ENDBRANCH  93  97
ENDBRANCH  67  90
ENDBRANCH  41  42
ENDBRANCH  34  36
ENDBRANCH  33  34
ENDBRANCH  32  33
ENDBRANCH  31  32
ENDBRANCH  30  31
ENDBRANCH   1  30
TORSDOF 21
ENDMDL
MODEL 3
REMARK VINA RESULT:     -10.7      5.919     10.792
REMARK SMILES O=C(COCC(=O)OCCOCCOC(=O)c1ccc(-c2c3nc(c(-c4cc(S(=O)(=O)[O-])ccc4F)c4ccc([nH]4)c(-c4cc(S(=O)(=O)[O-])ccc4F)c4nc(c(-c5cc(S(=O)(=O)[O-])ccc5F)c5ccc2[nH]5)C=C4)C=C3)cc1)/[NH+]=C1\S[C@@H]2CS(=O)(=O)C[C@H]2N1c1ccc(Cl)cc1
REMARK SMILES IDX 10 1 9 2 8 3 6 4 7 5 5 6 4 7 3 8 2 9 1 10 80 11 81 12 82 14
REMARK SMILES IDX 90 15 83 16 89 17 84 18 88 19 85 20 86 21 87 22 91 23 92 24
REMARK SMILES IDX 97 25 93 26 96 27 94 28 95 29 11 30 12 31 13 32 14 33 15 34
REMARK SMILES IDX 16 35 17 36 18 37 79 38 19 39 78 40 20 41 21 42 22 43 72 44
REMARK SMILES IDX 23 45 77 46 71 47 73 48 24 49 76 50 70 51 69 52 25 54 57 55
REMARK SMILES IDX 37 56 56 57 38 58 41 59 55 60 74 61 39 62 40 63 54 65 75 66
REMARK SMILES IDX 42 67 26 68 27 69 35 70 28 71 34 72 36 73 33 74 29 75 30 76
REMARK SMILES IDX 31 77 32 78 58 79 59 80 67 81 60 82 66 83 68 84 65 85 61 86
REMARK SMILES IDX 62 87 63 88 64 89 43 90 44 91 52 92 45 93 51 94 53 95 50 96
REMARK SMILES IDX 46 97 47 98 48 99 49 100
REMARK H PARENT 80 13 73 53 41 64
REMARK Flexibility Score: inf
ROOT
ATOM      1  C   UNL A   1      34.020  35.598  28.476  1.00  0.00     0.202 C 
ENDROOT
BRANCH   1   2
ATOM      2  C   UNL A   1      33.323  36.610  29.390  1.00  0.00     0.261 C 
BRANCH   2   3
ATOM      3  O   UNL A   1      32.255  36.022  30.161  1.00  0.00    -0.462 OA
BRANCH   3   4
ATOM      4  C   UNL A   1      32.360  36.135  31.513  1.00  0.00     0.332 C 
ATOM      5  O   UNL A   1      31.444  36.438  32.269  1.00  0.00    -0.250 OA
BRANCH   4   6
ATOM      6  C   UNL A   1      33.786  35.861  32.028  1.00  0.00     0.283 C 
BRANCH   6   7
ATOM      7  O   UNL A   1      34.328  34.558  32.161  1.00  0.00    -0.358 OA
BRANCH   7   8
ATOM      8  C   UNL A   1      35.710  34.549  32.462  1.00  0.00     0.288 C 
BRANCH   8   9
ATOM      9  C   UNL A   1      36.208  34.134  33.880  1.00  0.00     0.333 C 
ATOM     10  O   UNL A   1      35.465  33.509  34.634  1.00  0.00    -0.244 OA
ATOM     11  N   UNL A   1      37.461  34.543  34.274  1.00  0.00    -0.202 N 
ATOM     12  C   UNL A   1      38.503  34.169  33.615  1.00  0.00     0.319 C 
ATOM     13  H   UNL A   1      37.561  35.122  35.063  1.00  0.00     0.316 HD
ATOM     14  S   UNL A   1      38.460  33.130  32.153  1.00  0.00    -0.029 SA
ATOM     15  N   UNL A   1      39.829  34.577  33.816  1.00  0.00    -0.217 N 
ATOM     16  C   UNL A   1      39.765  34.164  31.488  1.00  0.00     0.120 C 
ATOM     17  C   UNL A   1      40.711  34.171  32.700  1.00  0.00     0.212 C 
ATOM     18  C   UNL A   1      40.531  33.757  30.263  1.00  0.00     0.156 C 
ATOM     19  C   UNL A   1      41.842  35.056  32.247  1.00  0.00     0.188 C 
ATOM     20  S   UNL A   1      42.143  34.478  30.573  1.00  0.00     0.155 S 
ATOM     21  O   UNL A   1      42.328  35.630  29.726  1.00  0.00    -0.229 OA
ATOM     22  O   UNL A   1      43.109  33.397  30.644  1.00  0.00    -0.229 OA
BRANCH  15  23
ATOM     23  C   UNL A   1      40.386  34.858  35.075  1.00  0.00     0.128 A 
ATOM     24  C   UNL A   1      40.798  33.829  35.937  1.00  0.00     0.053 A 
ATOM     25  C   UNL A   1      40.554  36.178  35.528  1.00  0.00     0.053 A 
ATOM     26  C   UNL A   1      41.308  34.097  37.213  1.00  0.00     0.025 A 
ATOM     27  C   UNL A   1      41.062  36.455  36.805  1.00  0.00     0.025 A 
ATOM     28  C   UNL A   1      41.429  35.410  37.647  1.00  0.00     0.041 A 
ATOM     29  Cl  UNL A   1      42.041  35.740  39.220  1.00  0.00    -0.084 Cl
ENDBRANCH  15  23
ENDBRANCH   8   9
ENDBRANCH   7   8
ENDBRANCH   6   7
ENDBRANCH   4   6
ENDBRANCH   3   4
ENDBRANCH   2   3
ENDBRANCH   1   2
BRANCH   1  30
ATOM     30  O   UNL A   1      33.224  34.562  27.905  1.00  0.00    -0.374 OA
BRANCH  30  31
ATOM     31  C   UNL A   1      33.435  33.235  28.378  1.00  0.00     0.202 C 
BRANCH  31  32
ATOM     32  C   UNL A   1      34.895  32.747  28.486  1.00  0.00     0.261 C 
BRANCH  32  33
ATOM     33  O   UNL A   1      35.092  31.685  29.442  1.00  0.00    -0.460 OA
BRANCH  33  34
ATOM     34  C   UNL A   1      35.577  30.533  28.902  1.00  0.00     0.338 C 
ATOM     35  O   UNL A   1      35.088  29.895  27.985  1.00  0.00    -0.246 OA
BRANCH  34  36
ATOM     36  C   UNL A   1      36.922  30.222  29.431  1.00  0.00     0.060 A 
ATOM     37  C   UNL A   1      38.006  30.883  28.840  1.00  0.00     0.016 A 
ATOM     38  C   UNL A   1      37.139  29.223  30.380  1.00  0.00     0.016 A 
ATOM     39  C   UNL A   1      39.313  30.521  29.164  1.00  0.00     0.010 A 
ATOM     40  C   UNL A   1      38.456  28.854  30.698  1.00  0.00     0.010 A 
ATOM     41  C   UNL A   1      39.551  29.476  30.066  1.00  0.00    -0.014 A 
BRANCH  41  42
ATOM     42  C   UNL A   1      40.936  28.955  30.227  1.00  0.00     0.031 A 
ATOM     43  C   UNL A   1      41.821  29.531  31.302  1.00  0.00     0.074 A 
ATOM     44  C   UNL A   1      41.381  27.934  29.469  1.00  0.00     0.049 A 
ATOM     45  N   UNL A   1      43.063  29.245  31.598  1.00  0.00    -0.248 NA
ATOM     46  C   UNL A   1      41.221  30.566  32.157  1.00  0.00     0.031 C 
ATOM     47  C   UNL A   1      40.600  27.244  28.444  1.00  0.00     0.029 A 
ATOM     48  N   UNL A   1      42.599  27.297  29.447  1.00  0.00    -0.354 N 
ATOM     49  C   UNL A   1      43.398  30.069  32.669  1.00  0.00     0.074 A 
ATOM     50  C   UNL A   1      42.237  30.890  32.942  1.00  0.00     0.031 C 
ATOM     51  C   UNL A   1      41.358  26.282  27.892  1.00  0.00     0.029 A 
ATOM     52  C   UNL A   1      42.693  26.318  28.486  1.00  0.00     0.049 A 
ATOM     53  H   UNL A   1      43.334  27.521  30.062  1.00  0.00     0.167 HD
ATOM     54  C   UNL A   1      44.562  30.128  33.366  1.00  0.00     0.034 A 
ATOM     55  C   UNL A   1      43.742  25.557  28.107  1.00  0.00     0.034 A 
ATOM     56  C   UNL A   1      45.713  29.306  33.078  1.00  0.00     0.049 A 
ATOM     57  C   UNL A   1      45.063  25.719  28.824  1.00  0.00     0.074 A 
ATOM     58  C   UNL A   1      46.936  29.279  33.729  1.00  0.00     0.029 A 
ATOM     59  N   UNL A   1      45.795  28.376  32.049  1.00  0.00    -0.354 N 
ATOM     60  N   UNL A   1      45.367  26.506  29.830  1.00  0.00    -0.248 NA
ATOM     61  C   UNL A   1      46.179  24.887  28.355  1.00  0.00     0.031 C 
ATOM     62  C   UNL A   1      47.781  28.402  33.043  1.00  0.00     0.029 A 
ATOM     63  C   UNL A   1      47.060  27.805  32.021  1.00  0.00     0.049 A 
ATOM     64  H   UNL A   1      45.062  28.155  31.430  1.00  0.00     0.167 HD
ATOM     65  C   UNL A   1      46.701  26.236  30.134  1.00  0.00     0.074 A 
ATOM     66  C   UNL A   1      47.136  25.207  29.214  1.00  0.00     0.031 C 
ATOM     67  C   UNL A   1      47.490  26.786  31.092  1.00  0.00     0.034 A 
BRANCH  54  68
ATOM     68  C   UNL A   1      44.665  31.157  34.467  1.00  0.00     0.023 A 
ATOM     69  C   UNL A   1      44.367  30.848  35.806  1.00  0.00     0.031 A 
ATOM     70  C   UNL A   1      45.056  32.475  34.169  1.00  0.00     0.131 A 
ATOM     71  C   UNL A   1      44.398  31.856  36.781  1.00  0.00     0.055 A 
ATOM     72  C   UNL A   1      45.166  33.454  35.159  1.00  0.00     0.041 A 
ATOM     73  F   UNL A   1      45.330  32.838  32.907  1.00  0.00    -0.206 F 
ATOM     74  C   UNL A   1      44.822  33.150  36.472  1.00  0.00     0.022 A 
BRANCH  71  75
ATOM     75  S   UNL A   1      43.735  31.490  38.430  1.00  0.00     0.124 S 
ATOM     76  O   UNL A   1      43.967  32.753  39.127  1.00  0.00    -0.237 OA
ATOM     77  O   UNL A   1      42.343  31.164  38.144  1.00  0.00    -0.237 OA
ATOM     78  O   UNL A   1      44.556  30.372  38.890  1.00  0.00    -0.744 OA
ENDBRANCH  71  75
ENDBRANCH  54  68
BRANCH  55  79
ATOM     79  C   UNL A   1      43.615  24.609  26.961  1.00  0.00     0.023 A 
ATOM     80  C   UNL A   1      43.030  23.343  27.123  1.00  0.00     0.031 A 
ATOM     81  C   UNL A   1      44.137  24.934  25.696  1.00  0.00     0.131 A 
ATOM     82  C   UNL A   1      43.025  22.432  26.054  1.00  0.00     0.055 A 
ATOM     83  C   UNL A   1      44.074  24.049  24.619  1.00  0.00     0.041 A 
ATOM     84  F   UNL A   1      44.715  26.127  25.485  1.00  0.00    -0.206 F 
ATOM     85  C   UNL A   1      43.527  22.783  24.799  1.00  0.00     0.022 A 
BRANCH  82  86
ATOM     86  S   UNL A   1      42.442  20.741  26.356  1.00  0.00     0.124 S 
ATOM     87  O   UNL A   1      43.546  19.949  25.826  1.00  0.00    -0.237 OA
ATOM     88  O   UNL A   1      42.282  20.731  27.806  1.00  0.00    -0.237 OA
ATOM     89  O   UNL A   1      41.198  20.670  25.593  1.00  0.00    -0.744 OA
ENDBRANCH  82  86
ENDBRANCH  55  79
BRANCH  67  90
ATOM     90  C   UNL A   1      48.896  26.247  31.227  1.00  0.00     0.023 A 
ATOM     91  C   UNL A   1      49.216  25.214  32.125  1.00  0.00     0.031 A 
ATOM     92  C   UNL A   1      49.935  26.780  30.441  1.00  0.00     0.131 A 
ATOM     93  C   UNL A   1      50.546  24.783  32.254  1.00  0.00     0.055 A 
ATOM     94  C   UNL A   1      51.244  26.302  30.525  1.00  0.00     0.041 A 
ATOM     95  F   UNL A   1      49.693  27.772  29.569  1.00  0.00    -0.206 F 
ATOM     96  C   UNL A   1      51.557  25.306  31.444  1.00  0.00     0.022 A 
BRANCH  93  97
ATOM     97  S   UNL A   1      50.956  23.595  33.562  1.00  0.00     0.124 S 
ATOM     98  O   UNL A   1      50.269  22.391  33.105  1.00  0.00    -0.237 OA
ATOM     99  O   UNL A   1      52.414  23.558  33.505  1.00  0.00    -0.237 OA
ATOM    100  O   UNL A   1      50.400  24.206  34.767  1.00  0.00    -0.744 OA
ENDBRANCH  93  97
ENDBRANCH  67  90
ENDBRANCH  41  42
ENDBRANCH  34  36
ENDBRANCH  33  34
ENDBRANCH  32  33
ENDBRANCH  31  32
ENDBRANCH  30  31
ENDBRANCH   1  30
TORSDOF 21
ENDMDL
