MODEL 1
REMARK VINA RESULT:     -12.2      0.000      0.000
REMARK SMILES Cc1c(NC(=O)[C@@H]2CC=CC[C@@H]2C(=O)OCCOCCOC(=O)c2ccc(-c3c4nc(c(-c5cc(S(=O)(=O)[O-])ccc5F)c5ccc([nH]5)c(-c5cc(S(=O)(=O)[O-])ccc5F)c5nc(c(-c6cc(S(=O)(=O)[O-])ccc6F)c6ccc3[nH]6)C=C5)C=C4)cc2)cccc1C(=O)N1CCOCC1
REMARK SMILES IDX 18 1 17 2 16 3 15 4 13 5 14 6 12 7 7 8 8 9 9 10 11 11 10 12
REMARK SMILES IDX 5 13 4 14 6 16 3 17 1 18 2 19 90 20 87 21 89 22 88 23 91 24
REMARK SMILES IDX 92 25 93 26 94 27 98 28 95 29 97 30 96 31 19 32 20 33 21 34
REMARK SMILES IDX 22 35 23 36 24 37 25 38 86 39 26 40 85 41 27 42 28 43 29 44
REMARK SMILES IDX 79 45 30 46 84 47 78 48 80 49 31 50 83 51 77 52 76 53 32 55
REMARK SMILES IDX 64 56 44 57 63 58 45 59 48 60 62 61 81 62 46 63 47 64 61 66
REMARK SMILES IDX 82 67 49 68 33 69 34 70 42 71 35 72 41 73 43 74 40 75 36 76
REMARK SMILES IDX 37 77 38 78 39 79 65 80 66 81 74 82 67 83 73 84 75 85 72 86
REMARK SMILES IDX 68 87 69 88 70 89 71 90 50 91 51 92 59 93 52 94 58 95 60 96
REMARK SMILES IDX 57 97 53 98 54 99 55 100 56 101
REMARK H PARENT 4 15 80 54 48 65
REMARK Flexibility Score: inf
ROOT
ATOM      1  O   UNL A   1      37.083  21.883  24.903  1.00  0.00    -0.374 OA
ENDROOT
BRANCH   1   2
ATOM      2  C   UNL A   1      35.859  21.676  24.216  1.00  0.00     0.202 C 
BRANCH   2   3
ATOM      3  C   UNL A   1      35.353  20.351  24.678  1.00  0.00     0.261 C 
BRANCH   3   4
ATOM      4  O   UNL A   1      34.280  20.418  25.636  1.00  0.00    -0.463 OA
BRANCH   4   5
ATOM      5  C   UNL A   1      33.125  21.106  25.444  1.00  0.00     0.310 C 
ATOM      6  O   UNL A   1      32.487  21.172  24.420  1.00  0.00    -0.252 OA
BRANCH   5   7
ATOM      7  C   UNL A   1      32.709  21.763  26.767  1.00  0.00     0.116 C 
ATOM      8  C   UNL A   1      32.111  23.203  26.612  1.00  0.00     0.097 C 
ATOM      9  C   UNL A   1      33.150  24.163  25.984  1.00  0.00     0.041 C 
ATOM     10  C   UNL A   1      34.523  23.978  26.577  1.00  0.00    -0.030 C 
ATOM     11  C   UNL A   1      33.943  21.803  27.675  1.00  0.00     0.043 C 
ATOM     12  C   UNL A   1      34.867  22.946  27.361  1.00  0.00    -0.030 C 
BRANCH   8  13
ATOM     13  C   UNL A   1      30.761  23.093  25.908  1.00  0.00     0.228 C 
ATOM     14  N   UNL A   1      30.473  23.528  24.660  1.00  0.00    -0.326 N 
ATOM     15  H   UNL A   1      29.731  23.029  24.246  1.00  0.00     0.169 HD
ATOM     16  O   UNL A   1      29.789  22.648  26.530  1.00  0.00    -0.274 OA
BRANCH  14  17
ATOM     17  C   UNL A   1      30.990  24.529  23.820  1.00  0.00     0.044 A 
ATOM     18  C   UNL A   1      29.759  26.220  25.229  1.00  0.00     0.047 C 
ATOM     19  C   UNL A   1      30.785  25.893  24.178  1.00  0.00    -0.015 A 
ATOM     20  C   UNL A   1      31.529  26.895  23.510  1.00  0.00     0.045 A 
ATOM     21  C   UNL A   1      31.795  24.220  22.725  1.00  0.00     0.026 A 
ATOM     22  C   UNL A   1      32.282  26.531  22.376  1.00  0.00     0.014 A 
ATOM     23  C   UNL A   1      32.381  25.213  21.962  1.00  0.00     0.003 A 
BRANCH  20  24
ATOM     24  C   UNL A   1      31.537  28.372  23.792  1.00  0.00     0.254 C 
ATOM     25  O   UNL A   1      30.836  29.110  23.093  1.00  0.00    -0.269 OA
ATOM     26  N   UNL A   1      32.247  28.909  24.854  1.00  0.00    -0.334 N 
ATOM     27  C   UNL A   1      33.696  28.788  25.052  1.00  0.00     0.148 C 
ATOM     28  C   UNL A   1      31.652  30.060  25.521  1.00  0.00     0.148 C 
ATOM     29  C   UNL A   1      34.076  28.950  26.538  1.00  0.00     0.181 C 
ATOM     30  C   UNL A   1      32.032  30.048  26.996  1.00  0.00     0.181 C 
ATOM     31  O   UNL A   1      33.463  30.110  27.132  1.00  0.00    -0.378 OA
ENDBRANCH  20  24
ENDBRANCH  14  17
ENDBRANCH   8  13
ENDBRANCH   5   7
ENDBRANCH   4   5
ENDBRANCH   3   4
ENDBRANCH   2   3
ENDBRANCH   1   2
BRANCH   1  32
ATOM     32  C   UNL A   1      37.870  20.730  25.080  1.00  0.00     0.202 C 
BRANCH  32  33
ATOM     33  C   UNL A   1      39.180  21.015  25.824  1.00  0.00     0.261 C 
BRANCH  33  34
ATOM     34  O   UNL A   1      39.106  22.281  26.515  1.00  0.00    -0.460 OA
BRANCH  34  35
ATOM     35  C   UNL A   1      40.273  22.983  26.598  1.00  0.00     0.338 C 
ATOM     36  O   UNL A   1      41.388  22.494  26.512  1.00  0.00    -0.246 OA
BRANCH  35  37
ATOM     37  C   UNL A   1      39.998  24.406  26.943  1.00  0.00     0.060 A 
ATOM     38  C   UNL A   1      40.646  25.449  26.251  1.00  0.00     0.016 A 
ATOM     39  C   UNL A   1      39.327  24.670  28.134  1.00  0.00     0.016 A 
ATOM     40  C   UNL A   1      40.752  26.717  26.838  1.00  0.00     0.010 A 
ATOM     41  C   UNL A   1      39.559  25.867  28.765  1.00  0.00     0.010 A 
ATOM     42  C   UNL A   1      40.284  26.888  28.137  1.00  0.00    -0.014 A 
BRANCH  42  43
ATOM     43  C   UNL A   1      40.503  28.057  28.981  1.00  0.00     0.031 A 
ATOM     44  C   UNL A   1      39.545  29.163  28.830  1.00  0.00     0.074 A 
ATOM     45  C   UNL A   1      41.377  28.027  30.017  1.00  0.00     0.049 A 
ATOM     46  N   UNL A   1      39.756  30.351  29.264  1.00  0.00    -0.248 NA
ATOM     47  C   UNL A   1      38.280  29.056  28.093  1.00  0.00     0.031 C 
ATOM     48  C   UNL A   1      41.454  28.869  31.208  1.00  0.00     0.029 A 
ATOM     49  N   UNL A   1      42.479  27.185  30.183  1.00  0.00    -0.354 N 
ATOM     50  C   UNL A   1      38.532  30.967  29.288  1.00  0.00     0.074 A 
ATOM     51  C   UNL A   1      37.744  30.257  28.324  1.00  0.00     0.031 C 
ATOM     52  C   UNL A   1      42.676  28.733  31.765  1.00  0.00     0.029 A 
ATOM     53  C   UNL A   1      43.467  27.874  30.887  1.00  0.00     0.049 A 
ATOM     54  H   UNL A   1      42.546  26.258  29.857  1.00  0.00     0.167 HD
ATOM     55  C   UNL A   1      38.278  31.848  30.296  1.00  0.00     0.034 A 
ATOM     56  C   UNL A   1      44.647  28.133  30.265  1.00  0.00     0.034 A 
ATOM     57  C   UNL A   1      39.515  32.147  31.054  1.00  0.00     0.049 A 
ATOM     58  C   UNL A   1      44.694  29.629  30.037  1.00  0.00     0.074 A 
ATOM     59  C   UNL A   1      39.926  32.005  32.368  1.00  0.00     0.029 A 
ATOM     60  N   UNL A   1      40.685  32.420  30.339  1.00  0.00    -0.354 N 
ATOM     61  N   UNL A   1      43.642  30.396  30.174  1.00  0.00    -0.248 NA
ATOM     62  C   UNL A   1      45.882  30.396  29.705  1.00  0.00     0.031 C 
ATOM     63  C   UNL A   1      41.361  32.124  32.401  1.00  0.00     0.029 A 
ATOM     64  C   UNL A   1      41.822  32.381  31.119  1.00  0.00     0.049 A 
ATOM     65  H   UNL A   1      40.696  32.621  29.374  1.00  0.00     0.167 HD
ATOM     66  C   UNL A   1      43.986  31.705  30.135  1.00  0.00     0.074 A 
ATOM     67  C   UNL A   1      45.382  31.649  29.693  1.00  0.00     0.031 C 
ATOM     68  C   UNL A   1      43.117  32.703  30.508  1.00  0.00     0.034 A 
BRANCH  55  69
ATOM     69  C   UNL A   1      36.878  32.288  30.705  1.00  0.00     0.023 A 
ATOM     70  C   UNL A   1      36.067  32.933  29.751  1.00  0.00     0.031 A 
ATOM     71  C   UNL A   1      36.298  32.182  31.995  1.00  0.00     0.131 A 
ATOM     72  C   UNL A   1      34.773  33.399  30.076  1.00  0.00     0.055 A 
ATOM     73  C   UNL A   1      34.989  32.581  32.299  1.00  0.00     0.041 A 
ATOM     74  F   UNL A   1      36.971  31.752  33.068  1.00  0.00    -0.206 F 
ATOM     75  C   UNL A   1      34.217  33.196  31.337  1.00  0.00     0.022 A 
BRANCH  72  76
ATOM     76  S   UNL A   1      33.826  34.322  28.840  1.00  0.00     0.124 S 
ATOM     77  O   UNL A   1      33.381  33.260  27.943  1.00  0.00    -0.237 OA
ATOM     78  O   UNL A   1      32.796  34.962  29.650  1.00  0.00    -0.237 OA
ATOM     79  O   UNL A   1      34.814  35.237  28.268  1.00  0.00    -0.744 OA
ENDBRANCH  72  76
ENDBRANCH  55  69
BRANCH  56  80
ATOM     80  C   UNL A   1      45.076  26.990  29.365  1.00  0.00     0.023 A 
ATOM     81  C   UNL A   1      44.737  27.043  27.981  1.00  0.00     0.031 A 
ATOM     82  C   UNL A   1      46.128  26.133  29.706  1.00  0.00     0.131 A 
ATOM     83  C   UNL A   1      45.478  26.347  26.999  1.00  0.00     0.055 A 
ATOM     84  C   UNL A   1      46.876  25.449  28.727  1.00  0.00     0.041 A 
ATOM     85  F   UNL A   1      46.544  26.043  30.977  1.00  0.00    -0.206 F 
ATOM     86  C   UNL A   1      46.578  25.578  27.369  1.00  0.00     0.022 A 
BRANCH  83  87
ATOM     87  S   UNL A   1      45.218  26.654  25.208  1.00  0.00     0.124 S 
ATOM     88  O   UNL A   1      45.262  28.109  25.129  1.00  0.00    -0.237 OA
ATOM     89  O   UNL A   1      46.332  25.953  24.579  1.00  0.00    -0.237 OA
ATOM     90  O   UNL A   1      43.908  26.053  24.960  1.00  0.00    -0.744 OA
ENDBRANCH  83  87
ENDBRANCH  56  80
BRANCH  68  91
ATOM     91  C   UNL A   1      43.436  34.143  30.245  1.00  0.00     0.023 A 
ATOM     92  C   UNL A   1      43.467  34.649  28.949  1.00  0.00     0.031 A 
ATOM     93  C   UNL A   1      43.615  35.072  31.293  1.00  0.00     0.131 A 
ATOM     94  C   UNL A   1      43.370  36.025  28.740  1.00  0.00     0.055 A 
ATOM     95  C   UNL A   1      43.681  36.444  31.070  1.00  0.00     0.041 A 
ATOM     96  F   UNL A   1      43.671  34.708  32.581  1.00  0.00    -0.206 F 
ATOM     97  C   UNL A   1      43.493  36.933  29.789  1.00  0.00     0.022 A 
BRANCH  94  98
ATOM     98  S   UNL A   1      42.868  36.572  27.095  1.00  0.00     0.124 S 
ATOM     99  O   UNL A   1      41.506  37.046  27.317  1.00  0.00    -0.237 OA
ATOM    100  O   UNL A   1      43.857  37.612  26.820  1.00  0.00    -0.237 OA
ATOM    101  O   UNL A   1      42.989  35.365  26.283  1.00  0.00    -0.744 OA
ENDBRANCH  94  98
ENDBRANCH  68  91
ENDBRANCH  42  43
ENDBRANCH  35  37
ENDBRANCH  34  35
ENDBRANCH  33  34
ENDBRANCH  32  33
ENDBRANCH   1  32
TORSDOF 20
ENDMDL
MODEL 2
REMARK VINA RESULT:     -12.1      1.887      2.276
REMARK SMILES Cc1c(NC(=O)[C@@H]2CC=CC[C@@H]2C(=O)OCCOCCOC(=O)c2ccc(-c3c4nc(c(-c5cc(S(=O)(=O)[O-])ccc5F)c5ccc([nH]5)c(-c5cc(S(=O)(=O)[O-])ccc5F)c5nc(c(-c6cc(S(=O)(=O)[O-])ccc6F)c6ccc3[nH]6)C=C5)C=C4)cc2)cccc1C(=O)N1CCOCC1
REMARK SMILES IDX 18 1 17 2 16 3 15 4 13 5 14 6 12 7 7 8 8 9 9 10 11 11 10 12
REMARK SMILES IDX 5 13 4 14 6 16 3 17 1 18 2 19 90 20 87 21 89 22 88 23 91 24
REMARK SMILES IDX 92 25 93 26 94 27 98 28 95 29 97 30 96 31 19 32 20 33 21 34
REMARK SMILES IDX 22 35 23 36 24 37 25 38 86 39 26 40 85 41 27 42 28 43 29 44
REMARK SMILES IDX 79 45 30 46 84 47 78 48 80 49 31 50 83 51 77 52 76 53 32 55
REMARK SMILES IDX 64 56 44 57 63 58 45 59 48 60 62 61 81 62 46 63 47 64 61 66
REMARK SMILES IDX 82 67 49 68 33 69 34 70 42 71 35 72 41 73 43 74 40 75 36 76
REMARK SMILES IDX 37 77 38 78 39 79 65 80 66 81 74 82 67 83 73 84 75 85 72 86
REMARK SMILES IDX 68 87 69 88 70 89 71 90 50 91 51 92 59 93 52 94 58 95 60 96
REMARK SMILES IDX 57 97 53 98 54 99 55 100 56 101
REMARK H PARENT 4 15 80 54 48 65
REMARK Flexibility Score: inf
ROOT
ATOM      1  O   UNL A   1      37.307  22.485  24.813  1.00  0.00    -0.374 OA
ENDROOT
BRANCH   1   2
ATOM      2  C   UNL A   1      36.101  22.074  24.189  1.00  0.00     0.202 C 
BRANCH   2   3
ATOM      3  C   UNL A   1      35.818  20.706  24.713  1.00  0.00     0.261 C 
BRANCH   3   4
ATOM      4  O   UNL A   1      34.666  20.618  25.573  1.00  0.00    -0.463 OA
BRANCH   4   5
ATOM      5  C   UNL A   1      33.477  21.225  25.322  1.00  0.00     0.310 C 
ATOM      6  O   UNL A   1      32.892  21.255  24.266  1.00  0.00    -0.252 OA
BRANCH   5   7
ATOM      7  C   UNL A   1      32.946  21.838  26.624  1.00  0.00     0.116 C 
ATOM      8  C   UNL A   1      32.245  23.228  26.444  1.00  0.00     0.097 C 
ATOM      9  C   UNL A   1      33.235  24.270  25.871  1.00  0.00     0.041 C 
ATOM     10  C   UNL A   1      34.587  24.189  26.531  1.00  0.00    -0.030 C 
ATOM     11  C   UNL A   1      34.126  21.968  27.593  1.00  0.00     0.043 C 
ATOM     12  C   UNL A   1      34.972  23.182  27.328  1.00  0.00    -0.030 C 
BRANCH   8  13
ATOM     13  C   UNL A   1      30.944  23.017  25.673  1.00  0.00     0.228 C 
ATOM     14  N   UNL A   1      30.682  23.444  24.417  1.00  0.00    -0.326 N 
ATOM     15  H   UNL A   1      30.005  22.892  23.961  1.00  0.00     0.169 HD
ATOM     16  O   UNL A   1      29.983  22.485  26.241  1.00  0.00    -0.274 OA
BRANCH  14  17
ATOM     17  C   UNL A   1      31.155  24.496  23.613  1.00  0.00     0.044 A 
ATOM     18  C   UNL A   1      29.787  26.072  25.029  1.00  0.00     0.047 C 
ATOM     19  C   UNL A   1      30.857  25.836  23.997  1.00  0.00    -0.015 A 
ATOM     20  C   UNL A   1      31.551  26.898  23.371  1.00  0.00     0.045 A 
ATOM     21  C   UNL A   1      32.003  24.264  22.532  1.00  0.00     0.026 A 
ATOM     22  C   UNL A   1      32.352  26.609  22.248  1.00  0.00     0.014 A 
ATOM     23  C   UNL A   1      32.543  25.311  21.806  1.00  0.00     0.003 A 
BRANCH  20  24
ATOM     24  C   UNL A   1      31.459  28.365  23.687  1.00  0.00     0.254 C 
ATOM     25  O   UNL A   1      30.685  29.064  23.027  1.00  0.00    -0.269 OA
ATOM     26  N   UNL A   1      32.162  28.931  24.739  1.00  0.00    -0.334 N 
ATOM     27  C   UNL A   1      33.622  28.913  24.890  1.00  0.00     0.148 C 
ATOM     28  C   UNL A   1      31.506  30.020  25.450  1.00  0.00     0.148 C 
ATOM     29  C   UNL A   1      34.037  29.071  26.367  1.00  0.00     0.181 C 
ATOM     30  C   UNL A   1      31.933  30.005  26.912  1.00  0.00     0.181 C 
ATOM     31  O   UNL A   1      33.359  30.170  27.006  1.00  0.00    -0.378 OA
ENDBRANCH  20  24
ENDBRANCH  14  17
ENDBRANCH   8  13
ENDBRANCH   5   7
ENDBRANCH   4   5
ENDBRANCH   3   4
ENDBRANCH   2   3
ENDBRANCH   1   2
BRANCH   1  32
ATOM     32  C   UNL A   1      38.084  21.443  25.353  1.00  0.00     0.202 C 
BRANCH  32  33
ATOM     33  C   UNL A   1      39.229  21.954  26.236  1.00  0.00     0.261 C 
BRANCH  33  34
ATOM     34  O   UNL A   1      39.011  23.336  26.600  1.00  0.00    -0.460 OA
BRANCH  34  35
ATOM     35  C   UNL A   1      40.036  23.944  27.264  1.00  0.00     0.338 C 
ATOM     36  O   UNL A   1      41.012  23.368  27.718  1.00  0.00    -0.246 OA
BRANCH  35  37
ATOM     37  C   UNL A   1      39.731  25.387  27.476  1.00  0.00     0.060 A 
ATOM     38  C   UNL A   1      40.250  26.365  26.605  1.00  0.00     0.016 A 
ATOM     39  C   UNL A   1      39.179  25.763  28.698  1.00  0.00     0.016 A 
ATOM     40  C   UNL A   1      40.356  27.695  27.032  1.00  0.00     0.010 A 
ATOM     41  C   UNL A   1      39.419  27.033  29.162  1.00  0.00     0.010 A 
ATOM     42  C   UNL A   1      40.022  28.000  28.347  1.00  0.00    -0.014 A 
BRANCH  42  43
ATOM     43  C   UNL A   1      40.273  29.266  29.026  1.00  0.00     0.031 A 
ATOM     44  C   UNL A   1      39.144  30.205  29.099  1.00  0.00     0.074 A 
ATOM     45  C   UNL A   1      41.394  29.463  29.763  1.00  0.00     0.049 A 
ATOM     46  N   UNL A   1      39.270  31.448  29.387  1.00  0.00    -0.248 NA
ATOM     47  C   UNL A   1      37.758  29.848  28.767  1.00  0.00     0.031 C 
ATOM     48  C   UNL A   1      41.660  30.421  30.832  1.00  0.00     0.029 A 
ATOM     49  N   UNL A   1      42.620  28.804  29.648  1.00  0.00    -0.354 N 
ATOM     50  C   UNL A   1      38.017  31.885  29.732  1.00  0.00     0.074 A 
ATOM     51  C   UNL A   1      37.119  30.978  29.078  1.00  0.00     0.031 C 
ATOM     52  C   UNL A   1      42.994  30.514  31.017  1.00  0.00     0.029 A 
ATOM     53  C   UNL A   1      43.638  29.693  29.997  1.00  0.00     0.049 A 
ATOM     54  H   UNL A   1      42.745  27.869  29.368  1.00  0.00     0.167 HD
ATOM     55  C   UNL A   1      37.913  32.816  30.720  1.00  0.00     0.034 A 
ATOM     56  C   UNL A   1      44.540  30.052  29.045  1.00  0.00     0.034 A 
ATOM     57  C   UNL A   1      39.246  33.361  31.068  1.00  0.00     0.049 A 
ATOM     58  C   UNL A   1      44.276  31.511  28.732  1.00  0.00     0.074 A 
ATOM     59  C   UNL A   1      40.024  33.409  32.212  1.00  0.00     0.029 A 
ATOM     60  N   UNL A   1      40.109  33.724  30.030  1.00  0.00    -0.354 N 
ATOM     61  N   UNL A   1      43.194  32.131  29.126  1.00  0.00    -0.248 NA
ATOM     62  C   UNL A   1      45.183  32.400  28.027  1.00  0.00     0.031 C 
ATOM     63  C   UNL A   1      41.371  33.733  31.821  1.00  0.00     0.029 A 
ATOM     64  C   UNL A   1      41.409  33.923  30.448  1.00  0.00     0.049 A 
ATOM     65  H   UNL A   1      39.819  33.828  29.095  1.00  0.00     0.167 HD
ATOM     66  C   UNL A   1      43.294  33.465  28.917  1.00  0.00     0.074 A 
ATOM     67  C   UNL A   1      44.502  33.563  28.093  1.00  0.00     0.031 C 
ATOM     68  C   UNL A   1      42.412  34.362  29.471  1.00  0.00     0.034 A 
BRANCH  55  69
ATOM     69  C   UNL A   1      36.629  33.093  31.493  1.00  0.00     0.023 A 
ATOM     70  C   UNL A   1      35.624  33.864  30.878  1.00  0.00     0.031 A 
ATOM     71  C   UNL A   1      36.344  32.710  32.829  1.00  0.00     0.131 A 
ATOM     72  C   UNL A   1      34.426  34.188  31.554  1.00  0.00     0.055 A 
ATOM     73  C   UNL A   1      35.127  32.972  33.474  1.00  0.00     0.041 A 
ATOM     74  F   UNL A   1      37.238  32.120  33.629  1.00  0.00    -0.206 F 
ATOM     75  C   UNL A   1      34.158  33.718  32.837  1.00  0.00     0.022 A 
BRANCH  72  76
ATOM     76  S   UNL A   1      33.222  35.278  30.753  1.00  0.00     0.124 S 
ATOM     77  O   UNL A   1      32.156  35.337  31.748  1.00  0.00    -0.237 OA
ATOM     78  O   UNL A   1      33.993  36.501  30.555  1.00  0.00    -0.237 OA
ATOM     79  O   UNL A   1      32.879  34.562  29.525  1.00  0.00    -0.744 OA
ENDBRANCH  72  76
ENDBRANCH  55  69
BRANCH  56  80
ATOM     80  C   UNL A   1      44.883  28.898  28.124  1.00  0.00     0.023 A 
ATOM     81  C   UNL A   1      45.713  27.849  28.619  1.00  0.00     0.031 A 
ATOM     82  C   UNL A   1      44.104  28.586  27.004  1.00  0.00     0.131 A 
ATOM     83  C   UNL A   1      45.682  26.546  28.073  1.00  0.00     0.055 A 
ATOM     84  C   UNL A   1      44.062  27.283  26.468  1.00  0.00     0.041 A 
ATOM     85  F   UNL A   1      43.264  29.495  26.488  1.00  0.00    -0.206 F 
ATOM     86  C   UNL A   1      44.823  26.250  27.018  1.00  0.00     0.022 A 
BRANCH  83  87
ATOM     87  S   UNL A   1      46.527  25.142  28.900  1.00  0.00     0.124 S 
ATOM     88  O   UNL A   1      45.513  24.096  28.859  1.00  0.00    -0.237 OA
ATOM     89  O   UNL A   1      47.703  24.916  28.067  1.00  0.00    -0.237 OA
ATOM     90  O   UNL A   1      46.821  25.675  30.230  1.00  0.00    -0.744 OA
ENDBRANCH  83  87
ENDBRANCH  56  80
BRANCH  68  91
ATOM     91  C   UNL A   1      42.405  35.800  29.048  1.00  0.00     0.023 A 
ATOM     92  C   UNL A   1      43.180  36.749  29.707  1.00  0.00     0.031 A 
ATOM     93  C   UNL A   1      41.700  36.238  27.905  1.00  0.00     0.131 A 
ATOM     94  C   UNL A   1      43.470  37.962  29.081  1.00  0.00     0.055 A 
ATOM     95  C   UNL A   1      41.868  37.511  27.369  1.00  0.00     0.041 A 
ATOM     96  F   UNL A   1      40.870  35.443  27.218  1.00  0.00    -0.206 F 
ATOM     97  C   UNL A   1      42.809  38.362  27.922  1.00  0.00     0.022 A 
BRANCH  94  98
ATOM     98  S   UNL A   1      44.882  38.893  29.710  1.00  0.00     0.124 S 
ATOM     99  O   UNL A   1      44.312  39.616  30.842  1.00  0.00    -0.237 OA
ATOM    100  O   UNL A   1      45.809  37.816  30.056  1.00  0.00    -0.237 OA
ATOM    101  O   UNL A   1      45.280  39.718  28.574  1.00  0.00    -0.744 OA
ENDBRANCH  94  98
ENDBRANCH  68  91
ENDBRANCH  42  43
ENDBRANCH  35  37
ENDBRANCH  34  35
ENDBRANCH  33  34
ENDBRANCH  32  33
ENDBRANCH   1  32
TORSDOF 20
ENDMDL
MODEL 3
REMARK VINA RESULT:     -11.9      3.505      9.940
REMARK SMILES Cc1c(NC(=O)[C@@H]2CC=CC[C@@H]2C(=O)OCCOCCOC(=O)c2ccc(-c3c4nc(c(-c5cc(S(=O)(=O)[O-])ccc5F)c5ccc([nH]5)c(-c5cc(S(=O)(=O)[O-])ccc5F)c5nc(c(-c6cc(S(=O)(=O)[O-])ccc6F)c6ccc3[nH]6)C=C5)C=C4)cc2)cccc1C(=O)N1CCOCC1
REMARK SMILES IDX 18 1 17 2 16 3 15 4 13 5 14 6 12 7 7 8 8 9 9 10 11 11 10 12
REMARK SMILES IDX 5 13 4 14 6 16 3 17 1 18 2 19 90 20 87 21 89 22 88 23 91 24
REMARK SMILES IDX 92 25 93 26 94 27 98 28 95 29 97 30 96 31 19 32 20 33 21 34
REMARK SMILES IDX 22 35 23 36 24 37 25 38 86 39 26 40 85 41 27 42 28 43 29 44
REMARK SMILES IDX 79 45 30 46 84 47 78 48 80 49 31 50 83 51 77 52 76 53 32 55
REMARK SMILES IDX 64 56 44 57 63 58 45 59 48 60 62 61 81 62 46 63 47 64 61 66
REMARK SMILES IDX 82 67 49 68 33 69 34 70 42 71 35 72 41 73 43 74 40 75 36 76
REMARK SMILES IDX 37 77 38 78 39 79 65 80 66 81 74 82 67 83 73 84 75 85 72 86
REMARK SMILES IDX 68 87 69 88 70 89 71 90 50 91 51 92 59 93 52 94 58 95 60 96
REMARK SMILES IDX 57 97 53 98 54 99 55 100 56 101
REMARK H PARENT 4 15 80 54 48 65
REMARK Flexibility Score: inf
ROOT
ATOM      1  O   UNL A   1      33.166  28.359  22.276  1.00  0.00    -0.374 OA
ENDROOT
BRANCH   1   2
ATOM      2  C   UNL A   1      32.006  27.607  22.596  1.00  0.00     0.202 C 
BRANCH   2   3
ATOM      3  C   UNL A   1      32.246  26.239  22.052  1.00  0.00     0.261 C 
BRANCH   3   4
ATOM      4  O   UNL A   1      33.449  25.605  22.527  1.00  0.00    -0.463 OA
BRANCH   4   5
ATOM      5  C   UNL A   1      33.472  24.459  23.256  1.00  0.00     0.310 C 
ATOM      6  O   UNL A   1      32.953  23.408  22.963  1.00  0.00    -0.252 OA
BRANCH   5   7
ATOM      7  C   UNL A   1      34.322  24.685  24.513  1.00  0.00     0.116 C 
ATOM      8  C   UNL A   1      35.023  23.393  25.059  1.00  0.00     0.097 C 
ATOM      9  C   UNL A   1      33.974  22.327  25.455  1.00  0.00     0.041 C 
ATOM     10  C   UNL A   1      32.813  22.927  26.205  1.00  0.00    -0.030 C 
ATOM     11  C   UNL A   1      33.410  25.280  25.591  1.00  0.00     0.043 C 
ATOM     12  C   UNL A   1      32.581  24.243  26.298  1.00  0.00    -0.030 C 
BRANCH   8  13
ATOM     13  C   UNL A   1      36.095  22.967  24.059  1.00  0.00     0.228 C 
ATOM     14  N   UNL A   1      37.317  22.472  24.360  1.00  0.00    -0.326 N 
ATOM     15  H   UNL A   1      37.681  21.898  23.647  1.00  0.00     0.169 HD
ATOM     16  O   UNL A   1      35.904  23.152  22.851  1.00  0.00    -0.274 OA
BRANCH  14  17
ATOM     17  C   UNL A   1      38.187  22.590  25.458  1.00  0.00     0.044 A 
ATOM     18  C   UNL A   1      38.687  20.131  25.212  1.00  0.00     0.047 C 
ATOM     19  C   UNL A   1      39.009  21.478  25.800  1.00  0.00    -0.015 A 
ATOM     20  C   UNL A   1      40.077  21.669  26.708  1.00  0.00     0.045 A 
ATOM     21  C   UNL A   1      38.351  23.799  26.132  1.00  0.00     0.026 A 
ATOM     22  C   UNL A   1      40.160  22.894  27.401  1.00  0.00     0.014 A 
ATOM     23  C   UNL A   1      39.281  23.934  27.147  1.00  0.00     0.003 A 
BRANCH  20  24
ATOM     24  C   UNL A   1      41.112  20.664  27.131  1.00  0.00     0.254 C 
ATOM     25  O   UNL A   1      40.839  19.886  28.049  1.00  0.00    -0.269 OA
ATOM     26  N   UNL A   1      42.325  20.544  26.472  1.00  0.00    -0.334 N 
ATOM     27  C   UNL A   1      43.318  21.615  26.322  1.00  0.00     0.148 C 
ATOM     28  C   UNL A   1      42.882  19.202  26.371  1.00  0.00     0.148 C 
ATOM     29  C   UNL A   1      44.224  21.374  25.096  1.00  0.00     0.181 C 
ATOM     30  C   UNL A   1      43.675  19.074  25.076  1.00  0.00     0.181 C 
ATOM     31  O   UNL A   1      44.747  20.033  25.063  1.00  0.00    -0.378 OA
ENDBRANCH  20  24
ENDBRANCH  14  17
ENDBRANCH   8  13
ENDBRANCH   5   7
ENDBRANCH   4   5
ENDBRANCH   3   4
ENDBRANCH   2   3
ENDBRANCH   1   2
BRANCH   1  32
ATOM     32  C   UNL A   1      33.872  28.866  23.384  1.00  0.00     0.202 C 
BRANCH  32  33
ATOM     33  C   UNL A   1      33.021  28.912  24.659  1.00  0.00     0.261 C 
BRANCH  33  34
ATOM     34  O   UNL A   1      33.804  29.390  25.775  1.00  0.00    -0.460 OA
BRANCH  34  35
ATOM     35  C   UNL A   1      33.227  30.368  26.531  1.00  0.00     0.338 C 
ATOM     36  O   UNL A   1      32.203  30.965  26.235  1.00  0.00    -0.246 OA
BRANCH  35  37
ATOM     37  C   UNL A   1      34.092  30.700  27.697  1.00  0.00     0.060 A 
ATOM     38  C   UNL A   1      34.406  32.040  27.998  1.00  0.00     0.016 A 
ATOM     39  C   UNL A   1      34.807  29.665  28.293  1.00  0.00     0.016 A 
ATOM     40  C   UNL A   1      35.537  32.336  28.770  1.00  0.00     0.010 A 
ATOM     41  C   UNL A   1      35.990  29.964  28.923  1.00  0.00     0.010 A 
ATOM     42  C   UNL A   1      36.374  31.292  29.150  1.00  0.00    -0.014 A 
BRANCH  42  43
ATOM     43  C   UNL A   1      37.693  31.425  29.757  1.00  0.00     0.031 A 
ATOM     44  C   UNL A   1      38.658  30.354  29.466  1.00  0.00     0.074 A 
ATOM     45  C   UNL A   1      38.089  32.582  30.342  1.00  0.00     0.049 A 
ATOM     46  N   UNL A   1      39.733  30.163  30.140  1.00  0.00    -0.248 NA
ATOM     47  C   UNL A   1      38.462  29.331  28.431  1.00  0.00     0.031 C 
ATOM     48  C   UNL A   1      39.432  33.084  30.619  1.00  0.00     0.029 A 
ATOM     49  N   UNL A   1      37.283  33.589  30.878  1.00  0.00    -0.354 N 
ATOM     50  C   UNL A   1      40.530  29.365  29.360  1.00  0.00     0.074 A 
ATOM     51  C   UNL A   1      39.622  28.675  28.492  1.00  0.00     0.031 C 
ATOM     52  C   UNL A   1      39.351  34.077  31.530  1.00  0.00     0.029 A 
ATOM     53  C   UNL A   1      37.957  34.175  31.952  1.00  0.00     0.049 A 
ATOM     54  H   UNL A   1      36.390  33.842  30.553  1.00  0.00     0.167 HD
ATOM     55  C   UNL A   1      41.875  29.574  29.396  1.00  0.00     0.034 A 
ATOM     56  C   UNL A   1      37.422  34.056  33.195  1.00  0.00     0.034 A 
ATOM     57  C   UNL A   1      42.232  30.502  30.494  1.00  0.00     0.049 A 
ATOM     58  C   UNL A   1      38.343  33.141  33.974  1.00  0.00     0.074 A 
ATOM     59  C   UNL A   1      42.851  31.737  30.581  1.00  0.00     0.029 A 
ATOM     60  N   UNL A   1      41.653  30.302  31.751  1.00  0.00    -0.354 N 
ATOM     61  N   UNL A   1      39.274  32.423  33.398  1.00  0.00    -0.248 NA
ATOM     62  C   UNL A   1      38.358  32.986  35.418  1.00  0.00     0.031 C 
ATOM     63  C   UNL A   1      42.563  32.289  31.879  1.00  0.00     0.029 A 
ATOM     64  C   UNL A   1      41.806  31.379  32.600  1.00  0.00     0.049 A 
ATOM     65  H   UNL A   1      41.181  29.475  32.005  1.00  0.00     0.167 HD
ATOM     66  C   UNL A   1      40.097  31.867  34.317  1.00  0.00     0.074 A 
ATOM     67  C   UNL A   1      39.392  32.133  35.573  1.00  0.00     0.031 C 
ATOM     68  C   UNL A   1      41.294  31.284  33.972  1.00  0.00     0.034 A 
BRANCH  55  69
ATOM     69  C   UNL A   1      42.839  29.085  28.322  1.00  0.00     0.023 A 
ATOM     70  C   UNL A   1      43.089  27.703  28.217  1.00  0.00     0.031 A 
ATOM     71  C   UNL A   1      43.591  29.888  27.427  1.00  0.00     0.131 A 
ATOM     72  C   UNL A   1      43.999  27.187  27.268  1.00  0.00     0.055 A 
ATOM     73  C   UNL A   1      44.441  29.372  26.439  1.00  0.00     0.041 A 
ATOM     74  F   UNL A   1      43.615  31.224  27.485  1.00  0.00    -0.206 F 
ATOM     75  C   UNL A   1      44.651  28.012  26.355  1.00  0.00     0.022 A 
BRANCH  72  76
ATOM     76  S   UNL A   1      44.364  25.413  27.261  1.00  0.00     0.124 S 
ATOM     77  O   UNL A   1      43.340  24.889  28.160  1.00  0.00    -0.237 OA
ATOM     78  O   UNL A   1      44.225  25.072  25.850  1.00  0.00    -0.237 OA
ATOM     79  O   UNL A   1      45.730  25.345  27.778  1.00  0.00    -0.744 OA
ENDBRANCH  72  76
ENDBRANCH  55  69
BRANCH  56  80
ATOM     80  C   UNL A   1      35.908  34.135  33.172  1.00  0.00     0.023 A 
ATOM     81  C   UNL A   1      35.289  35.417  33.092  1.00  0.00     0.031 A 
ATOM     82  C   UNL A   1      35.115  33.047  32.791  1.00  0.00     0.131 A 
ATOM     83  C   UNL A   1      33.987  35.592  32.570  1.00  0.00     0.055 A 
ATOM     84  C   UNL A   1      33.821  33.221  32.258  1.00  0.00     0.041 A 
ATOM     85  F   UNL A   1      35.620  31.805  32.797  1.00  0.00    -0.206 F 
ATOM     86  C   UNL A   1      33.265  34.493  32.113  1.00  0.00     0.022 A 
BRANCH  83  87
ATOM     87  S   UNL A   1      33.320  37.262  32.200  1.00  0.00     0.124 S 
ATOM     88  O   UNL A   1      34.324  38.138  32.791  1.00  0.00    -0.237 OA
ATOM     89  O   UNL A   1      33.243  37.281  30.744  1.00  0.00    -0.237 OA
ATOM     90  O   UNL A   1      32.023  37.252  32.876  1.00  0.00    -0.744 OA
ENDBRANCH  83  87
ENDBRANCH  56  80
BRANCH  68  91
ATOM     91  C   UNL A   1      42.077  30.481  34.965  1.00  0.00     0.023 A 
ATOM     92  C   UNL A   1      41.559  29.315  35.518  1.00  0.00     0.031 A 
ATOM     93  C   UNL A   1      43.408  30.808  35.305  1.00  0.00     0.131 A 
ATOM     94  C   UNL A   1      42.417  28.389  36.114  1.00  0.00     0.055 A 
ATOM     95  C   UNL A   1      44.222  29.951  36.041  1.00  0.00     0.041 A 
ATOM     96  F   UNL A   1      44.005  31.933  34.893  1.00  0.00    -0.206 F 
ATOM     97  C   UNL A   1      43.744  28.700  36.396  1.00  0.00     0.022 A 
BRANCH  94  98
ATOM     98  S   UNL A   1      41.799  26.704  36.308  1.00  0.00     0.124 S 
ATOM     99  O   UNL A   1      43.015  25.947  36.586  1.00  0.00    -0.237 OA
ATOM    100  O   UNL A   1      40.883  26.859  37.437  1.00  0.00    -0.237 OA
ATOM    101  O   UNL A   1      41.164  26.425  35.024  1.00  0.00    -0.744 OA
ENDBRANCH  94  98
ENDBRANCH  68  91
ENDBRANCH  42  43
ENDBRANCH  35  37
ENDBRANCH  34  35
ENDBRANCH  33  34
ENDBRANCH  32  33
ENDBRANCH   1  32
TORSDOF 20
ENDMDL
