MODEL 1
REMARK VINA RESULT:     -12.6      0.000      0.000
REMARK SMILES Cc1cc([N+](=O)[O-])ccc1NC(=O)[C@@H]1[C@@H](C(=O)OCCOCCOC(=O)c2ccc(-c3c4nc(c(-c5cc(S(=O)(=O)[O-])ccc5F)c5ccc([nH]5)c(-c5cc(S(=O)(=O)[O-])ccc5F)c5nc(c(-c6cc(S(=O)(=O)[O-])ccc6F)c6ccc3[nH]6)C=C5)C=C4)cc2)[C@H]2C=C[C@@H]1C2
REMARK SMILES IDX 21 1 20 2 19 3 18 4 16 5 17 6 15 7 14 8 93 9 90 10 92 11
REMARK SMILES IDX 94 12 91 13 12 14 11 15 13 17 10 18 1 19 2 20 3 21 4 22 9 23
REMARK SMILES IDX 8 24 5 25 6 26 7 27 22 28 23 29 24 30 25 31 26 32 27 33
REMARK SMILES IDX 28 34 89 35 29 36 88 37 30 38 31 39 32 40 82 41 33 42 87 43
REMARK SMILES IDX 81 44 83 45 34 46 86 47 80 48 79 49 35 51 67 52 47 53 66 54
REMARK SMILES IDX 48 55 51 56 65 57 84 58 49 59 50 60 64 62 85 63 52 64 36 65
REMARK SMILES IDX 37 66 45 67 38 68 44 69 46 70 43 71 39 72 40 73 41 74 42 75
REMARK SMILES IDX 68 76 69 77 77 78 70 79 76 80 78 81 75 82 71 83 72 84 73 85
REMARK SMILES IDX 74 86 53 87 54 88 62 89 55 90 61 91 63 92 60 93 56 94 57 95
REMARK SMILES IDX 58 96 59 97
REMARK H PARENT 11 16 83 50 51 61
REMARK Flexibility Score: inf
ROOT
ATOM      1  O   UNL A   1      32.899  28.214  26.959  1.00  0.00    -0.374 OA
ENDROOT
BRANCH   1   2
ATOM      2  C   UNL A   1      31.864  27.611  26.177  1.00  0.00     0.202 C 
BRANCH   2   3
ATOM      3  C   UNL A   1      31.931  26.125  26.436  1.00  0.00     0.261 C 
BRANCH   3   4
ATOM      4  O   UNL A   1      33.198  25.571  26.044  1.00  0.00    -0.463 OA
BRANCH   4   5
ATOM      5  C   UNL A   1      33.310  24.214  26.055  1.00  0.00     0.310 C 
ATOM      6  O   UNL A   1      32.717  23.459  26.791  1.00  0.00    -0.252 OA
BRANCH   5   7
ATOM      7  C   UNL A   1      34.158  23.788  24.882  1.00  0.00     0.119 C 
ATOM      8  C   UNL A   1      33.835  22.331  24.462  1.00  0.00     0.100 C 
ATOM      9  C   UNL A   1      35.230  21.788  24.058  1.00  0.00     0.025 C 
ATOM     10  C   UNL A   1      35.693  23.744  25.061  1.00  0.00     0.027 C 
ATOM     11  C   UNL A   1      35.914  21.451  25.358  1.00  0.00    -0.027 C 
ATOM     12  C   UNL A   1      36.035  23.059  23.730  1.00  0.00     0.017 C 
ATOM     13  C   UNL A   1      36.166  22.621  25.965  1.00  0.00    -0.027 C 
BRANCH   8  14
ATOM     14  C   UNL A   1      32.786  22.209  23.376  1.00  0.00     0.228 C 
ATOM     15  N   UNL A   1      32.204  20.992  23.113  1.00  0.00    -0.326 N 
ATOM     16  H   UNL A   1      31.516  21.004  22.409  1.00  0.00     0.169 HD
ATOM     17  O   UNL A   1      32.479  23.155  22.647  1.00  0.00    -0.274 OA
BRANCH  15  18
ATOM     18  C   UNL A   1      32.441  19.733  23.695  1.00  0.00     0.044 A 
ATOM     19  C   UNL A   1      32.172  18.638  21.390  1.00  0.00     0.047 C 
ATOM     20  C   UNL A   1      32.516  18.606  22.854  1.00  0.00    -0.021 A 
ATOM     21  C   UNL A   1      32.955  17.385  23.396  1.00  0.00     0.091 A 
ATOM     22  C   UNL A   1      33.305  17.297  24.749  1.00  0.00     0.269 A 
ATOM     23  C   UNL A   1      32.644  19.576  25.076  1.00  0.00     0.033 A 
ATOM     24  C   UNL A   1      33.110  18.372  25.608  1.00  0.00     0.088 A 
BRANCH  22  25
ATOM     25  N   UNL A   1      33.977  16.091  25.228  1.00  0.00     0.062 N 
ATOM     26  O   UNL A   1      33.360  15.020  25.111  1.00  0.00    -0.258 OA
ATOM     27  O   UNL A   1      35.155  16.213  25.583  1.00  0.00    -0.258 OA
ENDBRANCH  22  25
ENDBRANCH  15  18
ENDBRANCH   8  14
ENDBRANCH   5   7
ENDBRANCH   4   5
ENDBRANCH   3   4
ENDBRANCH   2   3
ENDBRANCH   1   2
BRANCH   1  28
ATOM     28  C   UNL A   1      33.449  29.401  26.410  1.00  0.00     0.202 C 
BRANCH  28  29
ATOM     29  C   UNL A   1      33.240  30.648  27.283  1.00  0.00     0.261 C 
BRANCH  29  30
ATOM     30  O   UNL A   1      34.484  31.360  27.415  1.00  0.00    -0.460 OA
BRANCH  30  31
ATOM     31  C   UNL A   1      35.017  31.354  28.666  1.00  0.00     0.338 C 
ATOM     32  O   UNL A   1      34.736  32.144  29.552  1.00  0.00    -0.246 OA
BRANCH  31  33
ATOM     33  C   UNL A   1      36.086  30.323  28.747  1.00  0.00     0.060 A 
ATOM     34  C   UNL A   1      36.388  29.720  29.981  1.00  0.00     0.016 A 
ATOM     35  C   UNL A   1      36.922  30.120  27.648  1.00  0.00     0.016 A 
ATOM     36  C   UNL A   1      37.584  29.005  30.138  1.00  0.00     0.010 A 
ATOM     37  C   UNL A   1      38.124  29.465  27.822  1.00  0.00     0.010 A 
ATOM     38  C   UNL A   1      38.477  28.927  29.069  1.00  0.00    -0.014 A 
BRANCH  38  39
ATOM     39  C   UNL A   1      39.858  28.444  29.149  1.00  0.00     0.031 A 
ATOM     40  C   UNL A   1      40.171  27.035  28.821  1.00  0.00     0.074 A 
ATOM     41  C   UNL A   1      40.874  29.327  29.275  1.00  0.00     0.049 A 
ATOM     42  N   UNL A   1      41.319  26.481  29.007  1.00  0.00    -0.248 NA
ATOM     43  C   UNL A   1      39.185  26.100  28.293  1.00  0.00     0.031 C 
ATOM     44  C   UNL A   1      42.283  29.120  28.963  1.00  0.00     0.029 A 
ATOM     45  N   UNL A   1      40.847  30.595  29.863  1.00  0.00    -0.354 N 
ATOM     46  C   UNL A   1      41.341  25.294  28.316  1.00  0.00     0.074 A 
ATOM     47  C   UNL A   1      39.954  25.042  28.020  1.00  0.00     0.031 C 
ATOM     48  C   UNL A   1      43.013  30.029  29.622  1.00  0.00     0.029 A 
ATOM     49  C   UNL A   1      42.103  30.807  30.443  1.00  0.00     0.049 A 
ATOM     50  H   UNL A   1      40.088  31.221  29.867  1.00  0.00     0.167 HD
ATOM     51  C   UNL A   1      42.556  24.771  27.968  1.00  0.00     0.034 A 
ATOM     52  C   UNL A   1      42.232  31.066  31.768  1.00  0.00     0.034 A 
ATOM     53  C   UNL A   1      43.647  25.483  28.674  1.00  0.00     0.049 A 
ATOM     54  C   UNL A   1      43.042  29.957  32.378  1.00  0.00     0.074 A 
ATOM     55  C   UNL A   1      44.684  26.308  28.268  1.00  0.00     0.029 A 
ATOM     56  N   UNL A   1      43.593  25.608  30.073  1.00  0.00    -0.354 N 
ATOM     57  N   UNL A   1      43.096  28.752  31.864  1.00  0.00    -0.248 NA
ATOM     58  C   UNL A   1      43.981  30.151  33.473  1.00  0.00     0.031 C 
ATOM     59  C   UNL A   1      45.164  27.011  29.416  1.00  0.00     0.029 A 
ATOM     60  C   UNL A   1      44.456  26.586  30.533  1.00  0.00     0.049 A 
ATOM     61  H   UNL A   1      43.012  25.066  30.655  1.00  0.00     0.167 HD
ATOM     62  C   UNL A   1      44.142  28.079  32.420  1.00  0.00     0.074 A 
ATOM     63  C   UNL A   1      44.629  28.972  33.466  1.00  0.00     0.031 C 
ATOM     64  C   UNL A   1      44.604  26.878  31.960  1.00  0.00     0.034 A 
BRANCH  51  65
ATOM     65  C   UNL A   1      42.787  23.785  26.812  1.00  0.00     0.023 A 
ATOM     66  C   UNL A   1      42.330  22.450  26.923  1.00  0.00     0.031 A 
ATOM     67  C   UNL A   1      43.508  24.045  25.622  1.00  0.00     0.131 A 
ATOM     68  C   UNL A   1      42.629  21.473  25.940  1.00  0.00     0.055 A 
ATOM     69  C   UNL A   1      43.804  23.078  24.650  1.00  0.00     0.041 A 
ATOM     70  F   UNL A   1      43.972  25.252  25.301  1.00  0.00    -0.206 F 
ATOM     71  C   UNL A   1      43.371  21.781  24.806  1.00  0.00     0.022 A 
BRANCH  68  72
ATOM     72  S   UNL A   1      42.055  19.763  26.146  1.00  0.00     0.124 S 
ATOM     73  O   UNL A   1      40.610  19.927  26.036  1.00  0.00    -0.237 OA
ATOM     74  O   UNL A   1      42.723  19.071  25.050  1.00  0.00    -0.237 OA
ATOM     75  O   UNL A   1      42.535  19.404  27.481  1.00  0.00    -0.744 OA
ENDBRANCH  68  72
ENDBRANCH  51  65
BRANCH  52  76
ATOM     76  C   UNL A   1      41.103  31.873  32.320  1.00  0.00     0.023 A 
ATOM     77  C   UNL A   1      40.375  31.296  33.395  1.00  0.00     0.031 A 
ATOM     78  C   UNL A   1      41.002  33.259  32.146  1.00  0.00     0.131 A 
ATOM     79  C   UNL A   1      39.684  32.101  34.317  1.00  0.00     0.055 A 
ATOM     80  C   UNL A   1      40.287  34.059  33.054  1.00  0.00     0.041 A 
ATOM     81  F   UNL A   1      41.688  33.878  31.176  1.00  0.00    -0.206 F 
ATOM     82  C   UNL A   1      39.657  33.488  34.163  1.00  0.00     0.022 A 
BRANCH  79  83
ATOM     83  S   UNL A   1      39.072  31.383  35.883  1.00  0.00     0.124 S 
ATOM     84  O   UNL A   1      37.630  31.362  35.671  1.00  0.00    -0.237 OA
ATOM     85  O   UNL A   1      39.724  30.077  35.935  1.00  0.00    -0.237 OA
ATOM     86  O   UNL A   1      39.550  32.335  36.887  1.00  0.00    -0.744 OA
ENDBRANCH  79  83
ENDBRANCH  52  76
BRANCH  64  87
ATOM     87  C   UNL A   1      45.372  25.935  32.847  1.00  0.00     0.023 A 
ATOM     88  C   UNL A   1      44.729  24.912  33.562  1.00  0.00     0.031 A 
ATOM     89  C   UNL A   1      46.781  25.935  32.901  1.00  0.00     0.131 A 
ATOM     90  C   UNL A   1      45.446  24.029  34.376  1.00  0.00     0.055 A 
ATOM     91  C   UNL A   1      47.503  24.992  33.637  1.00  0.00     0.041 A 
ATOM     92  F   UNL A   1      47.514  26.829  32.222  1.00  0.00    -0.206 F 
ATOM     93  C   UNL A   1      46.836  24.043  34.399  1.00  0.00     0.022 A 
BRANCH  90  94
ATOM     94  S   UNL A   1      44.500  22.922  35.449  1.00  0.00     0.124 S 
ATOM     95  O   UNL A   1      43.188  23.565  35.453  1.00  0.00    -0.237 OA
ATOM     96  O   UNL A   1      44.577  21.649  34.738  1.00  0.00    -0.237 OA
ATOM     97  O   UNL A   1      45.223  22.974  36.716  1.00  0.00    -0.744 OA
ENDBRANCH  90  94
ENDBRANCH  64  87
ENDBRANCH  38  39
ENDBRANCH  31  33
ENDBRANCH  30  31
ENDBRANCH  29  30
ENDBRANCH  28  29
ENDBRANCH   1  28
TORSDOF 20
ENDMDL
MODEL 2
REMARK VINA RESULT:     -12.6      4.268     10.006
REMARK SMILES Cc1cc([N+](=O)[O-])ccc1NC(=O)[C@@H]1[C@@H](C(=O)OCCOCCOC(=O)c2ccc(-c3c4nc(c(-c5cc(S(=O)(=O)[O-])ccc5F)c5ccc([nH]5)c(-c5cc(S(=O)(=O)[O-])ccc5F)c5nc(c(-c6cc(S(=O)(=O)[O-])ccc6F)c6ccc3[nH]6)C=C5)C=C4)cc2)[C@H]2C=C[C@@H]1C2
REMARK SMILES IDX 21 1 20 2 19 3 18 4 16 5 17 6 15 7 14 8 93 9 90 10 92 11
REMARK SMILES IDX 94 12 91 13 12 14 11 15 13 17 10 18 1 19 2 20 3 21 4 22 9 23
REMARK SMILES IDX 8 24 5 25 6 26 7 27 22 28 23 29 24 30 25 31 26 32 27 33
REMARK SMILES IDX 28 34 89 35 29 36 88 37 30 38 31 39 32 40 82 41 33 42 87 43
REMARK SMILES IDX 81 44 83 45 34 46 86 47 80 48 79 49 35 51 67 52 47 53 66 54
REMARK SMILES IDX 48 55 51 56 65 57 84 58 49 59 50 60 64 62 85 63 52 64 36 65
REMARK SMILES IDX 37 66 45 67 38 68 44 69 46 70 43 71 39 72 40 73 41 74 42 75
REMARK SMILES IDX 68 76 69 77 77 78 70 79 76 80 78 81 75 82 71 83 72 84 73 85
REMARK SMILES IDX 74 86 53 87 54 88 62 89 55 90 61 91 63 92 60 93 56 94 57 95
REMARK SMILES IDX 58 96 59 97
REMARK H PARENT 11 16 83 50 51 61
REMARK Flexibility Score: inf
ROOT
ATOM      1  O   UNL A   1      37.197  20.184  24.987  1.00  0.00    -0.374 OA
ENDROOT
BRANCH   1   2
ATOM      2  C   UNL A   1      35.774  20.321  24.978  1.00  0.00     0.202 C 
BRANCH   2   3
ATOM      3  C   UNL A   1      35.478  21.792  24.807  1.00  0.00     0.261 C 
BRANCH   3   4
ATOM      4  O   UNL A   1      34.367  22.014  23.923  1.00  0.00    -0.463 OA
BRANCH   4   5
ATOM      5  C   UNL A   1      34.397  23.143  23.162  1.00  0.00     0.310 C 
ATOM      6  O   UNL A   1      35.390  23.672  22.717  1.00  0.00    -0.252 OA
BRANCH   5   7
ATOM      7  C   UNL A   1      32.981  23.530  22.812  1.00  0.00     0.119 C 
ATOM      8  C   UNL A   1      32.750  25.047  23.032  1.00  0.00     0.100 C 
ATOM      9  C   UNL A   1      31.294  25.083  23.564  1.00  0.00     0.025 C 
ATOM     10  C   UNL A   1      31.824  22.902  23.622  1.00  0.00     0.027 C 
ATOM     11  C   UNL A   1      31.396  24.706  25.020  1.00  0.00    -0.027 C 
ATOM     12  C   UNL A   1      30.686  23.763  23.056  1.00  0.00     0.017 C 
ATOM     13  C   UNL A   1      31.737  23.409  25.049  1.00  0.00    -0.027 C 
BRANCH   8  14
ATOM     14  C   UNL A   1      32.979  25.902  21.804  1.00  0.00     0.228 C 
ATOM     15  N   UNL A   1      33.050  27.270  21.918  1.00  0.00    -0.326 N 
ATOM     16  H   UNL A   1      33.225  27.749  21.076  1.00  0.00     0.169 HD
ATOM     17  O   UNL A   1      33.030  25.424  20.668  1.00  0.00    -0.274 OA
BRANCH  15  18
ATOM     18  C   UNL A   1      32.910  28.089  23.053  1.00  0.00     0.044 A 
ATOM     19  C   UNL A   1      30.484  28.579  22.379  1.00  0.00     0.047 C 
ATOM     20  C   UNL A   1      31.649  28.651  23.328  1.00  0.00    -0.021 A 
ATOM     21  C   UNL A   1      31.448  29.295  24.561  1.00  0.00     0.091 A 
ATOM     22  C   UNL A   1      32.489  29.379  25.493  1.00  0.00     0.269 A 
ATOM     23  C   UNL A   1      33.976  28.329  23.937  1.00  0.00     0.033 A 
ATOM     24  C   UNL A   1      33.769  28.941  25.174  1.00  0.00     0.088 A 
BRANCH  22  25
ATOM     25  N   UNL A   1      32.191  29.840  26.847  1.00  0.00     0.062 N 
ATOM     26  O   UNL A   1      31.550  29.065  27.575  1.00  0.00    -0.258 OA
ATOM     27  O   UNL A   1      32.717  30.901  27.204  1.00  0.00    -0.258 OA
ENDBRANCH  22  25
ENDBRANCH  15  18
ENDBRANCH   8  14
ENDBRANCH   5   7
ENDBRANCH   4   5
ENDBRANCH   3   4
ENDBRANCH   2   3
ENDBRANCH   1   2
BRANCH   1  28
ATOM     28  C   UNL A   1      37.913  21.389  25.208  1.00  0.00     0.202 C 
BRANCH  28  29
ATOM     29  C   UNL A   1      39.219  21.204  25.997  1.00  0.00     0.261 C 
BRANCH  29  30
ATOM     30  O   UNL A   1      39.453  22.359  26.822  1.00  0.00    -0.460 OA
BRANCH  30  31
ATOM     31  C   UNL A   1      40.468  23.162  26.408  1.00  0.00     0.338 C 
ATOM     32  O   UNL A   1      41.492  22.776  25.867  1.00  0.00    -0.246 OA
BRANCH  31  33
ATOM     33  C   UNL A   1      40.201  24.563  26.830  1.00  0.00     0.060 A 
ATOM     34  C   UNL A   1      40.852  25.628  26.183  1.00  0.00     0.016 A 
ATOM     35  C   UNL A   1      39.474  24.795  27.998  1.00  0.00     0.016 A 
ATOM     36  C   UNL A   1      40.864  26.902  26.769  1.00  0.00     0.010 A 
ATOM     37  C   UNL A   1      39.537  26.035  28.601  1.00  0.00     0.010 A 
ATOM     38  C   UNL A   1      40.250  27.088  28.008  1.00  0.00    -0.014 A 
BRANCH  38  39
ATOM     39  C   UNL A   1      40.393  28.273  28.857  1.00  0.00     0.031 A 
ATOM     40  C   UNL A   1      39.405  29.373  28.768  1.00  0.00     0.074 A 
ATOM     41  C   UNL A   1      41.266  28.262  29.889  1.00  0.00     0.049 A 
ATOM     42  N   UNL A   1      39.528  30.512  29.355  1.00  0.00    -0.248 NA
ATOM     43  C   UNL A   1      38.198  29.298  27.953  1.00  0.00     0.031 C 
ATOM     44  C   UNL A   1      41.272  29.123  31.065  1.00  0.00     0.029 A 
ATOM     45  N   UNL A   1      42.447  27.525  30.011  1.00  0.00    -0.354 N 
ATOM     46  C   UNL A   1      38.313  31.151  29.313  1.00  0.00     0.074 A 
ATOM     47  C   UNL A   1      37.576  30.425  28.311  1.00  0.00     0.031 C 
ATOM     48  C   UNL A   1      42.499  29.114  31.604  1.00  0.00     0.029 A 
ATOM     49  C   UNL A   1      43.345  28.304  30.748  1.00  0.00     0.049 A 
ATOM     50  H   UNL A   1      42.615  26.626  29.648  1.00  0.00     0.167 HD
ATOM     51  C   UNL A   1      38.058  32.119  30.246  1.00  0.00     0.034 A 
ATOM     52  C   UNL A   1      44.553  28.657  30.240  1.00  0.00     0.034 A 
ATOM     53  C   UNL A   1      39.300  32.481  30.968  1.00  0.00     0.049 A 
ATOM     54  C   UNL A   1      44.593  30.156  30.146  1.00  0.00     0.074 A 
ATOM     55  C   UNL A   1      39.735  32.336  32.277  1.00  0.00     0.029 A 
ATOM     56  N   UNL A   1      40.439  32.851  30.233  1.00  0.00    -0.354 N 
ATOM     57  N   UNL A   1      43.513  30.890  30.029  1.00  0.00    -0.248 NA
ATOM     58  C   UNL A   1      45.797  30.947  30.361  1.00  0.00     0.031 C 
ATOM     59  C   UNL A   1      41.153  32.505  32.292  1.00  0.00     0.029 A 
ATOM     60  C   UNL A   1      41.586  32.799  31.005  1.00  0.00     0.049 A 
ATOM     61  H   UNL A   1      40.422  33.116  29.284  1.00  0.00     0.167 HD
ATOM     62  C   UNL A   1      43.826  32.187  30.300  1.00  0.00     0.074 A 
ATOM     63  C   UNL A   1      45.278  32.185  30.442  1.00  0.00     0.031 C 
ATOM     64  C   UNL A   1      42.895  33.174  30.470  1.00  0.00     0.034 A 
BRANCH  51  65
ATOM     65  C   UNL A   1      36.655  32.568  30.682  1.00  0.00     0.023 A 
ATOM     66  C   UNL A   1      35.868  33.364  29.815  1.00  0.00     0.031 A 
ATOM     67  C   UNL A   1      36.055  32.334  31.943  1.00  0.00     0.131 A 
ATOM     68  C   UNL A   1      34.622  33.907  30.221  1.00  0.00     0.055 A 
ATOM     69  C   UNL A   1      34.822  32.871  32.344  1.00  0.00     0.041 A 
ATOM     70  F   UNL A   1      36.605  31.561  32.879  1.00  0.00    -0.206 F 
ATOM     71  C   UNL A   1      34.100  33.668  31.486  1.00  0.00     0.022 A 
BRANCH  68  72
ATOM     72  S   UNL A   1      33.670  34.956  29.087  1.00  0.00     0.124 S 
ATOM     73  O   UNL A   1      34.731  35.562  28.291  1.00  0.00    -0.237 OA
ATOM     74  O   UNL A   1      32.811  33.991  28.410  1.00  0.00    -0.237 OA
ATOM     75  O   UNL A   1      32.970  35.876  29.984  1.00  0.00    -0.744 OA
ENDBRANCH  68  72
ENDBRANCH  51  65
BRANCH  52  76
ATOM     76  C   UNL A   1      45.151  27.604  29.368  1.00  0.00     0.023 A 
ATOM     77  C   UNL A   1      44.867  27.691  27.978  1.00  0.00     0.031 A 
ATOM     78  C   UNL A   1      46.262  26.839  29.749  1.00  0.00     0.131 A 
ATOM     79  C   UNL A   1      45.738  27.137  27.024  1.00  0.00     0.055 A 
ATOM     80  C   UNL A   1      47.115  26.263  28.793  1.00  0.00     0.041 A 
ATOM     81  F   UNL A   1      46.613  26.741  31.038  1.00  0.00    -0.206 F 
ATOM     82  C   UNL A   1      46.878  26.440  27.427  1.00  0.00     0.022 A 
BRANCH  79  83
ATOM     83  S   UNL A   1      45.558  27.572  25.257  1.00  0.00     0.124 S 
ATOM     84  O   UNL A   1      46.212  26.451  24.594  1.00  0.00    -0.237 OA
ATOM     85  O   UNL A   1      44.113  27.662  25.075  1.00  0.00    -0.237 OA
ATOM     86  O   UNL A   1      46.257  28.855  25.165  1.00  0.00    -0.744 OA
ENDBRANCH  79  83
ENDBRANCH  52  76
BRANCH  64  87
ATOM     87  C   UNL A   1      43.235  34.625  30.255  1.00  0.00     0.023 A 
ATOM     88  C   UNL A   1      43.235  35.197  28.974  1.00  0.00     0.031 A 
ATOM     89  C   UNL A   1      43.433  35.516  31.330  1.00  0.00     0.131 A 
ATOM     90  C   UNL A   1      43.539  36.549  28.779  1.00  0.00     0.055 A 
ATOM     91  C   UNL A   1      43.640  36.884  31.141  1.00  0.00     0.041 A 
ATOM     92  F   UNL A   1      43.406  35.102  32.606  1.00  0.00    -0.206 F 
ATOM     93  C   UNL A   1      43.716  37.407  29.857  1.00  0.00     0.022 A 
BRANCH  90  94
ATOM     94  S   UNL A   1      43.764  37.120  27.078  1.00  0.00     0.124 S 
ATOM     95  O   UNL A   1      45.042  36.505  26.727  1.00  0.00    -0.237 OA
ATOM     96  O   UNL A   1      42.593  36.573  26.401  1.00  0.00    -0.237 OA
ATOM     97  O   UNL A   1      43.788  38.575  27.205  1.00  0.00    -0.744 OA
ENDBRANCH  90  94
ENDBRANCH  64  87
ENDBRANCH  38  39
ENDBRANCH  31  33
ENDBRANCH  30  31
ENDBRANCH  29  30
ENDBRANCH  28  29
ENDBRANCH   1  28
TORSDOF 20
ENDMDL
MODEL 3
REMARK VINA RESULT:     -12.4      4.280     10.116
REMARK SMILES Cc1cc([N+](=O)[O-])ccc1NC(=O)[C@@H]1[C@@H](C(=O)OCCOCCOC(=O)c2ccc(-c3c4nc(c(-c5cc(S(=O)(=O)[O-])ccc5F)c5ccc([nH]5)c(-c5cc(S(=O)(=O)[O-])ccc5F)c5nc(c(-c6cc(S(=O)(=O)[O-])ccc6F)c6ccc3[nH]6)C=C5)C=C4)cc2)[C@H]2C=C[C@@H]1C2
REMARK SMILES IDX 21 1 20 2 19 3 18 4 16 5 17 6 15 7 14 8 93 9 90 10 92 11
REMARK SMILES IDX 94 12 91 13 12 14 11 15 13 17 10 18 1 19 2 20 3 21 4 22 9 23
REMARK SMILES IDX 8 24 5 25 6 26 7 27 22 28 23 29 24 30 25 31 26 32 27 33
REMARK SMILES IDX 28 34 89 35 29 36 88 37 30 38 31 39 32 40 82 41 33 42 87 43
REMARK SMILES IDX 81 44 83 45 34 46 86 47 80 48 79 49 35 51 67 52 47 53 66 54
REMARK SMILES IDX 48 55 51 56 65 57 84 58 49 59 50 60 64 62 85 63 52 64 36 65
REMARK SMILES IDX 37 66 45 67 38 68 44 69 46 70 43 71 39 72 40 73 41 74 42 75
REMARK SMILES IDX 68 76 69 77 77 78 70 79 76 80 78 81 75 82 71 83 72 84 73 85
REMARK SMILES IDX 74 86 53 87 54 88 62 89 55 90 61 91 63 92 60 93 56 94 57 95
REMARK SMILES IDX 58 96 59 97
REMARK H PARENT 11 16 83 50 51 61
REMARK Flexibility Score: inf
ROOT
ATOM      1  O   UNL A   1      37.031  21.136  24.624  1.00  0.00    -0.374 OA
ENDROOT
BRANCH   1   2
ATOM      2  C   UNL A   1      36.362  19.974  25.121  1.00  0.00     0.202 C 
BRANCH   2   3
ATOM      3  C   UNL A   1      34.919  20.083  24.689  1.00  0.00     0.261 C 
BRANCH   3   4
ATOM      4  O   UNL A   1      34.114  20.743  25.680  1.00  0.00    -0.463 OA
BRANCH   4   5
ATOM      5  C   UNL A   1      33.209  21.658  25.232  1.00  0.00     0.310 C 
ATOM      6  O   UNL A   1      32.156  21.408  24.693  1.00  0.00    -0.252 OA
BRANCH   5   7
ATOM      7  C   UNL A   1      33.648  23.032  25.677  1.00  0.00     0.119 C 
ATOM      8  C   UNL A   1      32.535  24.080  25.424  1.00  0.00     0.100 C 
ATOM      9  C   UNL A   1      33.349  25.330  25.004  1.00  0.00     0.025 C 
ATOM     10  C   UNL A   1      34.869  23.676  24.979  1.00  0.00     0.027 C 
ATOM     11  C   UNL A   1      33.709  25.100  23.558  1.00  0.00    -0.027 C 
ATOM     12  C   UNL A   1      34.745  25.074  25.602  1.00  0.00     0.017 C 
ATOM     13  C   UNL A   1      34.597  24.095  23.547  1.00  0.00    -0.027 C 
BRANCH   8  14
ATOM     14  C   UNL A   1      31.612  24.311  26.602  1.00  0.00     0.228 C 
ATOM     15  N   UNL A   1      30.711  25.349  26.579  1.00  0.00    -0.326 N 
ATOM     16  H   UNL A   1      30.133  25.415  27.373  1.00  0.00     0.169 HD
ATOM     17  O   UNL A   1      31.684  23.645  27.637  1.00  0.00    -0.274 OA
BRANCH  15  18
ATOM     18  C   UNL A   1      30.490  26.331  25.596  1.00  0.00     0.044 A 
ATOM     19  C   UNL A   1      31.756  28.034  27.038  1.00  0.00     0.047 C 
ATOM     20  C   UNL A   1      31.068  27.603  25.772  1.00  0.00    -0.021 A 
ATOM     21  C   UNL A   1      31.027  28.518  24.706  1.00  0.00     0.091 A 
ATOM     22  C   UNL A   1      30.416  28.169  23.496  1.00  0.00     0.269 A 
ATOM     23  C   UNL A   1      29.746  26.069  24.433  1.00  0.00     0.033 A 
ATOM     24  C   UNL A   1      29.733  26.966  23.363  1.00  0.00     0.088 A 
BRANCH  22  25
ATOM     25  N   UNL A   1      30.593  29.040  22.337  1.00  0.00     0.062 N 
ATOM     26  O   UNL A   1      29.564  29.413  21.752  1.00  0.00    -0.258 OA
ATOM     27  O   UNL A   1      31.740  29.448  22.116  1.00  0.00    -0.258 OA
ENDBRANCH  22  25
ENDBRANCH  15  18
ENDBRANCH   8  14
ENDBRANCH   5   7
ENDBRANCH   4   5
ENDBRANCH   3   4
ENDBRANCH   2   3
ENDBRANCH   1   2
BRANCH   1  28
ATOM     28  C   UNL A   1      38.249  21.452  25.280  1.00  0.00     0.202 C 
BRANCH  28  29
ATOM     29  C   UNL A   1      38.237  22.809  26.000  1.00  0.00     0.261 C 
BRANCH  29  30
ATOM     30  O   UNL A   1      39.206  22.801  27.063  1.00  0.00    -0.460 OA
BRANCH  30  31
ATOM     31  C   UNL A   1      40.306  23.569  26.840  1.00  0.00     0.338 C 
ATOM     32  O   UNL A   1      41.404  23.144  26.518  1.00  0.00    -0.246 OA
BRANCH  31  33
ATOM     33  C   UNL A   1      40.002  24.985  27.174  1.00  0.00     0.060 A 
ATOM     34  C   UNL A   1      40.506  26.021  26.367  1.00  0.00     0.016 A 
ATOM     35  C   UNL A   1      39.402  25.284  28.398  1.00  0.00     0.016 A 
ATOM     36  C   UNL A   1      40.507  27.341  26.840  1.00  0.00     0.010 A 
ATOM     37  C   UNL A   1      39.456  26.574  28.883  1.00  0.00     0.010 A 
ATOM     38  C   UNL A   1      40.029  27.605  28.125  1.00  0.00    -0.014 A 
BRANCH  38  39
ATOM     39  C   UNL A   1      40.195  28.868  28.848  1.00  0.00     0.031 A 
ATOM     40  C   UNL A   1      39.162  29.923  28.746  1.00  0.00     0.074 A 
ATOM     41  C   UNL A   1      41.150  28.978  29.800  1.00  0.00     0.049 A 
ATOM     42  N   UNL A   1      39.287  31.115  29.217  1.00  0.00    -0.248 NA
ATOM     43  C   UNL A   1      37.896  29.736  28.046  1.00  0.00     0.031 C 
ATOM     44  C   UNL A   1      41.218  29.945  30.890  1.00  0.00     0.029 A 
ATOM     45  N   UNL A   1      42.364  28.293  29.887  1.00  0.00    -0.354 N 
ATOM     46  C   UNL A   1      38.049  31.709  29.221  1.00  0.00     0.074 A 
ATOM     47  C   UNL A   1      37.261  30.871  28.353  1.00  0.00     0.031 C 
ATOM     48  C   UNL A   1      42.484  30.024  31.321  1.00  0.00     0.029 A 
ATOM     49  C   UNL A   1      43.288  29.165  30.472  1.00  0.00     0.049 A 
ATOM     50  H   UNL A   1      42.537  27.370  29.592  1.00  0.00     0.167 HD
ATOM     51  C   UNL A   1      37.833  32.750  30.082  1.00  0.00     0.034 A 
ATOM     52  C   UNL A   1      44.436  29.506  29.835  1.00  0.00     0.034 A 
ATOM     53  C   UNL A   1      39.116  33.216  30.661  1.00  0.00     0.049 A 
ATOM     54  C   UNL A   1      44.410  30.992  29.604  1.00  0.00     0.074 A 
ATOM     55  C   UNL A   1      39.661  33.206  31.935  1.00  0.00     0.029 A 
ATOM     56  N   UNL A   1      40.176  33.552  29.802  1.00  0.00    -0.354 N 
ATOM     57  N   UNL A   1      43.297  31.677  29.514  1.00  0.00    -0.248 NA
ATOM     58  C   UNL A   1      45.596  31.836  29.644  1.00  0.00     0.031 C 
ATOM     59  C   UNL A   1      41.068  33.419  31.815  1.00  0.00     0.029 A 
ATOM     60  C   UNL A   1      41.383  33.607  30.475  1.00  0.00     0.049 A 
ATOM     61  H   UNL A   1      40.072  33.727  28.838  1.00  0.00     0.167 HD
ATOM     62  C   UNL A   1      43.580  33.003  29.640  1.00  0.00     0.074 A 
ATOM     63  C   UNL A   1      45.038  33.060  29.658  1.00  0.00     0.031 C 
ATOM     64  C   UNL A   1      42.629  33.972  29.799  1.00  0.00     0.034 A 
BRANCH  51  65
ATOM     65  C   UNL A   1      36.454  33.193  30.594  1.00  0.00     0.023 A 
ATOM     66  C   UNL A   1      35.592  33.930  29.746  1.00  0.00     0.031 A 
ATOM     67  C   UNL A   1      35.949  33.012  31.904  1.00  0.00     0.131 A 
ATOM     68  C   UNL A   1      34.365  34.468  30.212  1.00  0.00     0.055 A 
ATOM     69  C   UNL A   1      34.736  33.544  32.364  1.00  0.00     0.041 A 
ATOM     70  F   UNL A   1      36.580  32.297  32.835  1.00  0.00    -0.206 F 
ATOM     71  C   UNL A   1      33.937  34.284  31.521  1.00  0.00     0.022 A 
BRANCH  68  72
ATOM     72  S   UNL A   1      33.313  35.441  29.098  1.00  0.00     0.124 S 
ATOM     73  O   UNL A   1      34.309  36.149  28.302  1.00  0.00    -0.237 OA
ATOM     74  O   UNL A   1      32.538  34.411  28.416  1.00  0.00    -0.237 OA
ATOM     75  O   UNL A   1      32.541  36.284  30.012  1.00  0.00    -0.744 OA
ENDBRANCH  68  72
ENDBRANCH  51  65
BRANCH  52  76
ATOM     76  C   UNL A   1      45.002  28.397  29.012  1.00  0.00     0.023 A 
ATOM     77  C   UNL A   1      45.221  28.673  27.635  1.00  0.00     0.031 A 
ATOM     78  C   UNL A   1      45.696  27.314  29.568  1.00  0.00     0.131 A 
ATOM     79  C   UNL A   1      46.187  27.965  26.899  1.00  0.00     0.055 A 
ATOM     80  C   UNL A   1      46.640  26.590  28.821  1.00  0.00     0.041 A 
ATOM     81  F   UNL A   1      45.568  27.016  30.868  1.00  0.00    -0.206 F 
ATOM     82  C   UNL A   1      46.917  26.936  27.496  1.00  0.00     0.022 A 
BRANCH  79  83
ATOM     83  S   UNL A   1      46.712  28.572  25.256  1.00  0.00     0.124 S 
ATOM     84  O   UNL A   1      46.346  29.982  25.315  1.00  0.00    -0.237 OA
ATOM     85  O   UNL A   1      48.144  28.289  25.231  1.00  0.00    -0.237 OA
ATOM     86  O   UNL A   1      45.920  27.752  24.338  1.00  0.00    -0.744 OA
ENDBRANCH  79  83
ENDBRANCH  52  76
BRANCH  64  87
ATOM     87  C   UNL A   1      42.893  35.406  29.429  1.00  0.00     0.023 A 
ATOM     88  C   UNL A   1      43.466  36.307  30.340  1.00  0.00     0.031 A 
ATOM     89  C   UNL A   1      42.713  35.888  28.115  1.00  0.00     0.131 A 
ATOM     90  C   UNL A   1      43.722  37.637  29.988  1.00  0.00     0.055 A 
ATOM     91  C   UNL A   1      43.060  37.187  27.739  1.00  0.00     0.041 A 
ATOM     92  F   UNL A   1      42.221  35.110  27.139  1.00  0.00    -0.206 F 
ATOM     93  C   UNL A   1      43.549  38.080  28.683  1.00  0.00     0.022 A 
BRANCH  90  94
ATOM     94  S   UNL A   1      44.216  38.772  31.307  1.00  0.00     0.124 S 
ATOM     95  O   UNL A   1      44.064  37.931  32.492  1.00  0.00    -0.237 OA
ATOM     96  O   UNL A   1      45.589  39.106  30.942  1.00  0.00    -0.237 OA
ATOM     97  O   UNL A   1      43.256  39.867  31.193  1.00  0.00    -0.744 OA
ENDBRANCH  90  94
ENDBRANCH  64  87
ENDBRANCH  38  39
ENDBRANCH  31  33
ENDBRANCH  30  31
ENDBRANCH  29  30
ENDBRANCH  28  29
ENDBRANCH   1  28
TORSDOF 20
ENDMDL
