MODEL 1
REMARK VINA RESULT:     -11.8      0.000      0.000
REMARK SMILES NS(=O)(=O)c1ccc(N2N=C(C(=O)OCCOCCOC(=O)c3ccc(-c4c5nc(c(-c6cc(S(=O)(=O)[O-])ccc6F)c6ccc([nH]6)c(-c6cc(S(=O)(=O)[O-])ccc6F)c6nc(c(-c7cc(S(=O)(=O)[O-])ccc7F)c7ccc4[nH]7)C=C6)C=C5)cc3)C[C@H]2c2ccco2)cc1
REMARK SMILES IDX 17 1 16 2 15 3 14 4 12 5 13 6 11 7 9 8 10 9 87 10 86 11 8 12
REMARK SMILES IDX 5 13 6 14 94 15 7 16 93 17 2 18 3 19 4 20 1 21 88 24 89 25
REMARK SMILES IDX 92 26 90 27 91 28 18 29 19 30 20 31 21 32 22 33 23 34 24 35
REMARK SMILES IDX 85 36 25 37 84 38 26 39 27 40 28 41 78 42 29 43 83 44 77 45
REMARK SMILES IDX 79 46 30 47 82 48 76 49 75 50 31 52 63 53 43 54 62 55 44 56
REMARK SMILES IDX 47 57 61 58 80 59 45 60 46 61 60 63 81 64 48 65 32 66 33 67
REMARK SMILES IDX 41 68 34 69 40 70 42 71 39 72 35 73 36 74 37 75 38 76 64 77
REMARK SMILES IDX 65 78 73 79 66 80 72 81 74 82 71 83 67 84 68 85 69 86 70 87
REMARK SMILES IDX 49 88 50 89 58 90 51 91 57 92 59 93 56 94 52 95 53 96 54 97
REMARK SMILES IDX 55 98
REMARK H PARENT 1 22 1 23 79 51 47 62
REMARK Flexibility Score: inf
ROOT
ATOM      1  O   UNL A   1      31.828  28.237  25.353  1.00  0.00    -0.374 OA
ENDROOT
BRANCH   1   2
ATOM      2  C   UNL A   1      31.646  28.939  24.125  1.00  0.00     0.202 C 
BRANCH   2   3
ATOM      3  C   UNL A   1      32.190  28.283  22.853  1.00  0.00     0.261 C 
BRANCH   3   4
ATOM      4  O   UNL A   1      33.410  27.576  23.111  1.00  0.00    -0.459 OA
BRANCH   4   5
ATOM      5  C   UNL A   1      33.530  26.397  22.467  1.00  0.00     0.354 C 
ATOM      6  O   UNL A   1      33.649  26.199  21.272  1.00  0.00    -0.245 OA
BRANCH   5   7
ATOM      7  C   UNL A   1      33.658  25.291  23.483  1.00  0.00     0.148 C 
ATOM      8  N   UNL A   1      33.836  23.348  24.308  1.00  0.00    -0.254 N 
ATOM      9  N   UNL A   1      33.756  24.044  23.138  1.00  0.00    -0.169 NA
ATOM     10  C   UNL A   1      33.477  24.179  25.477  1.00  0.00     0.180 C 
ATOM     11  C   UNL A   1      33.796  25.585  24.942  1.00  0.00     0.101 C 
BRANCH   8  12
ATOM     12  C   UNL A   1      33.719  21.969  24.244  1.00  0.00     0.060 A 
ATOM     13  C   UNL A   1      33.521  19.169  24.124  1.00  0.00     0.082 A 
ATOM     14  C   UNL A   1      34.625  19.756  24.743  1.00  0.00     0.024 A 
ATOM     15  C   UNL A   1      32.531  19.960  23.543  1.00  0.00     0.024 A 
ATOM     16  C   UNL A   1      34.719  21.153  24.795  1.00  0.00     0.029 A 
ATOM     17  C   UNL A   1      32.651  21.350  23.584  1.00  0.00     0.029 A 
BRANCH  13  18
ATOM     18  S   UNL A   1      33.324  17.413  24.110  1.00  0.00     0.238 S 
ATOM     19  O   UNL A   1      34.241  16.826  25.058  1.00  0.00    -0.207 OA
ATOM     20  O   UNL A   1      33.229  16.948  22.743  1.00  0.00    -0.207 OA
BRANCH  18  21
ATOM     21  N   UNL A   1      31.794  17.222  24.769  1.00  0.00    -0.225 NA
ATOM     22  H   UNL A   1      31.269  16.543  24.218  1.00  0.00     0.137 HD
ATOM     23  H   UNL A   1      31.306  18.117  24.760  1.00  0.00     0.137 HD
ENDBRANCH  18  21
ENDBRANCH  13  18
ENDBRANCH   8  12
BRANCH  10  24
ATOM     24  C   UNL A   1      32.067  24.078  25.999  1.00  0.00     0.128 A 
ATOM     25  C   UNL A   1      31.376  23.077  26.658  1.00  0.00     0.048 A 
ATOM     26  O   UNL A   1      31.244  25.159  25.836  1.00  0.00    -0.467 OA
ATOM     27  C   UNL A   1      30.064  23.562  26.876  1.00  0.00     0.042 A 
ATOM     28  C   UNL A   1      30.043  24.842  26.379  1.00  0.00     0.195 A 
ENDBRANCH  10  24
ENDBRANCH   5   7
ENDBRANCH   4   5
ENDBRANCH   3   4
ENDBRANCH   2   3
ENDBRANCH   1   2
BRANCH   1  29
ATOM     29  C   UNL A   1      31.674  28.955  26.576  1.00  0.00     0.202 C 
BRANCH  29  30
ATOM     30  C   UNL A   1      31.815  30.485  26.558  1.00  0.00     0.261 C 
BRANCH  30  31
ATOM     31  O   UNL A   1      33.155  30.945  26.314  1.00  0.00    -0.460 OA
BRANCH  31  32
ATOM     32  C   UNL A   1      33.628  31.780  27.277  1.00  0.00     0.338 C 
ATOM     33  O   UNL A   1      33.013  32.674  27.834  1.00  0.00    -0.246 OA
BRANCH  32  34
ATOM     34  C   UNL A   1      34.969  31.353  27.721  1.00  0.00     0.060 A 
ATOM     35  C   UNL A   1      35.159  29.986  27.959  1.00  0.00     0.016 A 
ATOM     36  C   UNL A   1      35.984  32.269  28.000  1.00  0.00     0.016 A 
ATOM     37  C   UNL A   1      36.343  29.537  28.537  1.00  0.00     0.010 A 
ATOM     38  C   UNL A   1      37.175  31.815  28.581  1.00  0.00     0.010 A 
ATOM     39  C   UNL A   1      37.343  30.453  28.892  1.00  0.00    -0.014 A 
BRANCH  39  40
ATOM     40  C   UNL A   1      38.492  29.984  29.711  1.00  0.00     0.031 A 
ATOM     41  C   UNL A   1      39.435  28.957  29.142  1.00  0.00     0.074 A 
ATOM     42  C   UNL A   1      38.728  30.519  30.923  1.00  0.00     0.049 A 
ATOM     43  N   UNL A   1      40.506  28.426  29.674  1.00  0.00    -0.248 NA
ATOM     44  C   UNL A   1      39.125  28.459  27.793  1.00  0.00     0.031 C 
ATOM     45  C   UNL A   1      37.909  31.549  31.563  1.00  0.00     0.029 A 
ATOM     46  N   UNL A   1      39.731  30.278  31.830  1.00  0.00    -0.354 N 
ATOM     47  C   UNL A   1      40.997  27.530  28.728  1.00  0.00     0.074 A 
ATOM     48  C   UNL A   1      40.078  27.557  27.612  1.00  0.00     0.031 C 
ATOM     49  C   UNL A   1      38.447  31.857  32.754  1.00  0.00     0.029 A 
ATOM     50  C   UNL A   1      39.623  31.020  32.983  1.00  0.00     0.049 A 
ATOM     51  H   UNL A   1      40.458  29.635  31.670  1.00  0.00     0.167 HD
ATOM     52  C   UNL A   1      42.119  26.768  28.783  1.00  0.00     0.034 A 
ATOM     53  C   UNL A   1      40.376  31.014  34.101  1.00  0.00     0.034 A 
ATOM     54  C   UNL A   1      43.022  26.749  29.909  1.00  0.00     0.049 A 
ATOM     55  C   UNL A   1      41.577  30.101  34.168  1.00  0.00     0.074 A 
ATOM     56  C   UNL A   1      44.193  26.025  30.062  1.00  0.00     0.029 A 
ATOM     57  N   UNL A   1      42.854  27.475  31.082  1.00  0.00    -0.354 N 
ATOM     58  N   UNL A   1      42.035  29.266  33.263  1.00  0.00    -0.248 NA
ATOM     59  C   UNL A   1      42.369  30.142  35.403  1.00  0.00     0.031 C 
ATOM     60  C   UNL A   1      44.682  26.246  31.354  1.00  0.00     0.029 A 
ATOM     61  C   UNL A   1      43.877  27.188  31.974  1.00  0.00     0.049 A 
ATOM     62  H   UNL A   1      42.115  28.103  31.254  1.00  0.00     0.167 HD
ATOM     63  C   UNL A   1      43.194  28.715  33.807  1.00  0.00     0.074 A 
ATOM     64  C   UNL A   1      43.369  29.327  35.107  1.00  0.00     0.031 C 
ATOM     65  C   UNL A   1      44.039  27.792  33.277  1.00  0.00     0.034 A 
BRANCH  52  66
ATOM     66  C   UNL A   1      42.398  25.852  27.612  1.00  0.00     0.023 A 
ATOM     67  C   UNL A   1      41.817  24.575  27.509  1.00  0.00     0.031 A 
ATOM     68  C   UNL A   1      43.275  26.257  26.589  1.00  0.00     0.131 A 
ATOM     69  C   UNL A   1      42.174  23.725  26.450  1.00  0.00     0.055 A 
ATOM     70  C   UNL A   1      43.558  25.441  25.493  1.00  0.00     0.041 A 
ATOM     71  F   UNL A   1      43.881  27.453  26.643  1.00  0.00    -0.206 F 
ATOM     72  C   UNL A   1      43.018  24.160  25.426  1.00  0.00     0.022 A 
BRANCH  69  73
ATOM     73  S   UNL A   1      41.642  21.992  26.510  1.00  0.00     0.124 S 
ATOM     74  O   UNL A   1      40.223  22.108  26.182  1.00  0.00    -0.237 OA
ATOM     75  O   UNL A   1      42.483  21.369  25.495  1.00  0.00    -0.237 OA
ATOM     76  O   UNL A   1      41.925  21.594  27.887  1.00  0.00    -0.744 OA
ENDBRANCH  69  73
ENDBRANCH  52  66
BRANCH  53  77
ATOM     77  C   UNL A   1      40.009  31.873  35.265  1.00  0.00     0.023 A 
ATOM     78  C   UNL A   1      39.120  31.423  36.254  1.00  0.00     0.031 A 
ATOM     79  C   UNL A   1      40.500  33.188  35.372  1.00  0.00     0.131 A 
ATOM     80  C   UNL A   1      38.708  32.295  37.275  1.00  0.00     0.055 A 
ATOM     81  C   UNL A   1      40.137  34.029  36.423  1.00  0.00     0.041 A 
ATOM     82  F   UNL A   1      41.350  33.672  34.452  1.00  0.00    -0.206 F 
ATOM     83  C   UNL A   1      39.223  33.589  37.375  1.00  0.00     0.022 A 
BRANCH  80  84
ATOM     84  S   UNL A   1      37.406  31.748  38.413  1.00  0.00     0.124 S 
ATOM     85  O   UNL A   1      38.066  31.885  39.706  1.00  0.00    -0.237 OA
ATOM     86  O   UNL A   1      36.338  32.702  38.131  1.00  0.00    -0.237 OA
ATOM     87  O   UNL A   1      37.141  30.375  37.988  1.00  0.00    -0.744 OA
ENDBRANCH  80  84
ENDBRANCH  53  77
BRANCH  65  88
ATOM     88  C   UNL A   1      45.264  27.435  34.089  1.00  0.00     0.023 A 
ATOM     89  C   UNL A   1      45.260  26.387  35.026  1.00  0.00     0.031 A 
ATOM     90  C   UNL A   1      46.448  28.184  33.950  1.00  0.00     0.131 A 
ATOM     91  C   UNL A   1      46.380  26.172  35.844  1.00  0.00     0.055 A 
ATOM     92  C   UNL A   1      47.587  27.913  34.709  1.00  0.00     0.041 A 
ATOM     93  F   UNL A   1      46.515  29.201  33.075  1.00  0.00    -0.206 F 
ATOM     94  C   UNL A   1      47.551  26.915  35.677  1.00  0.00     0.022 A 
BRANCH  91  95
ATOM     95  S   UNL A   1      46.235  25.004  37.226  1.00  0.00     0.124 S 
ATOM     96  O   UNL A   1      44.789  24.863  37.352  1.00  0.00    -0.237 OA
ATOM     97  O   UNL A   1      46.949  23.835  36.721  1.00  0.00    -0.237 OA
ATOM     98  O   UNL A   1      46.890  25.701  38.333  1.00  0.00    -0.744 OA
ENDBRANCH  91  95
ENDBRANCH  65  88
ENDBRANCH  39  40
ENDBRANCH  32  34
ENDBRANCH  31  32
ENDBRANCH  30  31
ENDBRANCH  29  30
ENDBRANCH   1  29
TORSDOF 21
ENDMDL
MODEL 2
REMARK VINA RESULT:     -11.7      5.255      8.256
REMARK SMILES NS(=O)(=O)c1ccc(N2N=C(C(=O)OCCOCCOC(=O)c3ccc(-c4c5nc(c(-c6cc(S(=O)(=O)[O-])ccc6F)c6ccc([nH]6)c(-c6cc(S(=O)(=O)[O-])ccc6F)c6nc(c(-c7cc(S(=O)(=O)[O-])ccc7F)c7ccc4[nH]7)C=C6)C=C5)cc3)C[C@H]2c2ccco2)cc1
REMARK SMILES IDX 17 1 16 2 15 3 14 4 12 5 13 6 11 7 9 8 10 9 87 10 86 11 8 12
REMARK SMILES IDX 5 13 6 14 94 15 7 16 93 17 2 18 3 19 4 20 1 21 88 24 89 25
REMARK SMILES IDX 92 26 90 27 91 28 18 29 19 30 20 31 21 32 22 33 23 34 24 35
REMARK SMILES IDX 85 36 25 37 84 38 26 39 27 40 28 41 78 42 29 43 83 44 77 45
REMARK SMILES IDX 79 46 30 47 82 48 76 49 75 50 31 52 63 53 43 54 62 55 44 56
REMARK SMILES IDX 47 57 61 58 80 59 45 60 46 61 60 63 81 64 48 65 32 66 33 67
REMARK SMILES IDX 41 68 34 69 40 70 42 71 39 72 35 73 36 74 37 75 38 76 64 77
REMARK SMILES IDX 65 78 73 79 66 80 72 81 74 82 71 83 67 84 68 85 69 86 70 87
REMARK SMILES IDX 49 88 50 89 58 90 51 91 57 92 59 93 56 94 52 95 53 96 54 97
REMARK SMILES IDX 55 98
REMARK H PARENT 1 22 1 23 79 51 47 62
REMARK Flexibility Score: inf
ROOT
ATOM      1  O   UNL A   1      34.981  20.924  25.380  1.00  0.00    -0.374 OA
ENDROOT
BRANCH   1   2
ATOM      2  C   UNL A   1      34.570  21.706  26.500  1.00  0.00     0.202 C 
BRANCH   2   3
ATOM      3  C   UNL A   1      33.094  21.637  26.902  1.00  0.00     0.261 C 
BRANCH   3   4
ATOM      4  O   UNL A   1      32.269  22.364  25.983  1.00  0.00    -0.459 OA
BRANCH   4   5
ATOM      5  C   UNL A   1      31.579  23.388  26.527  1.00  0.00     0.354 C 
ATOM      6  O   UNL A   1      30.905  23.389  27.540  1.00  0.00    -0.245 OA
BRANCH   5   7
ATOM      7  C   UNL A   1      31.885  24.650  25.761  1.00  0.00     0.148 C 
ATOM      8  N   UNL A   1      31.621  26.535  24.832  1.00  0.00    -0.254 N 
ATOM      9  N   UNL A   1      30.994  25.572  25.565  1.00  0.00    -0.169 NA
ATOM     10  C   UNL A   1      32.910  26.065  24.280  1.00  0.00     0.180 C 
ATOM     11  C   UNL A   1      33.268  24.957  25.285  1.00  0.00     0.101 C 
BRANCH   8  12
ATOM     12  C   UNL A   1      30.837  27.538  24.284  1.00  0.00     0.060 A 
ATOM     13  C   UNL A   1      29.227  29.545  23.155  1.00  0.00     0.082 A 
ATOM     14  C   UNL A   1      28.813  28.214  23.096  1.00  0.00     0.024 A 
ATOM     15  C   UNL A   1      30.444  29.882  23.748  1.00  0.00     0.024 A 
ATOM     16  C   UNL A   1      29.623  27.219  23.658  1.00  0.00     0.029 A 
ATOM     17  C   UNL A   1      31.250  28.876  24.282  1.00  0.00     0.029 A 
BRANCH  13  18
ATOM     18  S   UNL A   1      28.196  30.838  22.534  1.00  0.00     0.238 S 
ATOM     19  O   UNL A   1      27.262  31.234  23.560  1.00  0.00    -0.207 OA
ATOM     20  O   UNL A   1      27.771  30.512  21.190  1.00  0.00    -0.207 OA
BRANCH  18  21
ATOM     21  N   UNL A   1      29.277  32.110  22.378  1.00  0.00    -0.225 NA
ATOM     22  H   UNL A   1      30.008  32.025  23.085  1.00  0.00     0.137 HD
ATOM     23  H   UNL A   1      28.783  32.993  22.506  1.00  0.00     0.137 HD
ENDBRANCH  18  21
ENDBRANCH  13  18
ENDBRANCH   8  12
BRANCH  10  24
ATOM     24  C   UNL A   1      32.920  25.566  22.859  1.00  0.00     0.128 A 
ATOM     25  C   UNL A   1      32.752  26.195  21.639  1.00  0.00     0.048 A 
ATOM     26  O   UNL A   1      33.146  24.233  22.649  1.00  0.00    -0.467 OA
ATOM     27  C   UNL A   1      32.848  25.191  20.645  1.00  0.00     0.042 A 
ATOM     28  C   UNL A   1      33.113  24.019  21.311  1.00  0.00     0.195 A 
ENDBRANCH  10  24
ENDBRANCH   5   7
ENDBRANCH   4   5
ENDBRANCH   3   4
ENDBRANCH   2   3
ENDBRANCH   1   2
BRANCH   1  29
ATOM     29  C   UNL A   1      36.012  21.434  24.536  1.00  0.00     0.202 C 
BRANCH  29  30
ATOM     30  C   UNL A   1      37.440  20.893  24.702  1.00  0.00     0.261 C 
BRANCH  30  31
ATOM     31  O   UNL A   1      37.920  20.921  26.057  1.00  0.00    -0.460 OA
BRANCH  31  32
ATOM     32  C   UNL A   1      39.275  20.937  26.155  1.00  0.00     0.338 C 
ATOM     33  O   UNL A   1      40.053  20.147  25.646  1.00  0.00    -0.246 OA
BRANCH  32  34
ATOM     34  C   UNL A   1      39.733  22.171  26.823  1.00  0.00     0.060 A 
ATOM     35  C   UNL A   1      39.083  23.363  26.480  1.00  0.00     0.016 A 
ATOM     36  C   UNL A   1      40.834  22.185  27.682  1.00  0.00     0.016 A 
ATOM     37  C   UNL A   1      39.572  24.582  26.944  1.00  0.00     0.010 A 
ATOM     38  C   UNL A   1      41.323  23.412  28.148  1.00  0.00     0.010 A 
ATOM     39  C   UNL A   1      40.720  24.619  27.746  1.00  0.00    -0.014 A 
BRANCH  39  40
ATOM     40  C   UNL A   1      41.353  25.932  28.037  1.00  0.00     0.031 A 
ATOM     41  C   UNL A   1      42.751  26.202  27.546  1.00  0.00     0.074 A 
ATOM     42  C   UNL A   1      40.663  26.896  28.673  1.00  0.00     0.049 A 
ATOM     43  N   UNL A   1      43.482  27.280  27.670  1.00  0.00    -0.248 NA
ATOM     44  C   UNL A   1      43.415  25.107  26.822  1.00  0.00     0.031 C 
ATOM     45  C   UNL A   1      39.289  26.767  29.159  1.00  0.00     0.029 A 
ATOM     46  N   UNL A   1      41.017  28.179  29.010  1.00  0.00    -0.354 N 
ATOM     47  C   UNL A   1      44.693  26.995  27.044  1.00  0.00     0.074 A 
ATOM     48  C   UNL A   1      44.611  25.625  26.585  1.00  0.00     0.031 C 
ATOM     49  C   UNL A   1      38.915  27.925  29.725  1.00  0.00     0.029 A 
ATOM     50  C   UNL A   1      40.033  28.866  29.680  1.00  0.00     0.049 A 
ATOM     51  H   UNL A   1      41.894  28.570  28.795  1.00  0.00     0.167 HD
ATOM     52  C   UNL A   1      45.765  27.806  26.858  1.00  0.00     0.034 A 
ATOM     53  C   UNL A   1      40.036  30.105  30.212  1.00  0.00     0.034 A 
ATOM     54  C   UNL A   1      45.832  29.168  27.330  1.00  0.00     0.049 A 
ATOM     55  C   UNL A   1      41.270  30.962  30.058  1.00  0.00     0.074 A 
ATOM     56  C   UNL A   1      46.863  30.081  27.183  1.00  0.00     0.029 A 
ATOM     57  N   UNL A   1      44.834  29.816  28.049  1.00  0.00    -0.354 N 
ATOM     58  N   UNL A   1      42.404  30.683  29.454  1.00  0.00    -0.248 NA
ATOM     59  C   UNL A   1      41.217  32.307  30.643  1.00  0.00     0.031 C 
ATOM     60  C   UNL A   1      46.526  31.243  27.886  1.00  0.00     0.029 A 
ATOM     61  C   UNL A   1      45.242  31.099  28.386  1.00  0.00     0.049 A 
ATOM     62  H   UNL A   1      43.964  29.420  28.288  1.00  0.00     0.167 HD
ATOM     63  C   UNL A   1      43.181  31.835  29.555  1.00  0.00     0.074 A 
ATOM     64  C   UNL A   1      42.378  32.813  30.259  1.00  0.00     0.031 C 
ATOM     65  C   UNL A   1      44.441  32.066  29.101  1.00  0.00     0.034 A 
BRANCH  52  66
ATOM     66  C   UNL A   1      46.972  27.218  26.161  1.00  0.00     0.023 A 
ATOM     67  C   UNL A   1      47.957  26.495  26.860  1.00  0.00     0.031 A 
ATOM     68  C   UNL A   1      47.149  27.399  24.778  1.00  0.00     0.131 A 
ATOM     69  C   UNL A   1      49.105  26.045  26.187  1.00  0.00     0.055 A 
ATOM     70  C   UNL A   1      48.249  26.872  24.099  1.00  0.00     0.041 A 
ATOM     71  F   UNL A   1      46.258  28.101  24.061  1.00  0.00    -0.206 F 
ATOM     72  C   UNL A   1      49.243  26.203  24.807  1.00  0.00     0.022 A 
BRANCH  69  73
ATOM     73  S   UNL A   1      50.481  25.384  27.166  1.00  0.00     0.124 S 
ATOM     74  O   UNL A   1      50.854  26.544  27.971  1.00  0.00    -0.237 OA
ATOM     75  O   UNL A   1      49.856  24.281  27.885  1.00  0.00    -0.237 OA
ATOM     76  O   UNL A   1      51.463  24.994  26.156  1.00  0.00    -0.744 OA
ENDBRANCH  69  73
ENDBRANCH  52  66
BRANCH  53  77
ATOM     77  C   UNL A   1      38.851  30.609  30.967  1.00  0.00     0.023 A 
ATOM     78  C   UNL A   1      37.748  31.172  30.305  1.00  0.00     0.031 A 
ATOM     79  C   UNL A   1      38.833  30.587  32.374  1.00  0.00     0.131 A 
ATOM     80  C   UNL A   1      36.700  31.737  31.049  1.00  0.00     0.055 A 
ATOM     81  C   UNL A   1      37.759  31.093  33.107  1.00  0.00     0.041 A 
ATOM     82  F   UNL A   1      39.863  30.063  33.059  1.00  0.00    -0.206 F 
ATOM     83  C   UNL A   1      36.691  31.686  32.444  1.00  0.00     0.022 A 
BRANCH  80  84
ATOM     84  S   UNL A   1      35.395  32.636  30.166  1.00  0.00     0.124 S 
ATOM     85  O   UNL A   1      34.397  32.814  31.214  1.00  0.00    -0.237 OA
ATOM     86  O   UNL A   1      36.097  33.840  29.735  1.00  0.00    -0.237 OA
ATOM     87  O   UNL A   1      35.019  31.718  29.093  1.00  0.00    -0.744 OA
ENDBRANCH  80  84
ENDBRANCH  53  77
BRANCH  65  88
ATOM     88  C   UNL A   1      45.002  33.456  29.305  1.00  0.00     0.023 A 
ATOM     89  C   UNL A   1      44.891  34.458  28.324  1.00  0.00     0.031 A 
ATOM     90  C   UNL A   1      45.694  33.772  30.490  1.00  0.00     0.131 A 
ATOM     91  C   UNL A   1      45.534  35.692  28.507  1.00  0.00     0.055 A 
ATOM     92  C   UNL A   1      46.262  35.029  30.700  1.00  0.00     0.041 A 
ATOM     93  F   UNL A   1      45.838  32.858  31.462  1.00  0.00    -0.206 F 
ATOM     94  C   UNL A   1      46.201  35.992  29.697  1.00  0.00     0.022 A 
BRANCH  91  95
ATOM     95  S   UNL A   1      45.608  36.848  27.110  1.00  0.00     0.124 S 
ATOM     96  O   UNL A   1      44.208  37.223  26.953  1.00  0.00    -0.237 OA
ATOM     97  O   UNL A   1      46.495  37.891  27.615  1.00  0.00    -0.237 OA
ATOM     98  O   UNL A   1      46.159  36.038  26.024  1.00  0.00    -0.744 OA
ENDBRANCH  91  95
ENDBRANCH  65  88
ENDBRANCH  39  40
ENDBRANCH  32  34
ENDBRANCH  31  32
ENDBRANCH  30  31
ENDBRANCH  29  30
ENDBRANCH   1  29
TORSDOF 21
ENDMDL
MODEL 3
REMARK VINA RESULT:     -11.6      1.035      7.380
REMARK SMILES NS(=O)(=O)c1ccc(N2N=C(C(=O)OCCOCCOC(=O)c3ccc(-c4c5nc(c(-c6cc(S(=O)(=O)[O-])ccc6F)c6ccc([nH]6)c(-c6cc(S(=O)(=O)[O-])ccc6F)c6nc(c(-c7cc(S(=O)(=O)[O-])ccc7F)c7ccc4[nH]7)C=C6)C=C5)cc3)C[C@H]2c2ccco2)cc1
REMARK SMILES IDX 17 1 16 2 15 3 14 4 12 5 13 6 11 7 9 8 10 9 87 10 86 11 8 12
REMARK SMILES IDX 5 13 6 14 94 15 7 16 93 17 2 18 3 19 4 20 1 21 88 24 89 25
REMARK SMILES IDX 92 26 90 27 91 28 18 29 19 30 20 31 21 32 22 33 23 34 24 35
REMARK SMILES IDX 85 36 25 37 84 38 26 39 27 40 28 41 78 42 29 43 83 44 77 45
REMARK SMILES IDX 79 46 30 47 82 48 76 49 75 50 31 52 63 53 43 54 62 55 44 56
REMARK SMILES IDX 47 57 61 58 80 59 45 60 46 61 60 63 81 64 48 65 32 66 33 67
REMARK SMILES IDX 41 68 34 69 40 70 42 71 39 72 35 73 36 74 37 75 38 76 64 77
REMARK SMILES IDX 65 78 73 79 66 80 72 81 74 82 71 83 67 84 68 85 69 86 70 87
REMARK SMILES IDX 49 88 50 89 58 90 51 91 57 92 59 93 56 94 52 95 53 96 54 97
REMARK SMILES IDX 55 98
REMARK H PARENT 1 22 1 23 79 51 47 62
REMARK Flexibility Score: inf
ROOT
ATOM      1  O   UNL A   1      31.236  29.875  24.850  1.00  0.00    -0.374 OA
ENDROOT
BRANCH   1   2
ATOM      2  C   UNL A   1      32.397  29.083  24.606  1.00  0.00     0.202 C 
BRANCH   2   3
ATOM      3  C   UNL A   1      32.489  28.369  23.255  1.00  0.00     0.261 C 
BRANCH   3   4
ATOM      4  O   UNL A   1      33.701  27.611  23.148  1.00  0.00    -0.459 OA
BRANCH   4   5
ATOM      5  C   UNL A   1      33.576  26.428  22.512  1.00  0.00     0.354 C 
ATOM      6  O   UNL A   1      33.523  26.217  21.314  1.00  0.00    -0.245 OA
BRANCH   5   7
ATOM      7  C   UNL A   1      33.668  25.313  23.522  1.00  0.00     0.148 C 
ATOM      8  N   UNL A   1      33.808  23.362  24.336  1.00  0.00    -0.254 N 
ATOM      9  N   UNL A   1      33.766  24.068  23.170  1.00  0.00    -0.169 NA
ATOM     10  C   UNL A   1      33.423  24.187  25.502  1.00  0.00     0.180 C 
ATOM     11  C   UNL A   1      33.767  25.595  24.987  1.00  0.00     0.101 C 
BRANCH   8  12
ATOM     12  C   UNL A   1      33.684  21.984  24.257  1.00  0.00     0.060 A 
ATOM     13  C   UNL A   1      33.469  19.187  24.111  1.00  0.00     0.082 A 
ATOM     14  C   UNL A   1      34.531  19.761  24.809  1.00  0.00     0.024 A 
ATOM     15  C   UNL A   1      32.529  19.990  23.466  1.00  0.00     0.024 A 
ATOM     16  C   UNL A   1      34.634  21.157  24.874  1.00  0.00     0.029 A 
ATOM     17  C   UNL A   1      32.659  21.379  23.521  1.00  0.00     0.029 A 
BRANCH  13  18
ATOM     18  S   UNL A   1      33.257  17.433  24.075  1.00  0.00     0.238 S 
ATOM     19  O   UNL A   1      34.302  16.814  24.854  1.00  0.00    -0.207 OA
ATOM     20  O   UNL A   1      32.951  17.011  22.726  1.00  0.00    -0.207 OA
BRANCH  18  21
ATOM     21  N   UNL A   1      31.844  17.228  24.953  1.00  0.00    -0.225 NA
ATOM     22  H   UNL A   1      31.302  18.093  24.934  1.00  0.00     0.137 HD
ATOM     23  H   UNL A   1      32.074  16.994  25.919  1.00  0.00     0.137 HD
ENDBRANCH  18  21
ENDBRANCH  13  18
ENDBRANCH   8  12
BRANCH  10  24
ATOM     24  C   UNL A   1      31.998  24.092  25.982  1.00  0.00     0.128 A 
ATOM     25  C   UNL A   1      30.938  24.981  25.966  1.00  0.00     0.048 A 
ATOM     26  O   UNL A   1      31.590  22.918  26.553  1.00  0.00    -0.467 OA
ATOM     27  C   UNL A   1      29.845  24.325  26.584  1.00  0.00     0.042 A 
ATOM     28  C   UNL A   1      30.288  23.063  26.901  1.00  0.00     0.195 A 
ENDBRANCH  10  24
ENDBRANCH   5   7
ENDBRANCH   4   5
ENDBRANCH   3   4
ENDBRANCH   2   3
ENDBRANCH   1   2
BRANCH   1  29
ATOM     29  C   UNL A   1      31.309  30.903  25.837  1.00  0.00     0.202 C 
BRANCH  29  30
ATOM     30  C   UNL A   1      32.274  30.726  27.018  1.00  0.00     0.261 C 
BRANCH  30  31
ATOM     31  O   UNL A   1      33.615  31.171  26.748  1.00  0.00    -0.460 OA
BRANCH  31  32
ATOM     32  C   UNL A   1      34.198  31.811  27.795  1.00  0.00     0.338 C 
ATOM     33  O   UNL A   1      33.671  32.621  28.540  1.00  0.00    -0.246 OA
BRANCH  32  34
ATOM     34  C   UNL A   1      35.544  31.264  28.054  1.00  0.00     0.060 A 
ATOM     35  C   UNL A   1      35.654  29.875  28.192  1.00  0.00     0.016 A 
ATOM     36  C   UNL A   1      36.652  32.088  28.261  1.00  0.00     0.016 A 
ATOM     37  C   UNL A   1      36.859  29.309  28.601  1.00  0.00     0.010 A 
ATOM     38  C   UNL A   1      37.863  31.516  28.671  1.00  0.00     0.010 A 
ATOM     39  C   UNL A   1      37.960  30.128  28.885  1.00  0.00    -0.014 A 
BRANCH  39  40
ATOM     40  C   UNL A   1      39.154  29.529  29.537  1.00  0.00     0.031 A 
ATOM     41  C   UNL A   1      39.546  29.980  30.919  1.00  0.00     0.074 A 
ATOM     42  C   UNL A   1      39.841  28.544  28.928  1.00  0.00     0.049 A 
ATOM     43  N   UNL A   1      40.534  29.578  31.676  1.00  0.00    -0.248 NA
ATOM     44  C   UNL A   1      38.712  31.029  31.526  1.00  0.00     0.031 C 
ATOM     45  C   UNL A   1      39.533  27.996  27.607  1.00  0.00     0.029 A 
ATOM     46  N   UNL A   1      40.934  27.824  29.343  1.00  0.00    -0.354 N 
ATOM     47  C   UNL A   1      40.445  30.324  32.848  1.00  0.00     0.074 A 
ATOM     48  C   UNL A   1      39.334  31.236  32.677  1.00  0.00     0.031 C 
ATOM     49  C   UNL A   1      40.411  27.020  27.324  1.00  0.00     0.029 A 
ATOM     50  C   UNL A   1      41.369  26.900  28.422  1.00  0.00     0.049 A 
ATOM     51  H   UNL A   1      41.365  27.957  30.217  1.00  0.00     0.167 HD
ATOM     52  C   UNL A   1      41.211  30.245  33.966  1.00  0.00     0.034 A 
ATOM     53  C   UNL A   1      42.427  26.065  28.452  1.00  0.00     0.034 A 
ATOM     54  C   UNL A   1      42.320  29.334  34.116  1.00  0.00     0.049 A 
ATOM     55  C   UNL A   1      43.310  26.049  29.677  1.00  0.00     0.074 A 
ATOM     56  C   UNL A   1      43.151  29.161  35.210  1.00  0.00     0.029 A 
ATOM     57  N   UNL A   1      42.764  28.447  33.142  1.00  0.00    -0.354 N 
ATOM     58  N   UNL A   1      43.208  26.754  30.782  1.00  0.00    -0.248 NA
ATOM     59  C   UNL A   1      44.440  25.113  29.664  1.00  0.00     0.031 C 
ATOM     60  C   UNL A   1      44.146  28.240  34.866  1.00  0.00     0.029 A 
ATOM     61  C   UNL A   1      43.878  27.755  33.596  1.00  0.00     0.049 A 
ATOM     62  H   UNL A   1      42.348  28.328  32.257  1.00  0.00     0.167 HD
ATOM     63  C   UNL A   1      44.239  26.314  31.609  1.00  0.00     0.074 A 
ATOM     64  C   UNL A   1      44.935  25.273  30.882  1.00  0.00     0.031 C 
ATOM     65  C   UNL A   1      44.576  26.727  32.859  1.00  0.00     0.034 A 
BRANCH  52  66
ATOM     66  C   UNL A   1      40.905  31.210  35.090  1.00  0.00     0.023 A 
ATOM     67  C   UNL A   1      39.782  31.053  35.923  1.00  0.00     0.031 A 
ATOM     68  C   UNL A   1      41.743  32.316  35.322  1.00  0.00     0.131 A 
ATOM     69  C   UNL A   1      39.490  32.022  36.896  1.00  0.00     0.055 A 
ATOM     70  C   UNL A   1      41.495  33.228  36.349  1.00  0.00     0.041 A 
ATOM     71  F   UNL A   1      42.815  32.535  34.546  1.00  0.00    -0.206 F 
ATOM     72  C   UNL A   1      40.354  33.092  37.134  1.00  0.00     0.022 A 
BRANCH  69  73
ATOM     73  S   UNL A   1      37.888  31.947  37.743  1.00  0.00     0.124 S 
ATOM     74  O   UNL A   1      37.525  30.543  37.564  1.00  0.00    -0.237 OA
ATOM     75  O   UNL A   1      38.230  32.350  39.101  1.00  0.00    -0.237 OA
ATOM     76  O   UNL A   1      37.062  32.896  36.999  1.00  0.00    -0.744 OA
ENDBRANCH  69  73
ENDBRANCH  52  66
BRANCH  53  77
ATOM     77  C   UNL A   1      42.738  25.195  27.281  1.00  0.00     0.023 A 
ATOM     78  C   UNL A   1      42.262  23.876  27.203  1.00  0.00     0.031 A 
ATOM     79  C   UNL A   1      43.571  25.655  26.243  1.00  0.00     0.131 A 
ATOM     80  C   UNL A   1      42.665  23.048  26.143  1.00  0.00     0.055 A 
ATOM     81  C   UNL A   1      43.917  24.848  25.159  1.00  0.00     0.041 A 
ATOM     82  F   UNL A   1      44.058  26.906  26.268  1.00  0.00    -0.206 F 
ATOM     83  C   UNL A   1      43.475  23.530  25.113  1.00  0.00     0.022 A 
BRANCH  80  84
ATOM     84  S   UNL A   1      42.198  21.295  26.184  1.00  0.00     0.124 S 
ATOM     85  O   UNL A   1      42.280  21.001  27.610  1.00  0.00    -0.237 OA
ATOM     86  O   UNL A   1      40.856  21.328  25.611  1.00  0.00    -0.237 OA
ATOM     87  O   UNL A   1      43.214  20.654  25.353  1.00  0.00    -0.744 OA
ENDBRANCH  80  84
ENDBRANCH  53  77
BRANCH  65  88
ATOM     88  C   UNL A   1      45.720  26.005  33.538  1.00  0.00     0.023 A 
ATOM     89  C   UNL A   1      45.509  24.894  34.374  1.00  0.00     0.031 A 
ATOM     90  C   UNL A   1      47.041  26.461  33.374  1.00  0.00     0.131 A 
ATOM     91  C   UNL A   1      46.585  24.333  35.079  1.00  0.00     0.055 A 
ATOM     92  C   UNL A   1      48.118  25.848  34.015  1.00  0.00     0.041 A 
ATOM     93  F   UNL A   1      47.307  27.520  32.593  1.00  0.00    -0.206 F 
ATOM     94  C   UNL A   1      47.892  24.790  34.889  1.00  0.00     0.022 A 
BRANCH  91  95
ATOM     95  S   UNL A   1      46.235  23.093  36.357  1.00  0.00     0.124 S 
ATOM     96  O   UNL A   1      47.501  22.373  36.435  1.00  0.00    -0.237 OA
ATOM     97  O   UNL A   1      45.900  23.921  37.511  1.00  0.00    -0.237 OA
ATOM     98  O   UNL A   1      45.121  22.329  35.797  1.00  0.00    -0.744 OA
ENDBRANCH  91  95
ENDBRANCH  65  88
ENDBRANCH  39  40
ENDBRANCH  32  34
ENDBRANCH  31  32
ENDBRANCH  30  31
ENDBRANCH  29  30
ENDBRANCH   1  29
TORSDOF 21
ENDMDL
