MODEL 1
REMARK VINA RESULT:     -11.4      0.000      0.000
REMARK SMILES O=C(OCCOCCOC(=O)c1ccc(C[N@H+]2CC[N@H+]3CCCC[C@@H]3C2)c(F)c1)c1ccc(-c2c3nc(c(-c4cc(S(=O)(=O)[O-])ccc4F)c4ccc([nH]4)c(-c4cc(S(=O)(=O)[O-])ccc4F)c4nc(c(-c5cc(S(=O)(=O)[O-])ccc5F)c5ccc2[nH]5)C=C4)C=C3)cc1
REMARK SMILES IDX 5 1 4 2 3 3 2 4 1 5 30 6 31 7 92 8 32 9 91 10 33 11 34 12
REMARK SMILES IDX 35 13 85 14 36 15 90 16 84 17 86 18 37 19 89 20 83 21 82 22
REMARK SMILES IDX 38 24 70 25 50 26 69 27 51 28 54 29 68 30 87 31 52 32 53 33
REMARK SMILES IDX 67 35 88 36 55 37 39 38 40 39 48 40 41 41 47 42 49 43 46 44
REMARK SMILES IDX 42 45 43 46 44 47 45 48 71 49 72 50 80 51 73 52 79 53 81 54
REMARK SMILES IDX 78 55 74 56 75 57 76 58 77 59 56 60 57 61 65 62 58 63 64 64
REMARK SMILES IDX 66 65 63 66 59 67 60 68 61 69 62 70 6 71 7 72 8 73 9 74
REMARK SMILES IDX 10 75 11 76 12 77 13 78 29 79 14 80 27 81 15 82 28 83 16 84
REMARK SMILES IDX 17 85 18 86 26 87 19 89 25 90 20 91 24 92 21 93 23 95 22 96
REMARK H PARENT 86 23 54 34 17 88 20 94
REMARK Flexibility Score: inf
ROOT
ATOM      1  C   UNL A   1      33.149  28.141  25.295  1.00  0.00     0.202 C 
ENDROOT
BRANCH   1   2
ATOM      2  C   UNL A   1      32.221  29.254  25.782  1.00  0.00     0.261 C 
BRANCH   2   3
ATOM      3  O   UNL A   1      32.917  30.513  25.795  1.00  0.00    -0.460 OA
BRANCH   3   4
ATOM      4  C   UNL A   1      33.286  31.227  26.886  1.00  0.00     0.338 C 
ATOM      5  O   UNL A   1      32.651  32.236  27.183  1.00  0.00    -0.246 OA
BRANCH   4   6
ATOM      6  C   UNL A   1      34.457  30.849  27.730  1.00  0.00     0.060 A 
ATOM      7  C   UNL A   1      34.704  29.550  28.174  1.00  0.00     0.016 A 
ATOM      8  C   UNL A   1      35.416  31.837  28.003  1.00  0.00     0.016 A 
ATOM      9  C   UNL A   1      35.816  29.247  28.942  1.00  0.00     0.010 A 
ATOM     10  C   UNL A   1      36.579  31.525  28.716  1.00  0.00     0.010 A 
ATOM     11  C   UNL A   1      36.774  30.225  29.197  1.00  0.00    -0.014 A 
BRANCH  11  12
ATOM     12  C   UNL A   1      37.954  29.841  29.996  1.00  0.00     0.031 A 
ATOM     13  C   UNL A   1      39.023  29.010  29.359  1.00  0.00     0.074 A 
ATOM     14  C   UNL A   1      38.106  30.366  31.226  1.00  0.00     0.049 A 
ATOM     15  N   UNL A   1      40.131  28.556  29.878  1.00  0.00    -0.248 NA
ATOM     16  C   UNL A   1      38.825  28.655  27.946  1.00  0.00     0.031 C 
ATOM     17  C   UNL A   1      37.160  31.288  31.867  1.00  0.00     0.029 A 
ATOM     18  N   UNL A   1      39.122  30.252  32.135  1.00  0.00    -0.354 N 
ATOM     19  C   UNL A   1      40.756  27.845  28.861  1.00  0.00     0.074 A 
ATOM     20  C   UNL A   1      39.898  27.920  27.698  1.00  0.00     0.031 C 
ATOM     21  C   UNL A   1      37.670  31.696  33.039  1.00  0.00     0.029 A 
ATOM     22  C   UNL A   1      38.932  31.004  33.272  1.00  0.00     0.049 A 
ATOM     23  H   UNL A   1      39.914  29.684  31.991  1.00  0.00     0.167 HD
ATOM     24  C   UNL A   1      41.936  27.184  28.910  1.00  0.00     0.034 A 
ATOM     25  C   UNL A   1      39.682  31.098  34.387  1.00  0.00     0.034 A 
ATOM     26  C   UNL A   1      42.752  27.124  30.095  1.00  0.00     0.049 A 
ATOM     27  C   UNL A   1      40.935  30.269  34.458  1.00  0.00     0.074 A 
ATOM     28  C   UNL A   1      43.919  26.416  30.310  1.00  0.00     0.029 A 
ATOM     29  N   UNL A   1      42.475  27.807  31.275  1.00  0.00    -0.354 N 
ATOM     30  N   UNL A   1      41.458  29.494  33.534  1.00  0.00    -0.248 NA
ATOM     31  C   UNL A   1      41.682  30.296  35.720  1.00  0.00     0.031 C 
ATOM     32  C   UNL A   1      44.319  26.629  31.634  1.00  0.00     0.029 A 
ATOM     33  C   UNL A   1      43.438  27.522  32.228  1.00  0.00     0.049 A 
ATOM     34  H   UNL A   1      41.707  28.407  31.413  1.00  0.00     0.167 HD
ATOM     35  C   UNL A   1      42.599  28.942  34.101  1.00  0.00     0.074 A 
ATOM     36  C   UNL A   1      42.694  29.482  35.446  1.00  0.00     0.031 C 
ATOM     37  C   UNL A   1      43.488  28.071  33.563  1.00  0.00     0.034 A 
BRANCH  24  38
ATOM     38  C   UNL A   1      42.337  26.409  27.682  1.00  0.00     0.023 A 
ATOM     39  C   UNL A   1      41.926  25.081  27.473  1.00  0.00     0.031 A 
ATOM     40  C   UNL A   1      43.207  26.989  26.742  1.00  0.00     0.131 A 
ATOM     41  C   UNL A   1      42.440  24.356  26.386  1.00  0.00     0.055 A 
ATOM     42  C   UNL A   1      43.659  26.285  25.626  1.00  0.00     0.041 A 
ATOM     43  F   UNL A   1      43.654  28.244  26.909  1.00  0.00    -0.206 F 
ATOM     44  C   UNL A   1      43.286  24.956  25.449  1.00  0.00     0.022 A 
BRANCH  41  45
ATOM     45  S   UNL A   1      42.085  22.580  26.275  1.00  0.00     0.124 S 
ATOM     46  O   UNL A   1      42.771  22.069  27.460  1.00  0.00    -0.237 OA
ATOM     47  O   UNL A   1      40.628  22.543  26.315  1.00  0.00    -0.237 OA
ATOM     48  O   UNL A   1      42.683  22.190  25.000  1.00  0.00    -0.744 OA
ENDBRANCH  41  45
ENDBRANCH  24  38
BRANCH  25  49
ATOM     49  C   UNL A   1      39.222  31.941  35.526  1.00  0.00     0.023 A 
ATOM     50  C   UNL A   1      38.454  31.409  36.574  1.00  0.00     0.031 A 
ATOM     51  C   UNL A   1      39.581  33.301  35.596  1.00  0.00     0.131 A 
ATOM     52  C   UNL A   1      38.067  32.235  37.644  1.00  0.00     0.055 A 
ATOM     53  C   UNL A   1      39.227  34.107  36.679  1.00  0.00     0.041 A 
ATOM     54  F   UNL A   1      40.318  33.858  34.622  1.00  0.00    -0.206 F 
ATOM     55  C   UNL A   1      38.463  33.575  37.711  1.00  0.00     0.022 A 
BRANCH  52  56
ATOM     56  S   UNL A   1      37.024  31.543  38.960  1.00  0.00     0.124 S 
ATOM     57  O   UNL A   1      35.845  32.398  38.883  1.00  0.00    -0.237 OA
ATOM     58  O   UNL A   1      36.848  30.163  38.519  1.00  0.00    -0.237 OA
ATOM     59  O   UNL A   1      37.838  31.709  40.162  1.00  0.00    -0.744 OA
ENDBRANCH  52  56
ENDBRANCH  25  49
BRANCH  37  60
ATOM     60  C   UNL A   1      44.652  27.665  34.422  1.00  0.00     0.023 A 
ATOM     61  C   UNL A   1      44.583  26.542  35.260  1.00  0.00     0.031 A 
ATOM     62  C   UNL A   1      45.864  28.372  34.340  1.00  0.00     0.131 A 
ATOM     63  C   UNL A   1      45.710  26.164  36.003  1.00  0.00     0.055 A 
ATOM     64  C   UNL A   1      46.992  27.968  35.050  1.00  0.00     0.041 A 
ATOM     65  F   UNL A   1      45.973  29.449  33.545  1.00  0.00    -0.206 F 
ATOM     66  C   UNL A   1      46.919  26.859  35.889  1.00  0.00     0.022 A 
BRANCH  63  67
ATOM     67  S   UNL A   1      45.578  24.752  37.132  1.00  0.00     0.124 S 
ATOM     68  O   UNL A   1      45.131  25.393  38.364  1.00  0.00    -0.237 OA
ATOM     69  O   UNL A   1      44.598  23.902  36.464  1.00  0.00    -0.237 OA
ATOM     70  O   UNL A   1      46.937  24.215  37.169  1.00  0.00    -0.744 OA
ENDBRANCH  63  67
ENDBRANCH  37  60
ENDBRANCH  11  12
ENDBRANCH   4   6
ENDBRANCH   3   4
ENDBRANCH   2   3
ENDBRANCH   1   2
BRANCH   1  71
ATOM     71  O   UNL A   1      32.977  27.740  23.937  1.00  0.00    -0.374 OA
BRANCH  71  72
ATOM     72  C   UNL A   1      32.930  28.795  22.967  1.00  0.00     0.202 C 
BRANCH  72  73
ATOM     73  C   UNL A   1      31.520  28.877  22.366  1.00  0.00     0.261 C 
BRANCH  73  74
ATOM     74  O   UNL A   1      30.903  27.578  22.428  1.00  0.00    -0.460 OA
BRANCH  74  75
ATOM     75  C   UNL A   1      29.770  27.516  23.184  1.00  0.00     0.338 C 
ATOM     76  O   UNL A   1      28.766  28.186  23.099  1.00  0.00    -0.246 OA
BRANCH  75  77
ATOM     77  C   UNL A   1      29.890  26.281  23.977  1.00  0.00     0.063 A 
ATOM     78  C   UNL A   1      29.855  26.318  25.371  1.00  0.00     0.016 A 
ATOM     79  C   UNL A   1      30.229  25.109  23.300  1.00  0.00     0.055 A 
ATOM     80  C   UNL A   1      30.280  25.200  26.092  1.00  0.00     0.013 A 
ATOM     81  C   UNL A   1      30.715  24.031  24.026  1.00  0.00     0.132 A 
ATOM     82  C   UNL A   1      30.821  24.086  25.420  1.00  0.00     0.042 A 
ATOM     83  F   UNL A   1      31.181  22.965  23.360  1.00  0.00    -0.206 F 
BRANCH  82  84
ATOM     84  C   UNL A   1      31.587  23.024  26.175  1.00  0.00     0.302 C 
BRANCH  84  85
ATOM     85  N   UNL A   1      32.836  23.420  26.852  1.00  0.00    -0.322 N 
ATOM     86  C   UNL A   1      33.432  22.415  27.747  1.00  0.00     0.324 C 
ATOM     87  C   UNL A   1      33.877  24.038  26.018  1.00  0.00     0.328 C 
ATOM     88  H   UNL A   1      32.463  24.164  27.442  1.00  0.00     0.348 HD
ATOM     89  C   UNL A   1      34.470  21.450  27.119  1.00  0.00     0.324 C 
ATOM     90  C   UNL A   1      34.829  23.031  25.320  1.00  0.00     0.239 C 
ATOM     91  N   UNL A   1      35.488  22.101  26.261  1.00  0.00    -0.323 N 
ATOM     92  C   UNL A   1      35.877  23.756  24.466  1.00  0.00     0.071 C 
ATOM     93  C   UNL A   1      36.223  21.072  25.501  1.00  0.00     0.262 C 
ATOM     94  H   UNL A   1      36.138  22.622  26.849  1.00  0.00     0.348 HD
ATOM     95  C   UNL A   1      36.659  22.737  23.642  1.00  0.00     0.012 C 
ATOM     96  C   UNL A   1      37.260  21.666  24.546  1.00  0.00     0.062 C 
ENDBRANCH  84  85
ENDBRANCH  82  84
ENDBRANCH  75  77
ENDBRANCH  74  75
ENDBRANCH  73  74
ENDBRANCH  72  73
ENDBRANCH  71  72
ENDBRANCH   1  71
TORSDOF 19
ENDMDL
MODEL 2
REMARK VINA RESULT:     -10.9      2.511      7.716
REMARK SMILES O=C(OCCOCCOC(=O)c1ccc(C[N@H+]2CC[N@H+]3CCCC[C@@H]3C2)c(F)c1)c1ccc(-c2c3nc(c(-c4cc(S(=O)(=O)[O-])ccc4F)c4ccc([nH]4)c(-c4cc(S(=O)(=O)[O-])ccc4F)c4nc(c(-c5cc(S(=O)(=O)[O-])ccc5F)c5ccc2[nH]5)C=C4)C=C3)cc1
REMARK SMILES IDX 5 1 4 2 3 3 2 4 1 5 30 6 31 7 92 8 32 9 91 10 33 11 34 12
REMARK SMILES IDX 35 13 85 14 36 15 90 16 84 17 86 18 37 19 89 20 83 21 82 22
REMARK SMILES IDX 38 24 70 25 50 26 69 27 51 28 54 29 68 30 87 31 52 32 53 33
REMARK SMILES IDX 67 35 88 36 55 37 39 38 40 39 48 40 41 41 47 42 49 43 46 44
REMARK SMILES IDX 42 45 43 46 44 47 45 48 71 49 72 50 80 51 73 52 79 53 81 54
REMARK SMILES IDX 78 55 74 56 75 57 76 58 77 59 56 60 57 61 65 62 58 63 64 64
REMARK SMILES IDX 66 65 63 66 59 67 60 68 61 69 62 70 6 71 7 72 8 73 9 74
REMARK SMILES IDX 10 75 11 76 12 77 13 78 29 79 14 80 27 81 15 82 28 83 16 84
REMARK SMILES IDX 17 85 18 86 26 87 19 89 25 90 20 91 24 92 21 93 23 95 22 96
REMARK H PARENT 86 23 54 34 17 88 20 94
REMARK Flexibility Score: inf
ROOT
ATOM      1  C   UNL A   1      33.949  28.794  25.998  1.00  0.00     0.202 C 
ENDROOT
BRANCH   1   2
ATOM      2  C   UNL A   1      33.104  29.996  26.423  1.00  0.00     0.261 C 
BRANCH   2   3
ATOM      3  O   UNL A   1      33.591  30.531  27.666  1.00  0.00    -0.460 OA
BRANCH   3   4
ATOM      4  C   UNL A   1      34.696  31.296  27.846  1.00  0.00     0.338 C 
ATOM      5  O   UNL A   1      34.634  32.500  27.606  1.00  0.00    -0.246 OA
BRANCH   4   6
ATOM      6  C   UNL A   1      35.998  30.726  28.300  1.00  0.00     0.060 A 
ATOM      7  C   UNL A   1      37.238  31.276  27.975  1.00  0.00     0.016 A 
ATOM      8  C   UNL A   1      35.965  29.641  29.189  1.00  0.00     0.016 A 
ATOM      9  C   UNL A   1      38.419  30.718  28.437  1.00  0.00     0.010 A 
ATOM     10  C   UNL A   1      37.149  29.117  29.719  1.00  0.00     0.010 A 
ATOM     11  C   UNL A   1      38.383  29.653  29.332  1.00  0.00    -0.014 A 
BRANCH  11  12
ATOM     12  C   UNL A   1      39.670  29.116  29.816  1.00  0.00     0.031 A 
ATOM     13  C   UNL A   1      40.246  29.649  31.090  1.00  0.00     0.074 A 
ATOM     14  C   UNL A   1      40.218  28.065  29.178  1.00  0.00     0.049 A 
ATOM     15  N   UNL A   1      41.361  29.328  31.687  1.00  0.00    -0.248 NA
ATOM     16  C   UNL A   1      39.453  30.670  31.793  1.00  0.00     0.031 C 
ATOM     17  C   UNL A   1      39.645  27.410  27.997  1.00  0.00     0.029 A 
ATOM     18  N   UNL A   1      41.339  27.329  29.453  1.00  0.00    -0.354 N 
ATOM     19  C   UNL A   1      41.416  30.120  32.828  1.00  0.00     0.074 A 
ATOM     20  C   UNL A   1      40.226  30.943  32.834  1.00  0.00     0.031 C 
ATOM     21  C   UNL A   1      40.389  26.337  27.685  1.00  0.00     0.029 A 
ATOM     22  C   UNL A   1      41.533  26.277  28.587  1.00  0.00     0.049 A 
ATOM     23  H   UNL A   1      41.948  27.532  30.199  1.00  0.00     0.167 HD
ATOM     24  C   UNL A   1      42.384  30.153  33.773  1.00  0.00     0.034 A 
ATOM     25  C   UNL A   1      42.540  25.385  28.517  1.00  0.00     0.034 A 
ATOM     26  C   UNL A   1      43.561  29.324  33.720  1.00  0.00     0.049 A 
ATOM     27  C   UNL A   1      43.658  25.512  29.514  1.00  0.00     0.074 A 
ATOM     28  C   UNL A   1      44.659  29.322  34.558  1.00  0.00     0.029 A 
ATOM     29  N   UNL A   1      43.786  28.341  32.762  1.00  0.00    -0.354 N 
ATOM     30  N   UNL A   1      43.766  26.351  30.520  1.00  0.00    -0.248 NA
ATOM     31  C   UNL A   1      44.799  24.605  29.356  1.00  0.00     0.031 C 
ATOM     32  C   UNL A   1      45.571  28.376  34.077  1.00  0.00     0.029 A 
ATOM     33  C   UNL A   1      45.014  27.740  32.975  1.00  0.00     0.049 A 
ATOM     34  H   UNL A   1      43.162  28.105  32.038  1.00  0.00     0.167 HD
ATOM     35  C   UNL A   1      44.987  26.071  31.120  1.00  0.00     0.074 A 
ATOM     36  C   UNL A   1      45.575  24.977  30.367  1.00  0.00     0.031 C 
ATOM     37  C   UNL A   1      45.570  26.661  32.192  1.00  0.00     0.034 A 
BRANCH  24  38
ATOM     38  C   UNL A   1      42.239  31.182  34.863  1.00  0.00     0.023 A 
ATOM     39  C   UNL A   1      42.631  32.520  34.681  1.00  0.00     0.031 A 
ATOM     40  C   UNL A   1      41.770  30.797  36.132  1.00  0.00     0.131 A 
ATOM     41  C   UNL A   1      42.608  33.408  35.768  1.00  0.00     0.055 A 
ATOM     42  C   UNL A   1      41.684  31.702  37.190  1.00  0.00     0.041 A 
ATOM     43  F   UNL A   1      41.411  29.525  36.369  1.00  0.00    -0.206 F 
ATOM     44  C   UNL A   1      42.117  33.012  37.016  1.00  0.00     0.022 A 
BRANCH  41  45
ATOM     45  S   UNL A   1      43.342  35.055  35.568  1.00  0.00     0.124 S 
ATOM     46  O   UNL A   1      44.511  34.757  34.742  1.00  0.00    -0.237 OA
ATOM     47  O   UNL A   1      42.274  35.802  34.916  1.00  0.00    -0.237 OA
ATOM     48  O   UNL A   1      43.643  35.465  36.938  1.00  0.00    -0.744 OA
ENDBRANCH  41  45
ENDBRANCH  24  38
BRANCH  25  49
ATOM     49  C   UNL A   1      42.558  24.366  27.429  1.00  0.00     0.023 A 
ATOM     50  C   UNL A   1      41.798  23.188  27.509  1.00  0.00     0.031 A 
ATOM     51  C   UNL A   1      43.323  24.580  26.265  1.00  0.00     0.131 A 
ATOM     52  C   UNL A   1      41.823  22.269  26.446  1.00  0.00     0.055 A 
ATOM     53  C   UNL A   1      43.313  23.683  25.197  1.00  0.00     0.041 A 
ATOM     54  F   UNL A   1      44.064  25.692  26.137  1.00  0.00    -0.206 F 
ATOM     55  C   UNL A   1      42.561  22.517  25.284  1.00  0.00     0.022 A 
BRANCH  52  56
ATOM     56  S   UNL A   1      40.879  20.724  26.594  1.00  0.00     0.124 S 
ATOM     57  O   UNL A   1      41.660  19.820  25.756  1.00  0.00    -0.237 OA
ATOM     58  O   UNL A   1      40.926  20.472  28.030  1.00  0.00    -0.237 OA
ATOM     59  O   UNL A   1      39.562  21.078  26.070  1.00  0.00    -0.744 OA
ENDBRANCH  52  56
ENDBRANCH  25  49
BRANCH  37  60
ATOM     60  C   UNL A   1      46.902  26.120  32.629  1.00  0.00     0.023 A 
ATOM     61  C   UNL A   1      46.996  25.089  33.575  1.00  0.00     0.031 A 
ATOM     62  C   UNL A   1      48.082  26.598  32.032  1.00  0.00     0.131 A 
ATOM     63  C   UNL A   1      48.256  24.574  33.914  1.00  0.00     0.055 A 
ATOM     64  C   UNL A   1      49.327  26.055  32.343  1.00  0.00     0.041 A 
ATOM     65  F   UNL A   1      48.034  27.580  31.117  1.00  0.00    -0.206 F 
ATOM     66  C   UNL A   1      49.419  25.038  33.290  1.00  0.00     0.022 A 
BRANCH  63  67
ATOM     67  S   UNL A   1      48.360  23.291  35.190  1.00  0.00     0.124 S 
ATOM     68  O   UNL A   1      49.801  23.191  35.399  1.00  0.00    -0.237 OA
ATOM     69  O   UNL A   1      47.596  23.873  36.289  1.00  0.00    -0.237 OA
ATOM     70  O   UNL A   1      47.741  22.128  34.557  1.00  0.00    -0.744 OA
ENDBRANCH  63  67
ENDBRANCH  37  60
ENDBRANCH  11  12
ENDBRANCH   4   6
ENDBRANCH   3   4
ENDBRANCH   2   3
ENDBRANCH   1   2
BRANCH   1  71
ATOM     71  O   UNL A   1      33.498  28.099  24.837  1.00  0.00    -0.374 OA
BRANCH  71  72
ATOM     72  C   UNL A   1      33.972  28.595  23.579  1.00  0.00     0.202 C 
BRANCH  72  73
ATOM     73  C   UNL A   1      32.792  28.756  22.611  1.00  0.00     0.261 C 
BRANCH  73  74
ATOM     74  O   UNL A   1      32.151  27.480  22.432  1.00  0.00    -0.460 OA
BRANCH  74  75
ATOM     75  C   UNL A   1      30.808  27.474  22.669  1.00  0.00     0.338 C 
ATOM     76  O   UNL A   1      29.936  28.087  22.096  1.00  0.00    -0.246 OA
BRANCH  75  77
ATOM     77  C   UNL A   1      30.576  26.361  23.605  1.00  0.00     0.063 A 
ATOM     78  C   UNL A   1      30.273  26.602  24.945  1.00  0.00     0.016 A 
ATOM     79  C   UNL A   1      30.855  25.070  23.155  1.00  0.00     0.055 A 
ATOM     80  C   UNL A   1      30.369  25.555  25.863  1.00  0.00     0.013 A 
ATOM     81  C   UNL A   1      31.015  24.055  24.087  1.00  0.00     0.132 A 
ATOM     82  C   UNL A   1      30.851  24.296  25.455  1.00  0.00     0.042 A 
ATOM     83  F   UNL A   1      31.431  22.853  23.664  1.00  0.00    -0.206 F 
BRANCH  82  84
ATOM     84  C   UNL A   1      31.279  23.265  26.474  1.00  0.00     0.302 C 
BRANCH  84  85
ATOM     85  N   UNL A   1      32.595  23.431  27.119  1.00  0.00    -0.322 N 
ATOM     86  C   UNL A   1      33.154  22.233  27.765  1.00  0.00     0.324 C 
ATOM     87  C   UNL A   1      33.634  24.120  26.340  1.00  0.00     0.328 C 
ATOM     88  H   UNL A   1      32.322  24.074  27.863  1.00  0.00     0.348 HD
ATOM     89  C   UNL A   1      34.067  21.333  26.894  1.00  0.00     0.324 C 
ATOM     90  C   UNL A   1      34.455  23.199  25.399  1.00  0.00     0.239 C 
ATOM     91  N   UNL A   1      35.085  22.060  26.100  1.00  0.00    -0.323 N 
ATOM     92  C   UNL A   1      35.509  23.995  24.620  1.00  0.00     0.071 C 
ATOM     93  C   UNL A   1      35.684  21.145  25.110  1.00  0.00     0.262 C 
ATOM     94  H   UNL A   1      35.811  22.410  26.725  1.00  0.00     0.348 HD
ATOM     95  C   UNL A   1      36.152  23.098  23.565  1.00  0.00     0.012 C 
ATOM     96  C   UNL A   1      36.711  21.833  24.208  1.00  0.00     0.062 C 
ENDBRANCH  84  85
ENDBRANCH  82  84
ENDBRANCH  75  77
ENDBRANCH  74  75
ENDBRANCH  73  74
ENDBRANCH  72  73
ENDBRANCH  71  72
ENDBRANCH   1  71
TORSDOF 19
ENDMDL
MODEL 3
REMARK VINA RESULT:     -10.9      1.731      7.685
REMARK SMILES O=C(OCCOCCOC(=O)c1ccc(C[N@H+]2CC[N@H+]3CCCC[C@@H]3C2)c(F)c1)c1ccc(-c2c3nc(c(-c4cc(S(=O)(=O)[O-])ccc4F)c4ccc([nH]4)c(-c4cc(S(=O)(=O)[O-])ccc4F)c4nc(c(-c5cc(S(=O)(=O)[O-])ccc5F)c5ccc2[nH]5)C=C4)C=C3)cc1
REMARK SMILES IDX 5 1 4 2 3 3 2 4 1 5 30 6 31 7 92 8 32 9 91 10 33 11 34 12
REMARK SMILES IDX 35 13 85 14 36 15 90 16 84 17 86 18 37 19 89 20 83 21 82 22
REMARK SMILES IDX 38 24 70 25 50 26 69 27 51 28 54 29 68 30 87 31 52 32 53 33
REMARK SMILES IDX 67 35 88 36 55 37 39 38 40 39 48 40 41 41 47 42 49 43 46 44
REMARK SMILES IDX 42 45 43 46 44 47 45 48 71 49 72 50 80 51 73 52 79 53 81 54
REMARK SMILES IDX 78 55 74 56 75 57 76 58 77 59 56 60 57 61 65 62 58 63 64 64
REMARK SMILES IDX 66 65 63 66 59 67 60 68 61 69 62 70 6 71 7 72 8 73 9 74
REMARK SMILES IDX 10 75 11 76 12 77 13 78 29 79 14 80 27 81 15 82 28 83 16 84
REMARK SMILES IDX 17 85 18 86 26 87 19 89 25 90 20 91 24 92 21 93 23 95 22 96
REMARK H PARENT 86 23 54 34 17 88 20 94
REMARK Flexibility Score: inf
ROOT
ATOM      1  C   UNL A   1      33.426  28.576  25.688  1.00  0.00     0.202 C 
ENDROOT
BRANCH   1   2
ATOM      2  C   UNL A   1      32.335  29.645  25.738  1.00  0.00     0.261 C 
BRANCH   2   3
ATOM      3  O   UNL A   1      32.391  30.356  26.987  1.00  0.00    -0.460 OA
BRANCH   3   4
ATOM      4  C   UNL A   1      33.229  31.371  27.308  1.00  0.00     0.338 C 
ATOM      5  O   UNL A   1      32.876  32.528  27.092  1.00  0.00    -0.246 OA
BRANCH   4   6
ATOM      6  C   UNL A   1      34.582  31.137  27.893  1.00  0.00     0.060 A 
ATOM      7  C   UNL A   1      35.556  32.129  28.010  1.00  0.00     0.016 A 
ATOM      8  C   UNL A   1      34.847  29.877  28.451  1.00  0.00     0.016 A 
ATOM      9  C   UNL A   1      36.792  31.865  28.577  1.00  0.00     0.010 A 
ATOM     10  C   UNL A   1      36.065  29.622  29.090  1.00  0.00     0.010 A 
ATOM     11  C   UNL A   1      37.046  30.619  29.145  1.00  0.00    -0.014 A 
BRANCH  11  12
ATOM     12  C   UNL A   1      38.368  30.400  29.762  1.00  0.00     0.031 A 
ATOM     13  C   UNL A   1      38.614  30.902  31.150  1.00  0.00     0.074 A 
ATOM     14  C   UNL A   1      39.268  29.633  29.119  1.00  0.00     0.049 A 
ATOM     15  N   UNL A   1      39.698  30.827  31.873  1.00  0.00    -0.248 NA
ATOM     16  C   UNL A   1      37.483  31.564  31.819  1.00  0.00     0.031 C 
ATOM     17  C   UNL A   1      39.051  29.004  27.810  1.00  0.00     0.029 A 
ATOM     18  N   UNL A   1      40.515  29.206  29.487  1.00  0.00    -0.354 N 
ATOM     19  C   UNL A   1      39.388  31.448  33.077  1.00  0.00     0.074 A 
ATOM     20  C   UNL A   1      38.018  31.903  32.982  1.00  0.00     0.031 C 
ATOM     21  C   UNL A   1      40.105  28.228  27.515  1.00  0.00     0.029 A 
ATOM     22  C   UNL A   1      41.105  28.370  28.567  1.00  0.00     0.049 A 
ATOM     23  H   UNL A   1      40.949  29.471  30.330  1.00  0.00     0.167 HD
ATOM     24  C   UNL A   1      40.189  31.625  34.154  1.00  0.00     0.034 A 
ATOM     25  C   UNL A   1      42.329  27.807  28.564  1.00  0.00     0.034 A 
ATOM     26  C   UNL A   1      41.554  31.166  34.199  1.00  0.00     0.049 A 
ATOM     27  C   UNL A   1      43.239  28.108  29.723  1.00  0.00     0.074 A 
ATOM     28  C   UNL A   1      42.501  31.359  35.186  1.00  0.00     0.029 A 
ATOM     29  N   UNL A   1      42.164  30.416  33.199  1.00  0.00    -0.354 N 
ATOM     30  N   UNL A   1      42.982  28.806  30.806  1.00  0.00    -0.248 NA
ATOM     31  C   UNL A   1      44.605  27.580  29.653  1.00  0.00     0.031 C 
ATOM     32  C   UNL A   1      43.698  30.772  34.760  1.00  0.00     0.029 A 
ATOM     33  C   UNL A   1      43.481  30.156  33.535  1.00  0.00     0.049 A 
ATOM     34  H   UNL A   1      41.724  30.114  32.372  1.00  0.00     0.167 HD
ATOM     35  C   UNL A   1      44.154  28.799  31.551  1.00  0.00     0.074 A 
ATOM     36  C   UNL A   1      45.118  28.017  30.796  1.00  0.00     0.031 C 
ATOM     37  C   UNL A   1      44.413  29.383  32.747  1.00  0.00     0.034 A 
BRANCH  24  38
ATOM     38  C   UNL A   1      39.626  32.423  35.299  1.00  0.00     0.023 A 
ATOM     39  C   UNL A   1      39.934  33.783  35.481  1.00  0.00     0.031 A 
ATOM     40  C   UNL A   1      38.829  31.790  36.269  1.00  0.00     0.131 A 
ATOM     41  C   UNL A   1      39.500  34.448  36.639  1.00  0.00     0.055 A 
ATOM     42  C   UNL A   1      38.343  32.475  37.384  1.00  0.00     0.041 A 
ATOM     43  F   UNL A   1      38.531  30.486  36.161  1.00  0.00    -0.206 F 
ATOM     44  C   UNL A   1      38.689  33.808  37.581  1.00  0.00     0.022 A 
BRANCH  41  45
ATOM     45  S   UNL A   1      40.110  36.125  36.964  1.00  0.00     0.124 S 
ATOM     46  O   UNL A   1      41.515  35.872  37.276  1.00  0.00    -0.237 OA
ATOM     47  O   UNL A   1      39.848  36.809  35.703  1.00  0.00    -0.237 OA
ATOM     48  O   UNL A   1      39.298  36.572  38.094  1.00  0.00    -0.744 OA
ENDBRANCH  41  45
ENDBRANCH  24  38
BRANCH  25  49
ATOM     49  C   UNL A   1      42.768  26.983  27.403  1.00  0.00     0.023 A 
ATOM     50  C   UNL A   1      42.461  25.616  27.310  1.00  0.00     0.031 A 
ATOM     51  C   UNL A   1      43.483  27.571  26.341  1.00  0.00     0.131 A 
ATOM     52  C   UNL A   1      42.869  24.884  26.182  1.00  0.00     0.055 A 
ATOM     53  C   UNL A   1      43.852  26.850  25.206  1.00  0.00     0.041 A 
ATOM     54  F   UNL A   1      43.799  28.875  26.379  1.00  0.00    -0.206 F 
ATOM     55  C   UNL A   1      43.548  25.496  25.122  1.00  0.00     0.022 A 
BRANCH  52  56
ATOM     56  S   UNL A   1      42.513  23.105  26.108  1.00  0.00     0.124 S 
ATOM     57  O   UNL A   1      43.338  22.593  27.196  1.00  0.00    -0.237 OA
ATOM     58  O   UNL A   1      41.070  23.071  26.324  1.00  0.00    -0.237 OA
ATOM     59  O   UNL A   1      42.946  22.726  24.765  1.00  0.00    -0.744 OA
ENDBRANCH  52  56
ENDBRANCH  25  49
BRANCH  37  60
ATOM     60  C   UNL A   1      45.785  29.179  33.324  1.00  0.00     0.023 A 
ATOM     61  C   UNL A   1      46.078  28.075  34.139  1.00  0.00     0.031 A 
ATOM     62  C   UNL A   1      46.824  30.064  32.989  1.00  0.00     0.131 A 
ATOM     63  C   UNL A   1      47.384  27.891  34.611  1.00  0.00     0.055 A 
ATOM     64  C   UNL A   1      48.130  29.854  33.429  1.00  0.00     0.041 A 
ATOM     65  F   UNL A   1      46.588  31.130  32.207  1.00  0.00    -0.206 F 
ATOM     66  C   UNL A   1      48.415  28.764  34.246  1.00  0.00     0.022 A 
BRANCH  63  67
ATOM     67  S   UNL A   1      47.725  26.498  35.720  1.00  0.00     0.124 S 
ATOM     68  O   UNL A   1      48.534  27.129  36.757  1.00  0.00    -0.237 OA
ATOM     69  O   UNL A   1      46.386  26.079  36.123  1.00  0.00    -0.237 OA
ATOM     70  O   UNL A   1      48.438  25.549  34.867  1.00  0.00    -0.744 OA
ENDBRANCH  63  67
ENDBRANCH  37  60
ENDBRANCH  11  12
ENDBRANCH   4   6
ENDBRANCH   3   4
ENDBRANCH   2   3
ENDBRANCH   1   2
BRANCH   1  71
ATOM     71  O   UNL A   1      33.380  27.695  24.566  1.00  0.00    -0.374 OA
BRANCH  71  72
ATOM     72  C   UNL A   1      33.860  28.226  23.325  1.00  0.00     0.202 C 
BRANCH  72  73
ATOM     73  C   UNL A   1      32.670  28.617  22.438  1.00  0.00     0.261 C 
BRANCH  73  74
ATOM     74  O   UNL A   1      31.879  27.446  22.166  1.00  0.00    -0.460 OA
BRANCH  74  75
ATOM     75  C   UNL A   1      30.600  27.492  22.639  1.00  0.00     0.338 C 
ATOM     76  O   UNL A   1      29.687  28.200  22.281  1.00  0.00    -0.246 OA
BRANCH  75  77
ATOM     77  C   UNL A   1      30.459  26.315  23.513  1.00  0.00     0.063 A 
ATOM     78  C   UNL A   1      30.053  26.453  24.840  1.00  0.00     0.016 A 
ATOM     79  C   UNL A   1      30.924  25.092  23.030  1.00  0.00     0.055 A 
ATOM     80  C   UNL A   1      30.228  25.382  25.720  1.00  0.00     0.013 A 
ATOM     81  C   UNL A   1      31.157  24.061  23.928  1.00  0.00     0.132 A 
ATOM     82  C   UNL A   1      30.888  24.214  25.292  1.00  0.00     0.042 A 
ATOM     83  F   UNL A   1      31.746  22.941  23.483  1.00  0.00    -0.206 F 
BRANCH  82  84
ATOM     84  C   UNL A   1      31.384  23.196  26.293  1.00  0.00     0.302 C 
BRANCH  84  85
ATOM     85  N   UNL A   1      32.638  23.485  27.013  1.00  0.00    -0.322 N 
ATOM     86  C   UNL A   1      33.185  22.387  27.825  1.00  0.00     0.324 C 
ATOM     87  C   UNL A   1      33.711  24.132  26.244  1.00  0.00     0.328 C 
ATOM     88  H   UNL A   1      32.285  24.190  27.660  1.00  0.00     0.348 HD
ATOM     89  C   UNL A   1      34.195  21.440  27.128  1.00  0.00     0.324 C 
ATOM     90  C   UNL A   1      34.635  23.153  25.473  1.00  0.00     0.239 C 
ATOM     91  N   UNL A   1      35.247  22.122  26.338  1.00  0.00    -0.323 N 
ATOM     92  C   UNL A   1      35.720  23.907  24.694  1.00  0.00     0.071 C 
ATOM     93  C   UNL A   1      35.953  21.134  25.501  1.00  0.00     0.262 C 
ATOM     94  H   UNL A   1      35.909  22.567  26.974  1.00  0.00     0.348 HD
ATOM     95  C   UNL A   1      36.475  22.932  23.794  1.00  0.00     0.012 C 
ATOM     96  C   UNL A   1      37.024  21.767  24.610  1.00  0.00     0.062 C 
ENDBRANCH  84  85
ENDBRANCH  82  84
ENDBRANCH  75  77
ENDBRANCH  74  75
ENDBRANCH  73  74
ENDBRANCH  72  73
ENDBRANCH  71  72
ENDBRANCH   1  71
TORSDOF 19
ENDMDL
