MODEL 1
REMARK VINA RESULT:     -10.6      0.000      0.000
REMARK SMILES CCC(CC)([NH2+]Cc1ccc(Cl)cc1[N+](=O)[O-])C(=O)OCCOCCOC(=O)c1ccc(-c2c3nc(c(-c4cc(S(=O)(=O)[O-])ccc4F)c4ccc([nH]4)c(-c4cc(S(=O)(=O)[O-])ccc4F)c4nc(c(-c5cc(S(=O)(=O)[O-])ccc5F)c5ccc2[nH]5)C=C4)C=C3)cc1
REMARK SMILES IDX 22 1 21 2 20 3 18 4 19 5 3 6 2 7 1 8 4 9 5 10 6 11 7 14 8 15
REMARK SMILES IDX 9 16 14 17 10 18 13 19 11 20 12 21 15 22 16 23 17 24 23 25
REMARK SMILES IDX 24 26 25 27 26 28 27 29 28 30 29 31 30 32 91 33 31 34 90 35
REMARK SMILES IDX 32 36 33 37 34 38 84 39 35 40 89 41 83 42 85 43 36 44 88 45
REMARK SMILES IDX 82 46 81 47 37 49 69 50 49 51 68 52 50 53 53 54 67 55 86 56
REMARK SMILES IDX 51 57 52 58 66 60 87 61 54 62 38 63 39 64 47 65 40 66 46 67
REMARK SMILES IDX 48 68 45 69 41 70 42 71 43 72 44 73 70 74 71 75 79 76 72 77
REMARK SMILES IDX 78 78 80 79 77 80 73 81 74 82 75 83 76 84 55 85 56 86 64 87
REMARK SMILES IDX 57 88 63 89 65 90 62 91 58 92 59 93 60 94 61 95
REMARK H PARENT 6 12 6 13 85 48 53 59
REMARK Flexibility Score: inf
ROOT
ATOM      1  C   UNL A   1      33.900  19.535  24.490  1.00  0.00     0.202 C 
ENDROOT
BRANCH   1   2
ATOM      2  C   UNL A   1      32.787  20.465  24.003  1.00  0.00     0.261 C 
BRANCH   2   3
ATOM      3  O   UNL A   1      32.280  21.290  25.061  1.00  0.00    -0.459 OA
BRANCH   3   4
ATOM      4  C   UNL A   1      31.949  22.551  24.684  1.00  0.00     0.368 C 
ATOM      5  O   UNL A   1      31.484  22.815  23.579  1.00  0.00    -0.245 OA
BRANCH   4   6
ATOM      6  C   UNL A   1      32.288  23.652  25.736  1.00  0.00     0.194 C 
BRANCH   6   7
ATOM      7  C   UNL A   1      33.838  23.590  25.995  1.00  0.00     0.077 C 
ATOM      8  C   UNL A   1      34.335  22.952  27.288  1.00  0.00     0.011 C 
ENDBRANCH   6   7
BRANCH   6   9
ATOM      9  C   UNL A   1      31.458  23.252  26.984  1.00  0.00     0.077 C 
ATOM     10  C   UNL A   1      29.950  23.143  26.836  1.00  0.00     0.011 C 
ENDBRANCH   6   9
BRANCH   6  11
ATOM     11  N   UNL A   1      32.159  25.063  25.264  1.00  0.00    -0.328 N 
ATOM     12  H   UNL A   1      31.253  25.379  25.614  1.00  0.00     0.347 HD
ATOM     13  H   UNL A   1      32.354  24.932  24.272  1.00  0.00     0.347 HD
BRANCH  11  14
ATOM     14  C   UNL A   1      33.078  26.153  25.552  1.00  0.00     0.305 C 
BRANCH  14  15
ATOM     15  C   UNL A   1      32.437  27.501  25.766  1.00  0.00     0.084 A 
ATOM     16  C   UNL A   1      32.640  28.110  27.020  1.00  0.00     0.018 A 
ATOM     17  C   UNL A   1      31.710  28.223  24.793  1.00  0.00     0.279 A 
ATOM     18  C   UNL A   1      32.272  29.436  27.245  1.00  0.00     0.021 A 
ATOM     19  C   UNL A   1      31.386  29.573  25.003  1.00  0.00     0.106 A 
ATOM     20  C   UNL A   1      31.695  30.175  26.219  1.00  0.00     0.047 A 
ATOM     21  Cl  UNL A   1      31.377  31.850  26.445  1.00  0.00    -0.084 Cl
BRANCH  17  22
ATOM     22  N   UNL A   1      31.289  27.624  23.512  1.00  0.00     0.063 N 
ATOM     23  O   UNL A   1      30.087  27.695  23.214  1.00  0.00    -0.258 OA
ATOM     24  O   UNL A   1      32.143  27.080  22.802  1.00  0.00    -0.258 OA
ENDBRANCH  17  22
ENDBRANCH  14  15
ENDBRANCH  11  14
ENDBRANCH   6  11
ENDBRANCH   4   6
ENDBRANCH   3   4
ENDBRANCH   2   3
ENDBRANCH   1   2
BRANCH   1  25
ATOM     25  O   UNL A   1      34.843  20.056  25.424  1.00  0.00    -0.374 OA
BRANCH  25  26
ATOM     26  C   UNL A   1      35.986  20.742  24.914  1.00  0.00     0.202 C 
BRANCH  26  27
ATOM     27  C   UNL A   1      37.358  20.070  25.029  1.00  0.00     0.261 C 
BRANCH  27  28
ATOM     28  O   UNL A   1      38.441  21.017  25.019  1.00  0.00    -0.460 OA
BRANCH  28  29
ATOM     29  C   UNL A   1      39.378  20.782  25.970  1.00  0.00     0.338 C 
ATOM     30  O   UNL A   1      39.991  19.745  26.152  1.00  0.00    -0.246 OA
BRANCH  29  31
ATOM     31  C   UNL A   1      39.740  22.040  26.652  1.00  0.00     0.060 A 
ATOM     32  C   UNL A   1      39.093  23.202  26.211  1.00  0.00     0.016 A 
ATOM     33  C   UNL A   1      40.751  22.108  27.612  1.00  0.00     0.016 A 
ATOM     34  C   UNL A   1      39.522  24.448  26.652  1.00  0.00     0.010 A 
ATOM     35  C   UNL A   1      41.186  23.365  28.052  1.00  0.00     0.010 A 
ATOM     36  C   UNL A   1      40.615  24.538  27.521  1.00  0.00    -0.014 A 
BRANCH  36  37
ATOM     37  C   UNL A   1      41.292  25.852  27.653  1.00  0.00     0.031 A 
ATOM     38  C   UNL A   1      40.598  26.938  28.436  1.00  0.00     0.074 A 
ATOM     39  C   UNL A   1      42.538  26.041  27.185  1.00  0.00     0.049 A 
ATOM     40  N   UNL A   1      41.010  28.143  28.737  1.00  0.00    -0.248 NA
ATOM     41  C   UNL A   1      39.256  26.619  28.948  1.00  0.00     0.031 C 
ATOM     42  C   UNL A   1      43.330  25.042  26.469  1.00  0.00     0.029 A 
ATOM     43  N   UNL A   1      43.363  27.134  27.260  1.00  0.00    -0.354 N 
ATOM     44  C   UNL A   1      39.976  28.726  29.465  1.00  0.00     0.074 A 
ATOM     45  C   UNL A   1      38.902  27.759  29.518  1.00  0.00     0.031 C 
ATOM     46  C   UNL A   1      44.533  25.567  26.178  1.00  0.00     0.029 A 
ATOM     47  C   UNL A   1      44.585  26.947  26.658  1.00  0.00     0.049 A 
ATOM     48  H   UNL A   1      43.104  27.975  27.703  1.00  0.00     0.167 HD
ATOM     49  C   UNL A   1      39.932  29.950  30.048  1.00  0.00     0.034 A 
ATOM     50  C   UNL A   1      45.622  27.796  26.508  1.00  0.00     0.034 A 
ATOM     51  C   UNL A   1      41.015  30.902  29.986  1.00  0.00     0.049 A 
ATOM     52  C   UNL A   1      45.522  29.181  27.105  1.00  0.00     0.074 A 
ATOM     53  C   UNL A   1      41.086  32.165  30.545  1.00  0.00     0.029 A 
ATOM     54  N   UNL A   1      42.217  30.698  29.319  1.00  0.00    -0.354 N 
ATOM     55  N   UNL A   1      44.541  29.720  27.793  1.00  0.00    -0.248 NA
ATOM     56  C   UNL A   1      46.681  30.064  26.917  1.00  0.00     0.031 C 
ATOM     57  C   UNL A   1      42.292  32.754  30.151  1.00  0.00     0.029 A 
ATOM     58  C   UNL A   1      43.019  31.824  29.424  1.00  0.00     0.049 A 
ATOM     59  H   UNL A   1      42.463  29.873  28.840  1.00  0.00     0.167 HD
ATOM     60  C   UNL A   1      44.987  30.989  28.160  1.00  0.00     0.074 A 
ATOM     61  C   UNL A   1      46.325  31.126  27.624  1.00  0.00     0.031 C 
ATOM     62  C   UNL A   1      44.353  31.949  28.882  1.00  0.00     0.034 A 
BRANCH  49  63
ATOM     63  C   UNL A   1      38.650  30.343  30.742  1.00  0.00     0.023 A 
ATOM     64  C   UNL A   1      37.599  30.988  30.066  1.00  0.00     0.031 A 
ATOM     65  C   UNL A   1      38.493  30.104  32.120  1.00  0.00     0.131 A 
ATOM     66  C   UNL A   1      36.478  31.438  30.780  1.00  0.00     0.055 A 
ATOM     67  C   UNL A   1      37.337  30.478  32.808  1.00  0.00     0.041 A 
ATOM     68  F   UNL A   1      39.471  29.516  32.827  1.00  0.00    -0.206 F 
ATOM     69  C   UNL A   1      36.328  31.164  32.141  1.00  0.00     0.022 A 
BRANCH  66  70
ATOM     70  S   UNL A   1      35.293  32.528  29.941  1.00  0.00     0.124 S 
ATOM     71  O   UNL A   1      34.809  31.663  28.867  1.00  0.00    -0.237 OA
ATOM     72  O   UNL A   1      34.338  32.829  31.000  1.00  0.00    -0.237 OA
ATOM     73  O   UNL A   1      36.115  33.653  29.501  1.00  0.00    -0.744 OA
ENDBRANCH  66  70
ENDBRANCH  49  63
BRANCH  50  74
ATOM     74  C   UNL A   1      46.838  27.381  25.752  1.00  0.00     0.023 A 
ATOM     75  C   UNL A   1      47.048  27.791  24.426  1.00  0.00     0.031 A 
ATOM     76  C   UNL A   1      47.779  26.508  26.328  1.00  0.00     0.131 A 
ATOM     77  C   UNL A   1      48.142  27.290  23.702  1.00  0.00     0.055 A 
ATOM     78  C   UNL A   1      48.896  26.058  25.623  1.00  0.00     0.041 A 
ATOM     79  F   UNL A   1      47.629  26.084  27.592  1.00  0.00    -0.206 F 
ATOM     80  C   UNL A   1      49.074  26.437  24.296  1.00  0.00     0.022 A 
BRANCH  77  81
ATOM     81  S   UNL A   1      48.277  27.697  21.940  1.00  0.00     0.124 S 
ATOM     82  O   UNL A   1      46.992  28.339  21.685  1.00  0.00    -0.237 OA
ATOM     83  O   UNL A   1      49.446  28.570  21.921  1.00  0.00    -0.237 OA
ATOM     84  O   UNL A   1      48.464  26.394  21.305  1.00  0.00    -0.744 OA
ENDBRANCH  77  81
ENDBRANCH  50  74
BRANCH  62  85
ATOM     85  C   UNL A   1      45.134  33.207  29.191  1.00  0.00     0.023 A 
ATOM     86  C   UNL A   1      45.175  34.298  28.305  1.00  0.00     0.031 A 
ATOM     87  C   UNL A   1      45.874  33.300  30.385  1.00  0.00     0.131 A 
ATOM     88  C   UNL A   1      45.997  35.399  28.590  1.00  0.00     0.055 A 
ATOM     89  C   UNL A   1      46.631  34.429  30.697  1.00  0.00     0.041 A 
ATOM     90  F   UNL A   1      45.875  32.289  31.269  1.00  0.00    -0.206 F 
ATOM     91  C   UNL A   1      46.712  35.479  29.788  1.00  0.00     0.022 A 
BRANCH  88  92
ATOM     92  S   UNL A   1      46.223  36.668  27.313  1.00  0.00     0.124 S 
ATOM     93  O   UNL A   1      46.079  35.893  26.085  1.00  0.00    -0.237 OA
ATOM     94  O   UNL A   1      45.141  37.602  27.608  1.00  0.00    -0.237 OA
ATOM     95  O   UNL A   1      47.569  37.177  27.570  1.00  0.00    -0.744 OA
ENDBRANCH  88  92
ENDBRANCH  62  85
ENDBRANCH  36  37
ENDBRANCH  29  31
ENDBRANCH  28  29
ENDBRANCH  27  28
ENDBRANCH  26  27
ENDBRANCH  25  26
ENDBRANCH   1  25
TORSDOF 23
ENDMDL
MODEL 2
REMARK VINA RESULT:     -10.6      2.294      3.562
REMARK SMILES CCC(CC)([NH2+]Cc1ccc(Cl)cc1[N+](=O)[O-])C(=O)OCCOCCOC(=O)c1ccc(-c2c3nc(c(-c4cc(S(=O)(=O)[O-])ccc4F)c4ccc([nH]4)c(-c4cc(S(=O)(=O)[O-])ccc4F)c4nc(c(-c5cc(S(=O)(=O)[O-])ccc5F)c5ccc2[nH]5)C=C4)C=C3)cc1
REMARK SMILES IDX 22 1 21 2 20 3 18 4 19 5 3 6 2 7 1 8 4 9 5 10 6 11 7 14 8 15
REMARK SMILES IDX 9 16 14 17 10 18 13 19 11 20 12 21 15 22 16 23 17 24 23 25
REMARK SMILES IDX 24 26 25 27 26 28 27 29 28 30 29 31 30 32 91 33 31 34 90 35
REMARK SMILES IDX 32 36 33 37 34 38 84 39 35 40 89 41 83 42 85 43 36 44 88 45
REMARK SMILES IDX 82 46 81 47 37 49 69 50 49 51 68 52 50 53 53 54 67 55 86 56
REMARK SMILES IDX 51 57 52 58 66 60 87 61 54 62 38 63 39 64 47 65 40 66 46 67
REMARK SMILES IDX 48 68 45 69 41 70 42 71 43 72 44 73 70 74 71 75 79 76 72 77
REMARK SMILES IDX 78 78 80 79 77 80 73 81 74 82 75 83 76 84 55 85 56 86 64 87
REMARK SMILES IDX 57 88 63 89 65 90 62 91 58 92 59 93 60 94 61 95
REMARK H PARENT 6 12 6 13 85 48 53 59
REMARK Flexibility Score: inf
ROOT
ATOM      1  C   UNL A   1      34.893  23.567  24.973  1.00  0.00     0.202 C 
ENDROOT
BRANCH   1   2
ATOM      2  C   UNL A   1      34.796  25.027  25.417  1.00  0.00     0.261 C 
BRANCH   2   3
ATOM      3  O   UNL A   1      33.503  25.337  25.956  1.00  0.00    -0.459 OA
BRANCH   3   4
ATOM      4  C   UNL A   1      33.138  26.639  25.834  1.00  0.00     0.368 C 
ATOM      5  O   UNL A   1      33.379  27.481  26.696  1.00  0.00    -0.245 OA
BRANCH   4   6
ATOM      6  C   UNL A   1      32.310  26.962  24.553  1.00  0.00     0.194 C 
BRANCH   6   7
ATOM      7  C   UNL A   1      33.307  27.552  23.488  1.00  0.00     0.077 C 
ATOM      8  C   UNL A   1      33.345  26.923  22.101  1.00  0.00     0.011 C 
ENDBRANCH   6   7
BRANCH   6   9
ATOM      9  C   UNL A   1      31.263  28.003  25.031  1.00  0.00     0.077 C 
ATOM     10  C   UNL A   1      31.167  29.319  24.278  1.00  0.00     0.011 C 
ENDBRANCH   6   9
BRANCH   6  11
ATOM     11  N   UNL A   1      31.791  25.782  23.800  1.00  0.00    -0.328 N 
ATOM     12  H   UNL A   1      32.611  25.203  23.613  1.00  0.00     0.347 HD
ATOM     13  H   UNL A   1      31.273  26.261  23.063  1.00  0.00     0.347 HD
BRANCH  11  14
ATOM     14  C   UNL A   1      30.767  24.854  24.255  1.00  0.00     0.305 C 
BRANCH  14  15
ATOM     15  C   UNL A   1      31.173  23.402  24.276  1.00  0.00     0.084 A 
ATOM     16  C   UNL A   1      31.635  22.854  23.062  1.00  0.00     0.018 A 
ATOM     17  C   UNL A   1      31.189  22.575  25.420  1.00  0.00     0.279 A 
ATOM     18  C   UNL A   1      32.229  21.592  23.021  1.00  0.00     0.021 A 
ATOM     19  C   UNL A   1      31.833  21.327  25.388  1.00  0.00     0.106 A 
ATOM     20  C   UNL A   1      32.371  20.860  24.193  1.00  0.00     0.047 A 
ATOM     21  Cl  UNL A   1      33.234  19.372  24.173  1.00  0.00    -0.084 Cl
BRANCH  17  22
ATOM     22  N   UNL A   1      30.576  22.979  26.699  1.00  0.00     0.063 N 
ATOM     23  O   UNL A   1      29.471  22.493  26.984  1.00  0.00    -0.258 OA
ATOM     24  O   UNL A   1      31.181  23.781  27.421  1.00  0.00    -0.258 OA
ENDBRANCH  17  22
ENDBRANCH  14  15
ENDBRANCH  11  14
ENDBRANCH   6  11
ENDBRANCH   4   6
ENDBRANCH   3   4
ENDBRANCH   2   3
ENDBRANCH   1   2
BRANCH   1  25
ATOM     25  O   UNL A   1      35.976  22.788  25.478  1.00  0.00    -0.374 OA
BRANCH  25  26
ATOM     26  C   UNL A   1      35.805  21.374  25.565  1.00  0.00     0.202 C 
BRANCH  26  27
ATOM     27  C   UNL A   1      36.966  20.466  25.147  1.00  0.00     0.261 C 
BRANCH  27  28
ATOM     28  O   UNL A   1      38.191  21.194  24.942  1.00  0.00    -0.460 OA
BRANCH  28  29
ATOM     29  C   UNL A   1      39.166  20.878  25.830  1.00  0.00     0.338 C 
ATOM     30  O   UNL A   1      39.766  19.821  25.911  1.00  0.00    -0.246 OA
BRANCH  29  31
ATOM     31  C   UNL A   1      39.584  22.080  26.578  1.00  0.00     0.060 A 
ATOM     32  C   UNL A   1      38.971  23.287  26.219  1.00  0.00     0.016 A 
ATOM     33  C   UNL A   1      40.613  22.055  27.521  1.00  0.00     0.016 A 
ATOM     34  C   UNL A   1      39.452  24.489  26.724  1.00  0.00     0.010 A 
ATOM     35  C   UNL A   1      41.100  23.268  28.026  1.00  0.00     0.010 A 
ATOM     36  C   UNL A   1      40.562  24.489  27.576  1.00  0.00    -0.014 A 
BRANCH  36  37
ATOM     37  C   UNL A   1      41.287  25.769  27.773  1.00  0.00     0.031 A 
ATOM     38  C   UNL A   1      40.604  26.867  28.549  1.00  0.00     0.074 A 
ATOM     39  C   UNL A   1      42.562  25.913  27.370  1.00  0.00     0.049 A 
ATOM     40  N   UNL A   1      41.052  28.045  28.899  1.00  0.00    -0.248 NA
ATOM     41  C   UNL A   1      39.225  26.595  28.988  1.00  0.00     0.031 C 
ATOM     42  C   UNL A   1      43.344  24.897  26.667  1.00  0.00     0.029 A 
ATOM     43  N   UNL A   1      43.428  26.967  27.511  1.00  0.00    -0.354 N 
ATOM     44  C   UNL A   1      40.010  28.656  29.591  1.00  0.00     0.074 A 
ATOM     45  C   UNL A   1      38.894  27.736  29.568  1.00  0.00     0.031 C 
ATOM     46  C   UNL A   1      44.581  25.375  26.448  1.00  0.00     0.029 A 
ATOM     47  C   UNL A   1      44.669  26.740  26.964  1.00  0.00     0.049 A 
ATOM     48  H   UNL A   1      43.184  27.808  27.962  1.00  0.00     0.167 HD
ATOM     49  C   UNL A   1      39.990  29.867  30.201  1.00  0.00     0.034 A 
ATOM     50  C   UNL A   1      45.747  27.546  26.885  1.00  0.00     0.034 A 
ATOM     51  C   UNL A   1      41.115  30.771  30.215  1.00  0.00     0.049 A 
ATOM     52  C   UNL A   1      45.678  28.919  27.510  1.00  0.00     0.074 A 
ATOM     53  C   UNL A   1      41.212  32.018  30.808  1.00  0.00     0.029 A 
ATOM     54  N   UNL A   1      42.337  30.530  29.601  1.00  0.00    -0.354 N 
ATOM     55  N   UNL A   1      44.689  29.485  28.164  1.00  0.00    -0.248 NA
ATOM     56  C   UNL A   1      46.882  29.754  27.400  1.00  0.00     0.031 C 
ATOM     57  C   UNL A   1      42.460  32.561  30.487  1.00  0.00     0.029 A 
ATOM     58  C   UNL A   1      43.181  31.617  29.773  1.00  0.00     0.049 A 
ATOM     59  H   UNL A   1      42.571  29.707  29.114  1.00  0.00     0.167 HD
ATOM     60  C   UNL A   1      45.171  30.725  28.583  1.00  0.00     0.074 A 
ATOM     61  C   UNL A   1      46.538  30.815  28.116  1.00  0.00     0.031 C 
ATOM     62  C   UNL A   1      44.545  31.695  29.298  1.00  0.00     0.034 A 
BRANCH  49  63
ATOM     63  C   UNL A   1      38.693  30.300  30.843  1.00  0.00     0.023 A 
ATOM     64  C   UNL A   1      37.665  30.920  30.111  1.00  0.00     0.031 A 
ATOM     65  C   UNL A   1      38.499  30.127  32.226  1.00  0.00     0.131 A 
ATOM     66  C   UNL A   1      36.530  31.411  30.774  1.00  0.00     0.055 A 
ATOM     67  C   UNL A   1      37.329  30.541  32.865  1.00  0.00     0.041 A 
ATOM     68  F   UNL A   1      39.455  29.567  32.985  1.00  0.00    -0.206 F 
ATOM     69  C   UNL A   1      36.342  31.201  32.141  1.00  0.00     0.022 A 
BRANCH  66  70
ATOM     70  S   UNL A   1      35.375  32.468  29.855  1.00  0.00     0.124 S 
ATOM     71  O   UNL A   1      36.254  33.549  29.414  1.00  0.00    -0.237 OA
ATOM     72  O   UNL A   1      34.891  31.572  28.811  1.00  0.00    -0.237 OA
ATOM     73  O   UNL A   1      34.386  32.850  30.860  1.00  0.00    -0.744 OA
ENDBRANCH  66  70
ENDBRANCH  49  63
BRANCH  50  74
ATOM     74  C   UNL A   1      46.980  27.094  26.177  1.00  0.00     0.023 A 
ATOM     75  C   UNL A   1      48.000  26.410  26.855  1.00  0.00     0.031 A 
ATOM     76  C   UNL A   1      47.183  27.401  24.819  1.00  0.00     0.131 A 
ATOM     77  C   UNL A   1      49.198  26.100  26.191  1.00  0.00     0.055 A 
ATOM     78  C   UNL A   1      48.352  27.041  24.147  1.00  0.00     0.041 A 
ATOM     79  F   UNL A   1      46.239  28.054  24.121  1.00  0.00    -0.206 F 
ATOM     80  C   UNL A   1      49.376  26.400  24.838  1.00  0.00     0.022 A 
BRANCH  77  81
ATOM     81  S   UNL A   1      50.562  25.383  27.147  1.00  0.00     0.124 S 
ATOM     82  O   UNL A   1      49.889  24.296  27.851  1.00  0.00    -0.237 OA
ATOM     83  O   UNL A   1      51.492  24.987  26.095  1.00  0.00    -0.237 OA
ATOM     84  O   UNL A   1      51.007  26.492  27.987  1.00  0.00    -0.744 OA
ENDBRANCH  77  81
ENDBRANCH  50  74
BRANCH  62  85
ATOM     85  C   UNL A   1      45.362  32.910  29.675  1.00  0.00     0.023 A 
ATOM     86  C   UNL A   1      45.442  34.044  28.847  1.00  0.00     0.031 A 
ATOM     87  C   UNL A   1      46.098  32.917  30.874  1.00  0.00     0.131 A 
ATOM     88  C   UNL A   1      46.297  35.102  29.192  1.00  0.00     0.055 A 
ATOM     89  C   UNL A   1      46.889  34.005  31.248  1.00  0.00     0.041 A 
ATOM     90  F   UNL A   1      46.063  31.862  31.705  1.00  0.00    -0.206 F 
ATOM     91  C   UNL A   1      47.008  35.098  30.395  1.00  0.00     0.022 A 
BRANCH  88  92
ATOM     92  S   UNL A   1      46.569  36.428  27.984  1.00  0.00     0.124 S 
ATOM     93  O   UNL A   1      46.504  35.705  26.718  1.00  0.00    -0.237 OA
ATOM     94  O   UNL A   1      45.457  37.332  28.260  1.00  0.00    -0.237 OA
ATOM     95  O   UNL A   1      47.891  36.946  28.334  1.00  0.00    -0.744 OA
ENDBRANCH  88  92
ENDBRANCH  62  85
ENDBRANCH  36  37
ENDBRANCH  29  31
ENDBRANCH  28  29
ENDBRANCH  27  28
ENDBRANCH  26  27
ENDBRANCH  25  26
ENDBRANCH   1  25
TORSDOF 23
ENDMDL
MODEL 3
REMARK VINA RESULT:     -10.4      2.250      3.500
REMARK SMILES CCC(CC)([NH2+]Cc1ccc(Cl)cc1[N+](=O)[O-])C(=O)OCCOCCOC(=O)c1ccc(-c2c3nc(c(-c4cc(S(=O)(=O)[O-])ccc4F)c4ccc([nH]4)c(-c4cc(S(=O)(=O)[O-])ccc4F)c4nc(c(-c5cc(S(=O)(=O)[O-])ccc5F)c5ccc2[nH]5)C=C4)C=C3)cc1
REMARK SMILES IDX 22 1 21 2 20 3 18 4 19 5 3 6 2 7 1 8 4 9 5 10 6 11 7 14 8 15
REMARK SMILES IDX 9 16 14 17 10 18 13 19 11 20 12 21 15 22 16 23 17 24 23 25
REMARK SMILES IDX 24 26 25 27 26 28 27 29 28 30 29 31 30 32 91 33 31 34 90 35
REMARK SMILES IDX 32 36 33 37 34 38 84 39 35 40 89 41 83 42 85 43 36 44 88 45
REMARK SMILES IDX 82 46 81 47 37 49 69 50 49 51 68 52 50 53 53 54 67 55 86 56
REMARK SMILES IDX 51 57 52 58 66 60 87 61 54 62 38 63 39 64 47 65 40 66 46 67
REMARK SMILES IDX 48 68 45 69 41 70 42 71 43 72 44 73 70 74 71 75 79 76 72 77
REMARK SMILES IDX 78 78 80 79 77 80 73 81 74 82 75 83 76 84 55 85 56 86 64 87
REMARK SMILES IDX 57 88 63 89 65 90 62 91 58 92 59 93 60 94 61 95
REMARK H PARENT 6 12 6 13 85 48 53 59
REMARK Flexibility Score: inf
ROOT
ATOM      1  C   UNL A   1      35.311  23.286  24.799  1.00  0.00     0.202 C 
ENDROOT
BRANCH   1   2
ATOM      2  C   UNL A   1      35.355  24.683  25.420  1.00  0.00     0.261 C 
BRANCH   2   3
ATOM      3  O   UNL A   1      34.052  25.134  25.814  1.00  0.00    -0.459 OA
BRANCH   3   4
ATOM      4  C   UNL A   1      33.792  26.434  25.523  1.00  0.00     0.368 C 
ATOM      5  O   UNL A   1      34.261  27.367  26.169  1.00  0.00    -0.245 OA
BRANCH   4   6
ATOM      6  C   UNL A   1      32.779  26.646  24.357  1.00  0.00     0.194 C 
BRANCH   6   7
ATOM      7  C   UNL A   1      33.556  27.353  23.185  1.00  0.00     0.077 C 
ATOM      8  C   UNL A   1      33.783  28.858  23.266  1.00  0.00     0.011 C 
ENDBRANCH   6   7
BRANCH   6   9
ATOM      9  C   UNL A   1      31.676  27.548  24.971  1.00  0.00     0.077 C 
ATOM     10  C   UNL A   1      31.126  27.176  26.337  1.00  0.00     0.011 C 
ENDBRANCH   6   9
BRANCH   6  11
ATOM     11  N   UNL A   1      32.324  25.407  23.658  1.00  0.00    -0.328 N 
ATOM     12  H   UNL A   1      33.122  24.772  23.695  1.00  0.00     0.347 HD
ATOM     13  H   UNL A   1      31.981  25.815  22.788  1.00  0.00     0.347 HD
BRANCH  11  14
ATOM     14  C   UNL A   1      31.173  24.592  24.016  1.00  0.00     0.305 C 
BRANCH  14  15
ATOM     15  C   UNL A   1      31.454  23.122  24.200  1.00  0.00     0.084 A 
ATOM     16  C   UNL A   1      31.682  22.367  23.032  1.00  0.00     0.018 A 
ATOM     17  C   UNL A   1      31.569  22.463  25.444  1.00  0.00     0.279 A 
ATOM     18  C   UNL A   1      32.155  21.056  23.103  1.00  0.00     0.021 A 
ATOM     19  C   UNL A   1      32.092  21.161  25.514  1.00  0.00     0.106 A 
ATOM     20  C   UNL A   1      32.407  20.481  24.342  1.00  0.00     0.047 A 
ATOM     21  Cl  UNL A   1      33.128  18.922  24.430  1.00  0.00    -0.084 Cl
BRANCH  17  22
ATOM     22  N   UNL A   1      31.188  23.101  26.718  1.00  0.00     0.063 N 
ATOM     23  O   UNL A   1      30.078  23.652  26.773  1.00  0.00    -0.258 OA
ATOM     24  O   UNL A   1      31.985  23.062  27.663  1.00  0.00    -0.258 OA
ENDBRANCH  17  22
ENDBRANCH  14  15
ENDBRANCH  11  14
ENDBRANCH   6  11
ENDBRANCH   4   6
ENDBRANCH   3   4
ENDBRANCH   2   3
ENDBRANCH   1   2
BRANCH   1  25
ATOM     25  O   UNL A   1      35.710  22.183  25.611  1.00  0.00    -0.374 OA
BRANCH  25  26
ATOM     26  C   UNL A   1      35.892  20.916  24.981  1.00  0.00     0.202 C 
BRANCH  26  27
ATOM     27  C   UNL A   1      37.282  20.272  25.015  1.00  0.00     0.261 C 
BRANCH  27  28
ATOM     28  O   UNL A   1      38.342  21.245  25.056  1.00  0.00    -0.460 OA
BRANCH  28  29
ATOM     29  C   UNL A   1      39.310  20.957  25.962  1.00  0.00     0.338 C 
ATOM     30  O   UNL A   1      39.908  19.903  26.081  1.00  0.00    -0.246 OA
BRANCH  29  31
ATOM     31  C   UNL A   1      39.723  22.182  26.674  1.00  0.00     0.060 A 
ATOM     32  C   UNL A   1      39.034  23.359  26.351  1.00  0.00     0.016 A 
ATOM     33  C   UNL A   1      40.813  22.211  27.545  1.00  0.00     0.016 A 
ATOM     34  C   UNL A   1      39.493  24.584  26.817  1.00  0.00     0.010 A 
ATOM     35  C   UNL A   1      41.278  23.448  28.010  1.00  0.00     0.010 A 
ATOM     36  C   UNL A   1      40.656  24.641  27.592  1.00  0.00    -0.014 A 
BRANCH  36  37
ATOM     37  C   UNL A   1      41.335  25.953  27.733  1.00  0.00     0.031 A 
ATOM     38  C   UNL A   1      40.649  27.031  28.534  1.00  0.00     0.074 A 
ATOM     39  C   UNL A   1      42.577  26.147  27.256  1.00  0.00     0.049 A 
ATOM     40  N   UNL A   1      41.064  28.232  28.844  1.00  0.00    -0.248 NA
ATOM     41  C   UNL A   1      39.311  26.706  29.054  1.00  0.00     0.031 C 
ATOM     42  C   UNL A   1      43.362  25.156  26.521  1.00  0.00     0.029 A 
ATOM     43  N   UNL A   1      43.403  27.239  27.336  1.00  0.00    -0.354 N 
ATOM     44  C   UNL A   1      40.037  28.807  29.588  1.00  0.00     0.074 A 
ATOM     45  C   UNL A   1      38.963  27.840  29.640  1.00  0.00     0.031 C 
ATOM     46  C   UNL A   1      44.562  25.684  26.226  1.00  0.00     0.029 A 
ATOM     47  C   UNL A   1      44.620  27.058  26.721  1.00  0.00     0.049 A 
ATOM     48  H   UNL A   1      43.148  28.075  27.790  1.00  0.00     0.167 HD
ATOM     49  C   UNL A   1      39.999  30.024  30.185  1.00  0.00     0.034 A 
ATOM     50  C   UNL A   1      45.655  27.909  26.571  1.00  0.00     0.034 A 
ATOM     51  C   UNL A   1      41.082  30.976  30.125  1.00  0.00     0.049 A 
ATOM     52  C   UNL A   1      45.562  29.287  27.184  1.00  0.00     0.074 A 
ATOM     53  C   UNL A   1      41.158  32.234  30.697  1.00  0.00     0.029 A 
ATOM     54  N   UNL A   1      42.277  30.780  29.444  1.00  0.00    -0.354 N 
ATOM     55  N   UNL A   1      44.588  29.818  27.887  1.00  0.00    -0.248 NA
ATOM     56  C   UNL A   1      46.719  30.171  26.997  1.00  0.00     0.031 C 
ATOM     57  C   UNL A   1      42.361  32.826  30.299  1.00  0.00     0.029 A 
ATOM     58  C   UNL A   1      43.081  31.904  29.556  1.00  0.00     0.049 A 
ATOM     59  H   UNL A   1      42.519  29.960  28.954  1.00  0.00     0.167 HD
ATOM     60  C   UNL A   1      45.037  31.083  28.265  1.00  0.00     0.074 A 
ATOM     61  C   UNL A   1      46.371  31.225  27.719  1.00  0.00     0.031 C 
ATOM     62  C   UNL A   1      44.410  32.035  29.003  1.00  0.00     0.034 A 
BRANCH  49  63
ATOM     63  C   UNL A   1      38.723  30.410  30.895  1.00  0.00     0.023 A 
ATOM     64  C   UNL A   1      37.659  31.047  30.232  1.00  0.00     0.031 A 
ATOM     65  C   UNL A   1      38.585  30.172  32.275  1.00  0.00     0.131 A 
ATOM     66  C   UNL A   1      36.544  31.492  30.959  1.00  0.00     0.055 A 
ATOM     67  C   UNL A   1      37.436  30.540  32.977  1.00  0.00     0.041 A 
ATOM     68  F   UNL A   1      39.576  29.592  32.971  1.00  0.00    -0.206 F 
ATOM     69  C   UNL A   1      36.413  31.218  32.322  1.00  0.00     0.022 A 
BRANCH  66  70
ATOM     70  S   UNL A   1      35.342  32.572  30.134  1.00  0.00     0.124 S 
ATOM     71  O   UNL A   1      35.031  31.802  28.931  1.00  0.00    -0.237 OA
ATOM     72  O   UNL A   1      34.276  32.671  31.123  1.00  0.00    -0.237 OA
ATOM     73  O   UNL A   1      36.093  33.803  29.898  1.00  0.00    -0.744 OA
ENDBRANCH  66  70
ENDBRANCH  49  63
BRANCH  50  74
ATOM     74  C   UNL A   1      46.865  27.501  25.799  1.00  0.00     0.023 A 
ATOM     75  C   UNL A   1      47.035  27.878  24.458  1.00  0.00     0.031 A 
ATOM     76  C   UNL A   1      47.840  26.669  26.378  1.00  0.00     0.131 A 
ATOM     77  C   UNL A   1      48.125  27.383  23.724  1.00  0.00     0.055 A 
ATOM     78  C   UNL A   1      48.952  26.226  25.661  1.00  0.00     0.041 A 
ATOM     79  F   UNL A   1      47.728  26.279  27.658  1.00  0.00    -0.206 F 
ATOM     80  C   UNL A   1      49.092  26.570  24.320  1.00  0.00     0.022 A 
BRANCH  77  81
ATOM     81  S   UNL A   1      48.211  27.741  21.948  1.00  0.00     0.124 S 
ATOM     82  O   UNL A   1      49.362  28.634  21.883  1.00  0.00    -0.237 OA
ATOM     83  O   UNL A   1      48.398  26.410  21.381  1.00  0.00    -0.237 OA
ATOM     84  O   UNL A   1      46.919  28.362  21.665  1.00  0.00    -0.744 OA
ENDBRANCH  77  81
ENDBRANCH  50  74
BRANCH  62  85
ATOM     85  C   UNL A   1      45.194  33.289  29.319  1.00  0.00     0.023 A 
ATOM     86  C   UNL A   1      45.992  33.402  30.471  1.00  0.00     0.031 A 
ATOM     87  C   UNL A   1      45.115  34.401  28.460  1.00  0.00     0.131 A 
ATOM     88  C   UNL A   1      46.616  34.622  30.772  1.00  0.00     0.055 A 
ATOM     89  C   UNL A   1      45.798  35.589  28.728  1.00  0.00     0.041 A 
ATOM     90  F   UNL A   1      44.368  34.354  27.346  1.00  0.00    -0.206 F 
ATOM     91  C   UNL A   1      46.538  35.711  29.900  1.00  0.00     0.022 A 
BRANCH  88  92
ATOM     92  S   UNL A   1      47.423  34.811  32.386  1.00  0.00     0.124 S 
ATOM     93  O   UNL A   1      46.366  35.419  33.186  1.00  0.00    -0.237 OA
ATOM     94  O   UNL A   1      47.767  33.433  32.724  1.00  0.00    -0.237 OA
ATOM     95  O   UNL A   1      48.563  35.682  32.100  1.00  0.00    -0.744 OA
ENDBRANCH  88  92
ENDBRANCH  62  85
ENDBRANCH  36  37
ENDBRANCH  29  31
ENDBRANCH  28  29
ENDBRANCH  27  28
ENDBRANCH  26  27
ENDBRANCH  25  26
ENDBRANCH   1  25
TORSDOF 23
ENDMDL
