MODEL 1
REMARK VINA RESULT:      -9.0      0.000      0.000
REMARK SMILES O=C(COCCNS(=O)(=O)c1ccccc1)OCCOCCOC(=O)c1ccc(-c2c3nc(c(-c4cc(S(=O)(=O)[O-])ccc4F)c4ccc([nH]4)c(-c4cc(S(=O)(=O)[O-])ccc4F)c4nc(c(-c5cc(S(=O)(=O)[O-])ccc5F)c5ccc2[nH]5)C=C4)C=C3)cc1
REMARK SMILES IDX 18 1 17 2 2 3 1 4 3 5 4 6 5 7 6 8 7 9 8 11 9 12 10 13 11 14
REMARK SMILES IDX 12 15 16 16 13 17 15 18 14 19 19 20 20 21 21 22 22 23 23 24
REMARK SMILES IDX 24 25 25 26 26 27 27 28 88 29 28 30 87 31 29 32 30 33 31 34
REMARK SMILES IDX 81 35 32 36 86 37 80 38 82 39 33 40 85 41 79 42 78 43 34 45
REMARK SMILES IDX 66 46 46 47 65 48 47 49 50 50 64 51 83 52 48 53 49 54 63 56
REMARK SMILES IDX 84 57 51 58 35 59 36 60 44 61 37 62 43 63 45 64 42 65 38 66
REMARK SMILES IDX 39 67 40 68 41 69 67 70 68 71 76 72 69 73 75 74 77 75 74 76
REMARK SMILES IDX 70 77 71 78 72 79 73 80 52 81 53 82 61 83 54 84 60 85 62 86
REMARK SMILES IDX 59 87 55 88 56 89 57 90 58 91
REMARK H PARENT 7 10 82 44 50 55
REMARK Flexibility Score: inf
ROOT
ATOM      1  C   UNL A   1      34.527  35.017  28.129  1.00  0.00     0.261 C 
ENDROOT
BRANCH   1   2
ATOM      2  O   UNL A   1      34.789  33.802  27.412  1.00  0.00    -0.462 OA
BRANCH   2   3
ATOM      3  C   UNL A   1      35.530  32.824  27.975  1.00  0.00     0.332 C 
ATOM      4  O   UNL A   1      36.681  33.055  28.354  1.00  0.00    -0.250 OA
BRANCH   3   5
ATOM      5  C   UNL A   1      34.875  31.468  28.238  1.00  0.00     0.282 C 
BRANCH   5   6
ATOM      6  O   UNL A   1      34.132  30.970  27.134  1.00  0.00    -0.368 OA
BRANCH   6   7
ATOM      7  C   UNL A   1      32.759  30.691  27.424  1.00  0.00     0.177 C 
BRANCH   7   8
ATOM      8  C   UNL A   1      31.883  30.600  26.166  1.00  0.00     0.127 C 
BRANCH   8   9
ATOM      9  N   UNL A   1      31.839  29.224  25.653  1.00  0.00    -0.209 NA
ATOM     10  H   UNL A   1      31.104  28.744  26.172  1.00  0.00     0.141 HD
BRANCH   9  11
ATOM     11  S   UNL A   1      31.558  28.916  24.044  1.00  0.00     0.240 S 
ATOM     12  O   UNL A   1      30.364  29.635  23.663  1.00  0.00    -0.207 OA
ATOM     13  O   UNL A   1      32.817  29.091  23.352  1.00  0.00    -0.207 OA
BRANCH  11  14
ATOM     14  C   UNL A   1      31.174  27.186  23.987  1.00  0.00     0.082 A 
ATOM     15  C   UNL A   1      31.257  26.449  22.801  1.00  0.00     0.022 A 
ATOM     16  C   UNL A   1      30.793  26.570  25.181  1.00  0.00     0.022 A 
ATOM     17  C   UNL A   1      31.012  25.077  22.824  1.00  0.00     0.001 A 
ATOM     18  C   UNL A   1      30.523  25.203  25.191  1.00  0.00     0.001 A 
ATOM     19  C   UNL A   1      30.647  24.456  24.018  1.00  0.00     0.000 A 
ENDBRANCH  11  14
ENDBRANCH   9  11
ENDBRANCH   8   9
ENDBRANCH   7   8
ENDBRANCH   6   7
ENDBRANCH   5   6
ENDBRANCH   3   5
ENDBRANCH   2   3
ENDBRANCH   1   2
BRANCH   1  20
ATOM     20  C   UNL A   1      33.274  34.872  28.991  1.00  0.00     0.202 C 
BRANCH  20  21
ATOM     21  O   UNL A   1      32.623  36.096  29.350  1.00  0.00    -0.374 OA
BRANCH  21  22
ATOM     22  C   UNL A   1      32.938  36.624  30.648  1.00  0.00     0.202 C 
BRANCH  22  23
ATOM     23  C   UNL A   1      32.101  36.103  31.823  1.00  0.00     0.261 C 
BRANCH  23  24
ATOM     24  O   UNL A   1      32.836  35.152  32.603  1.00  0.00    -0.460 OA
BRANCH  24  25
ATOM     25  C   UNL A   1      34.016  35.624  33.077  1.00  0.00     0.338 C 
ATOM     26  O   UNL A   1      34.176  36.587  33.809  1.00  0.00    -0.246 OA
BRANCH  25  27
ATOM     27  C   UNL A   1      35.080  34.640  32.791  1.00  0.00     0.060 A 
ATOM     28  C   UNL A   1      34.954  33.381  33.394  1.00  0.00     0.016 A 
ATOM     29  C   UNL A   1      36.166  34.927  31.960  1.00  0.00     0.016 A 
ATOM     30  C   UNL A   1      35.959  32.436  33.247  1.00  0.00     0.010 A 
ATOM     31  C   UNL A   1      37.185  33.983  31.825  1.00  0.00     0.010 A 
ATOM     32  C   UNL A   1      37.111  32.766  32.524  1.00  0.00    -0.014 A 
BRANCH  32  33
ATOM     33  C   UNL A   1      38.331  31.966  32.766  1.00  0.00     0.031 A 
ATOM     34  C   UNL A   1      39.047  32.176  34.073  1.00  0.00     0.074 A 
ATOM     35  C   UNL A   1      38.728  31.026  31.894  1.00  0.00     0.049 A 
ATOM     36  N   UNL A   1      40.118  31.591  34.540  1.00  0.00    -0.248 NA
ATOM     37  C   UNL A   1      38.475  33.187  34.977  1.00  0.00     0.031 C 
ATOM     38  C   UNL A   1      38.058  30.705  30.635  1.00  0.00     0.029 A 
ATOM     39  N   UNL A   1      39.786  30.158  31.946  1.00  0.00    -0.354 N 
ATOM     40  C   UNL A   1      40.355  32.175  35.781  1.00  0.00     0.074 A 
ATOM     41  C   UNL A   1      39.341  33.186  35.975  1.00  0.00     0.031 C 
ATOM     42  C   UNL A   1      38.723  29.703  30.034  1.00  0.00     0.029 A 
ATOM     43  C   UNL A   1      39.881  29.340  30.847  1.00  0.00     0.049 A 
ATOM     44  H   UNL A   1      40.418  30.124  32.699  1.00  0.00     0.167 HD
ATOM     45  C   UNL A   1      41.325  31.882  36.680  1.00  0.00     0.034 A 
ATOM     46  C   UNL A   1      40.812  28.417  30.534  1.00  0.00     0.034 A 
ATOM     47  C   UNL A   1      42.325  30.868  36.457  1.00  0.00     0.049 A 
ATOM     48  C   UNL A   1      41.931  28.163  31.518  1.00  0.00     0.074 A 
ATOM     49  C   UNL A   1      43.354  30.472  37.291  1.00  0.00     0.029 A 
ATOM     50  N   UNL A   1      42.427  30.098  35.304  1.00  0.00    -0.354 N 
ATOM     51  N   UNL A   1      42.145  28.717  32.691  1.00  0.00    -0.248 NA
ATOM     52  C   UNL A   1      42.920  27.149  31.140  1.00  0.00     0.031 C 
ATOM     53  C   UNL A   1      44.125  29.525  36.611  1.00  0.00     0.029 A 
ATOM     54  C   UNL A   1      43.523  29.255  35.390  1.00  0.00     0.049 A 
ATOM     55  H   UNL A   1      41.811  30.145  34.537  1.00  0.00     0.167 HD
ATOM     56  C   UNL A   1      43.274  28.084  33.209  1.00  0.00     0.074 A 
ATOM     57  C   UNL A   1      43.681  27.101  32.223  1.00  0.00     0.031 C 
ATOM     58  C   UNL A   1      43.914  28.288  34.390  1.00  0.00     0.034 A 
BRANCH  45  59
ATOM     59  C   UNL A   1      41.383  32.718  37.938  1.00  0.00     0.023 A 
ATOM     60  C   UNL A   1      40.484  32.531  39.005  1.00  0.00     0.031 A 
ATOM     61  C   UNL A   1      42.325  33.756  38.050  1.00  0.00     0.131 A 
ATOM     62  C   UNL A   1      40.497  33.415  40.095  1.00  0.00     0.055 A 
ATOM     63  C   UNL A   1      42.390  34.576  39.177  1.00  0.00     0.041 A 
ATOM     64  F   UNL A   1      43.188  34.006  37.053  1.00  0.00    -0.206 F 
ATOM     65  C   UNL A   1      41.463  34.419  40.202  1.00  0.00     0.022 A 
BRANCH  62  66
ATOM     66  S   UNL A   1      39.137  33.337  41.294  1.00  0.00     0.124 S 
ATOM     67  O   UNL A   1      38.717  34.736  41.355  1.00  0.00    -0.237 OA
ATOM     68  O   UNL A   1      38.205  32.417  40.655  1.00  0.00    -0.237 OA
ATOM     69  O   UNL A   1      39.779  32.836  42.509  1.00  0.00    -0.744 OA
ENDBRANCH  62  66
ENDBRANCH  45  59
BRANCH  46  70
ATOM     70  C   UNL A   1      40.744  27.677  29.242  1.00  0.00     0.023 A 
ATOM     71  C   UNL A   1      41.627  27.970  28.191  1.00  0.00     0.031 A 
ATOM     72  C   UNL A   1      39.758  26.700  29.019  1.00  0.00     0.131 A 
ATOM     73  C   UNL A   1      41.475  27.331  26.950  1.00  0.00     0.055 A 
ATOM     74  C   UNL A   1      39.647  26.025  27.802  1.00  0.00     0.041 A 
ATOM     75  F   UNL A   1      38.885  26.381  29.988  1.00  0.00    -0.206 F 
ATOM     76  C   UNL A   1      40.501  26.351  26.752  1.00  0.00     0.022 A 
BRANCH  73  77
ATOM     77  S   UNL A   1      42.514  27.871  25.564  1.00  0.00     0.124 S 
ATOM     78  O   UNL A   1      41.685  28.904  24.956  1.00  0.00    -0.237 OA
ATOM     79  O   UNL A   1      43.716  28.331  26.250  1.00  0.00    -0.237 OA
ATOM     80  O   UNL A   1      42.680  26.655  24.770  1.00  0.00    -0.744 OA
ENDBRANCH  73  77
ENDBRANCH  46  70
BRANCH  58  81
ATOM     81  C   UNL A   1      45.083  27.382  34.700  1.00  0.00     0.023 A 
ATOM     82  C   UNL A   1      44.916  26.144  35.344  1.00  0.00     0.031 A 
ATOM     83  C   UNL A   1      46.391  27.780  34.365  1.00  0.00     0.131 A 
ATOM     84  C   UNL A   1      46.040  25.387  35.705  1.00  0.00     0.055 A 
ATOM     85  C   UNL A   1      47.499  26.986  34.656  1.00  0.00     0.041 A 
ATOM     86  F   UNL A   1      46.612  28.953  33.751  1.00  0.00    -0.206 F 
ATOM     87  C   UNL A   1      47.329  25.790  35.347  1.00  0.00     0.022 A 
BRANCH  84  88
ATOM     88  S   UNL A   1      45.805  23.936  36.767  1.00  0.00     0.124 S 
ATOM     89  O   UNL A   1      45.416  24.549  38.034  1.00  0.00    -0.237 OA
ATOM     90  O   UNL A   1      44.756  23.204  36.066  1.00  0.00    -0.237 OA
ATOM     91  O   UNL A   1      47.117  23.294  36.767  1.00  0.00    -0.744 OA
ENDBRANCH  84  88
ENDBRANCH  58  81
ENDBRANCH  32  33
ENDBRANCH  25  27
ENDBRANCH  24  25
ENDBRANCH  23  24
ENDBRANCH  22  23
ENDBRANCH  21  22
ENDBRANCH  20  21
ENDBRANCH   1  20
TORSDOF 23
ENDMDL
MODEL 2
REMARK VINA RESULT:      -8.9      1.696      2.026
REMARK SMILES O=C(COCCNS(=O)(=O)c1ccccc1)OCCOCCOC(=O)c1ccc(-c2c3nc(c(-c4cc(S(=O)(=O)[O-])ccc4F)c4ccc([nH]4)c(-c4cc(S(=O)(=O)[O-])ccc4F)c4nc(c(-c5cc(S(=O)(=O)[O-])ccc5F)c5ccc2[nH]5)C=C4)C=C3)cc1
REMARK SMILES IDX 18 1 17 2 2 3 1 4 3 5 4 6 5 7 6 8 7 9 8 11 9 12 10 13 11 14
REMARK SMILES IDX 12 15 16 16 13 17 15 18 14 19 19 20 20 21 21 22 22 23 23 24
REMARK SMILES IDX 24 25 25 26 26 27 27 28 88 29 28 30 87 31 29 32 30 33 31 34
REMARK SMILES IDX 81 35 32 36 86 37 80 38 82 39 33 40 85 41 79 42 78 43 34 45
REMARK SMILES IDX 66 46 46 47 65 48 47 49 50 50 64 51 83 52 48 53 49 54 63 56
REMARK SMILES IDX 84 57 51 58 35 59 36 60 44 61 37 62 43 63 45 64 42 65 38 66
REMARK SMILES IDX 39 67 40 68 41 69 67 70 68 71 76 72 69 73 75 74 77 75 74 76
REMARK SMILES IDX 70 77 71 78 72 79 73 80 52 81 53 82 61 83 54 84 60 85 62 86
REMARK SMILES IDX 59 87 55 88 56 89 57 90 58 91
REMARK H PARENT 7 10 82 44 50 55
REMARK Flexibility Score: inf
ROOT
ATOM      1  C   UNL A   1      34.522  35.359  28.080  1.00  0.00     0.261 C 
ENDROOT
BRANCH   1   2
ATOM      2  O   UNL A   1      34.953  34.090  27.568  1.00  0.00    -0.462 OA
BRANCH   2   3
ATOM      3  C   UNL A   1      35.705  33.267  28.328  1.00  0.00     0.332 C 
ATOM      4  O   UNL A   1      36.930  33.410  28.379  1.00  0.00    -0.250 OA
BRANCH   3   5
ATOM      5  C   UNL A   1      34.999  32.237  29.212  1.00  0.00     0.282 C 
BRANCH   5   6
ATOM      6  O   UNL A   1      34.033  31.459  28.520  1.00  0.00    -0.368 OA
BRANCH   6   7
ATOM      7  C   UNL A   1      34.571  30.635  27.482  1.00  0.00     0.177 C 
BRANCH   7   8
ATOM      8  C   UNL A   1      33.796  29.324  27.289  1.00  0.00     0.127 C 
BRANCH   8   9
ATOM      9  N   UNL A   1      32.795  29.456  26.222  1.00  0.00    -0.209 NA
ATOM     10  H   UNL A   1      32.879  30.407  25.861  1.00  0.00     0.141 HD
BRANCH   9  11
ATOM     11  S   UNL A   1      32.810  28.448  24.900  1.00  0.00     0.240 S 
ATOM     12  O   UNL A   1      33.993  28.756  24.128  1.00  0.00    -0.207 OA
ATOM     13  O   UNL A   1      32.530  27.112  25.381  1.00  0.00    -0.207 OA
BRANCH  11  14
ATOM     14  C   UNL A   1      31.407  28.956  23.942  1.00  0.00     0.082 A 
ATOM     15  C   UNL A   1      31.033  28.292  22.769  1.00  0.00     0.022 A 
ATOM     16  C   UNL A   1      30.669  30.046  24.407  1.00  0.00     0.022 A 
ATOM     17  C   UNL A   1      29.882  28.688  22.091  1.00  0.00     0.001 A 
ATOM     18  C   UNL A   1      29.534  30.453  23.710  1.00  0.00     0.001 A 
ATOM     19  C   UNL A   1      29.133  29.766  22.562  1.00  0.00     0.000 A 
ENDBRANCH  11  14
ENDBRANCH   9  11
ENDBRANCH   8   9
ENDBRANCH   7   8
ENDBRANCH   6   7
ENDBRANCH   5   6
ENDBRANCH   3   5
ENDBRANCH   2   3
ENDBRANCH   1   2
BRANCH   1  20
ATOM     20  C   UNL A   1      33.266  35.194  28.935  1.00  0.00     0.202 C 
BRANCH  20  21
ATOM     21  O   UNL A   1      32.662  36.411  29.390  1.00  0.00    -0.374 OA
BRANCH  21  22
ATOM     22  C   UNL A   1      32.944  36.789  30.746  1.00  0.00     0.202 C 
BRANCH  22  23
ATOM     23  C   UNL A   1      32.137  36.078  31.840  1.00  0.00     0.261 C 
BRANCH  23  24
ATOM     24  O   UNL A   1      32.910  35.050  32.471  1.00  0.00    -0.460 OA
BRANCH  24  25
ATOM     25  C   UNL A   1      34.056  35.497  33.044  1.00  0.00     0.338 C 
ATOM     26  O   UNL A   1      34.161  36.397  33.860  1.00  0.00    -0.246 OA
BRANCH  25  27
ATOM     27  C   UNL A   1      35.150  34.553  32.735  1.00  0.00     0.060 A 
ATOM     28  C   UNL A   1      35.020  33.250  33.234  1.00  0.00     0.016 A 
ATOM     29  C   UNL A   1      36.267  34.920  31.981  1.00  0.00     0.016 A 
ATOM     30  C   UNL A   1      36.048  32.334  33.063  1.00  0.00     0.010 A 
ATOM     31  C   UNL A   1      37.309  34.005  31.822  1.00  0.00     0.010 A 
ATOM     32  C   UNL A   1      37.225  32.737  32.423  1.00  0.00    -0.014 A 
BRANCH  32  33
ATOM     33  C   UNL A   1      38.448  31.939  32.661  1.00  0.00     0.031 A 
ATOM     34  C   UNL A   1      39.183  32.169  33.954  1.00  0.00     0.074 A 
ATOM     35  C   UNL A   1      38.832  30.984  31.799  1.00  0.00     0.049 A 
ATOM     36  N   UNL A   1      40.260  31.591  34.415  1.00  0.00    -0.248 NA
ATOM     37  C   UNL A   1      38.624  33.196  34.849  1.00  0.00     0.031 C 
ATOM     38  C   UNL A   1      38.143  30.643  30.555  1.00  0.00     0.029 A 
ATOM     39  N   UNL A   1      39.890  30.115  31.850  1.00  0.00    -0.354 N 
ATOM     40  C   UNL A   1      40.515  32.195  35.643  1.00  0.00     0.074 A 
ATOM     41  C   UNL A   1      39.505  33.210  35.834  1.00  0.00     0.031 C 
ATOM     42  C   UNL A   1      38.798  29.631  29.961  1.00  0.00     0.029 A 
ATOM     43  C   UNL A   1      39.968  29.280  30.763  1.00  0.00     0.049 A 
ATOM     44  H   UNL A   1      40.532  30.094  32.595  1.00  0.00     0.167 HD
ATOM     45  C   UNL A   1      41.497  31.916  36.533  1.00  0.00     0.034 A 
ATOM     46  C   UNL A   1      40.893  28.350  30.453  1.00  0.00     0.034 A 
ATOM     47  C   UNL A   1      42.493  30.897  36.312  1.00  0.00     0.049 A 
ATOM     48  C   UNL A   1      42.025  28.111  31.425  1.00  0.00     0.074 A 
ATOM     49  C   UNL A   1      43.532  30.513  37.139  1.00  0.00     0.029 A 
ATOM     50  N   UNL A   1      42.578  30.108  35.171  1.00  0.00    -0.354 N 
ATOM     51  N   UNL A   1      42.257  28.683  32.585  1.00  0.00    -0.248 NA
ATOM     52  C   UNL A   1      43.008  27.089  31.050  1.00  0.00     0.031 C 
ATOM     53  C   UNL A   1      44.293  29.554  36.463  1.00  0.00     0.029 A 
ATOM     54  C   UNL A   1      43.673  29.264  35.256  1.00  0.00     0.049 A 
ATOM     55  H   UNL A   1      41.951  30.142  34.412  1.00  0.00     0.167 HD
ATOM     56  C   UNL A   1      43.393  28.058  33.098  1.00  0.00     0.074 A 
ATOM     57  C   UNL A   1      43.784  27.058  32.123  1.00  0.00     0.031 C 
ATOM     58  C   UNL A   1      44.049  28.280  34.267  1.00  0.00     0.034 A 
BRANCH  45  59
ATOM     59  C   UNL A   1      41.574  32.772  37.776  1.00  0.00     0.023 A 
ATOM     60  C   UNL A   1      40.915  32.422  38.969  1.00  0.00     0.031 A 
ATOM     61  C   UNL A   1      42.279  33.988  37.750  1.00  0.00     0.131 A 
ATOM     62  C   UNL A   1      40.912  33.313  40.055  1.00  0.00     0.055 A 
ATOM     63  C   UNL A   1      42.345  34.828  38.862  1.00  0.00     0.041 A 
ATOM     64  F   UNL A   1      42.900  34.394  36.631  1.00  0.00    -0.206 F 
ATOM     65  C   UNL A   1      41.646  34.501  40.019  1.00  0.00     0.022 A 
BRANCH  62  66
ATOM     66  S   UNL A   1      39.806  32.975  41.454  1.00  0.00     0.124 S 
ATOM     67  O   UNL A   1      38.929  31.948  40.895  1.00  0.00    -0.237 OA
ATOM     68  O   UNL A   1      40.733  32.531  42.488  1.00  0.00    -0.237 OA
ATOM     69  O   UNL A   1      39.163  34.264  41.702  1.00  0.00    -0.744 OA
ENDBRANCH  62  66
ENDBRANCH  45  59
BRANCH  46  70
ATOM     70  C   UNL A   1      40.806  27.589  29.174  1.00  0.00     0.023 A 
ATOM     71  C   UNL A   1      41.702  27.834  28.122  1.00  0.00     0.031 A 
ATOM     72  C   UNL A   1      39.790  26.640  28.965  1.00  0.00     0.131 A 
ATOM     73  C   UNL A   1      41.534  27.177  26.892  1.00  0.00     0.055 A 
ATOM     74  C   UNL A   1      39.662  25.947  27.760  1.00  0.00     0.041 A 
ATOM     75  F   UNL A   1      38.904  26.367  29.937  1.00  0.00    -0.206 F 
ATOM     76  C   UNL A   1      40.529  26.226  26.708  1.00  0.00     0.022 A 
BRANCH  73  77
ATOM     77  S   UNL A   1      42.595  27.658  25.501  1.00  0.00     0.124 S 
ATOM     78  O   UNL A   1      41.904  28.837  24.994  1.00  0.00    -0.237 OA
ATOM     79  O   UNL A   1      43.872  27.895  26.164  1.00  0.00    -0.237 OA
ATOM     80  O   UNL A   1      42.558  26.487  24.626  1.00  0.00    -0.744 OA
ENDBRANCH  73  77
ENDBRANCH  46  70
BRANCH  58  81
ATOM     81  C   UNL A   1      45.221  27.378  34.575  1.00  0.00     0.023 A 
ATOM     82  C   UNL A   1      46.529  27.689  34.164  1.00  0.00     0.031 A 
ATOM     83  C   UNL A   1      45.018  26.171  35.270  1.00  0.00     0.131 A 
ATOM     84  C   UNL A   1      47.566  26.770  34.379  1.00  0.00     0.055 A 
ATOM     85  C   UNL A   1      46.068  25.298  35.551  1.00  0.00     0.041 A 
ATOM     86  F   UNL A   1      43.790  25.819  35.685  1.00  0.00    -0.206 F 
ATOM     87  C   UNL A   1      47.348  25.586  35.089  1.00  0.00     0.022 A 
BRANCH  84  88
ATOM     88  S   UNL A   1      49.175  27.080  33.603  1.00  0.00     0.124 S 
ATOM     89  O   UNL A   1      50.069  27.092  34.757  1.00  0.00    -0.237 OA
ATOM     90  O   UNL A   1      49.312  25.940  32.703  1.00  0.00    -0.237 OA
ATOM     91  O   UNL A   1      48.996  28.372  32.945  1.00  0.00    -0.744 OA
ENDBRANCH  84  88
ENDBRANCH  58  81
ENDBRANCH  32  33
ENDBRANCH  25  27
ENDBRANCH  24  25
ENDBRANCH  23  24
ENDBRANCH  22  23
ENDBRANCH  21  22
ENDBRANCH  20  21
ENDBRANCH   1  20
TORSDOF 23
ENDMDL
MODEL 3
REMARK VINA RESULT:      -8.6      6.243     12.166
REMARK SMILES O=C(COCCNS(=O)(=O)c1ccccc1)OCCOCCOC(=O)c1ccc(-c2c3nc(c(-c4cc(S(=O)(=O)[O-])ccc4F)c4ccc([nH]4)c(-c4cc(S(=O)(=O)[O-])ccc4F)c4nc(c(-c5cc(S(=O)(=O)[O-])ccc5F)c5ccc2[nH]5)C=C4)C=C3)cc1
REMARK SMILES IDX 18 1 17 2 2 3 1 4 3 5 4 6 5 7 6 8 7 9 8 11 9 12 10 13 11 14
REMARK SMILES IDX 12 15 16 16 13 17 15 18 14 19 19 20 20 21 21 22 22 23 23 24
REMARK SMILES IDX 24 25 25 26 26 27 27 28 88 29 28 30 87 31 29 32 30 33 31 34
REMARK SMILES IDX 81 35 32 36 86 37 80 38 82 39 33 40 85 41 79 42 78 43 34 45
REMARK SMILES IDX 66 46 46 47 65 48 47 49 50 50 64 51 83 52 48 53 49 54 63 56
REMARK SMILES IDX 84 57 51 58 35 59 36 60 44 61 37 62 43 63 45 64 42 65 38 66
REMARK SMILES IDX 39 67 40 68 41 69 67 70 68 71 76 72 69 73 75 74 77 75 74 76
REMARK SMILES IDX 70 77 71 78 72 79 73 80 52 81 53 82 61 83 54 84 60 85 62 86
REMARK SMILES IDX 59 87 55 88 56 89 57 90 58 91
REMARK H PARENT 7 10 82 44 50 55
REMARK Flexibility Score: inf
ROOT
ATOM      1  C   UNL A   1      36.646  20.821  24.648  1.00  0.00     0.261 C 
ENDROOT
BRANCH   1   2
ATOM      2  O   UNL A   1      35.607  19.938  25.093  1.00  0.00    -0.462 OA
BRANCH   2   3
ATOM      3  C   UNL A   1      34.316  20.199  24.798  1.00  0.00     0.332 C 
ATOM      4  O   UNL A   1      33.611  19.336  24.266  1.00  0.00    -0.250 OA
BRANCH   3   5
ATOM      5  C   UNL A   1      33.718  21.534  25.244  1.00  0.00     0.282 C 
BRANCH   5   6
ATOM      6  O   UNL A   1      32.341  21.677  24.925  1.00  0.00    -0.368 OA
BRANCH   6   7
ATOM      7  C   UNL A   1      31.874  23.028  24.913  1.00  0.00     0.177 C 
BRANCH   7   8
ATOM      8  C   UNL A   1      31.244  23.462  26.244  1.00  0.00     0.127 C 
BRANCH   8   9
ATOM      9  N   UNL A   1      31.713  24.798  26.637  1.00  0.00    -0.209 NA
ATOM     10  H   UNL A   1      32.685  24.865  26.337  1.00  0.00     0.141 HD
BRANCH   9  11
ATOM     11  S   UNL A   1      30.954  26.171  26.085  1.00  0.00     0.240 S 
ATOM     12  O   UNL A   1      29.708  25.767  25.474  1.00  0.00    -0.207 OA
ATOM     13  O   UNL A   1      31.009  27.145  27.153  1.00  0.00    -0.207 OA
BRANCH  11  14
ATOM     14  C   UNL A   1      32.009  26.766  24.789  1.00  0.00     0.082 A 
ATOM     15  C   UNL A   1      31.767  26.468  23.444  1.00  0.00     0.022 A 
ATOM     16  C   UNL A   1      33.097  27.560  25.156  1.00  0.00     0.022 A 
ATOM     17  C   UNL A   1      32.585  27.018  22.460  1.00  0.00     0.001 A 
ATOM     18  C   UNL A   1      33.928  28.084  24.168  1.00  0.00     0.001 A 
ATOM     19  C   UNL A   1      33.663  27.825  22.822  1.00  0.00     0.000 A 
ENDBRANCH  11  14
ENDBRANCH   9  11
ENDBRANCH   8   9
ENDBRANCH   7   8
ENDBRANCH   6   7
ENDBRANCH   5   6
ENDBRANCH   3   5
ENDBRANCH   2   3
ENDBRANCH   1   2
BRANCH   1  20
ATOM     20  C   UNL A   1      37.429  21.372  25.840  1.00  0.00     0.202 C 
BRANCH  20  21
ATOM     21  O   UNL A   1      38.529  22.230  25.515  1.00  0.00    -0.374 OA
BRANCH  21  22
ATOM     22  C   UNL A   1      39.465  22.487  26.572  1.00  0.00     0.202 C 
BRANCH  22  23
ATOM     23  C   UNL A   1      40.358  21.315  26.998  1.00  0.00     0.261 C 
BRANCH  23  24
ATOM     24  O   UNL A   1      40.733  20.511  25.872  1.00  0.00    -0.460 OA
BRANCH  24  25
ATOM     25  C   UNL A   1      42.067  20.286  25.776  1.00  0.00     0.338 C 
ATOM     26  O   UNL A   1      42.608  19.268  25.378  1.00  0.00    -0.246 OA
BRANCH  25  27
ATOM     27  C   UNL A   1      42.787  21.561  25.974  1.00  0.00     0.060 A 
ATOM     28  C   UNL A   1      43.333  21.787  27.245  1.00  0.00     0.016 A 
ATOM     29  C   UNL A   1      42.933  22.507  24.956  1.00  0.00     0.016 A 
ATOM     30  C   UNL A   1      43.944  22.998  27.534  1.00  0.00     0.010 A 
ATOM     31  C   UNL A   1      43.533  23.732  25.251  1.00  0.00     0.010 A 
ATOM     32  C   UNL A   1      43.976  24.000  26.558  1.00  0.00    -0.014 A 
BRANCH  32  33
ATOM     33  C   UNL A   1      44.186  25.394  27.006  1.00  0.00     0.031 A 
ATOM     34  C   UNL A   1      45.560  25.981  26.818  1.00  0.00     0.074 A 
ATOM     35  C   UNL A   1      43.169  26.133  27.476  1.00  0.00     0.049 A 
ATOM     36  N   UNL A   1      46.001  27.177  27.102  1.00  0.00    -0.248 NA
ATOM     37  C   UNL A   1      46.575  25.092  26.229  1.00  0.00     0.031 C 
ATOM     38  C   UNL A   1      41.790  25.671  27.629  1.00  0.00     0.029 A 
ATOM     39  N   UNL A   1      43.138  27.436  27.897  1.00  0.00    -0.354 N 
ATOM     40  C   UNL A   1      47.345  27.177  26.742  1.00  0.00     0.074 A 
ATOM     41  C   UNL A   1      47.655  25.852  26.258  1.00  0.00     0.031 C 
ATOM     42  C   UNL A   1      41.045  26.682  28.108  1.00  0.00     0.029 A 
ATOM     43  C   UNL A   1      41.901  27.846  28.328  1.00  0.00     0.049 A 
ATOM     44  H   UNL A   1      43.929  28.022  27.891  1.00  0.00     0.167 HD
ATOM     45  C   UNL A   1      48.235  28.197  26.800  1.00  0.00     0.034 A 
ATOM     46  C   UNL A   1      41.516  29.026  28.854  1.00  0.00     0.034 A 
ATOM     47  C   UNL A   1      47.895  29.510  27.291  1.00  0.00     0.049 A 
ATOM     48  C   UNL A   1      42.545  30.125  28.983  1.00  0.00     0.074 A 
ATOM     49  C   UNL A   1      48.702  30.628  27.392  1.00  0.00     0.029 A 
ATOM     50  N   UNL A   1      46.645  29.874  27.776  1.00  0.00    -0.354 N 
ATOM     51  N   UNL A   1      43.813  30.118  28.636  1.00  0.00    -0.248 NA
ATOM     52  C   UNL A   1      42.084  31.393  29.558  1.00  0.00     0.031 C 
ATOM     53  C   UNL A   1      47.965  31.641  28.015  1.00  0.00     0.029 A 
ATOM     54  C   UNL A   1      46.667  31.189  28.212  1.00  0.00     0.049 A 
ATOM     55  H   UNL A   1      45.856  29.285  27.806  1.00  0.00     0.167 HD
ATOM     56  C   UNL A   1      44.290  31.398  28.914  1.00  0.00     0.074 A 
ATOM     57  C   UNL A   1      43.167  32.147  29.443  1.00  0.00     0.031 C 
ATOM     58  C   UNL A   1      45.536  31.913  28.743  1.00  0.00     0.034 A 
BRANCH  45  59
ATOM     59  C   UNL A   1      49.659  27.903  26.390  1.00  0.00     0.023 A 
ATOM     60  C   UNL A   1      50.166  28.262  25.128  1.00  0.00     0.031 A 
ATOM     61  C   UNL A   1      50.512  27.204  27.264  1.00  0.00     0.131 A 
ATOM     62  C   UNL A   1      51.454  27.853  24.748  1.00  0.00     0.055 A 
ATOM     63  C   UNL A   1      51.822  26.878  26.913  1.00  0.00     0.041 A 
ATOM     64  F   UNL A   1      50.076  26.805  28.470  1.00  0.00    -0.206 F 
ATOM     65  C   UNL A   1      52.296  27.188  25.643  1.00  0.00     0.022 A 
BRANCH  62  66
ATOM     66  S   UNL A   1      51.958  28.061  23.017  1.00  0.00     0.124 S 
ATOM     67  O   UNL A   1      51.297  29.316  22.666  1.00  0.00    -0.237 OA
ATOM     68  O   UNL A   1      53.412  28.110  23.115  1.00  0.00    -0.237 OA
ATOM     69  O   UNL A   1      51.415  26.875  22.357  1.00  0.00    -0.744 OA
ENDBRANCH  62  66
ENDBRANCH  45  59
BRANCH  46  70
ATOM     70  C   UNL A   1      40.112  29.232  29.311  1.00  0.00     0.023 A 
ATOM     71  C   UNL A   1      39.764  29.107  30.665  1.00  0.00     0.031 A 
ATOM     72  C   UNL A   1      39.085  29.506  28.390  1.00  0.00     0.131 A 
ATOM     73  C   UNL A   1      38.418  29.204  31.054  1.00  0.00     0.055 A 
ATOM     74  C   UNL A   1      37.756  29.660  28.789  1.00  0.00     0.041 A 
ATOM     75  F   UNL A   1      39.360  29.634  27.082  1.00  0.00    -0.206 F 
ATOM     76  C   UNL A   1      37.414  29.493  30.128  1.00  0.00     0.022 A 
BRANCH  73  77
ATOM     77  S   UNL A   1      37.987  28.852  32.780  1.00  0.00     0.124 S 
ATOM     78  O   UNL A   1      39.020  29.586  33.500  1.00  0.00    -0.237 OA
ATOM     79  O   UNL A   1      36.634  29.391  32.869  1.00  0.00    -0.237 OA
ATOM     80  O   UNL A   1      38.081  27.395  32.863  1.00  0.00    -0.744 OA
ENDBRANCH  73  77
ENDBRANCH  46  70
BRANCH  58  81
ATOM     81  C   UNL A   1      45.723  33.375  29.077  1.00  0.00     0.023 A 
ATOM     82  C   UNL A   1      45.500  34.389  28.130  1.00  0.00     0.031 A 
ATOM     83  C   UNL A   1      46.158  33.754  30.360  1.00  0.00     0.131 A 
ATOM     84  C   UNL A   1      45.789  35.723  28.454  1.00  0.00     0.055 A 
ATOM     85  C   UNL A   1      46.367  35.090  30.701  1.00  0.00     0.041 A 
ATOM     86  F   UNL A   1      46.390  32.830  31.306  1.00  0.00    -0.206 F 
ATOM     87  C   UNL A   1      46.201  36.082  29.740  1.00  0.00     0.022 A 
BRANCH  84  88
ATOM     88  S   UNL A   1      45.748  36.965  27.134  1.00  0.00     0.124 S 
ATOM     89  O   UNL A   1      46.419  36.267  26.042  1.00  0.00    -0.237 OA
ATOM     90  O   UNL A   1      44.317  37.190  26.962  1.00  0.00    -0.237 OA
ATOM     91  O   UNL A   1      46.490  38.091  27.698  1.00  0.00    -0.744 OA
ENDBRANCH  84  88
ENDBRANCH  58  81
ENDBRANCH  32  33
ENDBRANCH  25  27
ENDBRANCH  24  25
ENDBRANCH  23  24
ENDBRANCH  22  23
ENDBRANCH  21  22
ENDBRANCH  20  21
ENDBRANCH   1  20
TORSDOF 23
ENDMDL
