MODEL 1
REMARK VINA RESULT:     -10.9      0.000      0.000
REMARK SMILES O=C(CN(Cc1ccccc1Cl)S(=O)(=O)c1ccc(Cl)cc1)OCCOCCOC(=O)c1ccc(-c2c3nc(c(-c4cc(S(=O)(=O)[O-])ccc4F)c4ccc([nH]4)c(-c4cc(S(=O)(=O)[O-])ccc4F)c4nc(c(-c5cc(S(=O)(=O)[O-])ccc5F)c5ccc2[nH]5)C=C4)C=C3)cc1
REMARK SMILES IDX 26 1 25 2 24 3 23 4 2 5 1 6 3 7 4 8 5 9 6 10 7 11 11 12 8 13
REMARK SMILES IDX 10 14 12 15 9 16 13 17 14 18 15 19 16 20 17 21 22 22 18 23
REMARK SMILES IDX 21 24 19 25 20 26 27 27 28 28 29 29 30 30 31 31 32 32 33 33
REMARK SMILES IDX 94 34 34 35 93 36 35 37 36 38 37 39 87 40 38 41 92 42 86 43
REMARK SMILES IDX 88 44 39 45 91 46 85 47 84 48 40 50 72 51 52 52 71 53 53 54
REMARK SMILES IDX 56 55 70 56 89 57 54 58 55 59 69 61 90 62 57 63 41 64 42 65
REMARK SMILES IDX 50 66 43 67 49 68 51 69 48 70 44 71 45 72 46 73 47 74 73 75
REMARK SMILES IDX 74 76 82 77 75 78 81 79 83 80 80 81 76 82 77 83 78 84 79 85
REMARK SMILES IDX 58 86 59 87 67 88 60 89 66 90 68 91 65 92 61 93 62 94 63 95
REMARK SMILES IDX 64 96
REMARK H PARENT 88 49 56 60
REMARK Flexibility Score: inf
ROOT
ATOM      1  O   UNL A   1      31.337  29.905  25.282  1.00  0.00    -0.374 OA
ENDROOT
BRANCH   1   2
ATOM      2  C   UNL A   1      32.429  29.398  24.506  1.00  0.00     0.202 C 
BRANCH   2   3
ATOM      3  C   UNL A   1      32.162  27.996  23.959  1.00  0.00     0.261 C 
BRANCH   3   4
ATOM      4  O   UNL A   1      30.807  27.574  24.226  1.00  0.00    -0.462 OA
BRANCH   4   5
ATOM      5  C   UNL A   1      30.369  26.293  24.223  1.00  0.00     0.321 C 
ATOM      6  O   UNL A   1      29.606  25.904  25.106  1.00  0.00    -0.251 OA
BRANCH   5   7
ATOM      7  C   UNL A   1      30.932  25.332  23.209  1.00  0.00     0.225 C 
BRANCH   7   8
ATOM      8  N   UNL A   1      31.965  24.363  23.646  1.00  0.00    -0.182 NA
BRANCH   8   9
ATOM      9  C   UNL A   1      31.408  23.207  24.403  1.00  0.00     0.140 C 
BRANCH   9  10
ATOM     10  C   UNL A   1      32.258  22.524  25.453  1.00  0.00    -0.014 A 
ATOM     11  C   UNL A   1      32.347  23.130  26.722  1.00  0.00     0.006 A 
ATOM     12  C   UNL A   1      32.928  21.299  25.278  1.00  0.00     0.045 A 
ATOM     13  C   UNL A   1      33.116  22.573  27.748  1.00  0.00     0.000 A 
ATOM     14  C   UNL A   1      33.724  20.760  26.298  1.00  0.00     0.021 A 
ATOM     15  Cl  UNL A   1      32.765  20.306  23.879  1.00  0.00    -0.084 Cl
ATOM     16  C   UNL A   1      33.823  21.397  27.529  1.00  0.00     0.002 A 
ENDBRANCH   9  10
ENDBRANCH   8   9
BRANCH   8  17
ATOM     17  S   UNL A   1      33.190  24.154  22.502  1.00  0.00     0.243 S 
ATOM     18  O   UNL A   1      32.937  22.925  21.781  1.00  0.00    -0.207 OA
ATOM     19  O   UNL A   1      33.347  25.401  21.789  1.00  0.00    -0.207 OA
BRANCH  17  20
ATOM     20  C   UNL A   1      34.679  23.950  23.452  1.00  0.00     0.082 A 
ATOM     21  C   UNL A   1      35.563  22.914  23.122  1.00  0.00     0.023 A 
ATOM     22  C   UNL A   1      34.857  24.690  24.624  1.00  0.00     0.023 A 
ATOM     23  C   UNL A   1      36.632  22.622  23.974  1.00  0.00     0.022 A 
ATOM     24  C   UNL A   1      35.929  24.395  25.470  1.00  0.00     0.022 A 
ATOM     25  C   UNL A   1      36.805  23.358  25.146  1.00  0.00     0.041 A 
ATOM     26  Cl  UNL A   1      38.086  22.964  26.227  1.00  0.00    -0.084 Cl
ENDBRANCH  17  20
ENDBRANCH   8  17
ENDBRANCH   7   8
ENDBRANCH   5   7
ENDBRANCH   4   5
ENDBRANCH   3   4
ENDBRANCH   2   3
ENDBRANCH   1   2
BRANCH   1  27
ATOM     27  C   UNL A   1      31.647  30.210  26.648  1.00  0.00     0.202 C 
BRANCH  27  28
ATOM     28  C   UNL A   1      31.765  31.699  26.974  1.00  0.00     0.261 C 
BRANCH  28  29
ATOM     29  O   UNL A   1      33.093  32.161  26.701  1.00  0.00    -0.460 OA
BRANCH  29  30
ATOM     30  C   UNL A   1      33.622  32.956  27.661  1.00  0.00     0.338 C 
ATOM     31  O   UNL A   1      33.062  33.872  28.240  1.00  0.00    -0.246 OA
BRANCH  30  32
ATOM     32  C   UNL A   1      34.928  32.403  28.076  1.00  0.00     0.060 A 
ATOM     33  C   UNL A   1      34.980  31.030  28.343  1.00  0.00     0.016 A 
ATOM     34  C   UNL A   1      36.080  33.192  28.183  1.00  0.00     0.016 A 
ATOM     35  C   UNL A   1      36.166  30.452  28.778  1.00  0.00     0.010 A 
ATOM     36  C   UNL A   1      37.271  32.611  28.622  1.00  0.00     0.010 A 
ATOM     37  C   UNL A   1      37.303  31.248  28.961  1.00  0.00    -0.014 A 
BRANCH  37  38
ATOM     38  C   UNL A   1      38.452  30.679  29.699  1.00  0.00     0.031 A 
ATOM     39  C   UNL A   1      38.657  31.109  31.125  1.00  0.00     0.074 A 
ATOM     40  C   UNL A   1      39.238  29.750  29.129  1.00  0.00     0.049 A 
ATOM     41  N   UNL A   1      39.560  30.723  31.986  1.00  0.00    -0.248 NA
ATOM     42  C   UNL A   1      37.710  32.107  31.650  1.00  0.00     0.031 C 
ATOM     43  C   UNL A   1      39.094  29.245  27.763  1.00  0.00     0.029 A 
ATOM     44  N   UNL A   1      40.309  29.060  29.632  1.00  0.00    -0.354 N 
ATOM     45  C   UNL A   1      39.283  31.419  33.159  1.00  0.00     0.074 A 
ATOM     46  C   UNL A   1      38.160  32.286  32.882  1.00  0.00     0.031 C 
ATOM     47  C   UNL A   1      40.049  28.327  27.536  1.00  0.00     0.029 A 
ATOM     48  C   UNL A   1      40.884  28.198  28.727  1.00  0.00     0.049 A 
ATOM     49  H   UNL A   1      40.636  29.170  30.553  1.00  0.00     0.167 HD
ATOM     50  C   UNL A   1      39.903  31.330  34.359  1.00  0.00     0.034 A 
ATOM     51  C   UNL A   1      41.970  27.411  28.853  1.00  0.00     0.034 A 
ATOM     52  C   UNL A   1      41.040  30.478  34.603  1.00  0.00     0.049 A 
ATOM     53  C   UNL A   1      42.689  27.384  30.181  1.00  0.00     0.074 A 
ATOM     54  C   UNL A   1      41.768  30.319  35.769  1.00  0.00     0.029 A 
ATOM     55  N   UNL A   1      41.621  29.645  33.654  1.00  0.00    -0.354 N 
ATOM     56  N   UNL A   1      42.411  28.041  31.286  1.00  0.00    -0.248 NA
ATOM     57  C   UNL A   1      43.853  26.496  30.285  1.00  0.00     0.031 C 
ATOM     58  C   UNL A   1      42.822  29.436  35.509  1.00  0.00     0.029 A 
ATOM     59  C   UNL A   1      42.712  28.988  34.201  1.00  0.00     0.049 A 
ATOM     60  H   UNL A   1      41.304  29.538  32.729  1.00  0.00     0.167 HD
ATOM     61  C   UNL A   1      43.357  27.627  32.221  1.00  0.00     0.074 A 
ATOM     62  C   UNL A   1      44.188  26.642  31.558  1.00  0.00     0.031 C 
ATOM     63  C   UNL A   1      43.532  28.023  33.508  1.00  0.00     0.034 A 
BRANCH  50  64
ATOM     64  C   UNL A   1      39.385  32.209  35.470  1.00  0.00     0.023 A 
ATOM     65  C   UNL A   1      39.786  33.550  35.597  1.00  0.00     0.031 A 
ATOM     66  C   UNL A   1      38.504  31.690  36.434  1.00  0.00     0.131 A 
ATOM     67  C   UNL A   1      39.352  34.310  36.695  1.00  0.00     0.055 A 
ATOM     68  C   UNL A   1      38.020  32.472  37.486  1.00  0.00     0.041 A 
ATOM     69  F   UNL A   1      38.109  30.408  36.379  1.00  0.00    -0.206 F 
ATOM     70  C   UNL A   1      38.453  33.788  37.626  1.00  0.00     0.022 A 
BRANCH  67  71
ATOM     71  S   UNL A   1      40.070  35.957  36.953  1.00  0.00     0.124 S 
ATOM     72  O   UNL A   1      41.479  35.635  37.159  1.00  0.00    -0.237 OA
ATOM     73  O   UNL A   1      39.747  36.642  35.707  1.00  0.00    -0.237 OA
ATOM     74  O   UNL A   1      39.372  36.453  38.137  1.00  0.00    -0.744 OA
ENDBRANCH  67  71
ENDBRANCH  50  64
BRANCH  51  75
ATOM     75  C   UNL A   1      42.475  26.615  27.695  1.00  0.00     0.023 A 
ATOM     76  C   UNL A   1      42.277  25.228  27.617  1.00  0.00     0.031 A 
ATOM     77  C   UNL A   1      43.230  27.230  26.679  1.00  0.00     0.131 A 
ATOM     78  C   UNL A   1      42.872  24.493  26.580  1.00  0.00     0.055 A 
ATOM     79  C   UNL A   1      43.773  26.501  25.619  1.00  0.00     0.041 A 
ATOM     80  F   UNL A   1      43.450  28.553  26.702  1.00  0.00    -0.206 F 
ATOM     81  C   UNL A   1      43.610  25.121  25.575  1.00  0.00     0.022 A 
BRANCH  78  82
ATOM     82  S   UNL A   1      42.756  22.682  26.622  1.00  0.00     0.124 S 
ATOM     83  O   UNL A   1      44.156  22.289  26.514  1.00  0.00    -0.237 OA
ATOM     84  O   UNL A   1      42.122  22.451  27.917  1.00  0.00    -0.237 OA
ATOM     85  O   UNL A   1      41.927  22.368  25.460  1.00  0.00    -0.744 OA
ENDBRANCH  78  82
ENDBRANCH  51  75
BRANCH  63  86
ATOM     86  C   UNL A   1      44.649  27.357  34.274  1.00  0.00     0.023 A 
ATOM     87  C   UNL A   1      44.421  26.213  35.059  1.00  0.00     0.031 A 
ATOM     88  C   UNL A   1      45.947  27.896  34.248  1.00  0.00     0.131 A 
ATOM     89  C   UNL A   1      45.456  25.689  35.845  1.00  0.00     0.055 A 
ATOM     90  C   UNL A   1      46.991  27.328  34.981  1.00  0.00     0.041 A 
ATOM     91  F   UNL A   1      46.221  28.987  33.515  1.00  0.00    -0.206 F 
ATOM     92  C   UNL A   1      46.743  26.230  35.799  1.00  0.00     0.022 A 
BRANCH  89  93
ATOM     93  S   UNL A   1      45.066  24.364  37.019  1.00  0.00     0.124 S 
ATOM     94  O   UNL A   1      46.326  24.214  37.739  1.00  0.00    -0.237 OA
ATOM     95  O   UNL A   1      43.961  24.937  37.780  1.00  0.00    -0.237 OA
ATOM     96  O   UNL A   1      44.707  23.238  36.158  1.00  0.00    -0.744 OA
ENDBRANCH  89  93
ENDBRANCH  63  86
ENDBRANCH  37  38
ENDBRANCH  30  32
ENDBRANCH  29  30
ENDBRANCH  28  29
ENDBRANCH  27  28
ENDBRANCH   1  27
TORSDOF 22
ENDMDL
MODEL 2
REMARK VINA RESULT:     -10.9      1.486      2.770
REMARK SMILES O=C(CN(Cc1ccccc1Cl)S(=O)(=O)c1ccc(Cl)cc1)OCCOCCOC(=O)c1ccc(-c2c3nc(c(-c4cc(S(=O)(=O)[O-])ccc4F)c4ccc([nH]4)c(-c4cc(S(=O)(=O)[O-])ccc4F)c4nc(c(-c5cc(S(=O)(=O)[O-])ccc5F)c5ccc2[nH]5)C=C4)C=C3)cc1
REMARK SMILES IDX 26 1 25 2 24 3 23 4 2 5 1 6 3 7 4 8 5 9 6 10 7 11 11 12 8 13
REMARK SMILES IDX 10 14 12 15 9 16 13 17 14 18 15 19 16 20 17 21 22 22 18 23
REMARK SMILES IDX 21 24 19 25 20 26 27 27 28 28 29 29 30 30 31 31 32 32 33 33
REMARK SMILES IDX 94 34 34 35 93 36 35 37 36 38 37 39 87 40 38 41 92 42 86 43
REMARK SMILES IDX 88 44 39 45 91 46 85 47 84 48 40 50 72 51 52 52 71 53 53 54
REMARK SMILES IDX 56 55 70 56 89 57 54 58 55 59 69 61 90 62 57 63 41 64 42 65
REMARK SMILES IDX 50 66 43 67 49 68 51 69 48 70 44 71 45 72 46 73 47 74 73 75
REMARK SMILES IDX 74 76 82 77 75 78 81 79 83 80 80 81 76 82 77 83 78 84 79 85
REMARK SMILES IDX 58 86 59 87 67 88 60 89 66 90 68 91 65 92 61 93 62 94 63 95
REMARK SMILES IDX 64 96
REMARK H PARENT 88 49 56 60
REMARK Flexibility Score: inf
ROOT
ATOM      1  O   UNL A   1      31.431  30.196  27.221  1.00  0.00    -0.374 OA
ENDROOT
BRANCH   1   2
ATOM      2  C   UNL A   1      32.454  29.194  27.203  1.00  0.00     0.202 C 
BRANCH   2   3
ATOM      3  C   UNL A   1      33.668  29.606  26.372  1.00  0.00     0.261 C 
BRANCH   3   4
ATOM      4  O   UNL A   1      34.331  28.457  25.799  1.00  0.00    -0.462 OA
BRANCH   4   5
ATOM      5  C   UNL A   1      33.940  27.803  24.681  1.00  0.00     0.321 C 
ATOM      6  O   UNL A   1      34.227  28.258  23.574  1.00  0.00    -0.251 OA
BRANCH   5   7
ATOM      7  C   UNL A   1      33.047  26.598  24.814  1.00  0.00     0.225 C 
BRANCH   7   8
ATOM      8  N   UNL A   1      33.471  25.327  24.180  1.00  0.00    -0.182 NA
BRANCH   8   9
ATOM      9  C   UNL A   1      33.689  24.224  25.158  1.00  0.00     0.140 C 
BRANCH   9  10
ATOM     10  C   UNL A   1      34.970  23.417  25.098  1.00  0.00    -0.014 A 
ATOM     11  C   UNL A   1      36.160  24.042  25.520  1.00  0.00     0.006 A 
ATOM     12  C   UNL A   1      35.057  22.070  24.702  1.00  0.00     0.045 A 
ATOM     13  C   UNL A   1      37.388  23.376  25.490  1.00  0.00     0.000 A 
ATOM     14  C   UNL A   1      36.295  21.415  24.642  1.00  0.00     0.021 A 
ATOM     15  Cl  UNL A   1      33.690  21.079  24.358  1.00  0.00    -0.084 Cl
ATOM     16  C   UNL A   1      37.459  22.067  25.030  1.00  0.00     0.002 A 
ENDBRANCH   9  10
ENDBRANCH   8   9
BRANCH   8  17
ATOM     17  S   UNL A   1      32.705  25.047  22.701  1.00  0.00     0.243 S 
ATOM     18  O   UNL A   1      33.540  25.580  21.646  1.00  0.00    -0.207 OA
ATOM     19  O   UNL A   1      32.288  23.663  22.674  1.00  0.00    -0.207 OA
BRANCH  17  20
ATOM     20  C   UNL A   1      31.207  26.002  22.768  1.00  0.00     0.082 A 
ATOM     21  C   UNL A   1      31.178  27.269  22.171  1.00  0.00     0.023 A 
ATOM     22  C   UNL A   1      30.149  25.570  23.572  1.00  0.00     0.023 A 
ATOM     23  C   UNL A   1      30.078  28.105  22.383  1.00  0.00     0.022 A 
ATOM     24  C   UNL A   1      29.052  26.410  23.778  1.00  0.00     0.022 A 
ATOM     25  C   UNL A   1      29.025  27.675  23.190  1.00  0.00     0.041 A 
ATOM     26  Cl  UNL A   1      27.697  28.725  23.500  1.00  0.00    -0.084 Cl
ENDBRANCH  17  20
ENDBRANCH   8  17
ENDBRANCH   7   8
ENDBRANCH   5   7
ENDBRANCH   4   5
ENDBRANCH   3   4
ENDBRANCH   2   3
ENDBRANCH   1   2
BRANCH   1  27
ATOM     27  C   UNL A   1      31.618  31.276  26.298  1.00  0.00     0.202 C 
BRANCH  27  28
ATOM     28  C   UNL A   1      31.574  32.676  26.912  1.00  0.00     0.261 C 
BRANCH  28  29
ATOM     29  O   UNL A   1      32.860  33.299  26.815  1.00  0.00    -0.460 OA
BRANCH  29  30
ATOM     30  C   UNL A   1      33.342  33.782  27.984  1.00  0.00     0.338 C 
ATOM     31  O   UNL A   1      32.771  34.539  28.751  1.00  0.00    -0.246 OA
BRANCH  30  32
ATOM     32  C   UNL A   1      34.595  33.073  28.316  1.00  0.00     0.060 A 
ATOM     33  C   UNL A   1      34.472  31.805  28.897  1.00  0.00     0.016 A 
ATOM     34  C   UNL A   1      35.859  33.614  28.052  1.00  0.00     0.016 A 
ATOM     35  C   UNL A   1      35.609  31.101  29.273  1.00  0.00     0.010 A 
ATOM     36  C   UNL A   1      37.002  32.906  28.432  1.00  0.00     0.010 A 
ATOM     37  C   UNL A   1      36.875  31.668  29.082  1.00  0.00    -0.014 A 
BRANCH  37  38
ATOM     38  C   UNL A   1      38.036  31.043  29.752  1.00  0.00     0.031 A 
ATOM     39  C   UNL A   1      38.313  31.420  31.181  1.00  0.00     0.074 A 
ATOM     40  C   UNL A   1      38.770  30.112  29.119  1.00  0.00     0.049 A 
ATOM     41  N   UNL A   1      39.240  30.981  31.990  1.00  0.00    -0.248 NA
ATOM     42  C   UNL A   1      37.418  32.426  31.777  1.00  0.00     0.031 C 
ATOM     43  C   UNL A   1      38.556  29.657  27.746  1.00  0.00     0.029 A 
ATOM     44  N   UNL A   1      39.841  29.376  29.554  1.00  0.00    -0.354 N 
ATOM     45  C   UNL A   1      39.032  31.645  33.195  1.00  0.00     0.074 A 
ATOM     46  C   UNL A   1      37.924  32.551  32.994  1.00  0.00     0.031 C 
ATOM     47  C   UNL A   1      39.473  28.720  27.449  1.00  0.00     0.029 A 
ATOM     48  C   UNL A   1      40.353  28.529  28.599  1.00  0.00     0.049 A 
ATOM     49  H   UNL A   1      40.210  29.447  30.464  1.00  0.00     0.167 HD
ATOM     50  C   UNL A   1      39.698  31.499  34.365  1.00  0.00     0.034 A 
ATOM     51  C   UNL A   1      41.420  27.709  28.653  1.00  0.00     0.034 A 
ATOM     52  C   UNL A   1      40.819  30.608  34.533  1.00  0.00     0.049 A 
ATOM     53  C   UNL A   1      42.192  27.617  29.948  1.00  0.00     0.074 A 
ATOM     54  C   UNL A   1      41.590  30.391  35.661  1.00  0.00     0.029 A 
ATOM     55  N   UNL A   1      41.336  29.792  33.534  1.00  0.00    -0.354 N 
ATOM     56  N   UNL A   1      41.980  28.245  31.084  1.00  0.00    -0.248 NA
ATOM     57  C   UNL A   1      43.334  26.695  29.974  1.00  0.00     0.031 C 
ATOM     58  C   UNL A   1      42.606  29.488  35.328  1.00  0.00     0.029 A 
ATOM     59  C   UNL A   1      42.429  29.086  34.013  1.00  0.00     0.049 A 
ATOM     60  H   UNL A   1      40.978  29.724  32.620  1.00  0.00     0.167 HD
ATOM     61  C   UNL A   1      42.951  27.774  31.965  1.00  0.00     0.074 A 
ATOM     62  C   UNL A   1      43.725  26.789  31.235  1.00  0.00     0.031 C 
ATOM     63  C   UNL A   1      43.191  28.123  33.255  1.00  0.00     0.034 A 
BRANCH  50  64
ATOM     64  C   UNL A   1      39.253  32.355  35.524  1.00  0.00     0.023 A 
ATOM     65  C   UNL A   1      39.683  33.685  35.667  1.00  0.00     0.031 A 
ATOM     66  C   UNL A   1      38.413  31.823  36.518  1.00  0.00     0.131 A 
ATOM     67  C   UNL A   1      39.318  34.421  36.806  1.00  0.00     0.055 A 
ATOM     68  C   UNL A   1      37.997  32.583  37.613  1.00  0.00     0.041 A 
ATOM     69  F   UNL A   1      37.994  30.549  36.448  1.00  0.00    -0.206 F 
ATOM     70  C   UNL A   1      38.458  33.887  37.767  1.00  0.00     0.022 A 
BRANCH  67  71
ATOM     71  S   UNL A   1      40.077  36.048  37.071  1.00  0.00     0.124 S 
ATOM     72  O   UNL A   1      39.302  36.553  38.202  1.00  0.00    -0.237 OA
ATOM     73  O   UNL A   1      41.467  35.708  37.351  1.00  0.00    -0.237 OA
ATOM     74  O   UNL A   1      39.848  36.744  35.807  1.00  0.00    -0.744 OA
ENDBRANCH  67  71
ENDBRANCH  50  64
BRANCH  51  75
ATOM     75  C   UNL A   1      41.853  26.938  27.450  1.00  0.00     0.023 A 
ATOM     76  C   UNL A   1      41.672  25.549  27.366  1.00  0.00     0.031 A 
ATOM     77  C   UNL A   1      42.522  27.580  26.392  1.00  0.00     0.131 A 
ATOM     78  C   UNL A   1      42.204  24.838  26.278  1.00  0.00     0.055 A 
ATOM     79  C   UNL A   1      43.000  26.876  25.285  1.00  0.00     0.041 A 
ATOM     80  F   UNL A   1      42.722  28.907  26.419  1.00  0.00    -0.206 F 
ATOM     81  C   UNL A   1      42.856  25.494  25.232  1.00  0.00     0.022 A 
BRANCH  78  82
ATOM     82  S   UNL A   1      42.120  23.026  26.301  1.00  0.00     0.124 S 
ATOM     83  O   UNL A   1      40.685  22.793  26.407  1.00  0.00    -0.237 OA
ATOM     84  O   UNL A   1      42.735  22.680  25.023  1.00  0.00    -0.237 OA
ATOM     85  O   UNL A   1      42.901  22.664  27.483  1.00  0.00    -0.744 OA
ENDBRANCH  78  82
ENDBRANCH  51  75
BRANCH  63  86
ATOM     86  C   UNL A   1      44.320  27.401  33.951  1.00  0.00     0.023 A 
ATOM     87  C   UNL A   1      44.112  26.177  34.611  1.00  0.00     0.031 A 
ATOM     88  C   UNL A   1      45.607  27.964  33.986  1.00  0.00     0.131 A 
ATOM     89  C   UNL A   1      45.155  25.593  35.341  1.00  0.00     0.055 A 
ATOM     90  C   UNL A   1      46.660  27.342  34.660  1.00  0.00     0.041 A 
ATOM     91  F   UNL A   1      45.861  29.130  33.373  1.00  0.00    -0.206 F 
ATOM     92  C   UNL A   1      46.432  26.160  35.357  1.00  0.00     0.022 A 
BRANCH  89  93
ATOM     93  S   UNL A   1      44.788  24.145  36.368  1.00  0.00     0.124 S 
ATOM     94  O   UNL A   1      44.531  24.752  37.670  1.00  0.00    -0.237 OA
ATOM     95  O   UNL A   1      43.629  23.570  35.694  1.00  0.00    -0.237 OA
ATOM     96  O   UNL A   1      46.011  23.348  36.286  1.00  0.00    -0.744 OA
ENDBRANCH  89  93
ENDBRANCH  63  86
ENDBRANCH  37  38
ENDBRANCH  30  32
ENDBRANCH  29  30
ENDBRANCH  28  29
ENDBRANCH  27  28
ENDBRANCH   1  27
TORSDOF 22
ENDMDL
MODEL 3
REMARK VINA RESULT:     -10.9      1.800      2.615
REMARK SMILES O=C(CN(Cc1ccccc1Cl)S(=O)(=O)c1ccc(Cl)cc1)OCCOCCOC(=O)c1ccc(-c2c3nc(c(-c4cc(S(=O)(=O)[O-])ccc4F)c4ccc([nH]4)c(-c4cc(S(=O)(=O)[O-])ccc4F)c4nc(c(-c5cc(S(=O)(=O)[O-])ccc5F)c5ccc2[nH]5)C=C4)C=C3)cc1
REMARK SMILES IDX 26 1 25 2 24 3 23 4 2 5 1 6 3 7 4 8 5 9 6 10 7 11 11 12 8 13
REMARK SMILES IDX 10 14 12 15 9 16 13 17 14 18 15 19 16 20 17 21 22 22 18 23
REMARK SMILES IDX 21 24 19 25 20 26 27 27 28 28 29 29 30 30 31 31 32 32 33 33
REMARK SMILES IDX 94 34 34 35 93 36 35 37 36 38 37 39 87 40 38 41 92 42 86 43
REMARK SMILES IDX 88 44 39 45 91 46 85 47 84 48 40 50 72 51 52 52 71 53 53 54
REMARK SMILES IDX 56 55 70 56 89 57 54 58 55 59 69 61 90 62 57 63 41 64 42 65
REMARK SMILES IDX 50 66 43 67 49 68 51 69 48 70 44 71 45 72 46 73 47 74 73 75
REMARK SMILES IDX 74 76 82 77 75 78 81 79 83 80 80 81 76 82 77 83 78 84 79 85
REMARK SMILES IDX 58 86 59 87 67 88 60 89 66 90 68 91 65 92 61 93 62 94 63 95
REMARK SMILES IDX 64 96
REMARK H PARENT 88 49 56 60
REMARK Flexibility Score: inf
ROOT
ATOM      1  O   UNL A   1      31.591  30.300  25.275  1.00  0.00    -0.374 OA
ENDROOT
BRANCH   1   2
ATOM      2  C   UNL A   1      32.663  29.480  24.796  1.00  0.00     0.202 C 
BRANCH   2   3
ATOM      3  C   UNL A   1      32.209  28.065  24.437  1.00  0.00     0.261 C 
BRANCH   3   4
ATOM      4  O   UNL A   1      31.188  27.592  25.344  1.00  0.00    -0.462 OA
BRANCH   4   5
ATOM      5  C   UNL A   1      30.987  26.301  25.693  1.00  0.00     0.321 C 
ATOM      6  O   UNL A   1      30.731  26.015  26.862  1.00  0.00    -0.251 OA
BRANCH   5   7
ATOM      7  C   UNL A   1      31.210  25.223  24.664  1.00  0.00     0.225 C 
BRANCH   7   8
ATOM      8  N   UNL A   1      32.301  24.244  24.886  1.00  0.00    -0.182 NA
BRANCH   8   9
ATOM      9  C   UNL A   1      33.639  24.879  25.049  1.00  0.00     0.140 C 
BRANCH   9  10
ATOM     10  C   UNL A   1      34.888  24.059  24.803  1.00  0.00    -0.014 A 
ATOM     11  C   UNL A   1      35.759  23.847  25.891  1.00  0.00     0.006 A 
ATOM     12  C   UNL A   1      35.222  23.444  23.583  1.00  0.00     0.045 A 
ATOM     13  C   UNL A   1      36.938  23.110  25.751  1.00  0.00     0.000 A 
ATOM     14  C   UNL A   1      36.421  22.733  23.438  1.00  0.00     0.021 A 
ATOM     15  Cl  UNL A   1      34.184  23.410  22.208  1.00  0.00    -0.084 Cl
ATOM     16  C   UNL A   1      37.281  22.570  24.518  1.00  0.00     0.002 A 
ENDBRANCH   9  10
ENDBRANCH   8   9
BRANCH   8  17
ATOM     17  S   UNL A   1      31.824  22.943  25.852  1.00  0.00     0.243 S 
ATOM     18  O   UNL A   1      32.498  23.050  27.128  1.00  0.00    -0.207 OA
ATOM     19  O   UNL A   1      30.383  22.852  25.791  1.00  0.00    -0.207 OA
BRANCH  17  20
ATOM     20  C   UNL A   1      32.435  21.499  25.015  1.00  0.00     0.082 A 
ATOM     21  C   UNL A   1      32.001  21.231  23.710  1.00  0.00     0.023 A 
ATOM     22  C   UNL A   1      33.179  20.552  25.725  1.00  0.00     0.023 A 
ATOM     23  C   UNL A   1      32.318  20.006  23.116  1.00  0.00     0.022 A 
ATOM     24  C   UNL A   1      33.495  19.331  25.124  1.00  0.00     0.022 A 
ATOM     25  C   UNL A   1      33.056  19.060  23.828  1.00  0.00     0.041 A 
ATOM     26  Cl  UNL A   1      33.398  17.529  23.121  1.00  0.00    -0.084 Cl
ENDBRANCH  17  20
ENDBRANCH   8  17
ENDBRANCH   7   8
ENDBRANCH   5   7
ENDBRANCH   4   5
ENDBRANCH   3   4
ENDBRANCH   2   3
ENDBRANCH   1   2
BRANCH   1  27
ATOM     27  C   UNL A   1      31.694  30.698  26.649  1.00  0.00     0.202 C 
BRANCH  27  28
ATOM     28  C   UNL A   1      31.604  32.204  26.900  1.00  0.00     0.261 C 
BRANCH  28  29
ATOM     29  O   UNL A   1      32.890  32.811  26.728  1.00  0.00    -0.460 OA
BRANCH  29  30
ATOM     30  C   UNL A   1      33.378  33.420  27.834  1.00  0.00     0.338 C 
ATOM     31  O   UNL A   1      32.798  34.228  28.538  1.00  0.00    -0.246 OA
BRANCH  30  32
ATOM     32  C   UNL A   1      34.662  32.788  28.202  1.00  0.00     0.060 A 
ATOM     33  C   UNL A   1      34.612  31.461  28.648  1.00  0.00     0.016 A 
ATOM     34  C   UNL A   1      35.888  33.456  28.098  1.00  0.00     0.016 A 
ATOM     35  C   UNL A   1      35.776  30.819  29.050  1.00  0.00     0.010 A 
ATOM     36  C   UNL A   1      37.058  32.811  28.505  1.00  0.00     0.010 A 
ATOM     37  C   UNL A   1      36.996  31.506  29.022  1.00  0.00    -0.014 A 
BRANCH  37  38
ATOM     38  C   UNL A   1      38.155  30.916  29.725  1.00  0.00     0.031 A 
ATOM     39  C   UNL A   1      38.398  31.324  31.151  1.00  0.00     0.074 A 
ATOM     40  C   UNL A   1      38.917  29.985  29.125  1.00  0.00     0.049 A 
ATOM     41  N   UNL A   1      39.317  30.918  31.986  1.00  0.00    -0.248 NA
ATOM     42  C   UNL A   1      37.475  32.326  31.711  1.00  0.00     0.031 C 
ATOM     43  C   UNL A   1      38.736  29.500  27.756  1.00  0.00     0.029 A 
ATOM     44  N   UNL A   1      39.992  29.278  29.594  1.00  0.00    -0.354 N 
ATOM     45  C   UNL A   1      39.075  31.602  33.174  1.00  0.00     0.074 A 
ATOM     46  C   UNL A   1      37.955  32.484  32.935  1.00  0.00     0.031 C 
ATOM     47  C   UNL A   1      39.676  28.575  27.496  1.00  0.00     0.029 A 
ATOM     48  C   UNL A   1      40.537  28.421  28.665  1.00  0.00     0.049 A 
ATOM     49  H   UNL A   1      40.342  29.373  30.509  1.00  0.00     0.167 HD
ATOM     50  C   UNL A   1      39.721  31.490  34.358  1.00  0.00     0.034 A 
ATOM     51  C   UNL A   1      41.617  27.621  28.755  1.00  0.00     0.034 A 
ATOM     52  C   UNL A   1      40.854  30.623  34.564  1.00  0.00     0.049 A 
ATOM     53  C   UNL A   1      42.366  27.569  30.066  1.00  0.00     0.074 A 
ATOM     54  C   UNL A   1      41.607  30.442  35.711  1.00  0.00     0.029 A 
ATOM     55  N   UNL A   1      41.404  29.797  33.592  1.00  0.00    -0.354 N 
ATOM     56  N   UNL A   1      42.121  28.215  31.185  1.00  0.00    -0.248 NA
ATOM     57  C   UNL A   1      43.522  26.668  30.132  1.00  0.00     0.031 C 
ATOM     58  C   UNL A   1      42.645  29.551  35.415  1.00  0.00     0.029 A 
ATOM     59  C   UNL A   1      42.499  29.120  34.105  1.00  0.00     0.049 A 
ATOM     60  H   UNL A   1      41.064  29.705  32.672  1.00  0.00     0.167 HD
ATOM     61  C   UNL A   1      43.084  27.779  32.093  1.00  0.00     0.074 A 
ATOM     62  C   UNL A   1      43.888  26.793  31.398  1.00  0.00     0.031 C 
ATOM     63  C   UNL A   1      43.293  28.156  33.381  1.00  0.00     0.034 A 
BRANCH  50  64
ATOM     64  C   UNL A   1      39.239  32.360  35.492  1.00  0.00     0.023 A 
ATOM     65  C   UNL A   1      39.717  33.670  35.672  1.00  0.00     0.031 A 
ATOM     66  C   UNL A   1      38.313  31.863  36.425  1.00  0.00     0.131 A 
ATOM     67  C   UNL A   1      39.312  34.416  36.790  1.00  0.00     0.055 A 
ATOM     68  C   UNL A   1      37.860  32.636  37.496  1.00  0.00     0.041 A 
ATOM     69  F   UNL A   1      37.843  30.609  36.319  1.00  0.00    -0.206 F 
ATOM     70  C   UNL A   1      38.368  33.917  37.689  1.00  0.00     0.022 A 
BRANCH  67  71
ATOM     71  S   UNL A   1      40.122  36.007  37.116  1.00  0.00     0.124 S 
ATOM     72  O   UNL A   1      39.730  36.784  35.944  1.00  0.00    -0.237 OA
ATOM     73  O   UNL A   1      39.523  36.414  38.382  1.00  0.00    -0.237 OA
ATOM     74  O   UNL A   1      41.541  35.662  37.180  1.00  0.00    -0.744 OA
ENDBRANCH  67  71
ENDBRANCH  50  64
BRANCH  51  75
ATOM     75  C   UNL A   1      42.086  26.836  27.576  1.00  0.00     0.023 A 
ATOM     76  C   UNL A   1      41.826  25.461  27.461  1.00  0.00     0.031 A 
ATOM     77  C   UNL A   1      42.867  27.443  26.576  1.00  0.00     0.131 A 
ATOM     78  C   UNL A   1      42.389  24.728  26.404  1.00  0.00     0.055 A 
ATOM     79  C   UNL A   1      43.378  26.720  25.496  1.00  0.00     0.041 A 
ATOM     80  F   UNL A   1      43.147  28.754  26.635  1.00  0.00    -0.206 F 
ATOM     81  C   UNL A   1      43.153  25.350  25.416  1.00  0.00     0.022 A 
BRANCH  78  82
ATOM     82  S   UNL A   1      42.191  22.924  26.397  1.00  0.00     0.124 S 
ATOM     83  O   UNL A   1      43.236  22.505  27.324  1.00  0.00    -0.237 OA
ATOM     84  O   UNL A   1      40.818  22.770  26.866  1.00  0.00    -0.237 OA
ATOM     85  O   UNL A   1      42.415  22.563  24.999  1.00  0.00    -0.744 OA
ENDBRANCH  78  82
ENDBRANCH  51  75
BRANCH  63  86
ATOM     86  C   UNL A   1      44.421  27.469  34.111  1.00  0.00     0.023 A 
ATOM     87  C   UNL A   1      45.740  27.949  34.043  1.00  0.00     0.031 A 
ATOM     88  C   UNL A   1      44.178  26.299  34.852  1.00  0.00     0.131 A 
ATOM     89  C   UNL A   1      46.779  27.223  34.640  1.00  0.00     0.055 A 
ATOM     90  C   UNL A   1      45.208  25.616  35.501  1.00  0.00     0.041 A 
ATOM     91  F   UNL A   1      42.937  25.797  34.951  1.00  0.00    -0.206 F 
ATOM     92  C   UNL A   1      46.519  26.067  35.382  1.00  0.00     0.022 A 
BRANCH  89  93
ATOM     93  S   UNL A   1      48.488  27.743  34.333  1.00  0.00     0.124 S 
ATOM     94  O   UNL A   1      48.852  26.927  33.179  1.00  0.00    -0.237 OA
ATOM     95  O   UNL A   1      48.338  29.172  34.082  1.00  0.00    -0.237 OA
ATOM     96  O   UNL A   1      49.178  27.401  35.576  1.00  0.00    -0.744 OA
ENDBRANCH  89  93
ENDBRANCH  63  86
ENDBRANCH  37  38
ENDBRANCH  30  32
ENDBRANCH  29  30
ENDBRANCH  28  29
ENDBRANCH  27  28
ENDBRANCH   1  27
TORSDOF 22
ENDMDL
