MODEL 1
REMARK VINA RESULT:     -11.0      0.000      0.000
REMARK SMILES O=C(COc1nc(NCc2cccc(Cl)c2)nc2c1CCC2)OCCOCCOC(=O)c1ccc(-c2c3nc(c(-c4cc(S(=O)(=O)[O-])ccc4F)c4ccc([nH]4)c(-c4cc(S(=O)(=O)[O-])ccc4F)c4nc(c(-c5cc(S(=O)(=O)[O-])ccc5F)c5ccc2[nH]5)C=C4)C=C3)cc1
REMARK SMILES IDX 25 1 24 2 23 3 2 4 1 5 3 6 4 7 5 8 6 9 19 10 7 11 18 12
REMARK SMILES IDX 20 13 17 14 22 15 21 16 8 17 9 19 10 20 11 21 16 22 12 23
REMARK SMILES IDX 14 24 13 25 15 26 26 27 27 28 28 29 29 30 30 31 31 32 32 33
REMARK SMILES IDX 33 34 94 35 34 36 93 37 35 38 36 39 37 40 87 41 38 42 92 43
REMARK SMILES IDX 86 44 88 45 39 46 91 47 85 48 84 49 40 51 72 52 52 53 71 54
REMARK SMILES IDX 53 55 56 56 70 57 89 58 54 59 55 60 69 62 90 63 57 64 41 65
REMARK SMILES IDX 42 66 50 67 43 68 49 69 51 70 48 71 44 72 45 73 46 74 47 75
REMARK SMILES IDX 73 76 74 77 82 78 75 79 81 80 83 81 80 82 76 83 77 84 78 85
REMARK SMILES IDX 79 86 58 87 59 88 67 89 60 90 66 91 68 92 65 93 61 94 62 95
REMARK SMILES IDX 63 96 64 97
REMARK H PARENT 8 18 88 50 56 61
REMARK Flexibility Score: inf
ROOT
ATOM      1  C   UNL A   1      32.571  28.940  23.519  1.00  0.00     0.202 C 
ENDROOT
BRANCH   1   2
ATOM      2  C   UNL A   1      33.628  27.950  23.034  1.00  0.00     0.261 C 
BRANCH   2   3
ATOM      3  O   UNL A   1      33.289  27.334  21.782  1.00  0.00    -0.461 OA
BRANCH   3   4
ATOM      4  C   UNL A   1      33.209  25.997  21.585  1.00  0.00     0.344 C 
ATOM      5  O   UNL A   1      32.602  25.562  20.604  1.00  0.00    -0.248 OA
BRANCH   4   6
ATOM      6  C   UNL A   1      33.757  25.040  22.651  1.00  0.00     0.353 C 
BRANCH   6   7
ATOM      7  O   UNL A   1      34.413  23.839  22.292  1.00  0.00    -0.465 OA
BRANCH   7   8
ATOM      8  C   UNL A   1      34.211  22.890  23.261  1.00  0.00     0.222 A 
ATOM      9  N   UNL A   1      32.957  22.622  23.643  1.00  0.00    -0.177 NA
ATOM     10  C   UNL A   1      35.293  22.334  23.844  1.00  0.00     0.036 A 
ATOM     11  C   UNL A   1      32.783  21.841  24.714  1.00  0.00     0.226 A 
ATOM     12  C   UNL A   1      35.025  21.565  24.947  1.00  0.00     0.053 A 
ATOM     13  C   UNL A   1      36.740  22.543  23.605  1.00  0.00     0.043 C 
ATOM     14  N   UNL A   1      33.794  21.309  25.421  1.00  0.00    -0.218 NA
ATOM     15  C   UNL A   1      36.312  21.219  25.642  1.00  0.00     0.057 C 
ATOM     16  C   UNL A   1      37.334  21.461  24.516  1.00  0.00     0.011 C 
BRANCH  11  17
ATOM     17  N   UNL A   1      31.479  21.695  25.075  1.00  0.00    -0.350 N 
ATOM     18  H   UNL A   1      30.920  21.095  24.529  1.00  0.00     0.164 HD
BRANCH  17  19
ATOM     19  C   UNL A   1      30.861  22.347  26.186  1.00  0.00     0.152 C 
BRANCH  19  20
ATOM     20  C   UNL A   1      30.957  23.847  26.013  1.00  0.00    -0.027 A 
ATOM     21  C   UNL A   1      31.847  24.610  26.783  1.00  0.00     0.005 A 
ATOM     22  C   UNL A   1      30.153  24.498  25.062  1.00  0.00     0.026 A 
ATOM     23  C   UNL A   1      31.956  25.990  26.586  1.00  0.00     0.002 A 
ATOM     24  C   UNL A   1      30.266  25.875  24.871  1.00  0.00     0.041 A 
ATOM     25  C   UNL A   1      31.169  26.622  25.624  1.00  0.00     0.020 A 
ATOM     26  Cl  UNL A   1      29.292  26.657  23.686  1.00  0.00    -0.084 Cl
ENDBRANCH  19  20
ENDBRANCH  17  19
ENDBRANCH  11  17
ENDBRANCH   7   8
ENDBRANCH   6   7
ENDBRANCH   4   6
ENDBRANCH   3   4
ENDBRANCH   2   3
ENDBRANCH   1   2
BRANCH   1  27
ATOM     27  O   UNL A   1      32.865  29.694  24.694  1.00  0.00    -0.374 OA
BRANCH  27  28
ATOM     28  C   UNL A   1      31.764  30.011  25.555  1.00  0.00     0.202 C 
BRANCH  28  29
ATOM     29  C   UNL A   1      31.766  31.372  26.256  1.00  0.00     0.261 C 
BRANCH  29  30
ATOM     30  O   UNL A   1      32.569  31.356  27.442  1.00  0.00    -0.460 OA
BRANCH  30  31
ATOM     31  C   UNL A   1      33.406  32.412  27.571  1.00  0.00     0.338 C 
ATOM     32  O   UNL A   1      33.105  33.595  27.534  1.00  0.00    -0.246 OA
BRANCH  31  33
ATOM     33  C   UNL A   1      34.724  31.920  28.013  1.00  0.00     0.060 A 
ATOM     34  C   UNL A   1      34.836  30.559  28.332  1.00  0.00     0.016 A 
ATOM     35  C   UNL A   1      35.826  32.772  28.116  1.00  0.00     0.016 A 
ATOM     36  C   UNL A   1      36.036  30.058  28.820  1.00  0.00     0.010 A 
ATOM     37  C   UNL A   1      37.025  32.271  28.618  1.00  0.00     0.010 A 
ATOM     38  C   UNL A   1      37.118  30.925  29.013  1.00  0.00    -0.014 A 
BRANCH  38  39
ATOM     39  C   UNL A   1      38.271  30.476  29.821  1.00  0.00     0.031 A 
ATOM     40  C   UNL A   1      39.238  29.511  29.196  1.00  0.00     0.074 A 
ATOM     41  C   UNL A   1      38.467  30.949  31.062  1.00  0.00     0.049 A 
ATOM     42  N   UNL A   1      40.286  28.933  29.719  1.00  0.00    -0.248 NA
ATOM     43  C   UNL A   1      38.987  29.148  27.791  1.00  0.00     0.031 C 
ATOM     44  C   UNL A   1      37.625  31.940  31.730  1.00  0.00     0.029 A 
ATOM     45  N   UNL A   1      39.443  30.660  31.978  1.00  0.00    -0.354 N 
ATOM     46  C   UNL A   1      40.818  28.139  28.709  1.00  0.00     0.074 A 
ATOM     47  C   UNL A   1      39.954  28.275  27.558  1.00  0.00     0.031 C 
ATOM     48  C   UNL A   1      38.128  32.183  32.952  1.00  0.00     0.029 A 
ATOM     49  C   UNL A   1      39.299  31.334  33.166  1.00  0.00     0.049 A 
ATOM     50  H   UNL A   1      40.179  30.030  31.802  1.00  0.00     0.167 HD
ATOM     51  C   UNL A   1      41.939  27.379  28.740  1.00  0.00     0.034 A 
ATOM     52  C   UNL A   1      40.021  31.256  34.301  1.00  0.00     0.034 A 
ATOM     53  C   UNL A   1      42.780  27.252  29.901  1.00  0.00     0.049 A 
ATOM     54  C   UNL A   1      41.198  30.317  34.351  1.00  0.00     0.074 A 
ATOM     55  C   UNL A   1      43.932  26.503  30.050  1.00  0.00     0.029 A 
ATOM     56  N   UNL A   1      42.556  27.887  31.116  1.00  0.00    -0.354 N 
ATOM     57  N   UNL A   1      41.675  29.540  33.405  1.00  0.00    -0.248 NA
ATOM     58  C   UNL A   1      41.932  30.239  35.622  1.00  0.00     0.031 C 
ATOM     59  C   UNL A   1      44.366  26.630  31.373  1.00  0.00     0.029 A 
ATOM     60  C   UNL A   1      43.530  27.521  32.028  1.00  0.00     0.049 A 
ATOM     61  H   UNL A   1      41.813  28.507  31.300  1.00  0.00     0.167 HD
ATOM     62  C   UNL A   1      42.781  28.901  33.957  1.00  0.00     0.074 A 
ATOM     63  C   UNL A   1      42.900  29.384  35.319  1.00  0.00     0.031 C 
ATOM     64  C   UNL A   1      43.623  28.003  33.387  1.00  0.00     0.034 A 
BRANCH  51  65
ATOM     65  C   UNL A   1      42.287  26.605  27.497  1.00  0.00     0.023 A 
ATOM     66  C   UNL A   1      42.003  25.234  27.378  1.00  0.00     0.031 A 
ATOM     67  C   UNL A   1      42.916  27.246  26.414  1.00  0.00     0.131 A 
ATOM     68  C   UNL A   1      42.388  24.537  26.223  1.00  0.00     0.055 A 
ATOM     69  C   UNL A   1      43.235  26.561  25.240  1.00  0.00     0.041 A 
ATOM     70  F   UNL A   1      43.234  28.548  26.482  1.00  0.00    -0.206 F 
ATOM     71  C   UNL A   1      42.980  25.197  25.144  1.00  0.00     0.022 A 
BRANCH  68  72
ATOM     72  S   UNL A   1      42.193  22.734  26.190  1.00  0.00     0.124 S 
ATOM     73  O   UNL A   1      40.744  22.593  26.296  1.00  0.00    -0.237 OA
ATOM     74  O   UNL A   1      42.777  22.376  24.903  1.00  0.00    -0.237 OA
ATOM     75  O   UNL A   1      42.944  22.287  27.361  1.00  0.00    -0.744 OA
ENDBRANCH  68  72
ENDBRANCH  51  65
BRANCH  52  76
ATOM     76  C   UNL A   1      39.639  32.085  35.476  1.00  0.00     0.023 A 
ATOM     77  C   UNL A   1      38.749  31.595  36.442  1.00  0.00     0.031 A 
ATOM     78  C   UNL A   1      40.181  33.370  35.663  1.00  0.00     0.131 A 
ATOM     79  C   UNL A   1      38.420  32.388  37.552  1.00  0.00     0.055 A 
ATOM     80  C   UNL A   1      39.880  34.139  36.787  1.00  0.00     0.041 A 
ATOM     81  F   UNL A   1      41.043  33.878  34.768  1.00  0.00    -0.206 F 
ATOM     82  C   UNL A   1      38.991  33.650  37.739  1.00  0.00     0.022 A 
BRANCH  79  83
ATOM     83  S   UNL A   1      37.220  31.749  38.753  1.00  0.00     0.124 S 
ATOM     84  O   UNL A   1      36.100  32.664  38.569  1.00  0.00    -0.237 OA
ATOM     85  O   UNL A   1      37.017  30.382  38.283  1.00  0.00    -0.237 OA
ATOM     86  O   UNL A   1      37.921  31.867  40.029  1.00  0.00    -0.744 OA
ENDBRANCH  79  83
ENDBRANCH  52  76
BRANCH  64  87
ATOM     87  C   UNL A   1      44.772  27.498  34.222  1.00  0.00     0.023 A 
ATOM     88  C   UNL A   1      44.639  26.371  35.049  1.00  0.00     0.031 A 
ATOM     89  C   UNL A   1      46.031  28.119  34.140  1.00  0.00     0.131 A 
ATOM     90  C   UNL A   1      45.742  25.914  35.784  1.00  0.00     0.055 A 
ATOM     91  C   UNL A   1      47.137  27.628  34.833  1.00  0.00     0.041 A 
ATOM     92  F   UNL A   1      46.211  29.197  33.360  1.00  0.00    -0.206 F 
ATOM     93  C   UNL A   1      46.995  26.522  35.665  1.00  0.00     0.022 A 
BRANCH  90  94
ATOM     94  S   UNL A   1      45.510  24.530  36.933  1.00  0.00     0.124 S 
ATOM     95  O   UNL A   1      46.614  24.726  37.867  1.00  0.00    -0.237 OA
ATOM     96  O   UNL A   1      44.174  24.782  37.464  1.00  0.00    -0.237 OA
ATOM     97  O   UNL A   1      45.623  23.351  36.077  1.00  0.00    -0.744 OA
ENDBRANCH  90  94
ENDBRANCH  64  87
ENDBRANCH  38  39
ENDBRANCH  31  33
ENDBRANCH  30  31
ENDBRANCH  29  30
ENDBRANCH  28  29
ENDBRANCH  27  28
ENDBRANCH   1  27
TORSDOF 22
ENDMDL
MODEL 2
REMARK VINA RESULT:     -10.6      1.372      7.435
REMARK SMILES O=C(COc1nc(NCc2cccc(Cl)c2)nc2c1CCC2)OCCOCCOC(=O)c1ccc(-c2c3nc(c(-c4cc(S(=O)(=O)[O-])ccc4F)c4ccc([nH]4)c(-c4cc(S(=O)(=O)[O-])ccc4F)c4nc(c(-c5cc(S(=O)(=O)[O-])ccc5F)c5ccc2[nH]5)C=C4)C=C3)cc1
REMARK SMILES IDX 25 1 24 2 23 3 2 4 1 5 3 6 4 7 5 8 6 9 19 10 7 11 18 12
REMARK SMILES IDX 20 13 17 14 22 15 21 16 8 17 9 19 10 20 11 21 16 22 12 23
REMARK SMILES IDX 14 24 13 25 15 26 26 27 27 28 28 29 29 30 30 31 31 32 32 33
REMARK SMILES IDX 33 34 94 35 34 36 93 37 35 38 36 39 37 40 87 41 38 42 92 43
REMARK SMILES IDX 86 44 88 45 39 46 91 47 85 48 84 49 40 51 72 52 52 53 71 54
REMARK SMILES IDX 53 55 56 56 70 57 89 58 54 59 55 60 69 62 90 63 57 64 41 65
REMARK SMILES IDX 42 66 50 67 43 68 49 69 51 70 48 71 44 72 45 73 46 74 47 75
REMARK SMILES IDX 73 76 74 77 82 78 75 79 81 80 83 81 80 82 76 83 77 84 78 85
REMARK SMILES IDX 79 86 58 87 59 88 67 89 60 90 66 91 68 92 65 93 61 94 62 95
REMARK SMILES IDX 63 96 64 97
REMARK H PARENT 8 18 88 50 56 61
REMARK Flexibility Score: inf
ROOT
ATOM      1  C   UNL A   1      32.825  29.382  24.223  1.00  0.00     0.202 C 
ENDROOT
BRANCH   1   2
ATOM      2  C   UNL A   1      33.640  28.344  23.454  1.00  0.00     0.261 C 
BRANCH   2   3
ATOM      3  O   UNL A   1      32.898  27.721  22.394  1.00  0.00    -0.461 OA
BRANCH   3   4
ATOM      4  C   UNL A   1      32.793  26.382  22.219  1.00  0.00     0.344 C 
ATOM      5  O   UNL A   1      31.845  25.926  21.575  1.00  0.00    -0.248 OA
BRANCH   4   6
ATOM      6  C   UNL A   1      33.775  25.445  22.932  1.00  0.00     0.353 C 
BRANCH   6   7
ATOM      7  O   UNL A   1      34.186  24.226  22.343  1.00  0.00    -0.465 OA
BRANCH   7   8
ATOM      8  C   UNL A   1      34.060  23.205  23.249  1.00  0.00     0.222 A 
ATOM      9  N   UNL A   1      32.837  22.890  23.693  1.00  0.00    -0.177 NA
ATOM     10  C   UNL A   1      35.184  22.624  23.716  1.00  0.00     0.036 A 
ATOM     11  C   UNL A   1      32.743  22.029  24.711  1.00  0.00     0.226 A 
ATOM     12  C   UNL A   1      34.999  21.771  24.773  1.00  0.00     0.053 A 
ATOM     13  C   UNL A   1      36.609  22.873  23.397  1.00  0.00     0.043 C 
ATOM     14  N   UNL A   1      33.805  21.462  25.307  1.00  0.00    -0.218 NA
ATOM     15  C   UNL A   1      36.333  21.394  25.353  1.00  0.00     0.057 C 
ATOM     16  C   UNL A   1      37.275  21.735  24.183  1.00  0.00     0.011 C 
BRANCH  11  17
ATOM     17  N   UNL A   1      31.469  21.837  25.145  1.00  0.00    -0.350 N 
ATOM     18  H   UNL A   1      30.914  21.186  24.656  1.00  0.00     0.164 HD
BRANCH  17  19
ATOM     19  C   UNL A   1      30.875  22.508  26.259  1.00  0.00     0.152 C 
BRANCH  19  20
ATOM     20  C   UNL A   1      30.908  24.003  26.027  1.00  0.00    -0.027 A 
ATOM     21  C   UNL A   1      31.861  24.814  26.661  1.00  0.00     0.005 A 
ATOM     22  C   UNL A   1      29.980  24.601  25.157  1.00  0.00     0.026 A 
ATOM     23  C   UNL A   1      31.907  26.187  26.409  1.00  0.00     0.002 A 
ATOM     24  C   UNL A   1      30.031  25.972  24.910  1.00  0.00     0.041 A 
ATOM     25  C   UNL A   1      30.995  26.767  25.527  1.00  0.00     0.020 A 
ATOM     26  Cl  UNL A   1      28.904  26.689  23.824  1.00  0.00    -0.084 Cl
ENDBRANCH  19  20
ENDBRANCH  17  19
ENDBRANCH  11  17
ENDBRANCH   7   8
ENDBRANCH   6   7
ENDBRANCH   4   6
ENDBRANCH   3   4
ENDBRANCH   2   3
ENDBRANCH   1   2
BRANCH   1  27
ATOM     27  O   UNL A   1      33.209  29.654  25.569  1.00  0.00    -0.374 OA
BRANCH  27  28
ATOM     28  C   UNL A   1      32.212  30.217  26.430  1.00  0.00     0.202 C 
BRANCH  28  29
ATOM     29  C   UNL A   1      32.251  31.725  26.691  1.00  0.00     0.261 C 
BRANCH  29  30
ATOM     30  O   UNL A   1      32.893  32.031  27.934  1.00  0.00    -0.460 OA
BRANCH  30  31
ATOM     31  C   UNL A   1      33.892  32.940  27.843  1.00  0.00     0.338 C 
ATOM     32  O   UNL A   1      33.777  34.140  27.648  1.00  0.00    -0.246 OA
BRANCH  31  33
ATOM     33  C   UNL A   1      35.153  32.300  28.263  1.00  0.00     0.060 A 
ATOM     34  C   UNL A   1      35.118  30.932  28.568  1.00  0.00     0.016 A 
ATOM     35  C   UNL A   1      36.344  33.024  28.357  1.00  0.00     0.016 A 
ATOM     36  C   UNL A   1      36.261  30.296  29.035  1.00  0.00     0.010 A 
ATOM     37  C   UNL A   1      37.487  32.388  28.837  1.00  0.00     0.010 A 
ATOM     38  C   UNL A   1      37.435  31.036  29.219  1.00  0.00    -0.014 A 
BRANCH  38  39
ATOM     39  C   UNL A   1      38.541  30.454  30.007  1.00  0.00     0.031 A 
ATOM     40  C   UNL A   1      38.686  30.878  31.442  1.00  0.00     0.074 A 
ATOM     41  C   UNL A   1      39.367  29.544  29.466  1.00  0.00     0.049 A 
ATOM     42  N   UNL A   1      39.603  30.554  32.313  1.00  0.00    -0.248 NA
ATOM     43  C   UNL A   1      37.656  31.794  31.962  1.00  0.00     0.031 C 
ATOM     44  C   UNL A   1      39.266  29.016  28.107  1.00  0.00     0.029 A 
ATOM     45  N   UNL A   1      40.450  28.899  30.002  1.00  0.00    -0.354 N 
ATOM     46  C   UNL A   1      39.262  31.225  33.482  1.00  0.00     0.074 A 
ATOM     47  C   UNL A   1      38.081  32.008  33.196  1.00  0.00     0.031 C 
ATOM     48  C   UNL A   1      40.247  28.119  27.917  1.00  0.00     0.029 A 
ATOM     49  C   UNL A   1      41.069  28.043  29.125  1.00  0.00     0.049 A 
ATOM     50  H   UNL A   1      40.756  29.036  30.927  1.00  0.00     0.167 HD
ATOM     51  C   UNL A   1      39.875  31.175  34.689  1.00  0.00     0.034 A 
ATOM     52  C   UNL A   1      42.182  27.299  29.276  1.00  0.00     0.034 A 
ATOM     53  C   UNL A   1      41.056  30.394  34.948  1.00  0.00     0.049 A 
ATOM     54  C   UNL A   1      42.914  27.347  30.593  1.00  0.00     0.074 A 
ATOM     55  C   UNL A   1      41.767  30.276  36.127  1.00  0.00     0.029 A 
ATOM     56  N   UNL A   1      41.703  29.601  34.009  1.00  0.00    -0.354 N 
ATOM     57  N   UNL A   1      42.608  28.013  31.683  1.00  0.00    -0.248 NA
ATOM     58  C   UNL A   1      44.142  26.548  30.699  1.00  0.00     0.031 C 
ATOM     59  C   UNL A   1      42.881  29.468  35.884  1.00  0.00     0.029 A 
ATOM     60  C   UNL A   1      42.823  29.017  34.574  1.00  0.00     0.049 A 
ATOM     61  H   UNL A   1      41.408  29.472  33.078  1.00  0.00     0.167 HD
ATOM     62  C   UNL A   1      43.591  27.692  32.614  1.00  0.00     0.074 A 
ATOM     63  C   UNL A   1      44.499  26.774  31.957  1.00  0.00     0.031 C 
ATOM     64  C   UNL A   1      43.726  28.114  33.897  1.00  0.00     0.034 A 
BRANCH  51  65
ATOM     65  C   UNL A   1      39.297  32.016  35.796  1.00  0.00     0.023 A 
ATOM     66  C   UNL A   1      38.555  31.445  36.844  1.00  0.00     0.031 A 
ATOM     67  C   UNL A   1      39.489  33.409  35.804  1.00  0.00     0.131 A 
ATOM     68  C   UNL A   1      37.992  32.268  37.831  1.00  0.00     0.055 A 
ATOM     69  C   UNL A   1      38.984  34.214  36.826  1.00  0.00     0.041 A 
ATOM     70  F   UNL A   1      40.168  34.010  34.815  1.00  0.00    -0.206 F 
ATOM     71  C   UNL A   1      38.222  33.645  37.843  1.00  0.00     0.022 A 
BRANCH  68  72
ATOM     72  S   UNL A   1      36.871  31.523  39.048  1.00  0.00     0.124 S 
ATOM     73  O   UNL A   1      36.750  30.159  38.540  1.00  0.00    -0.237 OA
ATOM     74  O   UNL A   1      37.611  31.677  40.295  1.00  0.00    -0.237 OA
ATOM     75  O   UNL A   1      35.660  32.333  38.937  1.00  0.00    -0.744 OA
ENDBRANCH  68  72
ENDBRANCH  51  65
BRANCH  52  76
ATOM     76  C   UNL A   1      42.668  26.460  28.148  1.00  0.00     0.023 A 
ATOM     77  C   UNL A   1      43.807  26.828  27.418  1.00  0.00     0.031 A 
ATOM     78  C   UNL A   1      42.016  25.263  27.802  1.00  0.00     0.131 A 
ATOM     79  C   UNL A   1      44.259  26.010  26.372  1.00  0.00     0.055 A 
ATOM     80  C   UNL A   1      42.489  24.435  26.785  1.00  0.00     0.041 A 
ATOM     81  F   UNL A   1      40.925  24.866  28.477  1.00  0.00    -0.206 F 
ATOM     82  C   UNL A   1      43.616  24.808  26.060  1.00  0.00     0.022 A 
BRANCH  79  83
ATOM     83  S   UNL A   1      45.699  26.543  25.409  1.00  0.00     0.124 S 
ATOM     84  O   UNL A   1      45.886  25.416  24.504  1.00  0.00    -0.237 OA
ATOM     85  O   UNL A   1      45.219  27.781  24.803  1.00  0.00    -0.237 OA
ATOM     86  O   UNL A   1      46.741  26.713  26.420  1.00  0.00    -0.744 OA
ENDBRANCH  79  83
ENDBRANCH  52  76
BRANCH  64  87
ATOM     87  C   UNL A   1      44.882  27.568  34.693  1.00  0.00     0.023 A 
ATOM     88  C   UNL A   1      44.829  26.296  35.286  1.00  0.00     0.031 A 
ATOM     89  C   UNL A   1      46.073  28.306  34.806  1.00  0.00     0.131 A 
ATOM     90  C   UNL A   1      45.941  25.810  35.991  1.00  0.00     0.055 A 
ATOM     91  C   UNL A   1      47.193  27.796  35.463  1.00  0.00     0.041 A 
ATOM     92  F   UNL A   1      46.176  29.525  34.253  1.00  0.00    -0.206 F 
ATOM     93  C   UNL A   1      47.129  26.543  36.065  1.00  0.00     0.022 A 
BRANCH  90  94
ATOM     94  S   UNL A   1      45.802  24.217  36.846  1.00  0.00     0.124 S 
ATOM     95  O   UNL A   1      47.082  23.593  36.529  1.00  0.00    -0.237 OA
ATOM     96  O   UNL A   1      45.617  24.621  38.237  1.00  0.00    -0.237 OA
ATOM     97  O   UNL A   1      44.636  23.594  36.223  1.00  0.00    -0.744 OA
ENDBRANCH  90  94
ENDBRANCH  64  87
ENDBRANCH  38  39
ENDBRANCH  31  33
ENDBRANCH  30  31
ENDBRANCH  29  30
ENDBRANCH  28  29
ENDBRANCH  27  28
ENDBRANCH   1  27
TORSDOF 22
ENDMDL
MODEL 3
REMARK VINA RESULT:     -10.6      2.786      3.885
REMARK SMILES O=C(COc1nc(NCc2cccc(Cl)c2)nc2c1CCC2)OCCOCCOC(=O)c1ccc(-c2c3nc(c(-c4cc(S(=O)(=O)[O-])ccc4F)c4ccc([nH]4)c(-c4cc(S(=O)(=O)[O-])ccc4F)c4nc(c(-c5cc(S(=O)(=O)[O-])ccc5F)c5ccc2[nH]5)C=C4)C=C3)cc1
REMARK SMILES IDX 25 1 24 2 23 3 2 4 1 5 3 6 4 7 5 8 6 9 19 10 7 11 18 12
REMARK SMILES IDX 20 13 17 14 22 15 21 16 8 17 9 19 10 20 11 21 16 22 12 23
REMARK SMILES IDX 14 24 13 25 15 26 26 27 27 28 28 29 29 30 30 31 31 32 32 33
REMARK SMILES IDX 33 34 94 35 34 36 93 37 35 38 36 39 37 40 87 41 38 42 92 43
REMARK SMILES IDX 86 44 88 45 39 46 91 47 85 48 84 49 40 51 72 52 52 53 71 54
REMARK SMILES IDX 53 55 56 56 70 57 89 58 54 59 55 60 69 62 90 63 57 64 41 65
REMARK SMILES IDX 42 66 50 67 43 68 49 69 51 70 48 71 44 72 45 73 46 74 47 75
REMARK SMILES IDX 73 76 74 77 82 78 75 79 81 80 83 81 80 82 76 83 77 84 78 85
REMARK SMILES IDX 79 86 58 87 59 88 67 89 60 90 66 91 68 92 65 93 61 94 62 95
REMARK SMILES IDX 63 96 64 97
REMARK H PARENT 8 18 88 50 56 61
REMARK Flexibility Score: inf
ROOT
ATOM      1  C   UNL A   1      31.838  28.872  26.626  1.00  0.00     0.202 C 
ENDROOT
BRANCH   1   2
ATOM      2  C   UNL A   1      31.409  27.584  25.927  1.00  0.00     0.261 C 
BRANCH   2   3
ATOM      3  O   UNL A   1      31.644  26.409  26.718  1.00  0.00    -0.461 OA
BRANCH   3   4
ATOM      4  C   UNL A   1      31.299  25.155  26.346  1.00  0.00     0.344 C 
ATOM      5  O   UNL A   1      31.170  24.279  27.205  1.00  0.00    -0.248 OA
BRANCH   4   6
ATOM      6  C   UNL A   1      31.202  24.805  24.856  1.00  0.00     0.353 C 
BRANCH   6   7
ATOM      7  O   UNL A   1      32.359  24.694  24.051  1.00  0.00    -0.465 OA
BRANCH   7   8
ATOM      8  C   UNL A   1      33.016  23.526  24.337  1.00  0.00     0.222 A 
ATOM      9  N   UNL A   1      32.374  22.367  24.147  1.00  0.00    -0.177 NA
ATOM     10  C   UNL A   1      34.249  23.603  24.879  1.00  0.00     0.036 A 
ATOM     11  C   UNL A   1      32.948  21.250  24.606  1.00  0.00     0.226 A 
ATOM     12  C   UNL A   1      34.754  22.415  25.341  1.00  0.00     0.053 A 
ATOM     13  C   UNL A   1      35.089  24.776  25.216  1.00  0.00     0.043 C 
ATOM     14  N   UNL A   1      34.133  21.228  25.240  1.00  0.00    -0.218 NA
ATOM     15  C   UNL A   1      36.002  22.677  26.137  1.00  0.00     0.057 C 
ATOM     16  C   UNL A   1      36.391  24.078  25.631  1.00  0.00     0.011 C 
BRANCH  11  17
ATOM     17  N   UNL A   1      32.183  20.138  24.442  1.00  0.00    -0.350 N 
ATOM     18  H   UNL A   1      31.405  20.029  25.036  1.00  0.00     0.164 HD
BRANCH  17  19
ATOM     19  C   UNL A   1      32.423  19.116  23.472  1.00  0.00     0.152 C 
BRANCH  19  20
ATOM     20  C   UNL A   1      33.086  17.930  24.138  1.00  0.00    -0.027 A 
ATOM     21  C   UNL A   1      34.468  17.717  24.029  1.00  0.00     0.005 A 
ATOM     22  C   UNL A   1      32.318  17.024  24.888  1.00  0.00     0.026 A 
ATOM     23  C   UNL A   1      35.075  16.640  24.680  1.00  0.00     0.002 A 
ATOM     24  C   UNL A   1      32.929  15.951  25.535  1.00  0.00     0.041 A 
ATOM     25  C   UNL A   1      34.306  15.759  25.441  1.00  0.00     0.020 A 
ATOM     26  Cl  UNL A   1      31.980  14.862  26.471  1.00  0.00    -0.084 Cl
ENDBRANCH  19  20
ENDBRANCH  17  19
ENDBRANCH  11  17
ENDBRANCH   7   8
ENDBRANCH   6   7
ENDBRANCH   4   6
ENDBRANCH   3   4
ENDBRANCH   2   3
ENDBRANCH   1   2
BRANCH   1  27
ATOM     27  O   UNL A   1      31.666  30.096  25.914  1.00  0.00    -0.374 OA
BRANCH  27  28
ATOM     28  C   UNL A   1      31.746  31.308  26.675  1.00  0.00     0.202 C 
BRANCH  28  29
ATOM     29  C   UNL A   1      33.061  31.628  27.388  1.00  0.00     0.261 C 
BRANCH  29  30
ATOM     30  O   UNL A   1      33.502  32.963  27.116  1.00  0.00    -0.460 OA
BRANCH  30  31
ATOM     31  C   UNL A   1      33.394  33.817  28.161  1.00  0.00     0.338 C 
ATOM     32  O   UNL A   1      32.446  34.542  28.420  1.00  0.00    -0.246 OA
BRANCH  31  33
ATOM     33  C   UNL A   1      34.505  33.563  29.096  1.00  0.00     0.060 A 
ATOM     34  C   UNL A   1      35.791  33.956  28.699  1.00  0.00     0.016 A 
ATOM     35  C   UNL A   1      34.294  32.952  30.334  1.00  0.00     0.016 A 
ATOM     36  C   UNL A   1      36.883  33.678  29.511  1.00  0.00     0.010 A 
ATOM     37  C   UNL A   1      35.391  32.662  31.143  1.00  0.00     0.010 A 
ATOM     38  C   UNL A   1      36.690  32.984  30.712  1.00  0.00    -0.014 A 
BRANCH  38  39
ATOM     39  C   UNL A   1      37.858  32.408  31.411  1.00  0.00     0.031 A 
ATOM     40  C   UNL A   1      38.554  31.238  30.776  1.00  0.00     0.074 A 
ATOM     41  C   UNL A   1      38.304  32.942  32.559  1.00  0.00     0.049 A 
ATOM     42  N   UNL A   1      39.557  30.529  31.221  1.00  0.00    -0.248 NA
ATOM     43  C   UNL A   1      38.048  30.808  29.461  1.00  0.00     0.031 C 
ATOM     44  C   UNL A   1      37.741  34.119  33.217  1.00  0.00     0.029 A 
ATOM     45  N   UNL A   1      39.341  32.562  33.370  1.00  0.00    -0.354 N 
ATOM     46  C   UNL A   1      39.803  29.572  30.243  1.00  0.00     0.074 A 
ATOM     47  C   UNL A   1      38.816  29.762  29.203  1.00  0.00     0.031 C 
ATOM     48  C   UNL A   1      38.446  34.371  34.333  1.00  0.00     0.029 A 
ATOM     49  C   UNL A   1      39.481  33.349  34.487  1.00  0.00     0.049 A 
ATOM     50  H   UNL A   1      39.930  31.800  33.171  1.00  0.00     0.167 HD
ATOM     51  C   UNL A   1      40.776  28.631  30.213  1.00  0.00     0.034 A 
ATOM     52  C   UNL A   1      40.335  33.240  35.524  1.00  0.00     0.034 A 
ATOM     53  C   UNL A   1      41.743  28.456  31.266  1.00  0.00     0.049 A 
ATOM     54  C   UNL A   1      41.337  32.115  35.525  1.00  0.00     0.074 A 
ATOM     55  C   UNL A   1      42.766  27.529  31.347  1.00  0.00     0.029 A 
ATOM     56  N   UNL A   1      41.801  29.220  32.424  1.00  0.00    -0.354 N 
ATOM     57  N   UNL A   1      41.540  31.190  34.615  1.00  0.00    -0.248 NA
ATOM     58  C   UNL A   1      42.222  32.016  36.693  1.00  0.00     0.031 C 
ATOM     59  C   UNL A   1      43.399  27.689  32.583  1.00  0.00     0.029 A 
ATOM     60  C   UNL A   1      42.823  28.766  33.239  1.00  0.00     0.049 A 
ATOM     61  H   UNL A   1      41.205  29.975  32.633  1.00  0.00     0.167 HD
ATOM     62  C   UNL A   1      42.593  30.414  35.089  1.00  0.00     0.074 A 
ATOM     63  C   UNL A   1      42.984  30.980  36.364  1.00  0.00     0.031 C 
ATOM     64  C   UNL A   1      43.187  29.336  34.516  1.00  0.00     0.034 A 
BRANCH  51  65
ATOM     65  C   UNL A   1      40.811  27.705  29.026  1.00  0.00     0.023 A 
ATOM     66  C   UNL A   1      41.741  27.875  27.987  1.00  0.00     0.031 A 
ATOM     67  C   UNL A   1      39.901  26.638  28.931  1.00  0.00     0.131 A 
ATOM     68  C   UNL A   1      41.710  27.021  26.874  1.00  0.00     0.055 A 
ATOM     69  C   UNL A   1      39.920  25.750  27.854  1.00  0.00     0.041 A 
ATOM     70  F   UNL A   1      38.974  26.444  29.882  1.00  0.00    -0.206 F 
ATOM     71  C   UNL A   1      40.822  25.945  26.813  1.00  0.00     0.022 A 
BRANCH  68  72
ATOM     72  S   UNL A   1      42.784  27.396  25.461  1.00  0.00     0.124 S 
ATOM     73  O   UNL A   1      44.027  27.772  26.128  1.00  0.00    -0.237 OA
ATOM     74  O   UNL A   1      42.805  26.131  24.736  1.00  0.00    -0.237 OA
ATOM     75  O   UNL A   1      42.090  28.490  24.785  1.00  0.00    -0.744 OA
ENDBRANCH  68  72
ENDBRANCH  51  65
BRANCH  52  76
ATOM     76  C   UNL A   1      40.266  34.220  36.641  1.00  0.00     0.023 A 
ATOM     77  C   UNL A   1      39.800  33.835  37.906  1.00  0.00     0.031 A 
ATOM     78  C   UNL A   1      40.692  35.549  36.467  1.00  0.00     0.131 A 
ATOM     79  C   UNL A   1      39.764  34.771  38.951  1.00  0.00     0.055 A 
ATOM     80  C   UNL A   1      40.689  36.466  37.518  1.00  0.00     0.041 A 
ATOM     81  F   UNL A   1      41.152  35.962  35.275  1.00  0.00    -0.206 F 
ATOM     82  C   UNL A   1      40.219  36.080  38.768  1.00  0.00     0.022 A 
BRANCH  79  83
ATOM     83  S   UNL A   1      39.100  34.257  40.558  1.00  0.00     0.124 S 
ATOM     84  O   UNL A   1      40.283  34.335  41.406  1.00  0.00    -0.237 OA
ATOM     85  O   UNL A   1      38.070  35.262  40.798  1.00  0.00    -0.237 OA
ATOM     86  O   UNL A   1      38.601  32.908  40.304  1.00  0.00    -0.744 OA
ENDBRANCH  79  83
ENDBRANCH  52  76
BRANCH  64  87
ATOM     87  C   UNL A   1      44.345  28.708  35.248  1.00  0.00     0.023 A 
ATOM     88  C   UNL A   1      44.146  27.718  36.223  1.00  0.00     0.031 A 
ATOM     89  C   UNL A   1      45.665  29.065  34.919  1.00  0.00     0.131 A 
ATOM     90  C   UNL A   1      45.253  27.134  36.858  1.00  0.00     0.055 A 
ATOM     91  C   UNL A   1      46.762  28.443  35.516  1.00  0.00     0.041 A 
ATOM     92  F   UNL A   1      45.908  30.003  33.991  1.00  0.00    -0.206 F 
ATOM     93  C   UNL A   1      46.559  27.476  36.496  1.00  0.00     0.022 A 
BRANCH  90  94
ATOM     94  S   UNL A   1      44.963  25.946  38.196  1.00  0.00     0.124 S 
ATOM     95  O   UNL A   1      46.188  26.070  38.980  1.00  0.00    -0.237 OA
ATOM     96  O   UNL A   1      43.751  26.464  38.821  1.00  0.00    -0.237 OA
ATOM     97  O   UNL A   1      44.802  24.673  37.495  1.00  0.00    -0.744 OA
ENDBRANCH  90  94
ENDBRANCH  64  87
ENDBRANCH  38  39
ENDBRANCH  31  33
ENDBRANCH  30  31
ENDBRANCH  29  30
ENDBRANCH  28  29
ENDBRANCH  27  28
ENDBRANCH   1  27
TORSDOF 22
ENDMDL
