MODEL 1
REMARK VINA RESULT:     -12.4      0.000      0.000
REMARK SMILES CC1=Nc2ncnn2[C@H](c2ccc(F)cc2)[C@@H]1C(=O)OCCOCCOC(=O)c1ccc(-c2c3nc(c(-c4cc(S(=O)(=O)[O-])ccc4F)c4ccc([nH]4)c(-c4cc(S(=O)(=O)[O-])ccc4F)c4nc(c(-c5cc(S(=O)(=O)[O-])ccc5F)c5ccc2[nH]5)C=C4)C=C3)cc1
REMARK SMILES IDX 24 1 23 2 22 3 21 4 20 5 18 6 19 7 17 8 1 9 2 10 3 11 4 12
REMARK SMILES IDX 9 13 5 14 8 15 6 16 7 17 10 18 11 19 16 20 12 21 15 22 13 23
REMARK SMILES IDX 14 24 25 25 26 26 27 27 28 28 29 29 30 30 91 31 31 32 90 33
REMARK SMILES IDX 32 34 33 35 34 36 84 37 35 38 89 39 83 40 85 41 36 42 88 43
REMARK SMILES IDX 82 44 81 45 37 47 69 48 49 49 68 50 50 51 53 52 67 53 86 54
REMARK SMILES IDX 51 55 52 56 66 58 87 59 54 60 38 61 39 62 47 63 40 64 46 65
REMARK SMILES IDX 48 66 45 67 41 68 42 69 43 70 44 71 70 72 71 73 79 74 72 75
REMARK SMILES IDX 78 76 80 77 77 78 73 79 74 80 75 81 76 82 55 83 56 84 64 85
REMARK SMILES IDX 57 86 63 87 65 88 62 89 58 90 59 91 60 92 61 93
REMARK H PARENT 85 46 53 57
REMARK Flexibility Score: inf
ROOT
ATOM      1  C   UNL A   1      40.016  21.220  26.142  1.00  0.00     0.202 C 
ENDROOT
BRANCH   1   2
ATOM      2  O   UNL A   1      38.600  20.822  25.462  1.00  0.00    -0.374 OA
BRANCH   2   3
ATOM      3  C   UNL A   1      37.514  21.658  25.002  1.00  0.00     0.202 C 
BRANCH   3   4
ATOM      4  C   UNL A   1      36.759  22.624  25.933  1.00  0.00     0.261 C 
BRANCH   4   5
ATOM      5  O   UNL A   1      35.973  23.621  25.270  1.00  0.00    -0.463 OA
BRANCH   5   6
ATOM      6  C   UNL A   1      34.932  23.169  24.535  1.00  0.00     0.317 C 
ATOM      7  O   UNL A   1      34.906  23.112  23.313  1.00  0.00    -0.251 OA
BRANCH   6   8
ATOM      8  C   UNL A   1      33.807  22.678  25.403  1.00  0.00     0.173 C 
ATOM      9  C   UNL A   1      33.812  20.322  24.267  1.00  0.00     0.063 C 
ATOM     10  C   UNL A   1      33.044  21.459  24.910  1.00  0.00     0.036 C 
ATOM     11  N   UNL A   1      31.792  21.226  25.164  1.00  0.00    -0.220 NA
ATOM     12  C   UNL A   1      31.093  22.126  25.895  1.00  0.00     0.248 A 
ATOM     13  C   UNL A   1      32.888  23.831  25.829  1.00  0.00     0.161 C 
ATOM     14  N   UNL A   1      29.892  22.031  26.423  1.00  0.00    -0.198 NA
ATOM     15  N   UNL A   1      31.592  23.349  26.236  1.00  0.00    -0.221 N 
ATOM     16  C   UNL A   1      29.726  23.215  27.090  1.00  0.00     0.248 A 
ATOM     17  N   UNL A   1      30.784  24.031  27.066  1.00  0.00    -0.157 NA
BRANCH  13  18
ATOM     18  C   UNL A   1      32.720  25.061  24.942  1.00  0.00    -0.022 A 
ATOM     19  C   UNL A   1      33.574  26.535  25.546  1.00  0.00     0.009 A 
ATOM     20  C   UNL A   1      32.105  25.049  23.253  1.00  0.00     0.009 A 
ATOM     21  C   UNL A   1      33.769  27.975  24.521  1.00  0.00     0.039 A 
ATOM     22  C   UNL A   1      32.351  26.537  22.183  1.00  0.00     0.039 A 
ATOM     23  C   UNL A   1      33.211  27.965  22.822  1.00  0.00     0.123 A 
ATOM     24  F   UNL A   1      33.325  29.076  22.087  1.00  0.00    -0.207 F 
ENDBRANCH  13  18
ENDBRANCH   6   8
ENDBRANCH   5   6
ENDBRANCH   4   5
ENDBRANCH   3   4
ENDBRANCH   2   3
ENDBRANCH   1   2
BRANCH   1  25
ATOM     25  C   UNL A   1      41.971  20.243  26.232  1.00  0.00     0.261 C 
BRANCH  25  26
ATOM     26  O   UNL A   1      43.395  20.913  26.067  1.00  0.00    -0.460 OA
BRANCH  26  27
ATOM     27  C   UNL A   1      44.188  20.705  24.985  1.00  0.00     0.338 C 
ATOM     28  O   UNL A   1      44.225  19.731  24.254  1.00  0.00    -0.246 OA
BRANCH  27  29
ATOM     29  C   UNL A   1      44.906  21.969  24.727  1.00  0.00     0.060 A 
ATOM     30  C   UNL A   1      45.993  22.200  25.562  1.00  0.00     0.016 A 
ATOM     31  C   UNL A   1      44.150  23.013  24.191  1.00  0.00     0.016 A 
ATOM     32  C   UNL A   1      45.908  23.329  26.332  1.00  0.00     0.010 A 
ATOM     33  C   UNL A   1      44.121  24.172  24.908  1.00  0.00     0.010 A 
ATOM     34  C   UNL A   1      44.839  24.204  26.097  1.00  0.00    -0.014 A 
BRANCH  34  35
ATOM     35  C   UNL A   1      44.572  25.290  27.011  1.00  0.00     0.031 A 
ATOM     36  C   UNL A   1      45.708  26.228  26.955  1.00  0.00     0.074 A 
ATOM     37  C   UNL A   1      43.424  25.438  27.713  1.00  0.00     0.049 A 
ATOM     38  N   UNL A   1      46.697  26.255  27.784  1.00  0.00    -0.248 NA
ATOM     39  C   UNL A   1      45.973  26.936  25.689  1.00  0.00     0.031 C 
ATOM     40  C   UNL A   1      42.209  24.617  27.746  1.00  0.00     0.029 A 
ATOM     41  N   UNL A   1      43.102  26.454  28.567  1.00  0.00    -0.354 N 
ATOM     42  C   UNL A   1      47.539  27.234  27.291  1.00  0.00     0.074 A 
ATOM     43  C   UNL A   1      47.215  27.375  25.900  1.00  0.00     0.031 C 
ATOM     44  C   UNL A   1      41.214  25.287  28.386  1.00  0.00     0.029 A 
ATOM     45  C   UNL A   1      41.744  26.528  28.928  1.00  0.00     0.049 A 
ATOM     46  H   UNL A   1      43.772  27.091  28.905  1.00  0.00     0.167 HD
ATOM     47  C   UNL A   1      48.153  28.089  28.148  1.00  0.00     0.034 A 
ATOM     48  C   UNL A   1      41.153  27.544  29.638  1.00  0.00     0.034 A 
ATOM     49  C   UNL A   1      48.130  27.567  29.498  1.00  0.00     0.049 A 
ATOM     50  C   UNL A   1      42.259  28.173  30.412  1.00  0.00     0.074 A 
ATOM     51  C   UNL A   1      48.640  26.439  30.112  1.00  0.00     0.029 A 
ATOM     52  N   UNL A   1      47.123  28.019  30.322  1.00  0.00    -0.354 N 
ATOM     53  N   UNL A   1      42.899  27.534  31.355  1.00  0.00    -0.248 NA
ATOM     54  C   UNL A   1      43.006  29.235  29.752  1.00  0.00     0.031 C 
ATOM     55  C   UNL A   1      47.614  26.007  31.005  1.00  0.00     0.029 A 
ATOM     56  C   UNL A   1      46.577  26.941  30.977  1.00  0.00     0.049 A 
ATOM     57  H   UNL A   1      46.843  28.956  30.424  1.00  0.00     0.167 HD
ATOM     58  C   UNL A   1      44.238  27.794  31.111  1.00  0.00     0.074 A 
ATOM     59  C   UNL A   1      44.241  28.877  30.121  1.00  0.00     0.031 C 
ATOM     60  C   UNL A   1      45.211  26.902  31.468  1.00  0.00     0.034 A 
BRANCH  47  61
ATOM     61  C   UNL A   1      48.353  29.553  27.853  1.00  0.00     0.023 A 
ATOM     62  C   UNL A   1      47.200  30.321  27.639  1.00  0.00     0.031 A 
ATOM     63  C   UNL A   1      49.581  30.163  27.497  1.00  0.00     0.131 A 
ATOM     64  C   UNL A   1      47.284  31.587  27.038  1.00  0.00     0.055 A 
ATOM     65  C   UNL A   1      49.664  31.441  26.946  1.00  0.00     0.041 A 
ATOM     66  F   UNL A   1      50.761  29.535  27.569  1.00  0.00    -0.206 F 
ATOM     67  C   UNL A   1      48.507  32.152  26.687  1.00  0.00     0.022 A 
BRANCH  64  68
ATOM     68  S   UNL A   1      45.745  32.437  26.618  1.00  0.00     0.124 S 
ATOM     69  O   UNL A   1      45.151  31.520  25.652  1.00  0.00    -0.237 OA
ATOM     70  O   UNL A   1      45.087  32.520  27.917  1.00  0.00    -0.237 OA
ATOM     71  O   UNL A   1      46.203  33.713  26.071  1.00  0.00    -0.744 OA
ENDBRANCH  64  68
ENDBRANCH  47  61
BRANCH  48  72
ATOM     72  C   UNL A   1      39.892  28.311  29.316  1.00  0.00     0.023 A 
ATOM     73  C   UNL A   1      39.046  28.880  30.313  1.00  0.00     0.031 A 
ATOM     74  C   UNL A   1      39.665  28.746  27.996  1.00  0.00     0.131 A 
ATOM     75  C   UNL A   1      38.056  29.842  29.966  1.00  0.00     0.055 A 
ATOM     76  C   UNL A   1      38.702  29.706  27.664  1.00  0.00     0.041 A 
ATOM     77  F   UNL A   1      40.434  28.321  26.984  1.00  0.00    -0.206 F 
ATOM     78  C   UNL A   1      37.903  30.268  28.647  1.00  0.00     0.022 A 
BRANCH  75  79
ATOM     79  S   UNL A   1      37.002  30.653  31.229  1.00  0.00     0.124 S 
ATOM     80  O   UNL A   1      37.907  31.646  31.797  1.00  0.00    -0.237 OA
ATOM     81  O   UNL A   1      35.888  31.167  30.441  1.00  0.00    -0.237 OA
ATOM     82  O   UNL A   1      36.651  29.558  32.137  1.00  0.00    -0.744 OA
ENDBRANCH  75  79
ENDBRANCH  48  72
BRANCH  60  83
ATOM     83  C   UNL A   1      44.819  25.721  32.341  1.00  0.00     0.023 A 
ATOM     84  C   UNL A   1      44.558  25.761  33.735  1.00  0.00     0.031 A 
ATOM     85  C   UNL A   1      44.589  24.507  31.672  1.00  0.00     0.131 A 
ATOM     86  C   UNL A   1      44.093  24.602  34.398  1.00  0.00     0.055 A 
ATOM     87  C   UNL A   1      44.108  23.376  32.326  1.00  0.00     0.041 A 
ATOM     88  F   UNL A   1      44.792  24.416  30.348  1.00  0.00    -0.206 F 
ATOM     89  C   UNL A   1      43.862  23.416  33.693  1.00  0.00     0.022 A 
BRANCH  86  90
ATOM     90  S   UNL A   1      43.772  24.604  36.198  1.00  0.00     0.124 S 
ATOM     91  O   UNL A   1      44.637  23.540  36.693  1.00  0.00    -0.237 OA
ATOM     92  O   UNL A   1      44.141  25.962  36.586  1.00  0.00    -0.237 OA
ATOM     93  O   UNL A   1      42.338  24.315  36.291  1.00  0.00    -0.744 OA
ENDBRANCH  86  90
ENDBRANCH  60  83
ENDBRANCH  34  35
ENDBRANCH  27  29
ENDBRANCH  26  27
ENDBRANCH  25  26
ENDBRANCH   1  25
TORSDOF 18
ENDMDL
MODEL 2
REMARK VINA RESULT:     -12.4      2.116      3.101
REMARK SMILES CC1=Nc2ncnn2[C@H](c2ccc(F)cc2)[C@@H]1C(=O)OCCOCCOC(=O)c1ccc(-c2c3nc(c(-c4cc(S(=O)(=O)[O-])ccc4F)c4ccc([nH]4)c(-c4cc(S(=O)(=O)[O-])ccc4F)c4nc(c(-c5cc(S(=O)(=O)[O-])ccc5F)c5ccc2[nH]5)C=C4)C=C3)cc1
REMARK SMILES IDX 24 1 23 2 22 3 21 4 20 5 18 6 19 7 17 8 1 9 2 10 3 11 4 12
REMARK SMILES IDX 9 13 5 14 8 15 6 16 7 17 10 18 11 19 16 20 12 21 15 22 13 23
REMARK SMILES IDX 14 24 25 25 26 26 27 27 28 28 29 29 30 30 91 31 31 32 90 33
REMARK SMILES IDX 32 34 33 35 34 36 84 37 35 38 89 39 83 40 85 41 36 42 88 43
REMARK SMILES IDX 82 44 81 45 37 47 69 48 49 49 68 50 50 51 53 52 67 53 86 54
REMARK SMILES IDX 51 55 52 56 66 58 87 59 54 60 38 61 39 62 47 63 40 64 46 65
REMARK SMILES IDX 48 66 45 67 41 68 42 69 43 70 44 71 70 72 71 73 79 74 72 75
REMARK SMILES IDX 78 76 80 77 77 78 73 79 74 80 75 81 76 82 55 83 56 84 64 85
REMARK SMILES IDX 57 86 63 87 65 88 62 89 58 90 59 91 60 92 61 93
REMARK H PARENT 85 46 53 57
REMARK Flexibility Score: inf
ROOT
ATOM      1  C   UNL A   1      40.186  21.409  26.274  1.00  0.00     0.202 C 
ENDROOT
BRANCH   1   2
ATOM      2  O   UNL A   1      38.674  21.249  25.714  1.00  0.00    -0.374 OA
BRANCH   2   3
ATOM      3  C   UNL A   1      37.715  22.250  25.306  1.00  0.00     0.202 C 
BRANCH   3   4
ATOM      4  C   UNL A   1      36.909  22.144  23.998  1.00  0.00     0.261 C 
BRANCH   4   5
ATOM      5  O   UNL A   1      35.503  21.925  24.163  1.00  0.00    -0.463 OA
BRANCH   5   6
ATOM      6  C   UNL A   1      34.686  22.746  23.464  1.00  0.00     0.317 C 
ATOM      7  O   UNL A   1      34.791  22.993  22.271  1.00  0.00    -0.251 OA
BRANCH   6   8
ATOM      8  C   UNL A   1      33.576  23.288  24.320  1.00  0.00     0.173 C 
ATOM      9  C   UNL A   1      35.233  24.692  25.775  1.00  0.00     0.063 C 
ATOM     10  C   UNL A   1      33.970  23.862  25.671  1.00  0.00     0.036 C 
ATOM     11  N   UNL A   1      33.206  23.856  26.721  1.00  0.00    -0.220 NA
ATOM     12  C   UNL A   1      31.982  23.285  26.638  1.00  0.00     0.248 A 
ATOM     13  C   UNL A   1      32.404  22.299  24.405  1.00  0.00     0.161 C 
ATOM     14  N   UNL A   1      30.980  23.312  27.490  1.00  0.00    -0.198 NA
ATOM     15  N   UNL A   1      31.574  22.564  25.554  1.00  0.00    -0.221 N 
ATOM     16  C   UNL A   1      29.987  22.611  26.861  1.00  0.00     0.248 A 
ATOM     17  N   UNL A   1      30.283  22.195  25.626  1.00  0.00    -0.157 NA
BRANCH  13  18
ATOM     18  C   UNL A   1      32.642  20.798  24.283  1.00  0.00    -0.022 A 
ATOM     19  C   UNL A   1      32.098  20.084  22.714  1.00  0.00     0.009 A 
ATOM     20  C   UNL A   1      33.711  19.824  25.352  1.00  0.00     0.009 A 
ATOM     21  C   UNL A   1      32.560  18.433  22.241  1.00  0.00     0.039 A 
ATOM     22  C   UNL A   1      34.218  18.124  24.829  1.00  0.00     0.039 A 
ATOM     23  C   UNL A   1      33.664  17.468  23.264  1.00  0.00     0.123 A 
ATOM     24  F   UNL A   1      33.956  16.211  22.911  1.00  0.00    -0.207 F 
ENDBRANCH  13  18
ENDBRANCH   6   8
ENDBRANCH   5   6
ENDBRANCH   4   5
ENDBRANCH   3   4
ENDBRANCH   2   3
ENDBRANCH   1   2
BRANCH   1  25
ATOM     25  C   UNL A   1      41.972  20.152  26.171  1.00  0.00     0.261 C 
BRANCH  25  26
ATOM     26  O   UNL A   1      43.475  20.619  26.001  1.00  0.00    -0.460 OA
BRANCH  26  27
ATOM     27  C   UNL A   1      44.196  20.391  24.875  1.00  0.00     0.338 C 
ATOM     28  O   UNL A   1      44.192  19.401  24.165  1.00  0.00    -0.246 OA
BRANCH  27  29
ATOM     29  C   UNL A   1      44.889  21.652  24.542  1.00  0.00     0.060 A 
ATOM     30  C   UNL A   1      45.998  21.931  25.332  1.00  0.00     0.016 A 
ATOM     31  C   UNL A   1      44.102  22.663  23.987  1.00  0.00     0.016 A 
ATOM     32  C   UNL A   1      45.920  23.091  26.057  1.00  0.00     0.010 A 
ATOM     33  C   UNL A   1      44.079  23.850  24.656  1.00  0.00     0.010 A 
ATOM     34  C   UNL A   1      44.833  23.941  25.819  1.00  0.00    -0.014 A 
BRANCH  34  35
ATOM     35  C   UNL A   1      44.579  25.061  26.696  1.00  0.00     0.031 A 
ATOM     36  C   UNL A   1      45.703  26.006  26.572  1.00  0.00     0.074 A 
ATOM     37  C   UNL A   1      43.447  25.227  27.420  1.00  0.00     0.049 A 
ATOM     38  N   UNL A   1      46.713  26.075  27.373  1.00  0.00    -0.248 NA
ATOM     39  C   UNL A   1      45.929  26.664  25.272  1.00  0.00     0.031 C 
ATOM     40  C   UNL A   1      42.242  24.398  27.519  1.00  0.00     0.029 A 
ATOM     41  N   UNL A   1      43.137  26.275  28.241  1.00  0.00    -0.354 N 
ATOM     42  C   UNL A   1      47.532  27.041  26.819  1.00  0.00     0.074 A 
ATOM     43  C   UNL A   1      47.171  27.123  25.432  1.00  0.00     0.031 C 
ATOM     44  C   UNL A   1      41.257  25.085  28.157  1.00  0.00     0.029 A 
ATOM     45  C   UNL A   1      41.789  26.351  28.634  1.00  0.00     0.049 A 
ATOM     46  H   UNL A   1      43.810  26.930  28.536  1.00  0.00     0.167 HD
ATOM     47  C   UNL A   1      48.160  27.935  27.624  1.00  0.00     0.034 A 
ATOM     48  C   UNL A   1      41.206  27.390  29.317  1.00  0.00     0.034 A 
ATOM     49  C   UNL A   1      48.177  27.468  28.994  1.00  0.00     0.049 A 
ATOM     50  C   UNL A   1      42.326  28.059  30.036  1.00  0.00     0.074 A 
ATOM     51  C   UNL A   1      48.714  26.371  29.640  1.00  0.00     0.029 A 
ATOM     52  N   UNL A   1      47.187  27.944  29.825  1.00  0.00    -0.354 N 
ATOM     53  N   UNL A   1      42.996  27.465  30.987  1.00  0.00    -0.248 NA
ATOM     54  C   UNL A   1      43.045  29.101  29.315  1.00  0.00     0.031 C 
ATOM     55  C   UNL A   1      47.715  25.967  30.576  1.00  0.00     0.029 A 
ATOM     56  C   UNL A   1      46.668  26.889  30.538  1.00  0.00     0.049 A 
ATOM     57  H   UNL A   1      46.900  28.883  29.897  1.00  0.00     0.167 HD
ATOM     58  C   UNL A   1      44.326  27.726  30.698  1.00  0.00     0.074 A 
ATOM     59  C   UNL A   1      44.292  28.769  29.665  1.00  0.00     0.031 C 
ATOM     60  C   UNL A   1      45.316  26.859  31.065  1.00  0.00     0.034 A 
BRANCH  47  61
ATOM     61  C   UNL A   1      48.338  29.388  27.265  1.00  0.00     0.023 A 
ATOM     62  C   UNL A   1      49.613  29.938  27.460  1.00  0.00     0.031 A 
ATOM     63  C   UNL A   1      47.293  30.313  27.020  1.00  0.00     0.131 A 
ATOM     64  C   UNL A   1      49.798  31.329  27.478  1.00  0.00     0.055 A 
ATOM     65  C   UNL A   1      47.491  31.692  26.990  1.00  0.00     0.041 A 
ATOM     66  F   UNL A   1      46.011  29.953  26.889  1.00  0.00    -0.206 F 
ATOM     67  C   UNL A   1      48.745  32.212  27.247  1.00  0.00     0.022 A 
BRANCH  64  68
ATOM     68  S   UNL A   1      51.428  31.970  27.924  1.00  0.00     0.124 S 
ATOM     69  O   UNL A   1      52.048  30.803  28.541  1.00  0.00    -0.237 OA
ATOM     70  O   UNL A   1      51.957  32.369  26.624  1.00  0.00    -0.237 OA
ATOM     71  O   UNL A   1      51.121  33.071  28.835  1.00  0.00    -0.744 OA
ENDBRANCH  64  68
ENDBRANCH  47  61
BRANCH  48  72
ATOM     72  C   UNL A   1      39.930  28.132  28.998  1.00  0.00     0.023 A 
ATOM     73  C   UNL A   1      39.092  28.713  29.995  1.00  0.00     0.031 A 
ATOM     74  C   UNL A   1      39.676  28.533  27.672  1.00  0.00     0.131 A 
ATOM     75  C   UNL A   1      38.083  29.653  29.641  1.00  0.00     0.055 A 
ATOM     76  C   UNL A   1      38.694  29.471  27.333  1.00  0.00     0.041 A 
ATOM     77  F   UNL A   1      40.435  28.094  26.658  1.00  0.00    -0.206 F 
ATOM     78  C   UNL A   1      37.903  30.046  28.315  1.00  0.00     0.022 A 
BRANCH  75  79
ATOM     79  S   UNL A   1      37.039  30.480  30.902  1.00  0.00     0.124 S 
ATOM     80  O   UNL A   1      36.389  31.531  30.126  1.00  0.00    -0.237 OA
ATOM     81  O   UNL A   1      36.180  29.398  31.372  1.00  0.00    -0.237 OA
ATOM     82  O   UNL A   1      38.008  30.960  31.889  1.00  0.00    -0.744 OA
ENDBRANCH  75  79
ENDBRANCH  48  72
BRANCH  60  83
ATOM     83  C   UNL A   1      44.959  25.710  31.995  1.00  0.00     0.023 A 
ATOM     84  C   UNL A   1      44.797  25.793  33.402  1.00  0.00     0.031 A 
ATOM     85  C   UNL A   1      44.654  24.487  31.378  1.00  0.00     0.131 A 
ATOM     86  C   UNL A   1      44.353  24.663  34.128  1.00  0.00     0.055 A 
ATOM     87  C   UNL A   1      44.194  23.385  32.094  1.00  0.00     0.041 A 
ATOM     88  F   UNL A   1      44.762  24.356  30.045  1.00  0.00    -0.206 F 
ATOM     89  C   UNL A   1      44.045  23.466  33.472  1.00  0.00     0.022 A 
BRANCH  86  90
ATOM     90  S   UNL A   1      44.158  24.720  35.944  1.00  0.00     0.124 S 
ATOM     91  O   UNL A   1      45.080  23.691  36.411  1.00  0.00    -0.237 OA
ATOM     92  O   UNL A   1      44.521  26.097  36.261  1.00  0.00    -0.237 OA
ATOM     93  O   UNL A   1      42.741  24.404  36.148  1.00  0.00    -0.744 OA
ENDBRANCH  86  90
ENDBRANCH  60  83
ENDBRANCH  34  35
ENDBRANCH  27  29
ENDBRANCH  26  27
ENDBRANCH  25  26
ENDBRANCH   1  25
TORSDOF 18
ENDMDL
MODEL 3
REMARK VINA RESULT:     -12.2      3.740      5.452
REMARK SMILES CC1=Nc2ncnn2[C@H](c2ccc(F)cc2)[C@@H]1C(=O)OCCOCCOC(=O)c1ccc(-c2c3nc(c(-c4cc(S(=O)(=O)[O-])ccc4F)c4ccc([nH]4)c(-c4cc(S(=O)(=O)[O-])ccc4F)c4nc(c(-c5cc(S(=O)(=O)[O-])ccc5F)c5ccc2[nH]5)C=C4)C=C3)cc1
REMARK SMILES IDX 24 1 23 2 22 3 21 4 20 5 18 6 19 7 17 8 1 9 2 10 3 11 4 12
REMARK SMILES IDX 9 13 5 14 8 15 6 16 7 17 10 18 11 19 16 20 12 21 15 22 13 23
REMARK SMILES IDX 14 24 25 25 26 26 27 27 28 28 29 29 30 30 91 31 31 32 90 33
REMARK SMILES IDX 32 34 33 35 34 36 84 37 35 38 89 39 83 40 85 41 36 42 88 43
REMARK SMILES IDX 82 44 81 45 37 47 69 48 49 49 68 50 50 51 53 52 67 53 86 54
REMARK SMILES IDX 51 55 52 56 66 58 87 59 54 60 38 61 39 62 47 63 40 64 46 65
REMARK SMILES IDX 48 66 45 67 41 68 42 69 43 70 44 71 70 72 71 73 79 74 72 75
REMARK SMILES IDX 78 76 80 77 77 78 73 79 74 80 75 81 76 82 55 83 56 84 64 85
REMARK SMILES IDX 57 86 63 87 65 88 62 89 58 90 59 91 60 92 61 93
REMARK H PARENT 85 46 53 57
REMARK Flexibility Score: inf
ROOT
ATOM      1  C   UNL A   1      40.701  21.037  26.229  1.00  0.00     0.202 C 
ENDROOT
BRANCH   1   2
ATOM      2  O   UNL A   1      39.131  20.858  25.869  1.00  0.00    -0.374 OA
BRANCH   2   3
ATOM      3  C   UNL A   1      38.136  21.839  25.501  1.00  0.00     0.202 C 
BRANCH   3   4
ATOM      4  C   UNL A   1      37.263  21.704  24.240  1.00  0.00     0.261 C 
BRANCH   4   5
ATOM      5  O   UNL A   1      35.850  21.740  24.468  1.00  0.00    -0.463 OA
BRANCH   5   6
ATOM      6  C   UNL A   1      35.149  22.630  23.730  1.00  0.00     0.317 C 
ATOM      7  O   UNL A   1      35.350  22.878  22.549  1.00  0.00    -0.251 OA
BRANCH   6   8
ATOM      8  C   UNL A   1      34.035  23.256  24.521  1.00  0.00     0.173 C 
ATOM      9  C   UNL A   1      35.705  24.465  26.129  1.00  0.00     0.063 C 
ATOM     10  C   UNL A   1      34.381  23.760  25.913  1.00  0.00     0.036 C 
ATOM     11  N   UNL A   1      33.547  23.803  26.906  1.00  0.00    -0.220 NA
ATOM     12  C   UNL A   1      32.284  23.352  26.721  1.00  0.00     0.248 A 
ATOM     13  C   UNL A   1      32.773  22.381  24.496  1.00  0.00     0.161 C 
ATOM     14  N   UNL A   1      31.230  23.455  27.502  1.00  0.00    -0.198 NA
ATOM     15  N   UNL A   1      31.891  22.697  25.591  1.00  0.00    -0.221 N 
ATOM     16  C   UNL A   1      30.225  22.865  26.785  1.00  0.00     0.248 A 
ATOM     17  N   UNL A   1      30.569  22.450  25.562  1.00  0.00    -0.157 NA
BRANCH  13  18
ATOM     18  C   UNL A   1      32.880  20.867  24.347  1.00  0.00    -0.022 A 
ATOM     19  C   UNL A   1      32.221  20.224  22.792  1.00  0.00     0.009 A 
ATOM     20  C   UNL A   1      33.901  19.791  25.364  1.00  0.00     0.009 A 
ATOM     21  C   UNL A   1      32.525  18.548  22.282  1.00  0.00     0.039 A 
ATOM     22  C   UNL A   1      34.244  18.062  24.802  1.00  0.00     0.039 A 
ATOM     23  C   UNL A   1      33.580  17.478  23.252  1.00  0.00     0.123 A 
ATOM     24  F   UNL A   1      33.752  16.207  22.874  1.00  0.00    -0.207 F 
ENDBRANCH  13  18
ENDBRANCH   6   8
ENDBRANCH   5   6
ENDBRANCH   4   5
ENDBRANCH   3   4
ENDBRANCH   2   3
ENDBRANCH   1   2
BRANCH   1  25
ATOM     25  C   UNL A   1      42.273  22.369  25.495  1.00  0.00     0.261 C 
BRANCH  25  26
ATOM     26  O   UNL A   1      43.131  23.403  26.330  1.00  0.00    -0.460 OA
BRANCH  26  27
ATOM     27  C   UNL A   1      42.823  24.722  26.412  1.00  0.00     0.338 C 
ATOM     28  O   UNL A   1      43.033  25.597  25.591  1.00  0.00    -0.246 OA
BRANCH  27  29
ATOM     29  C   UNL A   1      42.010  24.901  27.631  1.00  0.00     0.060 A 
ATOM     30  C   UNL A   1      40.699  25.304  27.401  1.00  0.00     0.016 A 
ATOM     31  C   UNL A   1      42.701  25.259  28.789  1.00  0.00     0.016 A 
ATOM     32  C   UNL A   1      40.355  26.510  27.951  1.00  0.00     0.010 A 
ATOM     33  C   UNL A   1      42.314  26.418  29.394  1.00  0.00     0.010 A 
ATOM     34  C   UNL A   1      41.278  27.130  28.803  1.00  0.00    -0.014 A 
BRANCH  34  35
ATOM     35  C   UNL A   1      41.068  28.492  29.237  1.00  0.00     0.031 A 
ATOM     36  C   UNL A   1      42.075  29.344  28.580  1.00  0.00     0.074 A 
ATOM     37  C   UNL A   1      40.052  28.894  30.036  1.00  0.00     0.049 A 
ATOM     38  N   UNL A   1      43.187  29.732  29.110  1.00  0.00    -0.248 NA
ATOM     39  C   UNL A   1      42.040  29.470  27.112  1.00  0.00     0.031 C 
ATOM     40  C   UNL A   1      38.952  28.137  30.641  1.00  0.00     0.029 A 
ATOM     41  N   UNL A   1      39.784  30.166  30.455  1.00  0.00    -0.354 N 
ATOM     42  C   UNL A   1      43.825  30.435  28.106  1.00  0.00     0.074 A 
ATOM     43  C   UNL A   1      43.248  29.981  26.872  1.00  0.00     0.031 C 
ATOM     44  C   UNL A   1      38.022  28.993  31.145  1.00  0.00     0.029 A 
ATOM     45  C   UNL A   1      38.511  30.356  31.023  1.00  0.00     0.049 A 
ATOM     46  H   UNL A   1      40.435  30.899  30.367  1.00  0.00     0.167 HD
ATOM     47  C   UNL A   1      44.491  31.580  28.404  1.00  0.00     0.034 A 
ATOM     48  C   UNL A   1      37.954  31.563  31.368  1.00  0.00     0.034 A 
ATOM     49  C   UNL A   1      44.759  31.663  29.823  1.00  0.00     0.049 A 
ATOM     50  C   UNL A   1      39.110  32.477  31.583  1.00  0.00     0.074 A 
ATOM     51  C   UNL A   1      45.480  30.901  30.722  1.00  0.00     0.029 A 
ATOM     52  N   UNL A   1      43.872  32.396  30.581  1.00  0.00    -0.354 N 
ATOM     53  N   UNL A   1      39.967  32.299  32.553  1.00  0.00    -0.248 NA
ATOM     54  C   UNL A   1      39.617  33.186  30.416  1.00  0.00     0.031 C 
ATOM     55  C   UNL A   1      44.677  30.857  31.901  1.00  0.00     0.029 A 
ATOM     56  C   UNL A   1      43.562  31.675  31.710  1.00  0.00     0.049 A 
ATOM     57  H   UNL A   1      43.520  33.286  30.353  1.00  0.00     0.167 HD
ATOM     58  C   UNL A   1      41.209  32.461  31.959  1.00  0.00     0.074 A 
ATOM     59  C   UNL A   1      40.927  33.038  30.639  1.00  0.00     0.031 C 
ATOM     60  C   UNL A   1      42.315  31.816  32.440  1.00  0.00     0.034 A 
BRANCH  47  61
ATOM     61  C   UNL A   1      44.487  32.794  27.511  1.00  0.00     0.023 A 
ATOM     62  C   UNL A   1      43.776  33.914  27.965  1.00  0.00     0.031 A 
ATOM     63  C   UNL A   1      44.887  32.822  26.152  1.00  0.00     0.131 A 
ATOM     64  C   UNL A   1      43.433  34.951  27.084  1.00  0.00     0.055 A 
ATOM     65  C   UNL A   1      44.587  33.878  25.293  1.00  0.00     0.041 A 
ATOM     66  F   UNL A   1      45.505  31.800  25.549  1.00  0.00    -0.206 F 
ATOM     67  C   UNL A   1      43.831  34.940  25.749  1.00  0.00     0.022 A 
BRANCH  64  68
ATOM     68  S   UNL A   1      42.354  36.268  27.691  1.00  0.00     0.124 S 
ATOM     69  O   UNL A   1      42.283  37.153  26.534  1.00  0.00    -0.237 OA
ATOM     70  O   UNL A   1      41.136  35.530  28.012  1.00  0.00    -0.237 OA
ATOM     71  O   UNL A   1      43.081  36.797  28.842  1.00  0.00    -0.744 OA
ENDBRANCH  64  68
ENDBRANCH  47  61
BRANCH  48  72
ATOM     72  C   UNL A   1      36.585  32.103  31.027  1.00  0.00     0.023 A 
ATOM     73  C   UNL A   1      35.939  33.129  31.778  1.00  0.00     0.031 A 
ATOM     74  C   UNL A   1      36.021  31.814  29.769  1.00  0.00     0.131 A 
ATOM     75  C   UNL A   1      34.807  33.814  31.252  1.00  0.00     0.055 A 
ATOM     76  C   UNL A   1      34.919  32.505  29.250  1.00  0.00     0.041 A 
ATOM     77  F   UNL A   1      36.575  30.907  28.953  1.00  0.00    -0.206 F 
ATOM     78  C   UNL A   1      34.316  33.515  29.982  1.00  0.00     0.022 A 
BRANCH  75  79
ATOM     79  S   UNL A   1      33.998  35.191  32.154  1.00  0.00     0.124 S 
ATOM     80  O   UNL A   1      32.927  34.506  32.870  1.00  0.00    -0.237 OA
ATOM     81  O   UNL A   1      35.082  35.727  32.969  1.00  0.00    -0.237 OA
ATOM     82  O   UNL A   1      33.544  36.082  31.084  1.00  0.00    -0.744 OA
ENDBRANCH  75  79
ENDBRANCH  48  72
BRANCH  60  83
ATOM     83  C   UNL A   1      42.204  31.095  33.773  1.00  0.00     0.023 A 
ATOM     84  C   UNL A   1      41.968  29.708  33.957  1.00  0.00     0.031 A 
ATOM     85  C   UNL A   1      42.473  31.864  34.917  1.00  0.00     0.131 A 
ATOM     86  C   UNL A   1      42.001  29.154  35.258  1.00  0.00     0.055 A 
ATOM     87  C   UNL A   1      42.528  31.309  36.193  1.00  0.00     0.041 A 
ATOM     88  F   UNL A   1      42.731  33.178  34.804  1.00  0.00    -0.206 F 
ATOM     89  C   UNL A   1      42.288  29.952  36.370  1.00  0.00     0.022 A 
BRANCH  86  90
ATOM     90  S   UNL A   1      41.675  27.377  35.539  1.00  0.00     0.124 S 
ATOM     91  O   UNL A   1      41.089  27.353  36.874  1.00  0.00    -0.237 OA
ATOM     92  O   UNL A   1      40.777  27.039  34.440  1.00  0.00    -0.237 OA
ATOM     93  O   UNL A   1      43.004  26.765  35.447  1.00  0.00    -0.744 OA
ENDBRANCH  86  90
ENDBRANCH  60  83
ENDBRANCH  34  35
ENDBRANCH  27  29
ENDBRANCH  26  27
ENDBRANCH  25  26
ENDBRANCH   1  25
TORSDOF 18
ENDMDL
