MODEL 1
REMARK VINA RESULT:     -10.3      0.000      0.000
REMARK SMILES Cc1ccc(C)c(NS(=O)(=O)c2cc(C(=O)OCCOCCOC(=O)c3ccc(-c4c5nc(c(-c6cc(S(=O)(=O)[O-])ccc6F)c6ccc([nH]6)c(-c6cc(S(=O)(=O)[O-])ccc6F)c6nc(c(-c7cc(S(=O)(=O)[O-])ccc7F)c7ccc4[nH]7)C=C6)C=C5)cc3)ccc2Cl)c1
REMARK SMILES IDX 20 1 19 2 18 3 17 4 15 5 16 6 14 7 12 8 13 9 91 10 90 11
REMARK SMILES IDX 92 12 89 13 9 14 10 15 11 16 8 17 7 19 1 20 2 21 3 22 93 23
REMARK SMILES IDX 4 24 5 25 6 26 21 27 22 28 23 29 24 30 25 31 26 32 27 33
REMARK SMILES IDX 88 34 28 35 87 36 29 37 30 38 31 39 81 40 32 41 86 42 80 43
REMARK SMILES IDX 82 44 33 45 85 46 79 47 78 48 34 50 66 51 46 52 65 53 47 54
REMARK SMILES IDX 50 55 64 56 83 57 48 58 49 59 63 61 84 62 51 63 35 64 36 65
REMARK SMILES IDX 44 66 37 67 43 68 45 69 42 70 38 71 39 72 40 73 41 74 67 75
REMARK SMILES IDX 68 76 76 77 69 78 75 79 77 80 74 81 70 82 71 83 72 84 73 85
REMARK SMILES IDX 52 86 53 87 61 88 54 89 60 90 62 91 59 92 55 93 56 94 57 95
REMARK SMILES IDX 58 96
REMARK H PARENT 8 18 82 49 50 60
REMARK Flexibility Score: inf
ROOT
ATOM      1  O   UNL A   1      42.066  19.468  25.389  1.00  0.00    -0.374 OA
ENDROOT
BRANCH   1   2
ATOM      2  C   UNL A   1      43.314  19.092  25.957  1.00  0.00     0.202 C 
BRANCH   2   3
ATOM      3  C   UNL A   1      44.283  18.779  24.806  1.00  0.00     0.261 C 
BRANCH   3   4
ATOM      4  O   UNL A   1      44.533  20.027  24.138  1.00  0.00    -0.460 OA
BRANCH   4   5
ATOM      5  C   UNL A   1      45.591  20.699  24.661  1.00  0.00     0.338 C 
ATOM      6  O   UNL A   1      46.731  20.275  24.701  1.00  0.00    -0.246 OA
BRANCH   5   7
ATOM      7  C   UNL A   1      45.232  22.125  24.904  1.00  0.00     0.061 A 
ATOM      8  C   UNL A   1      45.773  24.347  25.770  1.00  0.00     0.107 A 
ATOM      9  C   UNL A   1      46.149  23.016  25.494  1.00  0.00     0.039 A 
ATOM     10  C   UNL A   1      44.569  24.838  25.266  1.00  0.00     0.061 A 
ATOM     11  C   UNL A   1      43.680  23.958  24.642  1.00  0.00     0.023 A 
ATOM     12  Cl  UNL A   1      44.058  26.483  25.352  1.00  0.00    -0.083 Cl
ATOM     13  C   UNL A   1      43.988  22.607  24.502  1.00  0.00     0.017 A 
BRANCH   8  14
ATOM     14  S   UNL A   1      46.800  25.345  26.827  1.00  0.00     0.263 S 
ATOM     15  O   UNL A   1      47.459  26.342  26.008  1.00  0.00    -0.201 OA
ATOM     16  O   UNL A   1      47.627  24.440  27.601  1.00  0.00    -0.201 OA
BRANCH  14  17
ATOM     17  N   UNL A   1      45.805  26.121  27.975  1.00  0.00    -0.279 N 
ATOM     18  H   UNL A   1      44.984  26.568  27.669  1.00  0.00     0.180 HD
BRANCH  17  19
ATOM     19  C   UNL A   1      46.130  26.143  29.375  1.00  0.00     0.052 A 
ATOM     20  C   UNL A   1      44.515  24.983  32.629  1.00  0.00     0.044 C 
ATOM     21  C   UNL A   1      45.507  25.535  31.650  1.00  0.00    -0.049 A 
ATOM     22  C   UNL A   1      46.641  26.191  32.137  1.00  0.00     0.004 A 
ATOM     23  C   UNL A   1      45.295  25.456  30.261  1.00  0.00     0.030 A 
ATOM     24  C   UNL A   1      47.440  26.919  31.268  1.00  0.00     0.006 A 
ATOM     25  C   UNL A   1      47.130  26.974  29.904  1.00  0.00    -0.027 A 
ATOM     26  C   UNL A   1      47.788  28.068  29.129  1.00  0.00     0.046 C 
ENDBRANCH  17  19
ENDBRANCH  14  17
ENDBRANCH   8  14
ENDBRANCH   5   7
ENDBRANCH   4   5
ENDBRANCH   3   4
ENDBRANCH   2   3
ENDBRANCH   1   2
BRANCH   1  27
ATOM     27  C   UNL A   1      41.296  20.461  26.039  1.00  0.00     0.202 C 
BRANCH  27  28
ATOM     28  C   UNL A   1      41.992  21.049  27.269  1.00  0.00     0.261 C 
BRANCH  28  29
ATOM     29  O   UNL A   1      41.984  22.494  27.320  1.00  0.00    -0.460 OA
BRANCH  29  30
ATOM     30  C   UNL A   1      40.751  23.072  27.265  1.00  0.00     0.338 C 
ATOM     31  O   UNL A   1      39.737  22.496  26.907  1.00  0.00    -0.246 OA
BRANCH  30  32
ATOM     32  C   UNL A   1      40.869  24.522  27.580  1.00  0.00     0.060 A 
ATOM     33  C   UNL A   1      42.009  24.972  28.255  1.00  0.00     0.016 A 
ATOM     34  C   UNL A   1      39.742  25.350  27.466  1.00  0.00     0.016 A 
ATOM     35  C   UNL A   1      41.957  26.196  28.926  1.00  0.00     0.010 A 
ATOM     36  C   UNL A   1      39.677  26.539  28.183  1.00  0.00     0.010 A 
ATOM     37  C   UNL A   1      40.772  26.959  28.944  1.00  0.00    -0.014 A 
BRANCH  37  38
ATOM     38  C   UNL A   1      40.827  28.381  29.329  1.00  0.00     0.031 A 
ATOM     39  C   UNL A   1      41.920  29.014  28.589  1.00  0.00     0.074 A 
ATOM     40  C   UNL A   1      40.102  29.155  30.172  1.00  0.00     0.049 A 
ATOM     41  N   UNL A   1      43.069  29.265  29.120  1.00  0.00    -0.248 NA
ATOM     42  C   UNL A   1      41.875  29.144  27.128  1.00  0.00     0.031 C 
ATOM     43  C   UNL A   1      39.119  28.735  31.153  1.00  0.00     0.029 A 
ATOM     44  N   UNL A   1      40.077  30.532  30.324  1.00  0.00    -0.354 N 
ATOM     45  C   UNL A   1      43.762  29.916  28.132  1.00  0.00     0.074 A 
ATOM     46  C   UNL A   1      43.116  29.577  26.888  1.00  0.00     0.031 C 
ATOM     47  C   UNL A   1      38.425  29.791  31.612  1.00  0.00     0.029 A 
ATOM     48  C   UNL A   1      38.971  30.993  31.033  1.00  0.00     0.049 A 
ATOM     49  H   UNL A   1      40.774  31.127  29.965  1.00  0.00     0.167 HD
ATOM     50  C   UNL A   1      44.523  30.980  28.479  1.00  0.00     0.034 A 
ATOM     51  C   UNL A   1      38.609  32.217  31.493  1.00  0.00     0.034 A 
ATOM     52  C   UNL A   1      44.791  31.020  29.902  1.00  0.00     0.049 A 
ATOM     53  C   UNL A   1      39.850  32.865  31.940  1.00  0.00     0.074 A 
ATOM     54  C   UNL A   1      45.562  30.300  30.790  1.00  0.00     0.029 A 
ATOM     55  N   UNL A   1      43.866  31.708  30.647  1.00  0.00    -0.354 N 
ATOM     56  N   UNL A   1      40.547  32.443  32.958  1.00  0.00    -0.248 NA
ATOM     57  C   UNL A   1      40.549  33.748  31.019  1.00  0.00     0.031 C 
ATOM     58  C   UNL A   1      45.001  30.505  32.086  1.00  0.00     0.029 A 
ATOM     59  C   UNL A   1      43.910  31.360  31.977  1.00  0.00     0.049 A 
ATOM     60  H   UNL A   1      43.243  32.373  30.273  1.00  0.00     0.167 HD
ATOM     61  C   UNL A   1      41.855  32.605  32.546  1.00  0.00     0.074 A 
ATOM     62  C   UNL A   1      41.798  33.564  31.450  1.00  0.00     0.031 C 
ATOM     63  C   UNL A   1      42.821  31.704  32.879  1.00  0.00     0.034 A 
BRANCH  50  64
ATOM     64  C   UNL A   1      44.605  32.209  27.623  1.00  0.00     0.023 A 
ATOM     65  C   UNL A   1      43.984  33.370  28.097  1.00  0.00     0.031 A 
ATOM     66  C   UNL A   1      45.019  32.219  26.268  1.00  0.00     0.131 A 
ATOM     67  C   UNL A   1      43.784  34.463  27.240  1.00  0.00     0.055 A 
ATOM     68  C   UNL A   1      44.890  33.336  25.445  1.00  0.00     0.041 A 
ATOM     69  F   UNL A   1      45.463  31.123  25.640  1.00  0.00    -0.206 F 
ATOM     70  C   UNL A   1      44.252  34.463  25.926  1.00  0.00     0.022 A 
BRANCH  67  71
ATOM     71  S   UNL A   1      42.773  35.839  27.833  1.00  0.00     0.124 S 
ATOM     72  O   UNL A   1      42.808  35.634  29.277  1.00  0.00    -0.237 OA
ATOM     73  O   UNL A   1      43.509  36.992  27.326  1.00  0.00    -0.237 OA
ATOM     74  O   UNL A   1      41.478  35.601  27.200  1.00  0.00    -0.744 OA
ENDBRANCH  67  71
ENDBRANCH  50  64
BRANCH  51  75
ATOM     75  C   UNL A   1      37.233  32.761  31.644  1.00  0.00     0.023 A 
ATOM     76  C   UNL A   1      36.483  33.288  30.574  1.00  0.00     0.031 A 
ATOM     77  C   UNL A   1      36.534  32.528  32.852  1.00  0.00     0.131 A 
ATOM     78  C   UNL A   1      35.095  33.528  30.725  1.00  0.00     0.055 A 
ATOM     79  C   UNL A   1      35.166  32.774  32.998  1.00  0.00     0.041 A 
ATOM     80  F   UNL A   1      37.149  31.972  33.907  1.00  0.00    -0.206 F 
ATOM     81  C   UNL A   1      34.435  33.260  31.926  1.00  0.00     0.022 A 
BRANCH  78  82
ATOM     82  S   UNL A   1      34.095  34.071  29.300  1.00  0.00     0.124 S 
ATOM     83  O   UNL A   1      33.902  32.828  28.565  1.00  0.00    -0.237 OA
ATOM     84  O   UNL A   1      32.913  34.638  29.941  1.00  0.00    -0.237 OA
ATOM     85  O   UNL A   1      34.954  35.052  28.635  1.00  0.00    -0.744 OA
ENDBRANCH  78  82
ENDBRANCH  51  75
BRANCH  63  86
ATOM     86  C   UNL A   1      42.691  30.991  34.203  1.00  0.00     0.023 A 
ATOM     87  C   UNL A   1      42.349  29.633  34.380  1.00  0.00     0.031 A 
ATOM     88  C   UNL A   1      42.938  31.756  35.358  1.00  0.00     0.131 A 
ATOM     89  C   UNL A   1      42.256  29.093  35.681  1.00  0.00     0.055 A 
ATOM     90  C   UNL A   1      42.865  31.217  36.641  1.00  0.00     0.041 A 
ATOM     91  F   UNL A   1      43.263  33.057  35.257  1.00  0.00    -0.206 F 
ATOM     92  C   UNL A   1      42.519  29.882  36.808  1.00  0.00     0.022 A 
BRANCH  89  93
ATOM     93  S   UNL A   1      41.755  27.359  35.932  1.00  0.00     0.124 S 
ATOM     94  O   UNL A   1      40.944  27.416  37.142  1.00  0.00    -0.237 OA
ATOM     95  O   UNL A   1      41.033  27.037  34.705  1.00  0.00    -0.237 OA
ATOM     96  O   UNL A   1      43.026  26.648  36.088  1.00  0.00    -0.744 OA
ENDBRANCH  89  93
ENDBRANCH  63  86
ENDBRANCH  37  38
ENDBRANCH  30  32
ENDBRANCH  29  30
ENDBRANCH  28  29
ENDBRANCH  27  28
ENDBRANCH   1  27
TORSDOF 20
ENDMDL
MODEL 2
REMARK VINA RESULT:     -10.1      7.934     13.013
REMARK SMILES Cc1ccc(C)c(NS(=O)(=O)c2cc(C(=O)OCCOCCOC(=O)c3ccc(-c4c5nc(c(-c6cc(S(=O)(=O)[O-])ccc6F)c6ccc([nH]6)c(-c6cc(S(=O)(=O)[O-])ccc6F)c6nc(c(-c7cc(S(=O)(=O)[O-])ccc7F)c7ccc4[nH]7)C=C6)C=C5)cc3)ccc2Cl)c1
REMARK SMILES IDX 20 1 19 2 18 3 17 4 15 5 16 6 14 7 12 8 13 9 91 10 90 11
REMARK SMILES IDX 92 12 89 13 9 14 10 15 11 16 8 17 7 19 1 20 2 21 3 22 93 23
REMARK SMILES IDX 4 24 5 25 6 26 21 27 22 28 23 29 24 30 25 31 26 32 27 33
REMARK SMILES IDX 88 34 28 35 87 36 29 37 30 38 31 39 81 40 32 41 86 42 80 43
REMARK SMILES IDX 82 44 33 45 85 46 79 47 78 48 34 50 66 51 46 52 65 53 47 54
REMARK SMILES IDX 50 55 64 56 83 57 48 58 49 59 63 61 84 62 51 63 35 64 36 65
REMARK SMILES IDX 44 66 37 67 43 68 45 69 42 70 38 71 39 72 40 73 41 74 67 75
REMARK SMILES IDX 68 76 76 77 69 78 75 79 77 80 74 81 70 82 71 83 72 84 73 85
REMARK SMILES IDX 52 86 53 87 61 88 54 89 60 90 62 91 59 92 55 93 56 94 57 95
REMARK SMILES IDX 58 96
REMARK H PARENT 8 18 82 49 50 60
REMARK Flexibility Score: inf
ROOT
ATOM      1  O   UNL A   1      45.813  21.508  38.841  1.00  0.00    -0.374 OA
ENDROOT
BRANCH   1   2
ATOM      2  C   UNL A   1      46.595  20.320  38.843  1.00  0.00     0.202 C 
BRANCH   2   3
ATOM      3  C   UNL A   1      46.431  19.646  40.214  1.00  0.00     0.261 C 
BRANCH   3   4
ATOM      4  O   UNL A   1      45.480  18.583  40.031  1.00  0.00    -0.460 OA
BRANCH   4   5
ATOM      5  C   UNL A   1      45.172  17.950  41.192  1.00  0.00     0.338 C 
ATOM      6  O   UNL A   1      45.441  18.368  42.303  1.00  0.00    -0.246 OA
BRANCH   5   7
ATOM      7  C   UNL A   1      44.210  16.840  40.940  1.00  0.00     0.061 A 
ATOM      8  C   UNL A   1      42.598  15.185  41.742  1.00  0.00     0.107 A 
ATOM      9  C   UNL A   1      43.460  16.273  41.988  1.00  0.00     0.039 A 
ATOM     10  C   UNL A   1      42.328  14.808  40.426  1.00  0.00     0.061 A 
ATOM     11  C   UNL A   1      43.045  15.404  39.384  1.00  0.00     0.023 A 
ATOM     12  Cl  UNL A   1      41.159  13.631  39.954  1.00  0.00    -0.083 Cl
ATOM     13  C   UNL A   1      44.008  16.377  39.641  1.00  0.00     0.017 A 
BRANCH   8  14
ATOM     14  S   UNL A   1      41.941  14.261  43.114  1.00  0.00     0.263 S 
ATOM     15  O   UNL A   1      41.851  12.869  42.720  1.00  0.00    -0.201 OA
ATOM     16  O   UNL A   1      40.728  14.931  43.541  1.00  0.00    -0.201 OA
BRANCH  14  17
ATOM     17  N   UNL A   1      43.013  14.410  44.432  1.00  0.00    -0.279 N 
ATOM     18  H   UNL A   1      42.722  14.910  45.228  1.00  0.00     0.180 HD
BRANCH  17  19
ATOM     19  C   UNL A   1      44.327  13.828  44.416  1.00  0.00     0.052 A 
ATOM     20  C   UNL A   1      45.834  10.339  44.729  1.00  0.00     0.044 C 
ATOM     21  C   UNL A   1      45.697  11.816  44.515  1.00  0.00    -0.049 A 
ATOM     22  C   UNL A   1      46.853  12.600  44.462  1.00  0.00     0.004 A 
ATOM     23  C   UNL A   1      44.436  12.434  44.422  1.00  0.00     0.030 A 
ATOM     24  C   UNL A   1      46.750  13.982  44.511  1.00  0.00     0.006 A 
ATOM     25  C   UNL A   1      45.492  14.592  44.586  1.00  0.00    -0.027 A 
ATOM     26  C   UNL A   1      45.485  16.020  45.025  1.00  0.00     0.046 C 
ENDBRANCH  17  19
ENDBRANCH  14  17
ENDBRANCH   8  14
ENDBRANCH   5   7
ENDBRANCH   4   5
ENDBRANCH   3   4
ENDBRANCH   2   3
ENDBRANCH   1   2
BRANCH   1  27
ATOM     27  C   UNL A   1      46.395  22.703  39.324  1.00  0.00     0.202 C 
BRANCH  27  28
ATOM     28  C   UNL A   1      46.256  23.874  38.348  1.00  0.00     0.261 C 
BRANCH  28  29
ATOM     29  O   UNL A   1      45.406  23.601  37.211  1.00  0.00    -0.460 OA
BRANCH  29  30
ATOM     30  C   UNL A   1      44.613  24.635  36.813  1.00  0.00     0.338 C 
ATOM     31  O   UNL A   1      43.939  25.315  37.569  1.00  0.00    -0.246 OA
BRANCH  30  32
ATOM     32  C   UNL A   1      44.604  24.709  35.326  1.00  0.00     0.060 A 
ATOM     33  C   UNL A   1      45.250  23.703  34.600  1.00  0.00     0.016 A 
ATOM     34  C   UNL A   1      44.218  25.900  34.694  1.00  0.00     0.016 A 
ATOM     35  C   UNL A   1      45.625  23.958  33.279  1.00  0.00     0.010 A 
ATOM     36  C   UNL A   1      44.644  26.170  33.398  1.00  0.00     0.010 A 
ATOM     37  C   UNL A   1      45.377  25.214  32.688  1.00  0.00    -0.014 A 
BRANCH  37  38
ATOM     38  C   UNL A   1      45.438  25.355  31.222  1.00  0.00     0.031 A 
ATOM     39  C   UNL A   1      46.551  26.250  30.895  1.00  0.00     0.074 A 
ATOM     40  C   UNL A   1      44.716  24.843  30.198  1.00  0.00     0.049 A 
ATOM     41  N   UNL A   1      46.380  27.490  30.581  1.00  0.00    -0.248 NA
ATOM     42  C   UNL A   1      47.940  25.871  31.176  1.00  0.00     0.031 C 
ATOM     43  C   UNL A   1      43.465  24.111  30.261  1.00  0.00     0.029 A 
ATOM     44  N   UNL A   1      44.965  24.853  28.834  1.00  0.00    -0.354 N 
ATOM     45  C   UNL A   1      47.640  27.938  30.280  1.00  0.00     0.074 A 
ATOM     46  C   UNL A   1      48.560  27.024  30.911  1.00  0.00     0.031 C 
ATOM     47  C   UNL A   1      43.189  23.540  29.075  1.00  0.00     0.029 A 
ATOM     48  C   UNL A   1      44.194  23.939  28.122  1.00  0.00     0.049 A 
ATOM     49  H   UNL A   1      45.624  25.449  28.411  1.00  0.00     0.167 HD
ATOM     50  C   UNL A   1      47.790  28.758  29.214  1.00  0.00     0.034 A 
ATOM     51  C   UNL A   1      44.038  23.692  26.797  1.00  0.00     0.034 A 
ATOM     52  C   UNL A   1      46.533  29.345  28.795  1.00  0.00     0.049 A 
ATOM     53  C   UNL A   1      44.080  25.001  26.133  1.00  0.00     0.074 A 
ATOM     54  C   UNL A   1      45.668  30.299  29.286  1.00  0.00     0.029 A 
ATOM     55  N   UNL A   1      45.834  28.615  27.867  1.00  0.00    -0.354 N 
ATOM     56  N   UNL A   1      43.161  25.913  26.298  1.00  0.00    -0.248 NA
ATOM     57  C   UNL A   1      45.345  25.471  25.591  1.00  0.00     0.031 C 
ATOM     58  C   UNL A   1      44.395  30.050  28.690  1.00  0.00     0.029 A 
ATOM     59  C   UNL A   1      44.503  28.962  27.830  1.00  0.00     0.049 A 
ATOM     60  H   UNL A   1      46.237  27.923  27.293  1.00  0.00     0.167 HD
ATOM     61  C   UNL A   1      43.880  27.092  26.344  1.00  0.00     0.074 A 
ATOM     62  C   UNL A   1      45.164  26.786  25.729  1.00  0.00     0.031 C 
ATOM     63  C   UNL A   1      43.522  28.109  27.177  1.00  0.00     0.034 A 
BRANCH  50  64
ATOM     64  C   UNL A   1      48.959  28.642  28.281  1.00  0.00     0.023 A 
ATOM     65  C   UNL A   1      49.296  27.364  27.822  1.00  0.00     0.031 A 
ATOM     66  C   UNL A   1      49.905  29.670  28.047  1.00  0.00     0.131 A 
ATOM     67  C   UNL A   1      50.524  27.147  27.181  1.00  0.00     0.055 A 
ATOM     68  C   UNL A   1      51.087  29.465  27.339  1.00  0.00     0.041 A 
ATOM     69  F   UNL A   1      49.792  30.893  28.582  1.00  0.00    -0.206 F 
ATOM     70  C   UNL A   1      51.411  28.191  26.916  1.00  0.00     0.022 A 
BRANCH  67  71
ATOM     71  S   UNL A   1      51.010  25.443  26.821  1.00  0.00     0.124 S 
ATOM     72  O   UNL A   1      52.363  25.398  27.363  1.00  0.00    -0.237 OA
ATOM     73  O   UNL A   1      49.999  24.682  27.547  1.00  0.00    -0.237 OA
ATOM     74  O   UNL A   1      50.919  25.369  25.365  1.00  0.00    -0.744 OA
ENDBRANCH  67  71
ENDBRANCH  50  64
BRANCH  51  75
ATOM     75  C   UNL A   1      43.751  22.387  26.143  1.00  0.00     0.023 A 
ATOM     76  C   UNL A   1      44.751  21.536  25.632  1.00  0.00     0.031 A 
ATOM     77  C   UNL A   1      42.450  21.841  26.245  1.00  0.00     0.131 A 
ATOM     78  C   UNL A   1      44.442  20.200  25.280  1.00  0.00     0.055 A 
ATOM     79  C   UNL A   1      42.147  20.524  25.890  1.00  0.00     0.041 A 
ATOM     80  F   UNL A   1      41.444  22.554  26.777  1.00  0.00    -0.206 F 
ATOM     81  C   UNL A   1      43.149  19.690  25.420  1.00  0.00     0.022 A 
BRANCH  78  82
ATOM     82  S   UNL A   1      45.762  19.056  24.756  1.00  0.00     0.124 S 
ATOM     83  O   UNL A   1      45.460  18.859  23.344  1.00  0.00    -0.237 OA
ATOM     84  O   UNL A   1      46.973  19.809  25.063  1.00  0.00    -0.237 OA
ATOM     85  O   UNL A   1      45.548  17.879  25.601  1.00  0.00    -0.744 OA
ENDBRANCH  78  82
ENDBRANCH  51  75
BRANCH  63  86
ATOM     86  C   UNL A   1      42.055  28.286  27.481  1.00  0.00     0.023 A 
ATOM     87  C   UNL A   1      41.424  27.994  28.710  1.00  0.00     0.031 A 
ATOM     88  C   UNL A   1      41.251  28.789  26.440  1.00  0.00     0.131 A 
ATOM     89  C   UNL A   1      40.035  28.202  28.856  1.00  0.00     0.055 A 
ATOM     90  C   UNL A   1      39.884  29.013  26.593  1.00  0.00     0.041 A 
ATOM     91  F   UNL A   1      41.791  29.082  25.244  1.00  0.00    -0.206 F 
ATOM     92  C   UNL A   1      39.269  28.715  27.803  1.00  0.00     0.022 A 
BRANCH  89  93
ATOM     93  S   UNL A   1      39.193  27.774  30.414  1.00  0.00     0.124 S 
ATOM     94  O   UNL A   1      38.819  26.378  30.221  1.00  0.00    -0.237 OA
ATOM     95  O   UNL A   1      40.216  28.017  31.428  1.00  0.00    -0.237 OA
ATOM     96  O   UNL A   1      38.061  28.702  30.466  1.00  0.00    -0.744 OA
ENDBRANCH  89  93
ENDBRANCH  63  86
ENDBRANCH  37  38
ENDBRANCH  30  32
ENDBRANCH  29  30
ENDBRANCH  28  29
ENDBRANCH  27  28
ENDBRANCH   1  27
TORSDOF 20
ENDMDL
MODEL 3
REMARK VINA RESULT:     -10.0      4.529      7.379
REMARK SMILES Cc1ccc(C)c(NS(=O)(=O)c2cc(C(=O)OCCOCCOC(=O)c3ccc(-c4c5nc(c(-c6cc(S(=O)(=O)[O-])ccc6F)c6ccc([nH]6)c(-c6cc(S(=O)(=O)[O-])ccc6F)c6nc(c(-c7cc(S(=O)(=O)[O-])ccc7F)c7ccc4[nH]7)C=C6)C=C5)cc3)ccc2Cl)c1
REMARK SMILES IDX 20 1 19 2 18 3 17 4 15 5 16 6 14 7 12 8 13 9 91 10 90 11
REMARK SMILES IDX 92 12 89 13 9 14 10 15 11 16 8 17 7 19 1 20 2 21 3 22 93 23
REMARK SMILES IDX 4 24 5 25 6 26 21 27 22 28 23 29 24 30 25 31 26 32 27 33
REMARK SMILES IDX 88 34 28 35 87 36 29 37 30 38 31 39 81 40 32 41 86 42 80 43
REMARK SMILES IDX 82 44 33 45 85 46 79 47 78 48 34 50 66 51 46 52 65 53 47 54
REMARK SMILES IDX 50 55 64 56 83 57 48 58 49 59 63 61 84 62 51 63 35 64 36 65
REMARK SMILES IDX 44 66 37 67 43 68 45 69 42 70 38 71 39 72 40 73 41 74 67 75
REMARK SMILES IDX 68 76 76 77 69 78 75 79 77 80 74 81 70 82 71 83 72 84 73 85
REMARK SMILES IDX 52 86 53 87 61 88 54 89 60 90 62 91 59 92 55 93 56 94 57 95
REMARK SMILES IDX 58 96
REMARK H PARENT 8 18 82 49 50 60
REMARK Flexibility Score: inf
ROOT
ATOM      1  O   UNL A   1      39.655  21.230  26.941  1.00  0.00    -0.374 OA
ENDROOT
BRANCH   1   2
ATOM      2  C   UNL A   1      38.969  22.041  25.995  1.00  0.00     0.202 C 
BRANCH   2   3
ATOM      3  C   UNL A   1      37.998  21.140  25.217  1.00  0.00     0.261 C 
BRANCH   3   4
ATOM      4  O   UNL A   1      37.049  22.018  24.586  1.00  0.00    -0.460 OA
BRANCH   4   5
ATOM      5  C   UNL A   1      35.762  21.644  24.806  1.00  0.00     0.338 C 
ATOM      6  O   UNL A   1      35.391  20.496  24.966  1.00  0.00    -0.246 OA
BRANCH   5   7
ATOM      7  C   UNL A   1      34.921  22.833  25.120  1.00  0.00     0.061 A 
ATOM      8  C   UNL A   1      32.766  23.834  25.699  1.00  0.00     0.107 A 
ATOM      9  C   UNL A   1      33.562  22.695  25.462  1.00  0.00     0.039 A 
ATOM     10  C   UNL A   1      33.374  25.085  25.804  1.00  0.00     0.061 A 
ATOM     11  C   UNL A   1      34.734  25.211  25.505  1.00  0.00     0.023 A 
ATOM     12  Cl  UNL A   1      32.574  26.539  26.275  1.00  0.00    -0.083 Cl
ATOM     13  C   UNL A   1      35.490  24.105  25.124  1.00  0.00     0.017 A 
BRANCH   8  14
ATOM     14  S   UNL A   1      30.996  23.666  25.773  1.00  0.00     0.263 S 
ATOM     15  O   UNL A   1      30.494  24.599  26.762  1.00  0.00    -0.201 OA
ATOM     16  O   UNL A   1      30.706  22.257  25.953  1.00  0.00    -0.201 OA
BRANCH  14  17
ATOM     17  N   UNL A   1      30.348  24.057  24.244  1.00  0.00    -0.279 N 
ATOM     18  H   UNL A   1      29.893  23.355  23.726  1.00  0.00     0.180 HD
BRANCH  17  19
ATOM     19  C   UNL A   1      30.449  25.378  23.689  1.00  0.00     0.052 A 
ATOM     20  C   UNL A   1      28.153  28.388  23.228  1.00  0.00     0.044 C 
ATOM     21  C   UNL A   1      29.373  27.517  23.239  1.00  0.00    -0.049 A 
ATOM     22  C   UNL A   1      30.521  27.955  22.573  1.00  0.00     0.004 A 
ATOM     23  C   UNL A   1      29.369  26.251  23.855  1.00  0.00     0.030 A 
ATOM     24  C   UNL A   1      31.570  27.074  22.359  1.00  0.00     0.006 A 
ATOM     25  C   UNL A   1      31.493  25.759  22.832  1.00  0.00    -0.027 A 
ATOM     26  C   UNL A   1      32.461  24.792  22.231  1.00  0.00     0.046 C 
ENDBRANCH  17  19
ENDBRANCH  14  17
ENDBRANCH   8  14
ENDBRANCH   5   7
ENDBRANCH   4   5
ENDBRANCH   3   4
ENDBRANCH   2   3
ENDBRANCH   1   2
BRANCH   1  27
ATOM     27  C   UNL A   1      41.066  21.295  26.992  1.00  0.00     0.202 C 
BRANCH  27  28
ATOM     28  C   UNL A   1      41.657  22.300  25.999  1.00  0.00     0.261 C 
BRANCH  28  29
ATOM     29  O   UNL A   1      41.949  23.595  26.570  1.00  0.00    -0.460 OA
BRANCH  29  30
ATOM     30  C   UNL A   1      42.689  24.426  25.784  1.00  0.00     0.338 C 
ATOM     31  O   UNL A   1      43.361  24.056  24.835  1.00  0.00    -0.246 OA
BRANCH  30  32
ATOM     32  C   UNL A   1      42.649  25.805  26.344  1.00  0.00     0.060 A 
ATOM     33  C   UNL A   1      43.606  26.170  27.296  1.00  0.00     0.016 A 
ATOM     34  C   UNL A   1      41.513  26.602  26.140  1.00  0.00     0.016 A 
ATOM     35  C   UNL A   1      43.346  27.260  28.130  1.00  0.00     0.010 A 
ATOM     36  C   UNL A   1      41.233  27.649  27.010  1.00  0.00     0.010 A 
ATOM     37  C   UNL A   1      42.132  27.970  28.033  1.00  0.00    -0.014 A 
BRANCH  37  38
ATOM     38  C   UNL A   1      42.018  29.307  28.644  1.00  0.00     0.031 A 
ATOM     39  C   UNL A   1      43.144  30.120  28.178  1.00  0.00     0.074 A 
ATOM     40  C   UNL A   1      41.128  29.883  29.486  1.00  0.00     0.049 A 
ATOM     41  N   UNL A   1      44.188  30.345  28.902  1.00  0.00    -0.248 NA
ATOM     42  C   UNL A   1      43.282  30.492  26.766  1.00  0.00     0.031 C 
ATOM     43  C   UNL A   1      40.061  29.245  30.235  1.00  0.00     0.029 A 
ATOM     44  N   UNL A   1      40.970  31.210  29.850  1.00  0.00    -0.354 N 
ATOM     45  C   UNL A   1      44.950  31.194  28.141  1.00  0.00     0.074 A 
ATOM     46  C   UNL A   1      44.504  31.032  26.779  1.00  0.00     0.031 C 
ATOM     47  C   UNL A   1      39.228  30.166  30.752  1.00  0.00     0.029 A 
ATOM     48  C   UNL A   1      39.746  31.478  30.457  1.00  0.00     0.049 A 
ATOM     49  H   UNL A   1      41.657  31.898  29.695  1.00  0.00     0.167 HD
ATOM     50  C   UNL A   1      45.568  32.227  28.759  1.00  0.00     0.034 A 
ATOM     51  C   UNL A   1      39.227  32.583  31.049  1.00  0.00     0.034 A 
ATOM     52  C   UNL A   1      45.641  32.040  30.194  1.00  0.00     0.049 A 
ATOM     53  C   UNL A   1      40.340  33.218  31.767  1.00  0.00     0.074 A 
ATOM     54  C   UNL A   1      46.346  31.228  31.057  1.00  0.00     0.029 A 
ATOM     55  N   UNL A   1      44.573  32.537  30.898  1.00  0.00    -0.354 N 
ATOM     56  N   UNL A   1      40.928  32.672  32.795  1.00  0.00    -0.248 NA
ATOM     57  C   UNL A   1      41.080  34.284  31.109  1.00  0.00     0.031 C 
ATOM     58  C   UNL A   1      45.603  31.177  32.276  1.00  0.00     0.029 A 
ATOM     59  C   UNL A   1      44.469  31.972  32.148  1.00  0.00     0.049 A 
ATOM     60  H   UNL A   1      43.953  33.218  30.550  1.00  0.00     0.167 HD
ATOM     61  C   UNL A   1      42.261  32.979  32.606  1.00  0.00     0.074 A 
ATOM     62  C   UNL A   1      42.272  34.104  31.681  1.00  0.00     0.031 C 
ATOM     63  C   UNL A   1      43.246  32.093  32.927  1.00  0.00     0.034 A 
BRANCH  50  64
ATOM     64  C   UNL A   1      45.662  33.585  28.132  1.00  0.00     0.023 A 
ATOM     65  C   UNL A   1      44.585  34.459  28.317  1.00  0.00     0.031 A 
ATOM     66  C   UNL A   1      46.616  33.954  27.151  1.00  0.00     0.131 A 
ATOM     67  C   UNL A   1      44.480  35.624  27.542  1.00  0.00     0.055 A 
ATOM     68  C   UNL A   1      46.550  35.152  26.442  1.00  0.00     0.041 A 
ATOM     69  F   UNL A   1      47.594  33.133  26.750  1.00  0.00    -0.206 F 
ATOM     70  C   UNL A   1      45.465  35.988  26.623  1.00  0.00     0.022 A 
BRANCH  67  71
ATOM     71  S   UNL A   1      42.957  36.592  27.655  1.00  0.00     0.124 S 
ATOM     72  O   UNL A   1      42.929  36.938  29.072  1.00  0.00    -0.237 OA
ATOM     73  O   UNL A   1      43.227  37.686  26.729  1.00  0.00    -0.237 OA
ATOM     74  O   UNL A   1      41.928  35.649  27.223  1.00  0.00    -0.744 OA
ENDBRANCH  67  71
ENDBRANCH  50  64
BRANCH  51  75
ATOM     75  C   UNL A   1      37.803  33.011  31.085  1.00  0.00     0.023 A 
ATOM     76  C   UNL A   1      37.079  33.405  29.942  1.00  0.00     0.031 A 
ATOM     77  C   UNL A   1      37.051  32.790  32.263  1.00  0.00     0.131 A 
ATOM     78  C   UNL A   1      35.669  33.529  29.997  1.00  0.00     0.055 A 
ATOM     79  C   UNL A   1      35.661  32.922  32.315  1.00  0.00     0.041 A 
ATOM     80  F   UNL A   1      37.644  32.354  33.386  1.00  0.00    -0.206 F 
ATOM     81  C   UNL A   1      34.960  33.276  31.174  1.00  0.00     0.022 A 
BRANCH  78  82
ATOM     82  S   UNL A   1      34.718  33.895  28.485  1.00  0.00     0.124 S 
ATOM     83  O   UNL A   1      34.399  35.307  28.654  1.00  0.00    -0.237 OA
ATOM     84  O   UNL A   1      35.666  33.565  27.427  1.00  0.00    -0.237 OA
ATOM     85  O   UNL A   1      33.571  32.990  28.577  1.00  0.00    -0.744 OA
ENDBRANCH  78  82
ENDBRANCH  51  75
BRANCH  63  86
ATOM     86  C   UNL A   1      43.002  31.160  34.088  1.00  0.00     0.023 A 
ATOM     87  C   UNL A   1      42.536  29.830  33.995  1.00  0.00     0.031 A 
ATOM     88  C   UNL A   1      43.266  31.669  35.373  1.00  0.00     0.131 A 
ATOM     89  C   UNL A   1      42.344  29.067  35.168  1.00  0.00     0.055 A 
ATOM     90  C   UNL A   1      43.096  30.908  36.527  1.00  0.00     0.041 A 
ATOM     91  F   UNL A   1      43.707  32.929  35.528  1.00  0.00    -0.206 F 
ATOM     92  C   UNL A   1      42.628  29.603  36.429  1.00  0.00     0.022 A 
BRANCH  89  93
ATOM     93  S   UNL A   1      41.685  27.371  35.072  1.00  0.00     0.124 S 
ATOM     94  O   UNL A   1      40.624  27.479  34.080  1.00  0.00    -0.237 OA
ATOM     95  O   UNL A   1      42.846  26.582  34.670  1.00  0.00    -0.237 OA
ATOM     96  O   UNL A   1      41.217  27.102  36.434  1.00  0.00    -0.744 OA
ENDBRANCH  89  93
ENDBRANCH  63  86
ENDBRANCH  37  38
ENDBRANCH  30  32
ENDBRANCH  29  30
ENDBRANCH  28  29
ENDBRANCH  27  28
ENDBRANCH   1  27
TORSDOF 20
ENDMDL
