MODEL 1
REMARK VINA RESULT:     -10.3      0.000      0.000
REMARK SMILES CC1=Nc2nc(NC(=O)CCC(=O)OCCOCCOC(=O)c3ccc(-c4c5nc(c(-c6cc(S(=O)(=O)[O-])ccc6F)c6ccc([nH]6)c(-c6cc(S(=O)(=O)[O-])ccc6F)c6nc(c(-c7cc(S(=O)(=O)[O-])ccc7F)c7ccc4[nH]7)C=C6)C=C5)cc3)nn2[C@@H](c2ccc(Cl)cc2)C1
REMARK SMILES IDX 16 1 15 2 14 3 12 4 13 5 11 6 10 7 8 8 7 9 9 11 6 12 1 13
REMARK SMILES IDX 2 14 3 15 96 16 4 17 88 18 5 19 87 20 86 21 89 22 90 23
REMARK SMILES IDX 95 24 91 25 94 26 92 27 93 28 17 29 18 30 19 31 20 32 21 33
REMARK SMILES IDX 22 34 23 35 24 36 85 37 25 38 84 39 26 40 27 41 28 42 78 43
REMARK SMILES IDX 29 44 83 45 77 46 79 47 30 48 82 49 76 50 75 51 31 53 63 54
REMARK SMILES IDX 43 55 62 56 44 57 47 58 61 59 80 60 45 61 46 62 60 64 81 65
REMARK SMILES IDX 48 66 32 67 33 68 41 69 34 70 40 71 42 72 39 73 35 74 36 75
REMARK SMILES IDX 37 76 38 77 64 78 65 79 73 80 66 81 72 82 74 83 71 84 67 85
REMARK SMILES IDX 68 86 69 87 70 88 49 89 50 90 58 91 51 92 57 93 59 94 56 95
REMARK SMILES IDX 52 96 53 97 54 98 55 99
REMARK H PARENT 7 10 79 52 47 63
REMARK Flexibility Score: inf
ROOT
ATOM      1  C   UNL A   1      32.778  25.872  24.830  1.00  0.00     0.202 C 
ENDROOT
BRANCH   1   2
ATOM      2  C   UNL A   1      31.637  24.866  24.973  1.00  0.00     0.261 C 
BRANCH   2   3
ATOM      3  O   UNL A   1      31.845  23.635  24.247  1.00  0.00    -0.463 OA
BRANCH   3   4
ATOM      4  C   UNL A   1      31.961  22.493  24.963  1.00  0.00     0.306 C 
ATOM      5  O   UNL A   1      31.099  22.075  25.729  1.00  0.00    -0.252 OA
BRANCH   4   6
ATOM      6  C   UNL A   1      33.322  21.840  24.832  1.00  0.00     0.132 C 
BRANCH   6   7
ATOM      7  C   UNL A   1      34.587  22.644  25.108  1.00  0.00     0.112 C 
BRANCH   7   8
ATOM      8  C   UNL A   1      35.471  22.840  23.909  1.00  0.00     0.227 C 
ATOM      9  N   UNL A   1      36.810  22.964  24.053  1.00  0.00    -0.293 N 
ATOM     10  H   UNL A   1      37.296  23.194  23.228  1.00  0.00     0.173 HD
ATOM     11  O   UNL A   1      34.976  22.855  22.779  1.00  0.00    -0.275 OA
BRANCH   9  12
ATOM     12  C   UNL A   1      37.596  22.821  25.164  1.00  0.00     0.250 A 
ATOM     13  C   UNL A   1      42.036  25.717  28.906  1.00  0.00     0.062 C 
ATOM     14  C   UNL A   1      41.134  24.646  28.344  1.00  0.00     0.021 C 
ATOM     15  N   UNL A   1      40.048  25.091  27.812  1.00  0.00    -0.221 NA
ATOM     16  C   UNL A   1      41.567  23.185  28.527  1.00  0.00     0.083 C 
ATOM     17  C   UNL A   1      39.250  24.206  27.212  1.00  0.00     0.250 A 
ATOM     18  C   UNL A   1      41.028  22.055  27.604  1.00  0.00     0.147 C 
ATOM     19  N   UNL A   1      37.965  24.405  26.169  1.00  0.00    -0.174 NA
ATOM     20  N   UNL A   1      39.785  22.463  26.975  1.00  0.00    -0.220 N 
ATOM     21  N   UNL A   1      38.752  21.645  25.678  1.00  0.00    -0.130 NA
BRANCH  18  22
ATOM     22  C   UNL A   1      42.115  21.508  26.679  1.00  0.00    -0.023 A 
ATOM     23  C   UNL A   1      43.150  22.251  26.101  1.00  0.00     0.007 A 
ATOM     24  C   UNL A   1      42.112  20.127  26.408  1.00  0.00     0.007 A 
ATOM     25  C   UNL A   1      44.148  21.667  25.315  1.00  0.00     0.021 A 
ATOM     26  C   UNL A   1      43.110  19.531  25.626  1.00  0.00     0.021 A 
ATOM     27  C   UNL A   1      44.129  20.306  25.083  1.00  0.00     0.041 A 
ATOM     28  Cl  UNL A   1      45.361  19.583  24.131  1.00  0.00    -0.084 Cl
ENDBRANCH  18  22
ENDBRANCH   9  12
ENDBRANCH   7   8
ENDBRANCH   6   7
ENDBRANCH   4   6
ENDBRANCH   3   4
ENDBRANCH   2   3
ENDBRANCH   1   2
BRANCH   1  29
ATOM     29  O   UNL A   1      32.323  27.211  24.979  1.00  0.00    -0.374 OA
BRANCH  29  30
ATOM     30  C   UNL A   1      32.662  27.774  26.398  1.00  0.00     0.202 C 
BRANCH  30  31
ATOM     31  C   UNL A   1      33.939  29.603  26.843  1.00  0.00     0.261 C 
BRANCH  31  32
ATOM     32  O   UNL A   1      35.438  29.605  27.019  1.00  0.00    -0.460 OA
BRANCH  32  33
ATOM     33  C   UNL A   1      35.941  30.667  27.703  1.00  0.00     0.338 C 
ATOM     34  O   UNL A   1      35.636  31.839  27.579  1.00  0.00    -0.246 OA
BRANCH  33  35
ATOM     35  C   UNL A   1      36.894  30.099  28.657  1.00  0.00     0.060 A 
ATOM     36  C   UNL A   1      37.497  30.989  29.531  1.00  0.00     0.016 A 
ATOM     37  C   UNL A   1      37.408  28.822  28.384  1.00  0.00     0.016 A 
ATOM     38  C   UNL A   1      38.823  30.772  29.774  1.00  0.00     0.010 A 
ATOM     39  C   UNL A   1      38.728  28.613  28.606  1.00  0.00     0.010 A 
ATOM     40  C   UNL A   1      39.437  29.655  29.181  1.00  0.00    -0.014 A 
BRANCH  40  41
ATOM     41  C   UNL A   1      40.840  29.438  29.399  1.00  0.00     0.031 A 
ATOM     42  C   UNL A   1      41.028  29.190  30.840  1.00  0.00     0.074 A 
ATOM     43  C   UNL A   1      41.736  29.397  28.396  1.00  0.00     0.049 A 
ATOM     44  N   UNL A   1      41.357  30.083  31.712  1.00  0.00    -0.248 NA
ATOM     45  C   UNL A   1      40.403  27.990  31.438  1.00  0.00     0.031 C 
ATOM     46  C   UNL A   1      41.495  29.430  26.950  1.00  0.00     0.029 A 
ATOM     47  N   UNL A   1      43.084  29.249  28.467  1.00  0.00    -0.354 N 
ATOM     48  C   UNL A   1      41.355  29.402  32.917  1.00  0.00     0.074 A 
ATOM     49  C   UNL A   1      40.464  28.298  32.734  1.00  0.00     0.031 C 
ATOM     50  C   UNL A   1      42.629  29.084  26.294  1.00  0.00     0.029 A 
ATOM     51  C   UNL A   1      43.710  28.938  27.256  1.00  0.00     0.049 A 
ATOM     52  H   UNL A   1      43.585  29.353  29.309  1.00  0.00     0.167 HD
ATOM     53  C   UNL A   1      42.432  29.553  33.733  1.00  0.00     0.034 A 
ATOM     54  C   UNL A   1      45.010  28.544  27.098  1.00  0.00     0.034 A 
ATOM     55  C   UNL A   1      43.130  30.786  33.395  1.00  0.00     0.049 A 
ATOM     56  C   UNL A   1      45.725  29.039  28.304  1.00  0.00     0.074 A 
ATOM     57  C   UNL A   1      42.779  32.122  33.335  1.00  0.00     0.029 A 
ATOM     58  N   UNL A   1      44.248  30.647  32.602  1.00  0.00    -0.354 N 
ATOM     59  N   UNL A   1      45.876  30.310  28.572  1.00  0.00    -0.248 NA
ATOM     60  C   UNL A   1      45.797  28.153  29.456  1.00  0.00     0.031 C 
ATOM     61  C   UNL A   1      43.476  32.649  32.204  1.00  0.00     0.029 A 
ATOM     62  C   UNL A   1      44.313  31.660  31.682  1.00  0.00     0.049 A 
ATOM     63  H   UNL A   1      44.908  29.923  32.685  1.00  0.00     0.167 HD
ATOM     64  C   UNL A   1      45.617  30.426  29.932  1.00  0.00     0.074 A 
ATOM     65  C   UNL A   1      45.670  29.051  30.436  1.00  0.00     0.031 C 
ATOM     66  C   UNL A   1      45.080  31.577  30.443  1.00  0.00     0.034 A 
BRANCH  53  67
ATOM     67  C   UNL A   1      43.143  28.370  34.373  1.00  0.00     0.023 A 
ATOM     68  C   UNL A   1      43.979  27.627  33.521  1.00  0.00     0.031 A 
ATOM     69  C   UNL A   1      42.838  27.752  35.612  1.00  0.00     0.131 A 
ATOM     70  C   UNL A   1      44.346  26.310  33.838  1.00  0.00     0.055 A 
ATOM     71  C   UNL A   1      43.246  26.457  35.940  1.00  0.00     0.041 A 
ATOM     72  F   UNL A   1      42.084  28.315  36.560  1.00  0.00    -0.206 F 
ATOM     73  C   UNL A   1      43.977  25.713  35.038  1.00  0.00     0.022 A 
BRANCH  70  74
ATOM     74  S   UNL A   1      45.181  25.337  32.565  1.00  0.00     0.124 S 
ATOM     75  O   UNL A   1      45.189  24.014  33.179  1.00  0.00    -0.237 OA
ATOM     76  O   UNL A   1      44.289  25.514  31.423  1.00  0.00    -0.237 OA
ATOM     77  O   UNL A   1      46.483  25.986  32.446  1.00  0.00    -0.744 OA
ENDBRANCH  70  74
ENDBRANCH  53  67
BRANCH  54  78
ATOM     78  C   UNL A   1      45.548  27.448  26.223  1.00  0.00     0.023 A 
ATOM     79  C   UNL A   1      46.624  27.628  25.313  1.00  0.00     0.031 A 
ATOM     80  C   UNL A   1      45.167  26.110  26.473  1.00  0.00     0.131 A 
ATOM     81  C   UNL A   1      47.261  26.506  24.713  1.00  0.00     0.055 A 
ATOM     82  C   UNL A   1      45.804  25.011  25.887  1.00  0.00     0.041 A 
ATOM     83  F   UNL A   1      44.211  25.812  27.364  1.00  0.00    -0.206 F 
ATOM     84  C   UNL A   1      46.860  25.204  25.015  1.00  0.00     0.022 A 
BRANCH  81  85
ATOM     85  S   UNL A   1      48.676  26.704  23.570  1.00  0.00     0.124 S 
ATOM     86  O   UNL A   1      49.814  26.382  24.421  1.00  0.00    -0.237 OA
ATOM     87  O   UNL A   1      48.365  25.752  22.510  1.00  0.00    -0.237 OA
ATOM     88  O   UNL A   1      48.597  28.110  23.166  1.00  0.00    -0.744 OA
ENDBRANCH  81  85
ENDBRANCH  54  78
BRANCH  66  89
ATOM     89  C   UNL A   1      45.205  32.856  29.630  1.00  0.00     0.023 A 
ATOM     90  C   UNL A   1      44.222  33.433  28.790  1.00  0.00     0.031 A 
ATOM     91  C   UNL A   1      46.404  33.572  29.810  1.00  0.00     0.131 A 
ATOM     92  C   UNL A   1      44.471  34.680  28.172  1.00  0.00     0.055 A 
ATOM     93  C   UNL A   1      46.632  34.813  29.223  1.00  0.00     0.041 A 
ATOM     94  F   UNL A   1      47.376  33.084  30.599  1.00  0.00    -0.206 F 
ATOM     95  C   UNL A   1      45.668  35.370  28.397  1.00  0.00     0.022 A 
BRANCH  92  96
ATOM     96  S   UNL A   1      43.268  35.432  27.022  1.00  0.00     0.124 S 
ATOM     97  O   UNL A   1      43.348  34.583  25.839  1.00  0.00    -0.237 OA
ATOM     98  O   UNL A   1      42.020  35.361  27.777  1.00  0.00    -0.237 OA
ATOM     99  O   UNL A   1      43.782  36.790  26.829  1.00  0.00    -0.744 OA
ENDBRANCH  92  96
ENDBRANCH  66  89
ENDBRANCH  40  41
ENDBRANCH  33  35
ENDBRANCH  32  33
ENDBRANCH  31  32
ENDBRANCH  30  31
ENDBRANCH  29  30
ENDBRANCH   1  29
TORSDOF 21
ENDMDL
MODEL 2
REMARK VINA RESULT:     -10.1      4.848      9.590
REMARK SMILES CC1=Nc2nc(NC(=O)CCC(=O)OCCOCCOC(=O)c3ccc(-c4c5nc(c(-c6cc(S(=O)(=O)[O-])ccc6F)c6ccc([nH]6)c(-c6cc(S(=O)(=O)[O-])ccc6F)c6nc(c(-c7cc(S(=O)(=O)[O-])ccc7F)c7ccc4[nH]7)C=C6)C=C5)cc3)nn2[C@@H](c2ccc(Cl)cc2)C1
REMARK SMILES IDX 16 1 15 2 14 3 12 4 13 5 11 6 10 7 8 8 7 9 9 11 6 12 1 13
REMARK SMILES IDX 2 14 3 15 96 16 4 17 88 18 5 19 87 20 86 21 89 22 90 23
REMARK SMILES IDX 95 24 91 25 94 26 92 27 93 28 17 29 18 30 19 31 20 32 21 33
REMARK SMILES IDX 22 34 23 35 24 36 85 37 25 38 84 39 26 40 27 41 28 42 78 43
REMARK SMILES IDX 29 44 83 45 77 46 79 47 30 48 82 49 76 50 75 51 31 53 63 54
REMARK SMILES IDX 43 55 62 56 44 57 47 58 61 59 80 60 45 61 46 62 60 64 81 65
REMARK SMILES IDX 48 66 32 67 33 68 41 69 34 70 40 71 42 72 39 73 35 74 36 75
REMARK SMILES IDX 37 76 38 77 64 78 65 79 73 80 66 81 72 82 74 83 71 84 67 85
REMARK SMILES IDX 68 86 69 87 70 88 49 89 50 90 58 91 51 92 57 93 59 94 56 95
REMARK SMILES IDX 52 96 53 97 54 98 55 99
REMARK H PARENT 7 10 79 52 47 63
REMARK Flexibility Score: inf
ROOT
ATOM      1  C   UNL A   1      38.970  34.199  33.333  1.00  0.00     0.202 C 
ENDROOT
BRANCH   1   2
ATOM      2  C   UNL A   1      37.459  34.203  33.558  1.00  0.00     0.261 C 
BRANCH   2   3
ATOM      3  O   UNL A   1      36.698  33.674  32.450  1.00  0.00    -0.463 OA
BRANCH   3   4
ATOM      4  C   UNL A   1      35.349  33.698  32.542  1.00  0.00     0.306 C 
ATOM      5  O   UNL A   1      34.660  32.706  32.755  1.00  0.00    -0.252 OA
BRANCH   4   6
ATOM      6  C   UNL A   1      34.752  35.054  32.223  1.00  0.00     0.132 C 
BRANCH   6   7
ATOM      7  C   UNL A   1      33.375  35.151  31.576  1.00  0.00     0.112 C 
BRANCH   7   8
ATOM      8  C   UNL A   1      33.251  36.233  30.542  1.00  0.00     0.227 C 
ATOM      9  N   UNL A   1      33.787  36.076  29.310  1.00  0.00    -0.293 N 
ATOM     10  H   UNL A   1      33.749  36.875  28.735  1.00  0.00     0.173 HD
ATOM     11  O   UNL A   1      32.625  37.264  30.805  1.00  0.00    -0.275 OA
BRANCH   9  12
ATOM     12  C   UNL A   1      34.375  34.981  28.737  1.00  0.00     0.250 A 
ATOM     13  C   UNL A   1      33.621  28.683  27.368  1.00  0.00     0.062 C 
ATOM     14  C   UNL A   1      34.275  30.035  27.518  1.00  0.00     0.021 C 
ATOM     15  N   UNL A   1      33.465  31.032  27.414  1.00  0.00    -0.221 NA
ATOM     16  C   UNL A   1      35.798  30.071  27.700  1.00  0.00     0.083 C 
ATOM     17  C   UNL A   1      33.960  32.251  27.630  1.00  0.00     0.250 A 
ATOM     18  C   UNL A   1      36.512  31.293  28.345  1.00  0.00     0.147 C 
ATOM     19  N   UNL A   1      33.213  33.718  27.897  1.00  0.00    -0.174 NA
ATOM     20  N   UNL A   1      35.675  32.476  28.253  1.00  0.00    -0.220 N 
ATOM     21  N   UNL A   1      35.887  34.173  28.956  1.00  0.00    -0.130 NA
BRANCH  18  22
ATOM     22  C   UNL A   1      37.076  30.961  29.726  1.00  0.00    -0.023 A 
ATOM     23  C   UNL A   1      36.385  30.322  30.762  1.00  0.00     0.007 A 
ATOM     24  C   UNL A   1      38.423  31.282  29.979  1.00  0.00     0.007 A 
ATOM     25  C   UNL A   1      36.990  29.992  31.979  1.00  0.00     0.021 A 
ATOM     26  C   UNL A   1      39.039  30.952  31.194  1.00  0.00     0.021 A 
ATOM     27  C   UNL A   1      38.319  30.304  32.190  1.00  0.00     0.041 A 
ATOM     28  Cl  UNL A   1      39.069  29.887  33.677  1.00  0.00    -0.084 Cl
ENDBRANCH  18  22
ENDBRANCH   9  12
ENDBRANCH   7   8
ENDBRANCH   6   7
ENDBRANCH   4   6
ENDBRANCH   3   4
ENDBRANCH   2   3
ENDBRANCH   1   2
BRANCH   1  29
ATOM     29  O   UNL A   1      39.300  34.372  31.960  1.00  0.00    -0.374 OA
BRANCH  29  30
ATOM     30  C   UNL A   1      40.847  34.441  31.750  1.00  0.00     0.202 C 
BRANCH  30  31
ATOM     31  C   UNL A   1      42.105  32.961  30.565  1.00  0.00     0.261 C 
BRANCH  31  32
ATOM     32  O   UNL A   1      42.628  33.176  29.166  1.00  0.00    -0.460 OA
BRANCH  32  33
ATOM     33  C   UNL A   1      43.647  34.069  29.058  1.00  0.00     0.338 C 
ATOM     34  O   UNL A   1      43.620  35.258  29.321  1.00  0.00    -0.246 OA
BRANCH  33  35
ATOM     35  C   UNL A   1      44.800  33.291  28.604  1.00  0.00     0.060 A 
ATOM     36  C   UNL A   1      44.786  32.882  27.280  1.00  0.00     0.016 A 
ATOM     37  C   UNL A   1      45.617  32.703  29.581  1.00  0.00     0.016 A 
ATOM     38  C   UNL A   1      45.246  31.618  27.048  1.00  0.00     0.010 A 
ATOM     39  C   UNL A   1      46.056  31.441  29.360  1.00  0.00     0.010 A 
ATOM     40  C   UNL A   1      45.741  30.877  28.135  1.00  0.00    -0.014 A 
BRANCH  40  41
ATOM     41  C   UNL A   1      46.193  29.532  27.908  1.00  0.00     0.031 A 
ATOM     42  C   UNL A   1      45.039  28.639  28.115  1.00  0.00     0.074 A 
ATOM     43  C   UNL A   1      47.440  29.242  27.494  1.00  0.00     0.049 A 
ATOM     44  N   UNL A   1      44.766  28.020  29.215  1.00  0.00    -0.248 NA
ATOM     45  C   UNL A   1      43.877  28.763  27.209  1.00  0.00     0.031 C 
ATOM     46  C   UNL A   1      48.506  30.162  27.084  1.00  0.00     0.029 A 
ATOM     47  N   UNL A   1      48.006  28.025  27.288  1.00  0.00    -0.354 N 
ATOM     48  C   UNL A   1      43.577  27.361  28.951  1.00  0.00     0.074 A 
ATOM     49  C   UNL A   1      42.947  28.108  27.906  1.00  0.00     0.031 C 
ATOM     50  C   UNL A   1      49.497  29.465  26.476  1.00  0.00     0.029 A 
ATOM     51  C   UNL A   1      49.206  28.043  26.571  1.00  0.00     0.049 A 
ATOM     52  H   UNL A   1      47.601  27.190  27.620  1.00  0.00     0.167 HD
ATOM     53  C   UNL A   1      43.493  26.046  29.282  1.00  0.00     0.034 A 
ATOM     54  C   UNL A   1      49.859  26.954  26.064  1.00  0.00     0.034 A 
ATOM     55  C   UNL A   1      44.491  25.734  30.297  1.00  0.00     0.049 A 
ATOM     56  C   UNL A   1      49.383  25.796  26.867  1.00  0.00     0.074 A 
ATOM     57  C   UNL A   1      44.773  26.206  31.565  1.00  0.00     0.029 A 
ATOM     58  N   UNL A   1      45.647  25.140  29.842  1.00  0.00    -0.354 N 
ATOM     59  N   UNL A   1      49.628  25.666  28.145  1.00  0.00    -0.248 NA
ATOM     60  C   UNL A   1      48.213  25.078  26.387  1.00  0.00     0.031 C 
ATOM     61  C   UNL A   1      46.199  26.210  31.661  1.00  0.00     0.029 A 
ATOM     62  C   UNL A   1      46.737  25.638  30.507  1.00  0.00     0.049 A 
ATOM     63  H   UNL A   1      45.686  24.452  29.140  1.00  0.00     0.167 HD
ATOM     64  C   UNL A   1      48.429  25.237  28.701  1.00  0.00     0.074 A 
ATOM     65  C   UNL A   1      47.626  24.802  27.555  1.00  0.00     0.031 C 
ATOM     66  C   UNL A   1      48.099  25.571  29.987  1.00  0.00     0.034 A 
BRANCH  53  67
ATOM     67  C   UNL A   1      42.965  24.994  28.317  1.00  0.00     0.023 A 
ATOM     68  C   UNL A   1      43.901  24.477  27.405  1.00  0.00     0.031 A 
ATOM     69  C   UNL A   1      41.609  24.700  28.025  1.00  0.00     0.131 A 
ATOM     70  C   UNL A   1      43.485  23.850  26.220  1.00  0.00     0.055 A 
ATOM     71  C   UNL A   1      41.204  24.034  26.866  1.00  0.00     0.041 A 
ATOM     72  F   UNL A   1      40.583  25.082  28.790  1.00  0.00    -0.206 F 
ATOM     73  C   UNL A   1      42.141  23.632  25.937  1.00  0.00     0.022 A 
BRANCH  70  74
ATOM     74  S   UNL A   1      44.741  23.471  24.979  1.00  0.00     0.124 S 
ATOM     75  O   UNL A   1      45.222  24.807  24.645  1.00  0.00    -0.237 OA
ATOM     76  O   UNL A   1      45.659  22.623  25.733  1.00  0.00    -0.237 OA
ATOM     77  O   UNL A   1      43.984  22.793  23.931  1.00  0.00    -0.744 OA
ENDBRANCH  70  74
ENDBRANCH  53  67
BRANCH  54  78
ATOM     78  C   UNL A   1      50.502  26.802  24.715  1.00  0.00     0.023 A 
ATOM     79  C   UNL A   1      49.923  27.288  23.512  1.00  0.00     0.031 A 
ATOM     80  C   UNL A   1      51.852  26.395  24.631  1.00  0.00     0.131 A 
ATOM     81  C   UNL A   1      50.688  27.354  22.315  1.00  0.00     0.055 A 
ATOM     82  C   UNL A   1      52.602  26.473  23.453  1.00  0.00     0.041 A 
ATOM     83  F   UNL A   1      52.526  25.983  25.715  1.00  0.00    -0.206 F 
ATOM     84  C   UNL A   1      52.028  26.963  22.294  1.00  0.00     0.022 A 
BRANCH  81  85
ATOM     85  S   UNL A   1      49.984  28.014  20.760  1.00  0.00     0.124 S 
ATOM     86  O   UNL A   1      49.173  26.899  20.286  1.00  0.00    -0.237 OA
ATOM     87  O   UNL A   1      49.262  29.197  21.214  1.00  0.00    -0.237 OA
ATOM     88  O   UNL A   1      51.165  28.299  19.941  1.00  0.00    -0.744 OA
ENDBRANCH  81  85
ENDBRANCH  54  78
BRANCH  66  89
ATOM     89  C   UNL A   1      49.212  25.994  30.933  1.00  0.00     0.023 A 
ATOM     90  C   UNL A   1      50.082  25.145  31.660  1.00  0.00     0.031 A 
ATOM     91  C   UNL A   1      49.439  27.380  31.019  1.00  0.00     0.131 A 
ATOM     92  C   UNL A   1      51.127  25.706  32.431  1.00  0.00     0.055 A 
ATOM     93  C   UNL A   1      50.486  27.926  31.755  1.00  0.00     0.041 A 
ATOM     94  F   UNL A   1      48.653  28.241  30.349  1.00  0.00    -0.206 F 
ATOM     95  C   UNL A   1      51.332  27.091  32.469  1.00  0.00     0.022 A 
BRANCH  92  96
ATOM     96  S   UNL A   1      52.230  24.662  33.445  1.00  0.00     0.124 S 
ATOM     97  O   UNL A   1      52.231  23.384  32.744  1.00  0.00    -0.237 OA
ATOM     98  O   UNL A   1      53.485  25.408  33.419  1.00  0.00    -0.237 OA
ATOM     99  O   UNL A   1      51.568  24.636  34.752  1.00  0.00    -0.744 OA
ENDBRANCH  92  96
ENDBRANCH  66  89
ENDBRANCH  40  41
ENDBRANCH  33  35
ENDBRANCH  32  33
ENDBRANCH  31  32
ENDBRANCH  30  31
ENDBRANCH  29  30
ENDBRANCH   1  29
TORSDOF 21
ENDMDL
MODEL 3
REMARK VINA RESULT:      -9.9      3.185      6.040
REMARK SMILES CC1=Nc2nc(NC(=O)CCC(=O)OCCOCCOC(=O)c3ccc(-c4c5nc(c(-c6cc(S(=O)(=O)[O-])ccc6F)c6ccc([nH]6)c(-c6cc(S(=O)(=O)[O-])ccc6F)c6nc(c(-c7cc(S(=O)(=O)[O-])ccc7F)c7ccc4[nH]7)C=C6)C=C5)cc3)nn2[C@@H](c2ccc(Cl)cc2)C1
REMARK SMILES IDX 16 1 15 2 14 3 12 4 13 5 11 6 10 7 8 8 7 9 9 11 6 12 1 13
REMARK SMILES IDX 2 14 3 15 96 16 4 17 88 18 5 19 87 20 86 21 89 22 90 23
REMARK SMILES IDX 95 24 91 25 94 26 92 27 93 28 17 29 18 30 19 31 20 32 21 33
REMARK SMILES IDX 22 34 23 35 24 36 85 37 25 38 84 39 26 40 27 41 28 42 78 43
REMARK SMILES IDX 29 44 83 45 77 46 79 47 30 48 82 49 76 50 75 51 31 53 63 54
REMARK SMILES IDX 43 55 62 56 44 57 47 58 61 59 80 60 45 61 46 62 60 64 81 65
REMARK SMILES IDX 48 66 32 67 33 68 41 69 34 70 40 71 42 72 39 73 35 74 36 75
REMARK SMILES IDX 37 76 38 77 64 78 65 79 73 80 66 81 72 82 74 83 71 84 67 85
REMARK SMILES IDX 68 86 69 87 70 88 49 89 50 90 58 91 51 92 57 93 59 94 56 95
REMARK SMILES IDX 52 96 53 97 54 98 55 99
REMARK H PARENT 7 10 79 52 47 63
REMARK Flexibility Score: inf
ROOT
ATOM      1  C   UNL A   1      32.195  24.954  25.398  1.00  0.00     0.202 C 
ENDROOT
BRANCH   1   2
ATOM      2  C   UNL A   1      31.497  23.950  24.482  1.00  0.00     0.261 C 
BRANCH   2   3
ATOM      3  O   UNL A   1      32.367  22.913  23.977  1.00  0.00    -0.463 OA
BRANCH   3   4
ATOM      4  C   UNL A   1      32.509  21.792  24.720  1.00  0.00     0.306 C 
ATOM      5  O   UNL A   1      31.572  21.179  25.221  1.00  0.00    -0.252 OA
BRANCH   4   6
ATOM      6  C   UNL A   1      33.957  21.433  24.990  1.00  0.00     0.132 C 
BRANCH   6   7
ATOM      7  C   UNL A   1      34.980  22.530  25.256  1.00  0.00     0.112 C 
BRANCH   7   8
ATOM      8  C   UNL A   1      35.842  22.874  24.075  1.00  0.00     0.227 C 
ATOM      9  N   UNL A   1      37.180  23.011  24.213  1.00  0.00    -0.293 N 
ATOM     10  H   UNL A   1      37.649  23.340  23.412  1.00  0.00     0.173 HD
ATOM     11  O   UNL A   1      35.330  23.000  22.959  1.00  0.00    -0.275 OA
BRANCH   9  12
ATOM     12  C   UNL A   1      37.986  22.767  25.293  1.00  0.00     0.250 A 
ATOM     13  C   UNL A   1      42.756  25.165  28.980  1.00  0.00     0.062 C 
ATOM     14  C   UNL A   1      41.755  24.190  28.412  1.00  0.00     0.021 C 
ATOM     15  N   UNL A   1      40.692  24.738  27.932  1.00  0.00    -0.221 NA
ATOM     16  C   UNL A   1      42.073  22.693  28.532  1.00  0.00     0.083 C 
ATOM     17  C   UNL A   1      39.807  23.942  27.330  1.00  0.00     0.250 A 
ATOM     18  C   UNL A   1      41.418  21.644  27.590  1.00  0.00     0.147 C 
ATOM     19  N   UNL A   1      38.511  24.279  26.337  1.00  0.00    -0.174 NA
ATOM     20  N   UNL A   1      40.193  22.171  27.017  1.00  0.00    -0.220 N 
ATOM     21  N   UNL A   1      39.059  21.485  25.729  1.00  0.00    -0.130 NA
BRANCH  18  22
ATOM     22  C   UNL A   1      42.428  21.046  26.612  1.00  0.00    -0.023 A 
ATOM     23  C   UNL A   1      43.544  21.703  26.082  1.00  0.00     0.007 A 
ATOM     24  C   UNL A   1      42.258  19.701  26.233  1.00  0.00     0.007 A 
ATOM     25  C   UNL A   1      44.462  21.068  25.240  1.00  0.00     0.021 A 
ATOM     26  C   UNL A   1      43.175  19.054  25.393  1.00  0.00     0.021 A 
ATOM     27  C   UNL A   1      44.278  19.742  24.901  1.00  0.00     0.041 A 
ATOM     28  Cl  UNL A   1      45.412  18.954  23.880  1.00  0.00    -0.084 Cl
ENDBRANCH  18  22
ENDBRANCH   9  12
ENDBRANCH   7   8
ENDBRANCH   6   7
ENDBRANCH   4   6
ENDBRANCH   3   4
ENDBRANCH   2   3
ENDBRANCH   1   2
BRANCH   1  29
ATOM     29  O   UNL A   1      31.516  26.203  25.428  1.00  0.00    -0.374 OA
BRANCH  29  30
ATOM     30  C   UNL A   1      31.794  26.971  26.761  1.00  0.00     0.202 C 
BRANCH  30  31
ATOM     31  C   UNL A   1      32.684  29.058  26.943  1.00  0.00     0.261 C 
BRANCH  31  32
ATOM     32  O   UNL A   1      34.156  29.382  27.004  1.00  0.00    -0.460 OA
BRANCH  32  33
ATOM     33  C   UNL A   1      34.496  30.382  27.859  1.00  0.00     0.338 C 
ATOM     34  O   UNL A   1      33.882  31.412  28.074  1.00  0.00    -0.246 OA
BRANCH  33  35
ATOM     35  C   UNL A   1      35.732  29.940  28.505  1.00  0.00     0.060 A 
ATOM     36  C   UNL A   1      35.816  30.132  29.874  1.00  0.00     0.016 A 
ATOM     37  C   UNL A   1      36.853  29.722  27.689  1.00  0.00     0.016 A 
ATOM     38  C   UNL A   1      37.031  30.547  30.339  1.00  0.00     0.010 A 
ATOM     39  C   UNL A   1      38.055  30.152  28.142  1.00  0.00     0.010 A 
ATOM     40  C   UNL A   1      38.087  30.681  29.421  1.00  0.00    -0.014 A 
BRANCH  40  41
ATOM     41  C   UNL A   1      39.359  31.152  29.893  1.00  0.00     0.031 A 
ATOM     42  C   UNL A   1      40.164  29.968  30.247  1.00  0.00     0.074 A 
ATOM     43  C   UNL A   1      39.701  32.453  29.891  1.00  0.00     0.049 A 
ATOM     44  N   UNL A   1      40.270  29.469  31.433  1.00  0.00    -0.248 NA
ATOM     45  C   UNL A   1      40.531  29.018  29.175  1.00  0.00     0.031 C 
ATOM     46  C   UNL A   1      38.967  33.593  29.331  1.00  0.00     0.029 A 
ATOM     47  N   UNL A   1      40.841  33.034  30.348  1.00  0.00    -0.354 N 
ATOM     48  C   UNL A   1      41.068  28.351  31.263  1.00  0.00     0.074 A 
ATOM     49  C   UNL A   1      40.894  27.957  29.898  1.00  0.00     0.031 C 
ATOM     50  C   UNL A   1      39.778  34.677  29.288  1.00  0.00     0.029 A 
ATOM     51  C   UNL A   1      41.039  34.355  29.936  1.00  0.00     0.049 A 
ATOM     52  H   UNL A   1      41.481  32.559  30.927  1.00  0.00     0.167 HD
ATOM     53  C   UNL A   1      42.116  28.184  32.112  1.00  0.00     0.034 A 
ATOM     54  C   UNL A   1      42.186  35.083  30.089  1.00  0.00     0.034 A 
ATOM     55  C   UNL A   1      41.883  28.950  33.329  1.00  0.00     0.049 A 
ATOM     56  C   UNL A   1      42.920  34.439  31.210  1.00  0.00     0.074 A 
ATOM     57  C   UNL A   1      40.892  28.973  34.292  1.00  0.00     0.029 A 
ATOM     58  N   UNL A   1      42.523  30.167  33.408  1.00  0.00    -0.354 N 
ATOM     59  N   UNL A   1      42.469  34.417  32.437  1.00  0.00    -0.248 NA
ATOM     60  C   UNL A   1      43.863  33.382  30.880  1.00  0.00     0.031 C 
ATOM     61  C   UNL A   1      40.736  30.349  34.645  1.00  0.00     0.029 A 
ATOM     62  C   UNL A   1      41.705  31.104  33.981  1.00  0.00     0.049 A 
ATOM     63  H   UNL A   1      43.441  30.340  33.096  1.00  0.00     0.167 HD
ATOM     64  C   UNL A   1      42.710  33.124  32.887  1.00  0.00     0.074 A 
ATOM     65  C   UNL A   1      43.656  32.566  31.917  1.00  0.00     0.031 C 
ATOM     66  C   UNL A   1      41.882  32.543  33.810  1.00  0.00     0.034 A 
BRANCH  53  67
ATOM     67  C   UNL A   1      43.518  27.850  31.622  1.00  0.00     0.023 A 
ATOM     68  C   UNL A   1      44.169  26.806  32.301  1.00  0.00     0.031 A 
ATOM     69  C   UNL A   1      44.349  28.644  30.791  1.00  0.00     0.131 A 
ATOM     70  C   UNL A   1      45.566  26.677  32.257  1.00  0.00     0.055 A 
ATOM     71  C   UNL A   1      45.734  28.480  30.717  1.00  0.00     0.041 A 
ATOM     72  F   UNL A   1      43.906  29.662  30.049  1.00  0.00    -0.206 F 
ATOM     73  C   UNL A   1      46.357  27.513  31.478  1.00  0.00     0.022 A 
BRANCH  70  74
ATOM     74  S   UNL A   1      46.340  25.489  33.377  1.00  0.00     0.124 S 
ATOM     75  O   UNL A   1      45.570  24.284  33.089  1.00  0.00    -0.237 OA
ATOM     76  O   UNL A   1      47.723  25.500  32.912  1.00  0.00    -0.237 OA
ATOM     77  O   UNL A   1      46.120  26.078  34.695  1.00  0.00    -0.744 OA
ENDBRANCH  70  74
ENDBRANCH  53  67
BRANCH  54  78
ATOM     78  C   UNL A   1      42.852  35.986  29.090  1.00  0.00     0.023 A 
ATOM     79  C   UNL A   1      43.142  37.354  29.341  1.00  0.00     0.031 A 
ATOM     80  C   UNL A   1      43.461  35.426  27.944  1.00  0.00     0.131 A 
ATOM     81  C   UNL A   1      44.002  38.083  28.474  1.00  0.00     0.055 A 
ATOM     82  C   UNL A   1      44.315  36.145  27.102  1.00  0.00     0.041 A 
ATOM     83  F   UNL A   1      43.318  34.127  27.643  1.00  0.00    -0.206 F 
ATOM     84  C   UNL A   1      44.598  37.473  27.370  1.00  0.00     0.022 A 
BRANCH  81  85
ATOM     85  S   UNL A   1      44.427  39.834  28.794  1.00  0.00     0.124 S 
ATOM     86  O   UNL A   1      45.673  39.723  29.542  1.00  0.00    -0.237 OA
ATOM     87  O   UNL A   1      44.522  40.390  27.449  1.00  0.00    -0.237 OA
ATOM     88  O   UNL A   1      43.290  40.327  29.576  1.00  0.00    -0.744 OA
ENDBRANCH  81  85
ENDBRANCH  54  78
BRANCH  66  89
ATOM     89  C   UNL A   1      41.010  33.445  34.669  1.00  0.00     0.023 A 
ATOM     90  C   UNL A   1      41.386  34.118  35.856  1.00  0.00     0.031 A 
ATOM     91  C   UNL A   1      39.717  33.689  34.168  1.00  0.00     0.131 A 
ATOM     92  C   UNL A   1      40.472  34.993  36.486  1.00  0.00     0.055 A 
ATOM     93  C   UNL A   1      38.831  34.574  34.775  1.00  0.00     0.041 A 
ATOM     94  F   UNL A   1      39.298  33.087  33.042  1.00  0.00    -0.206 F 
ATOM     95  C   UNL A   1      39.204  35.227  35.941  1.00  0.00     0.022 A 
BRANCH  92  96
ATOM     96  S   UNL A   1      40.881  35.829  38.058  1.00  0.00     0.124 S 
ATOM     97  O   UNL A   1      42.314  36.074  37.953  1.00  0.00    -0.237 OA
ATOM     98  O   UNL A   1      40.024  37.011  38.022  1.00  0.00    -0.237 OA
ATOM     99  O   UNL A   1      40.507  34.842  39.075  1.00  0.00    -0.744 OA
ENDBRANCH  92  96
ENDBRANCH  66  89
ENDBRANCH  40  41
ENDBRANCH  33  35
ENDBRANCH  32  33
ENDBRANCH  31  32
ENDBRANCH  30  31
ENDBRANCH  29  30
ENDBRANCH   1  29
TORSDOF 21
ENDMDL
