MODEL 1
REMARK VINA RESULT:     -11.7      0.000      0.000
REMARK SMILES COc1cc(C)c(S(=O)(=O)Nc2cc(C(=O)OCCOCCOC(=O)c3ccc(-c4c5nc(c(-c6cc(S(=O)(=O)[O-])ccc6F)c6ccc([nH]6)c(-c6cc(S(=O)(=O)[O-])ccc6F)c6nc(c(-c7cc(S(=O)(=O)[O-])ccc7F)c7ccc4[nH]7)C=C6)C=C5)cc3)ccc2F)cc1OC
REMARK SMILES IDX 19 1 18 2 17 3 15 4 16 5 14 6 12 7 13 8 91 9 90 10 92 11
REMARK SMILES IDX 89 12 11 13 8 15 9 16 10 17 7 18 3 19 4 20 94 21 5 22 93 23
REMARK SMILES IDX 6 24 2 25 1 26 95 27 96 28 20 29 21 30 22 31 23 32 24 33
REMARK SMILES IDX 25 34 26 35 27 36 88 37 28 38 87 39 29 40 30 41 31 42 81 43
REMARK SMILES IDX 32 44 86 45 80 46 82 47 33 48 85 49 79 50 78 51 34 53 66 54
REMARK SMILES IDX 46 55 65 56 47 57 50 58 64 59 83 60 48 61 49 62 63 64 84 65
REMARK SMILES IDX 51 66 35 67 36 68 44 69 37 70 43 71 45 72 42 73 38 74 39 75
REMARK SMILES IDX 40 76 41 77 67 78 68 79 76 80 69 81 75 82 77 83 74 84 70 85
REMARK SMILES IDX 71 86 72 87 73 88 52 89 53 90 61 91 54 92 60 93 62 94 59 95
REMARK SMILES IDX 55 96 56 97 57 98 58 99
REMARK H PARENT 11 14 82 52 50 63
REMARK Flexibility Score: inf
ROOT
ATOM      1  C   UNL A   1      36.038  20.307  25.047  1.00  0.00     0.202 C 
ENDROOT
BRANCH   1   2
ATOM      2  C   UNL A   1      35.560  21.489  25.848  1.00  0.00     0.261 C 
BRANCH   2   3
ATOM      3  O   UNL A   1      34.250  21.915  25.565  1.00  0.00    -0.460 OA
BRANCH   3   4
ATOM      4  C   UNL A   1      33.564  22.275  26.659  1.00  0.00     0.338 C 
ATOM      5  O   UNL A   1      33.540  21.727  27.736  1.00  0.00    -0.246 OA
BRANCH   4   6
ATOM      6  C   UNL A   1      32.745  23.436  26.243  1.00  0.00     0.062 A 
ATOM      7  C   UNL A   1      32.025  24.620  24.304  1.00  0.00     0.085 A 
ATOM      8  C   UNL A   1      33.065  24.100  25.041  1.00  0.00     0.045 A 
ATOM      9  C   UNL A   1      30.786  24.827  24.943  1.00  0.00     0.147 A 
ATOM     10  C   UNL A   1      30.525  24.329  26.222  1.00  0.00     0.042 A 
ATOM     11  F   UNL A   1      29.763  25.336  24.240  1.00  0.00    -0.205 F 
ATOM     12  C   UNL A   1      31.499  23.575  26.860  1.00  0.00     0.019 A 
BRANCH   7  13
ATOM     13  N   UNL A   1      32.054  24.690  22.880  1.00  0.00    -0.277 N 
ATOM     14  H   UNL A   1      31.890  23.843  22.406  1.00  0.00     0.180 HD
BRANCH  13  15
ATOM     15  S   UNL A   1      32.330  26.031  21.910  1.00  0.00     0.262 S 
ATOM     16  O   UNL A   1      31.402  26.008  20.804  1.00  0.00    -0.201 OA
ATOM     17  O   UNL A   1      33.758  25.959  21.654  1.00  0.00    -0.201 OA
BRANCH  15  18
ATOM     18  C   UNL A   1      32.095  27.609  22.740  1.00  0.00     0.094 A 
ATOM     19  C   UNL A   1      31.119  29.797  24.191  1.00  0.00     0.161 A 
ATOM     20  C   UNL A   1      32.409  29.321  24.385  1.00  0.00     0.055 A 
ATOM     21  C   UNL A   1      30.397  29.375  23.085  1.00  0.00     0.162 A 
ATOM     22  C   UNL A   1      32.884  28.182  23.737  1.00  0.00    -0.027 A 
ATOM     23  C   UNL A   1      30.909  28.288  22.356  1.00  0.00     0.073 A 
ATOM     24  C   UNL A   1      34.102  27.646  24.382  1.00  0.00     0.046 C 
BRANCH  19  25
ATOM     25  O   UNL A   1      30.611  30.608  25.162  1.00  0.00    -0.493 OA
ATOM     26  C   UNL A   1      31.547  30.782  26.242  1.00  0.00     0.278 C 
ENDBRANCH  19  25
BRANCH  21  27
ATOM     27  O   UNL A   1      29.197  29.844  22.622  1.00  0.00    -0.493 OA
ATOM     28  C   UNL A   1      28.029  29.067  22.876  1.00  0.00     0.278 C 
ENDBRANCH  21  27
ENDBRANCH  15  18
ENDBRANCH  13  15
ENDBRANCH   7  13
ENDBRANCH   4   6
ENDBRANCH   3   4
ENDBRANCH   2   3
ENDBRANCH   1   2
BRANCH   1  29
ATOM     29  O   UNL A   1      37.458  20.404  24.927  1.00  0.00    -0.374 OA
BRANCH  29  30
ATOM     30  C   UNL A   1      37.991  21.637  25.379  1.00  0.00     0.202 C 
BRANCH  30  31
ATOM     31  C   UNL A   1      39.343  21.487  26.095  1.00  0.00     0.261 C 
BRANCH  31  32
ATOM     32  O   UNL A   1      39.554  22.628  26.955  1.00  0.00    -0.460 OA
BRANCH  32  33
ATOM     33  C   UNL A   1      40.548  23.485  26.585  1.00  0.00     0.338 C 
ATOM     34  O   UNL A   1      41.654  23.151  26.198  1.00  0.00    -0.246 OA
BRANCH  33  35
ATOM     35  C   UNL A   1      40.143  24.891  26.881  1.00  0.00     0.060 A 
ATOM     36  C   UNL A   1      40.712  25.962  26.166  1.00  0.00     0.016 A 
ATOM     37  C   UNL A   1      39.442  25.140  28.055  1.00  0.00     0.016 A 
ATOM     38  C   UNL A   1      40.755  27.245  26.731  1.00  0.00     0.010 A 
ATOM     39  C   UNL A   1      39.573  26.374  28.647  1.00  0.00     0.010 A 
ATOM     40  C   UNL A   1      40.283  27.419  28.027  1.00  0.00    -0.014 A 
BRANCH  40  41
ATOM     41  C   UNL A   1      40.635  28.510  28.961  1.00  0.00     0.031 A 
ATOM     42  C   UNL A   1      39.622  29.561  29.219  1.00  0.00     0.074 A 
ATOM     43  C   UNL A   1      41.687  28.327  29.778  1.00  0.00     0.049 A 
ATOM     44  N   UNL A   1      39.573  30.418  30.179  1.00  0.00    -0.248 NA
ATOM     45  C   UNL A   1      38.529  29.713  28.258  1.00  0.00     0.031 C 
ATOM     46  C   UNL A   1      41.877  28.770  31.141  1.00  0.00     0.029 A 
ATOM     47  N   UNL A   1      42.872  27.702  29.495  1.00  0.00    -0.354 N 
ATOM     48  C   UNL A   1      38.448  31.204  29.977  1.00  0.00     0.074 A 
ATOM     49  C   UNL A   1      37.777  30.645  28.835  1.00  0.00     0.031 C 
ATOM     50  C   UNL A   1      43.177  28.732  31.464  1.00  0.00     0.029 A 
ATOM     51  C   UNL A   1      43.875  28.215  30.328  1.00  0.00     0.049 A 
ATOM     52  H   UNL A   1      42.999  27.003  28.813  1.00  0.00     0.167 HD
ATOM     53  C   UNL A   1      38.263  32.380  30.640  1.00  0.00     0.034 A 
ATOM     54  C   UNL A   1      44.982  28.697  29.725  1.00  0.00     0.034 A 
ATOM     55  C   UNL A   1      39.552  32.917  31.119  1.00  0.00     0.049 A 
ATOM     56  C   UNL A   1      44.772  30.229  29.568  1.00  0.00     0.074 A 
ATOM     57  C   UNL A   1      40.034  33.510  32.272  1.00  0.00     0.029 A 
ATOM     58  N   UNL A   1      40.677  32.810  30.274  1.00  0.00    -0.354 N 
ATOM     59  N   UNL A   1      43.688  30.916  29.914  1.00  0.00    -0.248 NA
ATOM     60  C   UNL A   1      45.833  31.113  29.098  1.00  0.00     0.031 C 
ATOM     61  C   UNL A   1      41.452  33.624  32.160  1.00  0.00     0.029 A 
ATOM     62  C   UNL A   1      41.849  33.140  30.919  1.00  0.00     0.049 A 
ATOM     63  H   UNL A   1      40.628  32.532  29.331  1.00  0.00     0.167 HD
ATOM     64  C   UNL A   1      43.915  32.274  29.782  1.00  0.00     0.074 A 
ATOM     65  C   UNL A   1      45.256  32.323  29.197  1.00  0.00     0.031 C 
ATOM     66  C   UNL A   1      43.099  33.309  30.191  1.00  0.00     0.034 A 
BRANCH  53  67
ATOM     67  C   UNL A   1      36.887  33.008  30.920  1.00  0.00     0.023 A 
ATOM     68  C   UNL A   1      36.019  33.230  29.831  1.00  0.00     0.031 A 
ATOM     69  C   UNL A   1      36.395  33.527  32.141  1.00  0.00     0.131 A 
ATOM     70  C   UNL A   1      34.808  33.948  29.945  1.00  0.00     0.055 A 
ATOM     71  C   UNL A   1      35.170  34.208  32.270  1.00  0.00     0.041 A 
ATOM     72  F   UNL A   1      37.054  33.433  33.297  1.00  0.00    -0.206 F 
ATOM     73  C   UNL A   1      34.371  34.435  31.166  1.00  0.00     0.022 A 
BRANCH  70  74
ATOM     74  S   UNL A   1      33.851  34.287  28.443  1.00  0.00     0.124 S 
ATOM     75  O   UNL A   1      32.704  35.018  28.973  1.00  0.00    -0.237 OA
ATOM     76  O   UNL A   1      34.794  35.059  27.641  1.00  0.00    -0.237 OA
ATOM     77  O   UNL A   1      33.547  32.953  27.925  1.00  0.00    -0.744 OA
ENDBRANCH  70  74
ENDBRANCH  53  67
BRANCH  54  78
ATOM     78  C   UNL A   1      45.433  27.525  28.828  1.00  0.00     0.023 A 
ATOM     79  C   UNL A   1      45.428  27.846  27.414  1.00  0.00     0.031 A 
ATOM     80  C   UNL A   1      46.423  26.614  29.239  1.00  0.00     0.131 A 
ATOM     81  C   UNL A   1      46.532  27.529  26.585  1.00  0.00     0.055 A 
ATOM     82  C   UNL A   1      47.466  26.219  28.365  1.00  0.00     0.041 A 
ATOM     83  F   UNL A   1      46.543  26.276  30.531  1.00  0.00    -0.206 F 
ATOM     84  C   UNL A   1      47.564  26.731  27.068  1.00  0.00     0.022 A 
BRANCH  81  85
ATOM     85  S   UNL A   1      46.810  28.468  25.023  1.00  0.00     0.124 S 
ATOM     86  O   UNL A   1      45.946  27.772  24.080  1.00  0.00    -0.237 OA
ATOM     87  O   UNL A   1      46.420  29.821  25.395  1.00  0.00    -0.237 OA
ATOM     88  O   UNL A   1      48.248  28.327  24.786  1.00  0.00    -0.744 OA
ENDBRANCH  81  85
ENDBRANCH  54  78
BRANCH  66  89
ATOM     89  C   UNL A   1      43.442  34.768  29.997  1.00  0.00     0.023 A 
ATOM     90  C   UNL A   1      43.249  35.418  28.784  1.00  0.00     0.031 A 
ATOM     91  C   UNL A   1      44.064  35.515  31.031  1.00  0.00     0.131 A 
ATOM     92  C   UNL A   1      43.446  36.800  28.701  1.00  0.00     0.055 A 
ATOM     93  C   UNL A   1      44.424  36.853  30.881  1.00  0.00     0.041 A 
ATOM     94  F   UNL A   1      44.320  34.980  32.236  1.00  0.00    -0.206 F 
ATOM     95  C   UNL A   1      44.060  37.522  29.724  1.00  0.00     0.022 A 
BRANCH  92  96
ATOM     96  S   UNL A   1      42.645  37.647  27.323  1.00  0.00     0.124 S 
ATOM     97  O   UNL A   1      42.154  36.538  26.513  1.00  0.00    -0.237 OA
ATOM     98  O   UNL A   1      41.622  38.424  28.019  1.00  0.00    -0.237 OA
ATOM     99  O   UNL A   1      43.723  38.433  26.731  1.00  0.00    -0.744 OA
ENDBRANCH  92  96
ENDBRANCH  66  89
ENDBRANCH  40  41
ENDBRANCH  33  35
ENDBRANCH  32  33
ENDBRANCH  31  32
ENDBRANCH  30  31
ENDBRANCH  29  30
ENDBRANCH   1  29
TORSDOF 22
ENDMDL
MODEL 2
REMARK VINA RESULT:     -11.3      1.537      2.159
REMARK SMILES COc1cc(C)c(S(=O)(=O)Nc2cc(C(=O)OCCOCCOC(=O)c3ccc(-c4c5nc(c(-c6cc(S(=O)(=O)[O-])ccc6F)c6ccc([nH]6)c(-c6cc(S(=O)(=O)[O-])ccc6F)c6nc(c(-c7cc(S(=O)(=O)[O-])ccc7F)c7ccc4[nH]7)C=C6)C=C5)cc3)ccc2F)cc1OC
REMARK SMILES IDX 19 1 18 2 17 3 15 4 16 5 14 6 12 7 13 8 91 9 90 10 92 11
REMARK SMILES IDX 89 12 11 13 8 15 9 16 10 17 7 18 3 19 4 20 94 21 5 22 93 23
REMARK SMILES IDX 6 24 2 25 1 26 95 27 96 28 20 29 21 30 22 31 23 32 24 33
REMARK SMILES IDX 25 34 26 35 27 36 88 37 28 38 87 39 29 40 30 41 31 42 81 43
REMARK SMILES IDX 32 44 86 45 80 46 82 47 33 48 85 49 79 50 78 51 34 53 66 54
REMARK SMILES IDX 46 55 65 56 47 57 50 58 64 59 83 60 48 61 49 62 63 64 84 65
REMARK SMILES IDX 51 66 35 67 36 68 44 69 37 70 43 71 45 72 42 73 38 74 39 75
REMARK SMILES IDX 40 76 41 77 67 78 68 79 76 80 69 81 75 82 77 83 74 84 70 85
REMARK SMILES IDX 71 86 72 87 73 88 52 89 53 90 61 91 54 92 60 93 62 94 59 95
REMARK SMILES IDX 55 96 56 97 57 98 58 99
REMARK H PARENT 11 14 82 52 50 63
REMARK Flexibility Score: inf
ROOT
ATOM      1  C   UNL A   1      36.100  20.740  24.908  1.00  0.00     0.202 C 
ENDROOT
BRANCH   1   2
ATOM      2  C   UNL A   1      34.801  21.481  24.736  1.00  0.00     0.261 C 
BRANCH   2   3
ATOM      3  O   UNL A   1      33.709  20.955  25.449  1.00  0.00    -0.460 OA
BRANCH   3   4
ATOM      4  C   UNL A   1      33.601  21.449  26.690  1.00  0.00     0.338 C 
ATOM      5  O   UNL A   1      34.140  21.055  27.697  1.00  0.00    -0.246 OA
BRANCH   4   6
ATOM      6  C   UNL A   1      32.589  22.526  26.596  1.00  0.00     0.062 A 
ATOM      7  C   UNL A   1      32.377  24.863  26.177  1.00  0.00     0.085 A 
ATOM      8  C   UNL A   1      32.975  23.850  26.894  1.00  0.00     0.045 A 
ATOM      9  C   UNL A   1      31.171  24.589  25.504  1.00  0.00     0.147 A 
ATOM     10  C   UNL A   1      30.682  23.287  25.368  1.00  0.00     0.042 A 
ATOM     11  F   UNL A   1      30.574  25.566  24.805  1.00  0.00    -0.205 F 
ATOM     12  C   UNL A   1      31.430  22.234  25.873  1.00  0.00     0.019 A 
BRANCH   7  13
ATOM     13  N   UNL A   1      33.056  26.074  25.851  1.00  0.00    -0.277 N 
ATOM     14  H   UNL A   1      33.823  25.984  25.241  1.00  0.00     0.180 HD
BRANCH  13  15
ATOM     15  S   UNL A   1      32.713  27.632  26.373  1.00  0.00     0.262 S 
ATOM     16  O   UNL A   1      33.952  28.306  26.681  1.00  0.00    -0.201 OA
ATOM     17  O   UNL A   1      31.730  27.415  27.421  1.00  0.00    -0.201 OA
BRANCH  15  18
ATOM     18  C   UNL A   1      31.865  28.651  25.158  1.00  0.00     0.094 A 
ATOM     19  C   UNL A   1      30.120  29.703  23.235  1.00  0.00     0.161 A 
ATOM     20  C   UNL A   1      30.557  30.468  24.309  1.00  0.00     0.055 A 
ATOM     21  C   UNL A   1      30.758  28.505  22.950  1.00  0.00     0.162 A 
ATOM     22  C   UNL A   1      31.355  29.939  25.321  1.00  0.00    -0.027 A 
ATOM     23  C   UNL A   1      31.646  28.000  23.916  1.00  0.00     0.073 A 
ATOM     24  C   UNL A   1      31.359  30.794  26.527  1.00  0.00     0.046 C 
BRANCH  19  25
ATOM     25  O   UNL A   1      29.022  30.153  22.565  1.00  0.00    -0.493 OA
ATOM     26  C   UNL A   1      28.126  30.859  23.443  1.00  0.00     0.278 C 
ENDBRANCH  19  25
BRANCH  21  27
ATOM     27  O   UNL A   1      30.602  27.697  21.856  1.00  0.00    -0.493 OA
ATOM     28  C   UNL A   1      31.278  26.441  21.847  1.00  0.00     0.278 C 
ENDBRANCH  21  27
ENDBRANCH  15  18
ENDBRANCH  13  15
ENDBRANCH   7  13
ENDBRANCH   4   6
ENDBRANCH   3   4
ENDBRANCH   2   3
ENDBRANCH   1   2
BRANCH   1  29
ATOM     29  O   UNL A   1      36.889  21.451  25.862  1.00  0.00    -0.374 OA
BRANCH  29  30
ATOM     30  C   UNL A   1      38.109  21.951  25.343  1.00  0.00     0.202 C 
BRANCH  30  31
ATOM     31  C   UNL A   1      39.344  21.447  26.105  1.00  0.00     0.261 C 
BRANCH  31  32
ATOM     32  O   UNL A   1      39.692  22.402  27.130  1.00  0.00    -0.460 OA
BRANCH  32  33
ATOM     33  C   UNL A   1      40.609  23.350  26.783  1.00  0.00     0.338 C 
ATOM     34  O   UNL A   1      41.741  23.122  26.395  1.00  0.00    -0.246 OA
BRANCH  33  35
ATOM     35  C   UNL A   1      40.082  24.709  27.106  1.00  0.00     0.060 A 
ATOM     36  C   UNL A   1      40.418  25.813  26.300  1.00  0.00     0.016 A 
ATOM     37  C   UNL A   1      39.520  24.915  28.360  1.00  0.00     0.016 A 
ATOM     38  C   UNL A   1      40.382  27.112  26.831  1.00  0.00     0.010 A 
ATOM     39  C   UNL A   1      39.580  26.176  28.906  1.00  0.00     0.010 A 
ATOM     40  C   UNL A   1      40.070  27.274  28.176  1.00  0.00    -0.014 A 
BRANCH  40  41
ATOM     41  C   UNL A   1      40.411  28.430  29.032  1.00  0.00     0.031 A 
ATOM     42  C   UNL A   1      39.362  29.447  29.280  1.00  0.00     0.074 A 
ATOM     43  C   UNL A   1      41.506  28.341  29.808  1.00  0.00     0.049 A 
ATOM     44  N   UNL A   1      39.314  30.353  30.194  1.00  0.00    -0.248 NA
ATOM     45  C   UNL A   1      38.221  29.496  28.365  1.00  0.00     0.031 C 
ATOM     46  C   UNL A   1      41.734  28.867  31.135  1.00  0.00     0.029 A 
ATOM     47  N   UNL A   1      42.706  27.755  29.504  1.00  0.00    -0.354 N 
ATOM     48  C   UNL A   1      38.146  31.075  30.003  1.00  0.00     0.074 A 
ATOM     49  C   UNL A   1      37.452  30.424  28.925  1.00  0.00     0.031 C 
ATOM     50  C   UNL A   1      43.047  28.906  31.399  1.00  0.00     0.029 A 
ATOM     51  C   UNL A   1      43.718  28.358  30.260  1.00  0.00     0.049 A 
ATOM     52  H   UNL A   1      42.835  27.026  28.855  1.00  0.00     0.167 HD
ATOM     53  C   UNL A   1      37.934  32.277  30.610  1.00  0.00     0.034 A 
ATOM     54  C   UNL A   1      44.773  28.855  29.582  1.00  0.00     0.034 A 
ATOM     55  C   UNL A   1      39.216  32.898  30.999  1.00  0.00     0.049 A 
ATOM     56  C   UNL A   1      44.484  30.365  29.353  1.00  0.00     0.074 A 
ATOM     57  C   UNL A   1      39.720  33.575  32.095  1.00  0.00     0.029 A 
ATOM     58  N   UNL A   1      40.306  32.794  30.109  1.00  0.00    -0.354 N 
ATOM     59  N   UNL A   1      43.386  31.020  29.712  1.00  0.00    -0.248 NA
ATOM     60  C   UNL A   1      45.480  31.268  28.787  1.00  0.00     0.031 C 
ATOM     61  C   UNL A   1      41.124  33.746  31.910  1.00  0.00     0.029 A 
ATOM     62  C   UNL A   1      41.489  33.212  30.680  1.00  0.00     0.049 A 
ATOM     63  H   UNL A   1      40.229  32.462  29.186  1.00  0.00     0.167 HD
ATOM     64  C   UNL A   1      43.541  32.378  29.497  1.00  0.00     0.074 A 
ATOM     65  C   UNL A   1      44.851  32.455  28.848  1.00  0.00     0.031 C 
ATOM     66  C   UNL A   1      42.695  33.397  29.887  1.00  0.00     0.034 A 
BRANCH  53  67
ATOM     67  C   UNL A   1      36.544  32.857  30.919  1.00  0.00     0.023 A 
ATOM     68  C   UNL A   1      35.772  33.353  29.848  1.00  0.00     0.031 A 
ATOM     69  C   UNL A   1      35.953  33.086  32.185  1.00  0.00     0.131 A 
ATOM     70  C   UNL A   1      34.560  34.055  30.031  1.00  0.00     0.055 A 
ATOM     71  C   UNL A   1      34.726  33.750  32.373  1.00  0.00     0.041 A 
ATOM     72  F   UNL A   1      36.513  32.705  33.335  1.00  0.00    -0.206 F 
ATOM     73  C   UNL A   1      34.025  34.251  31.294  1.00  0.00     0.022 A 
BRANCH  70  74
ATOM     74  S   UNL A   1      33.735  34.763  28.581  1.00  0.00     0.124 S 
ATOM     75  O   UNL A   1      33.568  33.592  27.725  1.00  0.00    -0.237 OA
ATOM     76  O   UNL A   1      32.517  35.320  29.158  1.00  0.00    -0.237 OA
ATOM     77  O   UNL A   1      34.696  35.753  28.093  1.00  0.00    -0.744 OA
ENDBRANCH  70  74
ENDBRANCH  53  67
BRANCH  54  78
ATOM     78  C   UNL A   1      45.240  27.656  28.728  1.00  0.00     0.023 A 
ATOM     79  C   UNL A   1      45.320  27.954  27.312  1.00  0.00     0.031 A 
ATOM     80  C   UNL A   1      46.180  26.726  29.207  1.00  0.00     0.131 A 
ATOM     81  C   UNL A   1      46.459  27.593  26.550  1.00  0.00     0.055 A 
ATOM     82  C   UNL A   1      47.257  26.288  28.398  1.00  0.00     0.041 A 
ATOM     83  F   UNL A   1      46.220  26.406  30.509  1.00  0.00    -0.206 F 
ATOM     84  C   UNL A   1      47.441  26.776  27.100  1.00  0.00     0.022 A 
BRANCH  81  85
ATOM     85  S   UNL A   1      46.848  28.498  24.991  1.00  0.00     0.124 S 
ATOM     86  O   UNL A   1      46.444  29.860  25.310  1.00  0.00    -0.237 OA
ATOM     87  O   UNL A   1      48.275  28.256  24.834  1.00  0.00    -0.237 OA
ATOM     88  O   UNL A   1      46.032  27.817  23.984  1.00  0.00    -0.744 OA
ENDBRANCH  81  85
ENDBRANCH  54  78
BRANCH  66  89
ATOM     89  C   UNL A   1      42.960  34.856  29.599  1.00  0.00     0.023 A 
ATOM     90  C   UNL A   1      44.008  35.550  30.191  1.00  0.00     0.031 A 
ATOM     91  C   UNL A   1      42.085  35.606  28.770  1.00  0.00     0.131 A 
ATOM     92  C   UNL A   1      44.295  36.854  29.779  1.00  0.00     0.055 A 
ATOM     93  C   UNL A   1      42.276  36.960  28.504  1.00  0.00     0.041 A 
ATOM     94  F   UNL A   1      41.026  35.043  28.165  1.00  0.00    -0.206 F 
ATOM     95  C   UNL A   1      43.425  37.581  28.965  1.00  0.00     0.022 A 
BRANCH  92  96
ATOM     96  S   UNL A   1      45.954  37.467  30.137  1.00  0.00     0.124 S 
ATOM     97  O   UNL A   1      46.327  36.697  31.318  1.00  0.00    -0.237 OA
ATOM     98  O   UNL A   1      46.661  37.119  28.905  1.00  0.00    -0.237 OA
ATOM     99  O   UNL A   1      45.753  38.897  30.352  1.00  0.00    -0.744 OA
ENDBRANCH  92  96
ENDBRANCH  66  89
ENDBRANCH  40  41
ENDBRANCH  33  35
ENDBRANCH  32  33
ENDBRANCH  31  32
ENDBRANCH  30  31
ENDBRANCH  29  30
ENDBRANCH   1  29
TORSDOF 22
ENDMDL
MODEL 3
REMARK VINA RESULT:     -11.1      3.761      9.616
REMARK SMILES COc1cc(C)c(S(=O)(=O)Nc2cc(C(=O)OCCOCCOC(=O)c3ccc(-c4c5nc(c(-c6cc(S(=O)(=O)[O-])ccc6F)c6ccc([nH]6)c(-c6cc(S(=O)(=O)[O-])ccc6F)c6nc(c(-c7cc(S(=O)(=O)[O-])ccc7F)c7ccc4[nH]7)C=C6)C=C5)cc3)ccc2F)cc1OC
REMARK SMILES IDX 19 1 18 2 17 3 15 4 16 5 14 6 12 7 13 8 91 9 90 10 92 11
REMARK SMILES IDX 89 12 11 13 8 15 9 16 10 17 7 18 3 19 4 20 94 21 5 22 93 23
REMARK SMILES IDX 6 24 2 25 1 26 95 27 96 28 20 29 21 30 22 31 23 32 24 33
REMARK SMILES IDX 25 34 26 35 27 36 88 37 28 38 87 39 29 40 30 41 31 42 81 43
REMARK SMILES IDX 32 44 86 45 80 46 82 47 33 48 85 49 79 50 78 51 34 53 66 54
REMARK SMILES IDX 46 55 65 56 47 57 50 58 64 59 83 60 48 61 49 62 63 64 84 65
REMARK SMILES IDX 51 66 35 67 36 68 44 69 37 70 43 71 45 72 42 73 38 74 39 75
REMARK SMILES IDX 40 76 41 77 67 78 68 79 76 80 69 81 75 82 77 83 74 84 70 85
REMARK SMILES IDX 71 86 72 87 73 88 52 89 53 90 61 91 54 92 60 93 62 94 59 95
REMARK SMILES IDX 55 96 56 97 57 98 58 99
REMARK H PARENT 11 14 82 52 50 63
REMARK Flexibility Score: inf
ROOT
ATOM      1  C   UNL A   1      34.167  29.701  27.236  1.00  0.00     0.202 C 
ENDROOT
BRANCH   1   2
ATOM      2  C   UNL A   1      32.911  28.873  27.186  1.00  0.00     0.261 C 
BRANCH   2   3
ATOM      3  O   UNL A   1      32.740  28.110  26.018  1.00  0.00    -0.460 OA
BRANCH   3   4
ATOM      4  C   UNL A   1      31.796  28.598  25.202  1.00  0.00     0.338 C 
ATOM      5  O   UNL A   1      31.576  29.754  24.925  1.00  0.00    -0.246 OA
BRANCH   4   6
ATOM      6  C   UNL A   1      30.995  27.426  24.782  1.00  0.00     0.062 A 
ATOM      7  C   UNL A   1      30.915  25.709  23.130  1.00  0.00     0.085 A 
ATOM      8  C   UNL A   1      30.996  27.052  23.421  1.00  0.00     0.045 A 
ATOM      9  C   UNL A   1      30.442  24.832  24.126  1.00  0.00     0.147 A 
ATOM     10  C   UNL A   1      30.257  25.249  25.447  1.00  0.00     0.042 A 
ATOM     11  F   UNL A   1      30.353  23.521  23.858  1.00  0.00    -0.205 F 
ATOM     12  C   UNL A   1      30.592  26.550  25.793  1.00  0.00     0.019 A 
BRANCH   7  13
ATOM     13  N   UNL A   1      31.548  25.132  21.989  1.00  0.00    -0.277 N 
ATOM     14  H   UNL A   1      30.961  24.953  21.219  1.00  0.00     0.180 HD
BRANCH  13  15
ATOM     15  S   UNL A   1      33.163  24.722  21.792  1.00  0.00     0.262 S 
ATOM     16  O   UNL A   1      33.968  25.913  21.924  1.00  0.00    -0.201 OA
ATOM     17  O   UNL A   1      33.161  23.988  20.538  1.00  0.00    -0.201 OA
BRANCH  15  18
ATOM     18  C   UNL A   1      33.785  23.549  23.005  1.00  0.00     0.094 A 
ATOM     19  C   UNL A   1      34.601  22.224  25.334  1.00  0.00     0.161 A 
ATOM     20  C   UNL A   1      33.830  21.584  24.373  1.00  0.00     0.055 A 
ATOM     21  C   UNL A   1      35.208  23.433  25.025  1.00  0.00     0.162 A 
ATOM     22  C   UNL A   1      33.342  22.249  23.250  1.00  0.00    -0.027 A 
ATOM     23  C   UNL A   1      34.801  24.076  23.843  1.00  0.00     0.073 A 
ATOM     24  C   UNL A   1      32.245  21.502  22.597  1.00  0.00     0.046 C 
BRANCH  19  25
ATOM     25  O   UNL A   1      34.650  21.647  26.567  1.00  0.00    -0.493 OA
ATOM     26  C   UNL A   1      34.077  22.506  27.571  1.00  0.00     0.278 C 
ENDBRANCH  19  25
BRANCH  21  27
ATOM     27  O   UNL A   1      36.132  24.132  25.754  1.00  0.00    -0.493 OA
ATOM     28  C   UNL A   1      37.494  23.714  25.689  1.00  0.00     0.278 C 
ENDBRANCH  21  27
ENDBRANCH  15  18
ENDBRANCH  13  15
ENDBRANCH   7  13
ENDBRANCH   4   6
ENDBRANCH   3   4
ENDBRANCH   2   3
ENDBRANCH   1   2
BRANCH   1  29
ATOM     29  O   UNL A   1      33.971  30.740  28.196  1.00  0.00    -0.374 OA
BRANCH  29  30
ATOM     30  C   UNL A   1      33.760  32.020  27.625  1.00  0.00     0.202 C 
BRANCH  30  31
ATOM     31  C   UNL A   1      34.062  33.174  28.594  1.00  0.00     0.261 C 
BRANCH  31  32
ATOM     32  O   UNL A   1      34.446  32.629  29.876  1.00  0.00    -0.460 OA
BRANCH  32  33
ATOM     33  C   UNL A   1      35.738  32.839  30.256  1.00  0.00     0.338 C 
ATOM     34  O   UNL A   1      36.188  33.897  30.659  1.00  0.00    -0.246 OA
BRANCH  33  35
ATOM     35  C   UNL A   1      36.561  31.631  29.948  1.00  0.00     0.060 A 
ATOM     36  C   UNL A   1      36.782  30.650  30.933  1.00  0.00     0.016 A 
ATOM     37  C   UNL A   1      37.339  31.642  28.797  1.00  0.00     0.016 A 
ATOM     38  C   UNL A   1      37.909  29.818  30.860  1.00  0.00     0.010 A 
ATOM     39  C   UNL A   1      38.493  30.894  28.779  1.00  0.00     0.010 A 
ATOM     40  C   UNL A   1      38.825  30.025  29.835  1.00  0.00    -0.014 A 
BRANCH  40  41
ATOM     41  C   UNL A   1      40.246  29.615  29.818  1.00  0.00     0.031 A 
ATOM     42  C   UNL A   1      40.596  28.339  29.149  1.00  0.00     0.074 A 
ATOM     43  C   UNL A   1      41.175  30.547  30.092  1.00  0.00     0.049 A 
ATOM     44  N   UNL A   1      41.749  27.924  28.752  1.00  0.00    -0.248 NA
ATOM     45  C   UNL A   1      39.527  27.366  28.922  1.00  0.00     0.031 C 
ATOM     46  C   UNL A   1      42.500  30.712  29.536  1.00  0.00     0.029 A 
ATOM     47  N   UNL A   1      41.105  31.558  31.013  1.00  0.00    -0.354 N 
ATOM     48  C   UNL A   1      41.570  26.662  28.206  1.00  0.00     0.074 A 
ATOM     49  C   UNL A   1      40.154  26.418  28.234  1.00  0.00     0.031 C 
ATOM     50  C   UNL A   1      43.241  31.497  30.329  1.00  0.00     0.029 A 
ATOM     51  C   UNL A   1      42.402  31.910  31.411  1.00  0.00     0.049 A 
ATOM     52  H   UNL A   1      40.275  31.972  31.343  1.00  0.00     0.167 HD
ATOM     53  C   UNL A   1      42.620  25.829  27.960  1.00  0.00     0.034 A 
ATOM     54  C   UNL A   1      42.660  31.890  32.735  1.00  0.00     0.034 A 
ATOM     55  C   UNL A   1      43.782  26.194  28.794  1.00  0.00     0.049 A 
ATOM     56  C   UNL A   1      43.284  30.502  33.046  1.00  0.00     0.074 A 
ATOM     57  C   UNL A   1      45.149  26.320  28.624  1.00  0.00     0.029 A 
ATOM     58  N   UNL A   1      43.551  26.582  30.131  1.00  0.00    -0.354 N 
ATOM     59  N   UNL A   1      43.475  29.511  32.181  1.00  0.00    -0.248 NA
ATOM     60  C   UNL A   1      43.838  30.176  34.356  1.00  0.00     0.031 C 
ATOM     61  C   UNL A   1      45.697  26.906  29.803  1.00  0.00     0.029 A 
ATOM     62  C   UNL A   1      44.678  27.108  30.726  1.00  0.00     0.049 A 
ATOM     63  H   UNL A   1      42.683  26.487  30.586  1.00  0.00     0.167 HD
ATOM     64  C   UNL A   1      44.200  28.490  32.768  1.00  0.00     0.074 A 
ATOM     65  C   UNL A   1      44.332  28.941  34.154  1.00  0.00     0.031 C 
ATOM     66  C   UNL A   1      44.732  27.373  32.156  1.00  0.00     0.034 A 
BRANCH  53  67
ATOM     67  C   UNL A   1      42.612  24.718  26.897  1.00  0.00     0.023 A 
ATOM     68  C   UNL A   1      41.855  23.555  27.149  1.00  0.00     0.031 A 
ATOM     69  C   UNL A   1      43.380  24.637  25.710  1.00  0.00     0.131 A 
ATOM     70  C   UNL A   1      41.907  22.409  26.326  1.00  0.00     0.055 A 
ATOM     71  C   UNL A   1      43.406  23.513  24.864  1.00  0.00     0.041 A 
ATOM     72  F   UNL A   1      44.173  25.621  25.282  1.00  0.00    -0.206 F 
ATOM     73  C   UNL A   1      42.676  22.382  25.174  1.00  0.00     0.022 A 
BRANCH  70  74
ATOM     74  S   UNL A   1      40.995  20.927  26.836  1.00  0.00     0.124 S 
ATOM     75  O   UNL A   1      41.935  19.862  26.500  1.00  0.00    -0.237 OA
ATOM     76  O   UNL A   1      40.776  21.171  28.257  1.00  0.00    -0.237 OA
ATOM     77  O   UNL A   1      39.789  20.969  26.009  1.00  0.00    -0.744 OA
ENDBRANCH  70  74
ENDBRANCH  53  67
BRANCH  54  78
ATOM     78  C   UNL A   1      41.545  32.781  33.325  1.00  0.00     0.023 A 
ATOM     79  C   UNL A   1      40.378  32.035  33.752  1.00  0.00     0.031 A 
ATOM     80  C   UNL A   1      41.837  33.934  34.076  1.00  0.00     0.131 A 
ATOM     81  C   UNL A   1      39.782  32.265  35.017  1.00  0.00     0.055 A 
ATOM     82  C   UNL A   1      41.159  34.212  35.288  1.00  0.00     0.041 A 
ATOM     83  F   UNL A   1      42.916  34.677  33.791  1.00  0.00    -0.206 F 
ATOM     84  C   UNL A   1      40.188  33.344  35.797  1.00  0.00     0.022 A 
BRANCH  81  85
ATOM     85  S   UNL A   1      38.765  30.947  35.809  1.00  0.00     0.124 S 
ATOM     86  O   UNL A   1      39.769  29.966  36.197  1.00  0.00    -0.237 OA
ATOM     87  O   UNL A   1      38.101  31.666  36.886  1.00  0.00    -0.237 OA
ATOM     88  O   UNL A   1      37.852  30.530  34.744  1.00  0.00    -0.744 OA
ENDBRANCH  81  85
ENDBRANCH  54  78
BRANCH  66  89
ATOM     89  C   UNL A   1      45.511  26.310  32.894  1.00  0.00     0.023 A 
ATOM     90  C   UNL A   1      44.887  25.251  33.543  1.00  0.00     0.031 A 
ATOM     91  C   UNL A   1      46.921  26.401  33.031  1.00  0.00     0.131 A 
ATOM     92  C   UNL A   1      45.660  24.219  34.085  1.00  0.00     0.055 A 
ATOM     93  C   UNL A   1      47.672  25.458  33.729  1.00  0.00     0.041 A 
ATOM     94  F   UNL A   1      47.624  27.395  32.465  1.00  0.00    -0.206 F 
ATOM     95  C   UNL A   1      47.045  24.323  34.214  1.00  0.00     0.022 A 
BRANCH  92  96
ATOM     96  S   UNL A   1      44.819  22.650  34.377  1.00  0.00     0.124 S 
ATOM     97  O   UNL A   1      43.882  22.580  33.261  1.00  0.00    -0.237 OA
ATOM     98  O   UNL A   1      45.937  21.710  34.324  1.00  0.00    -0.237 OA
ATOM     99  O   UNL A   1      44.218  22.822  35.697  1.00  0.00    -0.744 OA
ENDBRANCH  92  96
ENDBRANCH  66  89
ENDBRANCH  40  41
ENDBRANCH  33  35
ENDBRANCH  32  33
ENDBRANCH  31  32
ENDBRANCH  30  31
ENDBRANCH  29  30
ENDBRANCH   1  29
TORSDOF 22
ENDMDL
