MODEL 1
REMARK VINA RESULT:     -10.0      0.000      0.000
REMARK SMILES CC[C@@H](C)C[C@@H](C)[NH2+]Cc1cc(C(=O)OCCOCCOC(=O)c2ccc(-c3c4nc(c(-c5cc(S(=O)(=O)[O-])ccc5F)c5ccc([nH]5)c(-c5cc(S(=O)(=O)[O-])ccc5F)c5nc(c(-c6cc(S(=O)(=O)[O-])ccc6F)c6ccc3[nH]6)C=C5)C=C4)cc2)cs1
REMARK SMILES IDX 16 1 15 2 13 3 14 4 12 5 10 6 11 7 88 8 87 9 9 10 8 11 6 14
REMARK SMILES IDX 7 15 5 16 3 17 4 18 2 19 1 20 17 21 18 22 19 23 20 24 21 25
REMARK SMILES IDX 22 26 23 27 24 28 25 29 86 30 26 31 85 32 27 33 28 34 29 35
REMARK SMILES IDX 79 36 30 37 84 38 78 39 80 40 31 41 83 42 77 43 76 44 32 46
REMARK SMILES IDX 64 47 44 48 63 49 45 50 48 51 62 52 81 53 46 54 47 55 61 57
REMARK SMILES IDX 82 58 49 59 33 60 34 61 42 62 35 63 41 64 43 65 40 66 36 67
REMARK SMILES IDX 37 68 38 69 39 70 65 71 66 72 74 73 67 74 73 75 75 76 72 77
REMARK SMILES IDX 68 78 69 79 70 80 71 81 50 82 51 83 59 84 52 85 58 86 60 87
REMARK SMILES IDX 57 88 53 89 54 90 55 91 56 92
REMARK H PARENT 8 12 8 13 80 45 48 56
REMARK Flexibility Score: inf
ROOT
ATOM      1  C   UNL A   1      33.948  23.057  23.465  1.00  0.00     0.261 C 
ENDROOT
BRANCH   1   2
ATOM      2  O   UNL A   1      33.765  24.333  24.099  1.00  0.00    -0.460 OA
BRANCH   2   3
ATOM      3  C   UNL A   1      32.687  24.438  24.924  1.00  0.00     0.339 C 
ATOM      4  O   UNL A   1      31.906  23.532  25.186  1.00  0.00    -0.246 OA
BRANCH   3   5
ATOM      5  C   UNL A   1      32.604  25.758  25.543  1.00  0.00     0.071 A 
ATOM      6  C   UNL A   1      32.802  28.068  25.685  1.00  0.00     0.060 A 
ATOM      7  C   UNL A   1      33.402  26.909  25.224  1.00  0.00     0.037 A 
ATOM      8  S   UNL A   1      31.709  27.718  26.959  1.00  0.00    -0.142 S 
ATOM      9  C   UNL A   1      31.705  26.057  26.550  1.00  0.00     0.081 A 
BRANCH   6  10
ATOM     10  C   UNL A   1      32.922  29.463  25.145  1.00  0.00     0.308 C 
BRANCH  10  11
ATOM     11  N   UNL A   1      31.619  30.102  24.924  1.00  0.00    -0.340 N 
ATOM     12  H   UNL A   1      31.123  30.097  25.816  1.00  0.00     0.346 HD
ATOM     13  H   UNL A   1      31.846  31.022  24.549  1.00  0.00     0.346 HD
BRANCH  11  14
ATOM     14  C   UNL A   1      30.716  29.505  23.917  1.00  0.00     0.179 C 
ATOM     15  C   UNL A   1      31.356  29.137  22.573  1.00  0.00     0.075 C 
BRANCH  14  16
ATOM     16  C   UNL A   1      29.563  30.525  23.705  1.00  0.00     0.068 C 
BRANCH  16  17
ATOM     17  C   UNL A   1      29.067  30.713  22.252  1.00  0.00    -0.009 C 
ATOM     18  C   UNL A   1      28.543  32.142  22.071  1.00  0.00     0.008 C 
BRANCH  17  19
ATOM     19  C   UNL A   1      28.005  29.670  21.851  1.00  0.00    -0.000 C 
ATOM     20  C   UNL A   1      27.195  29.173  23.042  1.00  0.00     0.004 C 
ENDBRANCH  17  19
ENDBRANCH  16  17
ENDBRANCH  14  16
ENDBRANCH  11  14
ENDBRANCH  10  11
ENDBRANCH   6  10
ENDBRANCH   3   5
ENDBRANCH   2   3
ENDBRANCH   1   2
BRANCH   1  21
ATOM     21  C   UNL A   1      35.360  22.527  23.729  1.00  0.00     0.202 C 
BRANCH  21  22
ATOM     22  O   UNL A   1      35.863  22.718  25.054  1.00  0.00    -0.374 OA
BRANCH  22  23
ATOM     23  C   UNL A   1      36.146  21.556  25.831  1.00  0.00     0.202 C 
BRANCH  23  24
ATOM     24  C   UNL A   1      37.388  20.738  25.464  1.00  0.00     0.261 C 
BRANCH  24  25
ATOM     25  O   UNL A   1      38.544  21.559  25.250  1.00  0.00    -0.460 OA
BRANCH  25  26
ATOM     26  C   UNL A   1      39.538  21.351  26.150  1.00  0.00     0.338 C 
ATOM     27  O   UNL A   1      40.174  20.323  26.312  1.00  0.00    -0.246 OA
BRANCH  26  28
ATOM     28  C   UNL A   1      39.889  22.617  26.822  1.00  0.00     0.060 A 
ATOM     29  C   UNL A   1      39.194  23.766  26.420  1.00  0.00     0.016 A 
ATOM     30  C   UNL A   1      40.917  22.701  27.764  1.00  0.00     0.016 A 
ATOM     31  C   UNL A   1      39.564  25.012  26.915  1.00  0.00     0.010 A 
ATOM     32  C   UNL A   1      41.291  23.958  28.255  1.00  0.00     0.010 A 
ATOM     33  C   UNL A   1      40.642  25.120  27.803  1.00  0.00    -0.014 A 
BRANCH  33  34
ATOM     34  C   UNL A   1      41.181  26.463  28.129  1.00  0.00     0.031 A 
ATOM     35  C   UNL A   1      42.600  26.788  27.749  1.00  0.00     0.074 A 
ATOM     36  C   UNL A   1      40.406  27.390  28.719  1.00  0.00     0.049 A 
ATOM     37  N   UNL A   1      43.286  27.883  27.952  1.00  0.00    -0.248 NA
ATOM     38  C   UNL A   1      43.343  25.731  27.046  1.00  0.00     0.031 C 
ATOM     39  C   UNL A   1      39.004  27.203  29.092  1.00  0.00     0.029 A 
ATOM     40  N   UNL A   1      40.690  28.673  29.110  1.00  0.00    -0.354 N 
ATOM     41  C   UNL A   1      44.543  27.649  27.405  1.00  0.00     0.074 A 
ATOM     42  C   UNL A   1      44.533  26.292  26.899  1.00  0.00     0.031 C 
ATOM     43  C   UNL A   1      38.553  28.331  29.669  1.00  0.00     0.029 A 
ATOM     44  C   UNL A   1      39.642  29.304  29.737  1.00  0.00     0.049 A 
ATOM     45  H   UNL A   1      41.562  29.103  28.957  1.00  0.00     0.167 HD
ATOM     46  C   UNL A   1      45.603  28.492  27.322  1.00  0.00     0.034 A 
ATOM     47  C   UNL A   1      39.576  30.518  30.320  1.00  0.00     0.034 A 
ATOM     48  C   UNL A   1      45.599  29.837  27.845  1.00  0.00     0.049 A 
ATOM     49  C   UNL A   1      40.794  31.408  30.295  1.00  0.00     0.074 A 
ATOM     50  C   UNL A   1      46.611  30.781  27.808  1.00  0.00     0.029 A 
ATOM     51  N   UNL A   1      44.533  30.425  28.516  1.00  0.00    -0.354 N 
ATOM     52  N   UNL A   1      41.976  31.180  29.767  1.00  0.00    -0.248 NA
ATOM     53  C   UNL A   1      40.668  32.724  30.936  1.00  0.00     0.031 C 
ATOM     54  C   UNL A   1      46.184  31.911  28.515  1.00  0.00     0.029 A 
ATOM     55  C   UNL A   1      44.876  31.705  28.927  1.00  0.00     0.049 A 
ATOM     56  H   UNL A   1      43.663  29.996  28.677  1.00  0.00     0.167 HD
ATOM     57  C   UNL A   1      42.721  32.336  29.988  1.00  0.00     0.074 A 
ATOM     58  C   UNL A   1      41.852  33.262  30.686  1.00  0.00     0.031 C 
ATOM     59  C   UNL A   1      44.004  32.612  29.636  1.00  0.00     0.034 A 
BRANCH  46  60
ATOM     60  C   UNL A   1      46.865  27.954  26.693  1.00  0.00     0.023 A 
ATOM     61  C   UNL A   1      47.129  28.100  25.320  1.00  0.00     0.031 A 
ATOM     62  C   UNL A   1      47.799  27.246  27.471  1.00  0.00     0.131 A 
ATOM     63  C   UNL A   1      48.256  27.484  24.754  1.00  0.00     0.055 A 
ATOM     64  C   UNL A   1      48.960  26.703  26.915  1.00  0.00     0.041 A 
ATOM     65  F   UNL A   1      47.590  27.053  28.782  1.00  0.00    -0.206 F 
ATOM     66  C   UNL A   1      49.186  26.806  25.547  1.00  0.00     0.022 A 
BRANCH  63  67
ATOM     67  S   UNL A   1      48.411  27.450  22.946  1.00  0.00     0.124 S 
ATOM     68  O   UNL A   1      49.746  28.015  22.754  1.00  0.00    -0.237 OA
ATOM     69  O   UNL A   1      48.268  26.031  22.645  1.00  0.00    -0.237 OA
ATOM     70  O   UNL A   1      47.313  28.300  22.492  1.00  0.00    -0.744 OA
ENDBRANCH  63  67
ENDBRANCH  46  60
BRANCH  47  71
ATOM     71  C   UNL A   1      38.331  30.952  31.014  1.00  0.00     0.023 A 
ATOM     72  C   UNL A   1      37.303  31.612  30.322  1.00  0.00     0.031 A 
ATOM     73  C   UNL A   1      38.173  30.750  32.397  1.00  0.00     0.131 A 
ATOM     74  C   UNL A   1      36.181  32.081  31.022  1.00  0.00     0.055 A 
ATOM     75  C   UNL A   1      37.032  31.175  33.080  1.00  0.00     0.041 A 
ATOM     76  F   UNL A   1      39.126  30.122  33.104  1.00  0.00    -0.206 F 
ATOM     77  C   UNL A   1      36.032  31.857  32.394  1.00  0.00     0.022 A 
BRANCH  74  78
ATOM     78  S   UNL A   1      34.943  33.058  30.126  1.00  0.00     0.124 S 
ATOM     79  O   UNL A   1      35.755  34.143  29.586  1.00  0.00    -0.237 OA
ATOM     80  O   UNL A   1      34.439  32.090  29.157  1.00  0.00    -0.237 OA
ATOM     81  O   UNL A   1      33.995  33.446  31.168  1.00  0.00    -0.744 OA
ENDBRANCH  74  78
ENDBRANCH  47  71
BRANCH  59  82
ATOM     82  C   UNL A   1      44.524  33.991  29.964  1.00  0.00     0.023 A 
ATOM     83  C   UNL A   1      44.379  35.070  29.076  1.00  0.00     0.031 A 
ATOM     84  C   UNL A   1      45.179  34.224  31.187  1.00  0.00     0.131 A 
ATOM     85  C   UNL A   1      44.928  36.320  29.399  1.00  0.00     0.055 A 
ATOM     86  C   UNL A   1      45.674  35.483  31.529  1.00  0.00     0.041 A 
ATOM     87  F   UNL A   1      45.347  33.228  32.073  1.00  0.00    -0.206 F 
ATOM     88  C   UNL A   1      45.560  36.538  30.627  1.00  0.00     0.022 A 
BRANCH  85  89
ATOM     89  S   UNL A   1      44.884  37.642  28.157  1.00  0.00     0.124 S 
ATOM     90  O   UNL A   1      45.555  37.015  27.023  1.00  0.00    -0.237 OA
ATOM     91  O   UNL A   1      43.451  37.875  28.002  1.00  0.00    -0.237 OA
ATOM     92  O   UNL A   1      45.622  38.733  28.790  1.00  0.00    -0.744 OA
ENDBRANCH  85  89
ENDBRANCH  59  82
ENDBRANCH  33  34
ENDBRANCH  26  28
ENDBRANCH  25  26
ENDBRANCH  24  25
ENDBRANCH  23  24
ENDBRANCH  22  23
ENDBRANCH  21  22
ENDBRANCH   1  21
TORSDOF 23
ENDMDL
MODEL 2
REMARK VINA RESULT:      -9.4      2.141      2.751
REMARK SMILES CC[C@@H](C)C[C@@H](C)[NH2+]Cc1cc(C(=O)OCCOCCOC(=O)c2ccc(-c3c4nc(c(-c5cc(S(=O)(=O)[O-])ccc5F)c5ccc([nH]5)c(-c5cc(S(=O)(=O)[O-])ccc5F)c5nc(c(-c6cc(S(=O)(=O)[O-])ccc6F)c6ccc3[nH]6)C=C5)C=C4)cc2)cs1
REMARK SMILES IDX 16 1 15 2 13 3 14 4 12 5 10 6 11 7 88 8 87 9 9 10 8 11 6 14
REMARK SMILES IDX 7 15 5 16 3 17 4 18 2 19 1 20 17 21 18 22 19 23 20 24 21 25
REMARK SMILES IDX 22 26 23 27 24 28 25 29 86 30 26 31 85 32 27 33 28 34 29 35
REMARK SMILES IDX 79 36 30 37 84 38 78 39 80 40 31 41 83 42 77 43 76 44 32 46
REMARK SMILES IDX 64 47 44 48 63 49 45 50 48 51 62 52 81 53 46 54 47 55 61 57
REMARK SMILES IDX 82 58 49 59 33 60 34 61 42 62 35 63 41 64 43 65 40 66 36 67
REMARK SMILES IDX 37 68 38 69 39 70 65 71 66 72 74 73 67 74 73 75 75 76 72 77
REMARK SMILES IDX 68 78 69 79 70 80 71 81 50 82 51 83 59 84 52 85 58 86 60 87
REMARK SMILES IDX 57 88 53 89 54 90 55 91 56 92
REMARK H PARENT 8 12 8 13 80 45 48 56
REMARK Flexibility Score: inf
ROOT
ATOM      1  C   UNL A   1      34.402  20.400  24.779  1.00  0.00     0.261 C 
ENDROOT
BRANCH   1   2
ATOM      2  O   UNL A   1      33.448  21.448  25.011  1.00  0.00    -0.460 OA
BRANCH   2   3
ATOM      3  C   UNL A   1      32.877  21.991  23.900  1.00  0.00     0.339 C 
ATOM      4  O   UNL A   1      32.041  21.441  23.194  1.00  0.00    -0.246 OA
BRANCH   3   5
ATOM      5  C   UNL A   1      33.318  23.366  23.680  1.00  0.00     0.071 A 
ATOM      6  C   UNL A   1      33.438  25.427  22.614  1.00  0.00     0.060 A 
ATOM      7  C   UNL A   1      33.382  24.056  22.422  1.00  0.00     0.037 A 
ATOM      8  S   UNL A   1      34.025  25.793  24.183  1.00  0.00    -0.142 S 
ATOM      9  C   UNL A   1      33.739  24.191  24.706  1.00  0.00     0.081 A 
BRANCH   6  10
ATOM     10  C   UNL A   1      32.966  26.520  21.700  1.00  0.00     0.308 C 
BRANCH  10  11
ATOM     11  N   UNL A   1      31.589  26.942  21.982  1.00  0.00    -0.340 N 
ATOM     12  H   UNL A   1      31.081  26.934  21.097  1.00  0.00     0.346 HD
ATOM     13  H   UNL A   1      31.259  26.284  22.687  1.00  0.00     0.346 HD
BRANCH  11  14
ATOM     14  C   UNL A   1      31.383  28.273  22.593  1.00  0.00     0.179 C 
ATOM     15  C   UNL A   1      32.654  29.042  22.973  1.00  0.00     0.075 C 
BRANCH  14  16
ATOM     16  C   UNL A   1      30.494  28.046  23.847  1.00  0.00     0.068 C 
BRANCH  16  17
ATOM     17  C   UNL A   1      30.192  26.575  24.222  1.00  0.00    -0.009 C 
ATOM     18  C   UNL A   1      28.689  26.310  24.084  1.00  0.00     0.008 C 
BRANCH  17  19
ATOM     19  C   UNL A   1      30.701  26.210  25.629  1.00  0.00    -0.000 C 
ATOM     20  C   UNL A   1      31.375  27.382  26.330  1.00  0.00     0.004 C 
ENDBRANCH  17  19
ENDBRANCH  16  17
ENDBRANCH  14  16
ENDBRANCH  11  14
ENDBRANCH  10  11
ENDBRANCH   6  10
ENDBRANCH   3   5
ENDBRANCH   2   3
ENDBRANCH   1   2
BRANCH   1  21
ATOM     21  C   UNL A   1      35.827  20.921  24.988  1.00  0.00     0.202 C 
BRANCH  21  22
ATOM     22  O   UNL A   1      36.864  19.937  24.955  1.00  0.00    -0.374 OA
BRANCH  22  23
ATOM     23  C   UNL A   1      38.208  20.381  25.134  1.00  0.00     0.202 C 
BRANCH  23  24
ATOM     24  C   UNL A   1      39.186  19.431  25.832  1.00  0.00     0.261 C 
BRANCH  24  25
ATOM     25  O   UNL A   1      40.533  19.585  25.360  1.00  0.00    -0.460 OA
BRANCH  25  26
ATOM     26  C   UNL A   1      41.445  19.747  26.352  1.00  0.00     0.338 C 
ATOM     27  O   UNL A   1      42.238  18.915  26.758  1.00  0.00    -0.246 OA
BRANCH  26  28
ATOM     28  C   UNL A   1      41.481  21.158  26.783  1.00  0.00     0.060 A 
ATOM     29  C   UNL A   1      41.301  22.132  25.792  1.00  0.00     0.016 A 
ATOM     30  C   UNL A   1      41.756  21.527  28.102  1.00  0.00     0.016 A 
ATOM     31  C   UNL A   1      41.455  23.479  26.104  1.00  0.00     0.010 A 
ATOM     32  C   UNL A   1      41.917  22.883  28.412  1.00  0.00     0.010 A 
ATOM     33  C   UNL A   1      41.805  23.860  27.406  1.00  0.00    -0.014 A 
BRANCH  33  34
ATOM     34  C   UNL A   1      42.205  25.264  27.667  1.00  0.00     0.031 A 
ATOM     35  C   UNL A   1      43.552  25.737  27.191  1.00  0.00     0.074 A 
ATOM     36  C   UNL A   1      41.366  26.114  28.285  1.00  0.00     0.049 A 
ATOM     37  N   UNL A   1      44.119  26.907  27.326  1.00  0.00    -0.248 NA
ATOM     38  C   UNL A   1      44.368  24.751  26.466  1.00  0.00     0.031 C 
ATOM     39  C   UNL A   1      40.020  25.781  28.750  1.00  0.00     0.029 A 
ATOM     40  N   UNL A   1      41.525  27.432  28.629  1.00  0.00    -0.354 N 
ATOM     41  C   UNL A   1      45.359  26.801  26.705  1.00  0.00     0.074 A 
ATOM     42  C   UNL A   1      45.475  25.438  26.231  1.00  0.00     0.031 C 
ATOM     43  C   UNL A   1      39.479  26.866  29.330  1.00  0.00     0.029 A 
ATOM     44  C   UNL A   1      40.451  27.959  29.307  1.00  0.00     0.049 A 
ATOM     45  H   UNL A   1      42.331  27.954  28.412  1.00  0.00     0.167 HD
ATOM     46  C   UNL A   1      46.308  27.756  26.538  1.00  0.00     0.034 A 
ATOM     47  C   UNL A   1      40.282  29.174  29.867  1.00  0.00     0.034 A 
ATOM     48  C   UNL A   1      46.182  29.106  27.030  1.00  0.00     0.049 A 
ATOM     49  C   UNL A   1      41.386  30.195  29.745  1.00  0.00     0.074 A 
ATOM     50  C   UNL A   1      47.075  30.157  26.908  1.00  0.00     0.029 A 
ATOM     51  N   UNL A   1      45.099  29.590  27.755  1.00  0.00    -0.354 N 
ATOM     52  N   UNL A   1      42.552  30.086  29.148  1.00  0.00    -0.248 NA
ATOM     53  C   UNL A   1      41.148  31.505  30.364  1.00  0.00     0.031 C 
ATOM     54  C   UNL A   1      46.564  31.252  27.616  1.00  0.00     0.029 A 
ATOM     55  C   UNL A   1      45.317  30.911  28.115  1.00  0.00     0.049 A 
ATOM     56  H   UNL A   1      44.294  29.070  27.979  1.00  0.00     0.167 HD
ATOM     57  C   UNL A   1      43.172  31.325  29.296  1.00  0.00     0.074 A 
ATOM     58  C   UNL A   1      42.246  32.167  30.027  1.00  0.00     0.031 C 
ATOM     59  C   UNL A   1      44.391  31.734  28.858  1.00  0.00     0.034 A 
BRANCH  46  60
ATOM     60  C   UNL A   1      47.584  27.346  25.841  1.00  0.00     0.023 A 
ATOM     61  C   UNL A   1      48.690  26.849  26.552  1.00  0.00     0.031 A 
ATOM     62  C   UNL A   1      47.710  27.495  24.449  1.00  0.00     0.131 A 
ATOM     63  C   UNL A   1      49.895  26.591  25.881  1.00  0.00     0.055 A 
ATOM     64  C   UNL A   1      48.887  27.161  23.775  1.00  0.00     0.041 A 
ATOM     65  F   UNL A   1      46.696  27.988  23.719  1.00  0.00    -0.206 F 
ATOM     66  C   UNL A   1      49.994  26.720  24.493  1.00  0.00     0.022 A 
BRANCH  63  67
ATOM     67  S   UNL A   1      51.376  26.228  26.865  1.00  0.00     0.124 S 
ATOM     68  O   UNL A   1      50.930  26.584  28.210  1.00  0.00    -0.237 OA
ATOM     69  O   UNL A   1      51.581  24.806  26.613  1.00  0.00    -0.237 OA
ATOM     70  O   UNL A   1      52.390  27.115  26.299  1.00  0.00    -0.744 OA
ENDBRANCH  63  67
ENDBRANCH  46  60
BRANCH  47  71
ATOM     71  C   UNL A   1      39.040  29.484  30.628  1.00  0.00     0.023 A 
ATOM     72  C   UNL A   1      38.084  30.382  30.130  1.00  0.00     0.031 A 
ATOM     73  C   UNL A   1      38.813  28.914  31.895  1.00  0.00     0.131 A 
ATOM     74  C   UNL A   1      36.966  30.716  30.910  1.00  0.00     0.055 A 
ATOM     75  C   UNL A   1      37.676  29.212  32.646  1.00  0.00     0.041 A 
ATOM     76  F   UNL A   1      39.696  28.047  32.416  1.00  0.00    -0.206 F 
ATOM     77  C   UNL A   1      36.749  30.128  32.159  1.00  0.00     0.022 A 
BRANCH  74  78
ATOM     78  S   UNL A   1      35.828  31.991  30.300  1.00  0.00     0.124 S 
ATOM     79  O   UNL A   1      36.665  33.184  30.351  1.00  0.00    -0.237 OA
ATOM     80  O   UNL A   1      35.502  31.491  28.968  1.00  0.00    -0.237 OA
ATOM     81  O   UNL A   1      34.730  31.955  31.262  1.00  0.00    -0.744 OA
ENDBRANCH  74  78
ENDBRANCH  47  71
BRANCH  59  82
ATOM     82  C   UNL A   1      44.768  33.172  29.122  1.00  0.00     0.023 A 
ATOM     83  C   UNL A   1      44.182  34.236  28.415  1.00  0.00     0.031 A 
ATOM     84  C   UNL A   1      45.735  33.479  30.097  1.00  0.00     0.131 A 
ATOM     85  C   UNL A   1      44.605  35.551  28.655  1.00  0.00     0.055 A 
ATOM     86  C   UNL A   1      46.111  34.794  30.372  1.00  0.00     0.041 A 
ATOM     87  F   UNL A   1      46.328  32.501  30.802  1.00  0.00    -0.206 F 
ATOM     88  C   UNL A   1      45.554  35.839  29.640  1.00  0.00     0.022 A 
BRANCH  85  89
ATOM     89  S   UNL A   1      43.963  36.882  27.601  1.00  0.00     0.124 S 
ATOM     90  O   UNL A   1      42.704  37.210  28.262  1.00  0.00    -0.237 OA
ATOM     91  O   UNL A   1      45.014  37.889  27.695  1.00  0.00    -0.237 OA
ATOM     92  O   UNL A   1      43.828  36.248  26.291  1.00  0.00    -0.744 OA
ENDBRANCH  85  89
ENDBRANCH  59  82
ENDBRANCH  33  34
ENDBRANCH  26  28
ENDBRANCH  25  26
ENDBRANCH  24  25
ENDBRANCH  23  24
ENDBRANCH  22  23
ENDBRANCH  21  22
ENDBRANCH   1  21
TORSDOF 23
ENDMDL
MODEL 3
REMARK VINA RESULT:      -9.4      0.568      7.561
REMARK SMILES CC[C@@H](C)C[C@@H](C)[NH2+]Cc1cc(C(=O)OCCOCCOC(=O)c2ccc(-c3c4nc(c(-c5cc(S(=O)(=O)[O-])ccc5F)c5ccc([nH]5)c(-c5cc(S(=O)(=O)[O-])ccc5F)c5nc(c(-c6cc(S(=O)(=O)[O-])ccc6F)c6ccc3[nH]6)C=C5)C=C4)cc2)cs1
REMARK SMILES IDX 16 1 15 2 13 3 14 4 12 5 10 6 11 7 88 8 87 9 9 10 8 11 6 14
REMARK SMILES IDX 7 15 5 16 3 17 4 18 2 19 1 20 17 21 18 22 19 23 20 24 21 25
REMARK SMILES IDX 22 26 23 27 24 28 25 29 86 30 26 31 85 32 27 33 28 34 29 35
REMARK SMILES IDX 79 36 30 37 84 38 78 39 80 40 31 41 83 42 77 43 76 44 32 46
REMARK SMILES IDX 64 47 44 48 63 49 45 50 48 51 62 52 81 53 46 54 47 55 61 57
REMARK SMILES IDX 82 58 49 59 33 60 34 61 42 62 35 63 41 64 43 65 40 66 36 67
REMARK SMILES IDX 37 68 38 69 39 70 65 71 66 72 74 73 67 74 73 75 75 76 72 77
REMARK SMILES IDX 68 78 69 79 70 80 71 81 50 82 51 83 59 84 52 85 58 86 60 87
REMARK SMILES IDX 57 88 53 89 54 90 55 91 56 92
REMARK H PARENT 8 12 8 13 80 45 48 56
REMARK Flexibility Score: inf
ROOT
ATOM      1  C   UNL A   1      34.164  23.051  23.038  1.00  0.00     0.261 C 
ENDROOT
BRANCH   1   2
ATOM      2  O   UNL A   1      33.798  24.280  23.685  1.00  0.00    -0.460 OA
BRANCH   2   3
ATOM      3  C   UNL A   1      32.842  24.183  24.650  1.00  0.00     0.339 C 
ATOM      4  O   UNL A   1      32.315  23.142  25.020  1.00  0.00    -0.246 OA
BRANCH   3   5
ATOM      5  C   UNL A   1      32.565  25.475  25.271  1.00  0.00     0.071 A 
ATOM      6  C   UNL A   1      32.481  27.791  25.439  1.00  0.00     0.060 A 
ATOM      7  C   UNL A   1      33.242  26.716  25.013  1.00  0.00     0.037 A 
ATOM      8  S   UNL A   1      31.355  27.297  26.636  1.00  0.00    -0.142 S 
ATOM      9  C   UNL A   1      31.572  25.654  26.216  1.00  0.00     0.081 A 
BRANCH   6  10
ATOM     10  C   UNL A   1      32.472  29.198  24.917  1.00  0.00     0.308 C 
BRANCH  10  11
ATOM     11  N   UNL A   1      31.184  29.576  24.322  1.00  0.00    -0.340 N 
ATOM     12  H   UNL A   1      30.450  29.236  24.945  1.00  0.00     0.346 HD
ATOM     13  H   UNL A   1      31.240  30.588  24.214  1.00  0.00     0.346 HD
BRANCH  11  14
ATOM     14  C   UNL A   1      30.874  29.076  22.966  1.00  0.00     0.179 C 
ATOM     15  C   UNL A   1      32.036  29.081  21.964  1.00  0.00     0.075 C 
BRANCH  14  16
ATOM     16  C   UNL A   1      29.701  29.946  22.437  1.00  0.00     0.068 C 
BRANCH  16  17
ATOM     17  C   UNL A   1      28.494  30.129  23.387  1.00  0.00    -0.009 C 
ATOM     18  C   UNL A   1      27.414  29.095  23.048  1.00  0.00     0.008 C 
BRANCH  17  19
ATOM     19  C   UNL A   1      27.929  31.562  23.355  1.00  0.00    -0.000 C 
ATOM     20  C   UNL A   1      28.378  32.340  22.123  1.00  0.00     0.004 C 
ENDBRANCH  17  19
ENDBRANCH  16  17
ENDBRANCH  14  16
ENDBRANCH  11  14
ENDBRANCH  10  11
ENDBRANCH   6  10
ENDBRANCH   3   5
ENDBRANCH   2   3
ENDBRANCH   1   2
BRANCH   1  21
ATOM     21  C   UNL A   1      35.008  22.185  23.978  1.00  0.00     0.202 C 
BRANCH  21  22
ATOM     22  O   UNL A   1      36.035  22.866  24.704  1.00  0.00    -0.374 OA
BRANCH  22  23
ATOM     23  C   UNL A   1      36.684  22.159  25.759  1.00  0.00     0.202 C 
BRANCH  23  24
ATOM     24  C   UNL A   1      37.646  21.030  25.375  1.00  0.00     0.261 C 
BRANCH  24  25
ATOM     25  O   UNL A   1      39.013  21.465  25.327  1.00  0.00    -0.460 OA
BRANCH  25  26
ATOM     26  C   UNL A   1      39.695  21.256  26.481  1.00  0.00     0.338 C 
ATOM     27  O   UNL A   1      40.057  20.182  26.931  1.00  0.00    -0.246 OA
BRANCH  26  28
ATOM     28  C   UNL A   1      40.111  22.545  27.067  1.00  0.00     0.060 A 
ATOM     29  C   UNL A   1      39.505  23.701  26.558  1.00  0.00     0.016 A 
ATOM     30  C   UNL A   1      41.117  22.635  28.032  1.00  0.00     0.016 A 
ATOM     31  C   UNL A   1      39.944  24.956  26.969  1.00  0.00     0.010 A 
ATOM     32  C   UNL A   1      41.561  23.899  28.439  1.00  0.00     0.010 A 
ATOM     33  C   UNL A   1      41.003  25.062  27.880  1.00  0.00    -0.014 A 
BRANCH  33  34
ATOM     34  C   UNL A   1      41.621  26.389  28.120  1.00  0.00     0.031 A 
ATOM     35  C   UNL A   1      40.811  27.455  28.807  1.00  0.00     0.074 A 
ATOM     36  C   UNL A   1      42.897  26.627  27.767  1.00  0.00     0.049 A 
ATOM     37  N   UNL A   1      41.135  28.687  29.100  1.00  0.00    -0.248 NA
ATOM     38  C   UNL A   1      39.450  27.075  29.215  1.00  0.00     0.031 C 
ATOM     39  C   UNL A   1      43.792  25.656  27.137  1.00  0.00     0.029 A 
ATOM     40  N   UNL A   1      43.659  27.760  27.887  1.00  0.00    -0.354 N 
ATOM     41  C   UNL A   1      40.019  29.233  29.725  1.00  0.00     0.074 A 
ATOM     42  C   UNL A   1      38.998  28.207  29.730  1.00  0.00     0.031 C 
ATOM     43  C   UNL A   1      44.981  26.242  26.915  1.00  0.00     0.029 A 
ATOM     44  C   UNL A   1      44.921  27.635  27.355  1.00  0.00     0.049 A 
ATOM     45  H   UNL A   1      43.335  28.587  28.312  1.00  0.00     0.167 HD
ATOM     46  C   UNL A   1      39.866  30.473  30.256  1.00  0.00     0.034 A 
ATOM     47  C   UNL A   1      45.905  28.547  27.218  1.00  0.00     0.034 A 
ATOM     48  C   UNL A   1      40.891  31.488  30.228  1.00  0.00     0.049 A 
ATOM     49  C   UNL A   1      45.683  29.946  27.736  1.00  0.00     0.074 A 
ATOM     50  C   UNL A   1      40.848  32.772  30.744  1.00  0.00     0.029 A 
ATOM     51  N   UNL A   1      42.140  31.340  29.639  1.00  0.00    -0.354 N 
ATOM     52  N   UNL A   1      44.626  30.449  28.334  1.00  0.00    -0.248 NA
ATOM     53  C   UNL A   1      46.789  30.898  27.570  1.00  0.00     0.031 C 
ATOM     54  C   UNL A   1      42.041  33.421  30.406  1.00  0.00     0.029 A 
ATOM     55  C   UNL A   1      42.863  32.519  29.748  1.00  0.00     0.049 A 
ATOM     56  H   UNL A   1      42.466  30.518  29.207  1.00  0.00     0.167 HD
ATOM     57  C   UNL A   1      44.955  31.768  28.641  1.00  0.00     0.074 A 
ATOM     58  C   UNL A   1      46.310  31.977  28.172  1.00  0.00     0.031 C 
ATOM     59  C   UNL A   1      44.208  32.718  29.262  1.00  0.00     0.034 A 
BRANCH  46  60
ATOM     60  C   UNL A   1      38.520  30.805  30.855  1.00  0.00     0.023 A 
ATOM     61  C   UNL A   1      37.491  31.385  30.091  1.00  0.00     0.031 A 
ATOM     62  C   UNL A   1      38.278  30.578  32.221  1.00  0.00     0.131 A 
ATOM     63  C   UNL A   1      36.299  31.785  30.714  1.00  0.00     0.055 A 
ATOM     64  C   UNL A   1      37.058  30.906  32.818  1.00  0.00     0.041 A 
ATOM     65  F   UNL A   1      39.229  30.050  33.006  1.00  0.00    -0.206 F 
ATOM     66  C   UNL A   1      36.065  31.528  32.067  1.00  0.00     0.022 A 
BRANCH  63  67
ATOM     67  S   UNL A   1      35.117  32.783  29.764  1.00  0.00     0.124 S 
ATOM     68  O   UNL A   1      35.983  33.827  29.221  1.00  0.00    -0.237 OA
ATOM     69  O   UNL A   1      34.595  31.820  28.801  1.00  0.00    -0.237 OA
ATOM     70  O   UNL A   1      34.164  33.238  30.773  1.00  0.00    -0.744 OA
ENDBRANCH  63  67
ENDBRANCH  46  60
BRANCH  47  71
ATOM     71  C   UNL A   1      47.173  28.184  26.527  1.00  0.00     0.023 A 
ATOM     72  C   UNL A   1      47.262  28.168  25.126  1.00  0.00     0.031 A 
ATOM     73  C   UNL A   1      48.310  27.802  27.264  1.00  0.00     0.131 A 
ATOM     74  C   UNL A   1      48.446  27.740  24.506  1.00  0.00     0.055 A 
ATOM     75  C   UNL A   1      49.501  27.425  26.643  1.00  0.00     0.041 A 
ATOM     76  F   UNL A   1      48.278  27.803  28.606  1.00  0.00    -0.206 F 
ATOM     77  C   UNL A   1      49.570  27.380  25.254  1.00  0.00     0.022 A 
BRANCH  74  78
ATOM     78  S   UNL A   1      48.477  27.590  22.698  1.00  0.00     0.124 S 
ATOM     79  O   UNL A   1      47.240  28.266  22.323  1.00  0.00    -0.237 OA
ATOM     80  O   UNL A   1      49.716  28.282  22.359  1.00  0.00    -0.237 OA
ATOM     81  O   UNL A   1      48.492  26.146  22.477  1.00  0.00    -0.744 OA
ENDBRANCH  74  78
ENDBRANCH  47  71
BRANCH  59  82
ATOM     82  C   UNL A   1      44.866  34.054  29.510  1.00  0.00     0.023 A 
ATOM     83  C   UNL A   1      44.752  35.118  28.600  1.00  0.00     0.031 A 
ATOM     84  C   UNL A   1      45.624  34.261  30.677  1.00  0.00     0.131 A 
ATOM     85  C   UNL A   1      45.428  36.323  28.845  1.00  0.00     0.055 A 
ATOM     86  C   UNL A   1      46.247  35.480  30.944  1.00  0.00     0.041 A 
ATOM     87  F   UNL A   1      45.767  33.277  31.582  1.00  0.00    -0.206 F 
ATOM     88  C   UNL A   1      46.161  36.516  30.020  1.00  0.00     0.022 A 
BRANCH  85  89
ATOM     89  S   UNL A   1      45.409  37.611  27.567  1.00  0.00     0.124 S 
ATOM     90  O   UNL A   1      46.523  37.209  26.715  1.00  0.00    -0.237 OA
ATOM     91  O   UNL A   1      44.077  37.458  26.990  1.00  0.00    -0.237 OA
ATOM     92  O   UNL A   1      45.619  38.845  28.320  1.00  0.00    -0.744 OA
ENDBRANCH  85  89
ENDBRANCH  59  82
ENDBRANCH  33  34
ENDBRANCH  26  28
ENDBRANCH  25  26
ENDBRANCH  24  25
ENDBRANCH  23  24
ENDBRANCH  22  23
ENDBRANCH  21  22
ENDBRANCH   1  21
TORSDOF 23
ENDMDL
