MODEL 1
REMARK VINA RESULT:     -11.0      0.000      0.000
REMARK SMILES C[C@@H]1[NH2+]CC[C@H]1C(=O)NCc1cccc(C(=O)OCCOCCOC(=O)c2ccc(-c3c4nc(c(-c5cc(S(=O)(=O)[O-])ccc5F)c5ccc([nH]5)c(-c5cc(S(=O)(=O)[O-])ccc5F)c5nc(c(-c6cc(S(=O)(=O)[O-])ccc6F)c6ccc3[nH]6)C=C5)C=C4)cc2)c1
REMARK SMILES IDX 21 1 20 2 19 3 18 4 16 5 17 6 15 7 11 8 12 9 90 10 13 11
REMARK SMILES IDX 14 12 10 13 9 14 7 15 8 16 6 18 1 19 2 20 3 21 4 22 5 25
REMARK SMILES IDX 22 26 23 27 24 28 25 29 26 30 27 31 28 32 89 33 29 34 88 35
REMARK SMILES IDX 30 36 31 37 32 38 82 39 33 40 87 41 81 42 83 43 34 44 86 45
REMARK SMILES IDX 80 46 79 47 35 49 67 50 47 51 66 52 48 53 51 54 65 55 84 56
REMARK SMILES IDX 49 57 50 58 64 60 85 61 52 62 36 63 37 64 45 65 38 66 44 67
REMARK SMILES IDX 46 68 43 69 39 70 40 71 41 72 42 73 68 74 69 75 77 76 70 77
REMARK SMILES IDX 76 78 78 79 75 80 71 81 72 82 73 83 74 84 53 85 54 86 62 87
REMARK SMILES IDX 55 88 61 89 63 90 60 91 56 92 57 93 58 94 59 95
REMARK H PARENT 9 17 3 23 3 24 83 48 51 59
REMARK Flexibility Score: inf
ROOT
ATOM      1  O   UNL A   1      37.207  21.287  24.126  1.00  0.00    -0.374 OA
ENDROOT
BRANCH   1   2
ATOM      2  C   UNL A   1      36.296  22.143  24.817  1.00  0.00     0.202 C 
BRANCH   2   3
ATOM      3  C   UNL A   1      34.869  22.220  24.264  1.00  0.00     0.261 C 
BRANCH   3   4
ATOM      4  O   UNL A   1      34.162  23.347  24.807  1.00  0.00    -0.460 OA
BRANCH   4   5
ATOM      5  C   UNL A   1      34.042  24.414  23.982  1.00  0.00     0.338 C 
ATOM      6  O   UNL A   1      34.467  24.514  22.842  1.00  0.00    -0.246 OA
BRANCH   5   7
ATOM      7  C   UNL A   1      33.120  25.407  24.589  1.00  0.00     0.060 A 
ATOM      8  C   UNL A   1      32.254  27.669  24.851  1.00  0.00    -0.028 A 
ATOM      9  C   UNL A   1      31.458  27.210  25.915  1.00  0.00     0.005 A 
ATOM     10  C   UNL A   1      33.100  26.754  24.201  1.00  0.00     0.021 A 
ATOM     11  C   UNL A   1      31.483  25.871  26.307  1.00  0.00     0.001 A 
ATOM     12  C   UNL A   1      32.308  24.971  25.642  1.00  0.00     0.016 A 
BRANCH   8  13
ATOM     13  C   UNL A   1      32.211  29.137  24.495  1.00  0.00     0.151 C 
BRANCH  13  14
ATOM     14  N   UNL A   1      31.794  29.402  23.136  1.00  0.00    -0.352 N 
ATOM     15  C   UNL A   1      30.568  29.449  22.553  1.00  0.00     0.229 C 
ATOM     16  O   UNL A   1      30.536  29.639  21.335  1.00  0.00    -0.275 OA
ATOM     17  H   UNL A   1      32.537  29.582  22.516  1.00  0.00     0.163 HD
BRANCH  15  18
ATOM     18  C   UNL A   1      29.268  29.293  23.326  1.00  0.00     0.142 C 
ATOM     19  C   UNL A   1      27.679  31.233  23.681  1.00  0.00     0.076 C 
ATOM     20  C   UNL A   1      28.105  30.098  22.749  1.00  0.00     0.192 C 
ATOM     21  N   UNL A   1      26.976  29.165  22.567  1.00  0.00    -0.343 N 
ATOM     22  C   UNL A   1      27.270  27.968  23.358  1.00  0.00     0.261 C 
ATOM     23  H   UNL A   1      26.882  28.918  21.582  1.00  0.00     0.346 HD
ATOM     24  H   UNL A   1      26.100  29.591  22.872  1.00  0.00     0.346 HD
ATOM     25  C   UNL A   1      28.780  27.859  23.451  1.00  0.00     0.081 C 
ENDBRANCH  15  18
ENDBRANCH  13  14
ENDBRANCH   8  13
ENDBRANCH   5   7
ENDBRANCH   4   5
ENDBRANCH   3   4
ENDBRANCH   2   3
ENDBRANCH   1   2
BRANCH   1  26
ATOM     26  C   UNL A   1      37.431  19.989  24.679  1.00  0.00     0.202 C 
BRANCH  26  27
ATOM     27  C   UNL A   1      38.814  19.704  25.280  1.00  0.00     0.261 C 
BRANCH  27  28
ATOM     28  O   UNL A   1      39.076  20.477  26.463  1.00  0.00    -0.460 OA
BRANCH  28  29
ATOM     29  C   UNL A   1      40.391  20.593  26.779  1.00  0.00     0.338 C 
ATOM     30  O   UNL A   1      41.261  19.753  26.618  1.00  0.00    -0.246 OA
BRANCH  29  31
ATOM     31  C   UNL A   1      40.682  21.980  27.190  1.00  0.00     0.060 A 
ATOM     32  C   UNL A   1      40.008  23.010  26.522  1.00  0.00     0.016 A 
ATOM     33  C   UNL A   1      41.636  22.272  28.165  1.00  0.00     0.016 A 
ATOM     34  C   UNL A   1      40.309  24.340  26.805  1.00  0.00     0.010 A 
ATOM     35  C   UNL A   1      41.943  23.608  28.442  1.00  0.00     0.010 A 
ATOM     36  C   UNL A   1      41.301  24.649  27.745  1.00  0.00    -0.014 A 
BRANCH  36  37
ATOM     37  C   UNL A   1      41.750  26.053  27.912  1.00  0.00     0.031 A 
ATOM     38  C   UNL A   1      43.069  26.474  27.325  1.00  0.00     0.074 A 
ATOM     39  C   UNL A   1      40.982  26.946  28.564  1.00  0.00     0.049 A 
ATOM     40  N   UNL A   1      43.689  27.623  27.411  1.00  0.00    -0.248 NA
ATOM     41  C   UNL A   1      43.786  25.459  26.540  1.00  0.00     0.031 C 
ATOM     42  C   UNL A   1      39.664  26.667  29.129  1.00  0.00     0.029 A 
ATOM     43  N   UNL A   1      41.207  28.265  28.866  1.00  0.00    -0.354 N 
ATOM     44  C   UNL A   1      44.873  27.469  26.697  1.00  0.00     0.074 A 
ATOM     45  C   UNL A   1      44.899  26.101  26.221  1.00  0.00     0.031 C 
ATOM     46  C   UNL A   1      39.199  27.782  29.719  1.00  0.00     0.029 A 
ATOM     47  C   UNL A   1      40.205  28.836  29.616  1.00  0.00     0.049 A 
ATOM     48  H   UNL A   1      42.008  28.757  28.573  1.00  0.00     0.167 HD
ATOM     49  C   UNL A   1      45.843  28.386  26.457  1.00  0.00     0.034 A 
ATOM     50  C   UNL A   1      40.125  30.056  30.183  1.00  0.00     0.034 A 
ATOM     51  C   UNL A   1      45.805  29.742  26.953  1.00  0.00     0.049 A 
ATOM     52  C   UNL A   1      41.268  31.027  29.995  1.00  0.00     0.074 A 
ATOM     53  C   UNL A   1      46.723  30.759  26.754  1.00  0.00     0.029 A 
ATOM     54  N   UNL A   1      44.804  30.267  27.761  1.00  0.00    -0.354 N 
ATOM     55  N   UNL A   1      42.380  30.874  29.312  1.00  0.00    -0.248 NA
ATOM     56  C   UNL A   1      41.142  32.333  30.653  1.00  0.00     0.031 C 
ATOM     57  C   UNL A   1      46.321  31.866  27.509  1.00  0.00     0.029 A 
ATOM     58  C   UNL A   1      45.106  31.576  28.107  1.00  0.00     0.049 A 
ATOM     59  H   UNL A   1      43.997  29.780  28.047  1.00  0.00     0.167 HD
ATOM     60  C   UNL A   1      43.071  32.077  29.437  1.00  0.00     0.074 A 
ATOM     61  C   UNL A   1      42.242  32.949  30.244  1.00  0.00     0.031 C 
ATOM     62  C   UNL A   1      44.281  32.431  28.930  1.00  0.00     0.034 A 
BRANCH  49  63
ATOM     63  C   UNL A   1      47.051  27.930  25.672  1.00  0.00     0.023 A 
ATOM     64  C   UNL A   1      47.193  28.206  24.300  1.00  0.00     0.031 A 
ATOM     65  C   UNL A   1      48.063  27.182  26.298  1.00  0.00     0.131 A 
ATOM     66  C   UNL A   1      48.276  27.671  23.587  1.00  0.00     0.055 A 
ATOM     67  C   UNL A   1      49.183  26.726  25.601  1.00  0.00     0.041 A 
ATOM     68  F   UNL A   1      47.973  26.865  27.600  1.00  0.00    -0.206 F 
ATOM     69  C   UNL A   1      49.288  26.956  24.233  1.00  0.00     0.022 A 
BRANCH  66  70
ATOM     70  S   UNL A   1      48.265  27.789  21.776  1.00  0.00     0.124 S 
ATOM     71  O   UNL A   1      48.519  26.403  21.390  1.00  0.00    -0.237 OA
ATOM     72  O   UNL A   1      46.925  28.293  21.502  1.00  0.00    -0.237 OA
ATOM     73  O   UNL A   1      49.355  28.717  21.486  1.00  0.00    -0.744 OA
ENDBRANCH  66  70
ENDBRANCH  49  63
BRANCH  50  74
ATOM     74  C   UNL A   1      38.951  30.422  31.026  1.00  0.00     0.023 A 
ATOM     75  C   UNL A   1      37.861  31.127  30.488  1.00  0.00     0.031 A 
ATOM     76  C   UNL A   1      38.925  30.120  32.399  1.00  0.00     0.131 A 
ATOM     77  C   UNL A   1      36.814  31.541  31.325  1.00  0.00     0.055 A 
ATOM     78  C   UNL A   1      37.854  30.483  33.216  1.00  0.00     0.041 A 
ATOM     79  F   UNL A   1      39.945  29.456  32.967  1.00  0.00    -0.206 F 
ATOM     80  C   UNL A   1      36.795  31.210  32.682  1.00  0.00     0.022 A 
BRANCH  77  81
ATOM     81  S   UNL A   1      35.517  32.602  30.631  1.00  0.00     0.124 S 
ATOM     82  O   UNL A   1      34.359  32.213  31.427  1.00  0.00    -0.237 OA
ATOM     83  O   UNL A   1      36.050  33.936  30.882  1.00  0.00    -0.237 OA
ATOM     84  O   UNL A   1      35.470  32.207  29.225  1.00  0.00    -0.744 OA
ENDBRANCH  77  81
ENDBRANCH  50  74
BRANCH  62  85
ATOM     85  C   UNL A   1      44.758  33.839  29.205  1.00  0.00     0.023 A 
ATOM     86  C   UNL A   1      44.339  34.930  28.424  1.00  0.00     0.031 A 
ATOM     87  C   UNL A   1      45.657  34.089  30.259  1.00  0.00     0.131 A 
ATOM     88  C   UNL A   1      44.861  36.209  28.670  1.00  0.00     0.055 A 
ATOM     89  C   UNL A   1      46.119  35.376  30.542  1.00  0.00     0.041 A 
ATOM     90  F   UNL A   1      46.096  33.086  31.036  1.00  0.00    -0.206 F 
ATOM     91  C   UNL A   1      45.732  36.442  29.737  1.00  0.00     0.022 A 
BRANCH  88  92
ATOM     92  S   UNL A   1      44.463  37.550  27.515  1.00  0.00     0.124 S 
ATOM     93  O   UNL A   1      43.316  37.003  26.798  1.00  0.00    -0.237 OA
ATOM     94  O   UNL A   1      44.180  38.664  28.415  1.00  0.00    -0.237 OA
ATOM     95  O   UNL A   1      45.681  37.691  26.719  1.00  0.00    -0.744 OA
ENDBRANCH  88  92
ENDBRANCH  62  85
ENDBRANCH  36  37
ENDBRANCH  29  31
ENDBRANCH  28  29
ENDBRANCH  27  28
ENDBRANCH  26  27
ENDBRANCH   1  26
TORSDOF 20
ENDMDL
MODEL 2
REMARK VINA RESULT:     -10.8      5.149     11.015
REMARK SMILES C[C@@H]1[NH2+]CC[C@H]1C(=O)NCc1cccc(C(=O)OCCOCCOC(=O)c2ccc(-c3c4nc(c(-c5cc(S(=O)(=O)[O-])ccc5F)c5ccc([nH]5)c(-c5cc(S(=O)(=O)[O-])ccc5F)c5nc(c(-c6cc(S(=O)(=O)[O-])ccc6F)c6ccc3[nH]6)C=C5)C=C4)cc2)c1
REMARK SMILES IDX 21 1 20 2 19 3 18 4 16 5 17 6 15 7 11 8 12 9 90 10 13 11
REMARK SMILES IDX 14 12 10 13 9 14 7 15 8 16 6 18 1 19 2 20 3 21 4 22 5 25
REMARK SMILES IDX 22 26 23 27 24 28 25 29 26 30 27 31 28 32 89 33 29 34 88 35
REMARK SMILES IDX 30 36 31 37 32 38 82 39 33 40 87 41 81 42 83 43 34 44 86 45
REMARK SMILES IDX 80 46 79 47 35 49 67 50 47 51 66 52 48 53 51 54 65 55 84 56
REMARK SMILES IDX 49 57 50 58 64 60 85 61 52 62 36 63 37 64 45 65 38 66 44 67
REMARK SMILES IDX 46 68 43 69 39 70 40 71 41 72 42 73 68 74 69 75 77 76 70 77
REMARK SMILES IDX 76 78 78 79 75 80 71 81 72 82 73 83 74 84 53 85 54 86 62 87
REMARK SMILES IDX 55 88 61 89 63 90 60 91 56 92 57 93 58 94 59 95
REMARK H PARENT 9 17 3 23 3 24 83 48 51 59
REMARK Flexibility Score: inf
ROOT
ATOM      1  O   UNL A   1      32.867  30.639  26.163  1.00  0.00    -0.374 OA
ENDROOT
BRANCH   1   2
ATOM      2  C   UNL A   1      32.707  29.655  25.140  1.00  0.00     0.202 C 
BRANCH   2   3
ATOM      3  C   UNL A   1      31.333  29.582  24.464  1.00  0.00     0.261 C 
BRANCH   3   4
ATOM      4  O   UNL A   1      30.764  28.268  24.587  1.00  0.00    -0.460 OA
BRANCH   4   5
ATOM      5  C   UNL A   1      30.646  27.573  23.431  1.00  0.00     0.338 C 
ATOM      6  O   UNL A   1      29.907  27.826  22.492  1.00  0.00    -0.246 OA
BRANCH   5   7
ATOM      7  C   UNL A   1      31.710  26.540  23.364  1.00  0.00     0.060 A 
ATOM      8  C   UNL A   1      33.527  25.248  24.345  1.00  0.00    -0.028 A 
ATOM      9  C   UNL A   1      33.787  24.704  23.074  1.00  0.00     0.005 A 
ATOM     10  C   UNL A   1      32.489  26.186  24.475  1.00  0.00     0.021 A 
ATOM     11  C   UNL A   1      33.018  25.062  21.966  1.00  0.00     0.001 A 
ATOM     12  C   UNL A   1      31.978  25.974  22.112  1.00  0.00     0.016 A 
BRANCH   8  13
ATOM     13  C   UNL A   1      34.417  24.848  25.499  1.00  0.00     0.151 C 
BRANCH  13  14
ATOM     14  N   UNL A   1      33.788  23.953  26.445  1.00  0.00    -0.352 N 
ATOM     15  C   UNL A   1      33.508  22.626  26.393  1.00  0.00     0.229 C 
ATOM     16  O   UNL A   1      32.894  22.147  27.350  1.00  0.00    -0.275 OA
ATOM     17  H   UNL A   1      33.511  24.387  27.284  1.00  0.00     0.163 HD
BRANCH  15  18
ATOM     18  C   UNL A   1      33.922  21.728  25.238  1.00  0.00     0.142 C 
ATOM     19  C   UNL A   1      36.240  21.835  24.222  1.00  0.00     0.076 C 
ATOM     20  C   UNL A   1      35.365  21.235  25.324  1.00  0.00     0.192 C 
ATOM     21  N   UNL A   1      35.334  19.766  25.180  1.00  0.00    -0.343 N 
ATOM     22  C   UNL A   1      34.025  19.412  24.627  1.00  0.00     0.261 C 
ATOM     23  H   UNL A   1      35.460  19.323  26.089  1.00  0.00     0.346 HD
ATOM     24  H   UNL A   1      36.083  19.446  24.565  1.00  0.00     0.346 HD
ATOM     25  C   UNL A   1      33.054  20.493  25.060  1.00  0.00     0.081 C 
ENDBRANCH  15  18
ENDBRANCH  13  14
ENDBRANCH   8  13
ENDBRANCH   5   7
ENDBRANCH   4   5
ENDBRANCH   3   4
ENDBRANCH   2   3
ENDBRANCH   1   2
BRANCH   1  26
ATOM     26  C   UNL A   1      31.680  31.227  26.695  1.00  0.00     0.202 C 
BRANCH  26  27
ATOM     27  C   UNL A   1      31.664  32.751  26.879  1.00  0.00     0.261 C 
BRANCH  27  28
ATOM     28  O   UNL A   1      32.976  33.333  26.816  1.00  0.00    -0.460 OA
BRANCH  28  29
ATOM     29  C   UNL A   1      33.439  33.807  28.000  1.00  0.00     0.338 C 
ATOM     30  O   UNL A   1      32.901  34.633  28.719  1.00  0.00    -0.246 OA
BRANCH  29  31
ATOM     31  C   UNL A   1      34.627  33.037  28.414  1.00  0.00     0.060 A 
ATOM     32  C   UNL A   1      34.416  31.772  28.978  1.00  0.00     0.016 A 
ATOM     33  C   UNL A   1      35.916  33.561  28.307  1.00  0.00     0.016 A 
ATOM     34  C   UNL A   1      35.494  31.038  29.469  1.00  0.00     0.010 A 
ATOM     35  C   UNL A   1      36.995  32.826  28.809  1.00  0.00     0.010 A 
ATOM     36  C   UNL A   1      36.788  31.573  29.416  1.00  0.00    -0.014 A 
BRANCH  36  37
ATOM     37  C   UNL A   1      37.904  30.877  30.102  1.00  0.00     0.031 A 
ATOM     38  C   UNL A   1      38.199  31.206  31.539  1.00  0.00     0.074 A 
ATOM     39  C   UNL A   1      38.635  29.950  29.455  1.00  0.00     0.049 A 
ATOM     40  N   UNL A   1      39.165  30.777  32.309  1.00  0.00    -0.248 NA
ATOM     41  C   UNL A   1      37.281  32.151  32.192  1.00  0.00     0.031 C 
ATOM     42  C   UNL A   1      38.410  29.512  28.078  1.00  0.00     0.029 A 
ATOM     43  N   UNL A   1      39.719  29.219  29.868  1.00  0.00    -0.354 N 
ATOM     44  C   UNL A   1      38.978  31.403  33.537  1.00  0.00     0.074 A 
ATOM     45  C   UNL A   1      37.828  32.272  33.392  1.00  0.00     0.031 C 
ATOM     46  C   UNL A   1      39.335  28.591  27.758  1.00  0.00     0.029 A 
ATOM     47  C   UNL A   1      40.246  28.412  28.887  1.00  0.00     0.049 A 
ATOM     48  H   UNL A   1      40.085  29.266  30.782  1.00  0.00     0.167 HD
ATOM     49  C   UNL A   1      39.695  31.260  34.679  1.00  0.00     0.034 A 
ATOM     50  C   UNL A   1      41.354  27.644  28.888  1.00  0.00     0.034 A 
ATOM     51  C   UNL A   1      40.848  30.398  34.800  1.00  0.00     0.049 A 
ATOM     52  C   UNL A   1      42.202  27.584  30.138  1.00  0.00     0.074 A 
ATOM     53  C   UNL A   1      41.635  30.163  35.914  1.00  0.00     0.029 A 
ATOM     54  N   UNL A   1      41.389  29.642  33.767  1.00  0.00    -0.354 N 
ATOM     55  N   UNL A   1      42.011  28.175  31.296  1.00  0.00    -0.248 NA
ATOM     56  C   UNL A   1      43.410  26.753  30.078  1.00  0.00     0.031 C 
ATOM     57  C   UNL A   1      42.698  29.336  35.533  1.00  0.00     0.029 A 
ATOM     58  C   UNL A   1      42.526  28.979  34.205  1.00  0.00     0.049 A 
ATOM     59  H   UNL A   1      41.020  29.587  32.856  1.00  0.00     0.167 HD
ATOM     60  C   UNL A   1      43.064  27.762  32.110  1.00  0.00     0.074 A 
ATOM     61  C   UNL A   1      43.872  26.859  31.316  1.00  0.00     0.031 C 
ATOM     62  C   UNL A   1      43.337  28.096  33.398  1.00  0.00     0.034 A 
BRANCH  49  63
ATOM     63  C   UNL A   1      39.285  32.100  35.867  1.00  0.00     0.023 A 
ATOM     64  C   UNL A   1      38.515  31.573  36.919  1.00  0.00     0.031 A 
ATOM     65  C   UNL A   1      39.644  33.457  35.934  1.00  0.00     0.131 A 
ATOM     66  C   UNL A   1      38.065  32.414  37.947  1.00  0.00     0.055 A 
ATOM     67  C   UNL A   1      39.266  34.269  37.005  1.00  0.00     0.041 A 
ATOM     68  F   UNL A   1      40.357  34.025  34.948  1.00  0.00    -0.206 F 
ATOM     69  C   UNL A   1      38.457  33.753  38.013  1.00  0.00     0.022 A 
BRANCH  66  70
ATOM     70  S   UNL A   1      36.831  31.774  39.114  1.00  0.00     0.124 S 
ATOM     71  O   UNL A   1      35.704  32.673  38.872  1.00  0.00    -0.237 OA
ATOM     72  O   UNL A   1      36.658  30.398  38.666  1.00  0.00    -0.237 OA
ATOM     73  O   UNL A   1      37.475  31.933  40.416  1.00  0.00    -0.744 OA
ENDBRANCH  66  70
ENDBRANCH  49  63
BRANCH  50  74
ATOM     74  C   UNL A   1      41.765  26.908  27.658  1.00  0.00     0.023 A 
ATOM     75  C   UNL A   1      41.606  25.517  27.557  1.00  0.00     0.031 A 
ATOM     76  C   UNL A   1      42.373  27.581  26.583  1.00  0.00     0.131 A 
ATOM     77  C   UNL A   1      42.089  24.838  26.427  1.00  0.00     0.055 A 
ATOM     78  C   UNL A   1      42.798  26.910  25.436  1.00  0.00     0.041 A 
ATOM     79  F   UNL A   1      42.557  28.910  26.631  1.00  0.00    -0.206 F 
ATOM     80  C   UNL A   1      42.668  25.527  25.359  1.00  0.00     0.022 A 
BRANCH  77  81
ATOM     81  S   UNL A   1      42.030  23.025  26.413  1.00  0.00     0.124 S 
ATOM     82  O   UNL A   1      40.597  22.775  26.508  1.00  0.00    -0.237 OA
ATOM     83  O   UNL A   1      42.653  22.712  25.133  1.00  0.00    -0.237 OA
ATOM     84  O   UNL A   1      42.810  22.651  27.591  1.00  0.00    -0.744 OA
ENDBRANCH  77  81
ENDBRANCH  50  74
BRANCH  62  85
ATOM     85  C   UNL A   1      44.544  27.447  34.038  1.00  0.00     0.023 A 
ATOM     86  C   UNL A   1      44.444  26.248  34.764  1.00  0.00     0.031 A 
ATOM     87  C   UNL A   1      45.812  28.047  33.927  1.00  0.00     0.131 A 
ATOM     88  C   UNL A   1      45.576  25.716  35.399  1.00  0.00     0.055 A 
ATOM     89  C   UNL A   1      46.948  27.477  34.505  1.00  0.00     0.041 A 
ATOM     90  F   UNL A   1      45.969  29.196  33.250  1.00  0.00    -0.206 F 
ATOM     91  C   UNL A   1      46.832  26.312  35.257  1.00  0.00     0.022 A 
BRANCH  88  92
ATOM     92  S   UNL A   1      45.370  24.288  36.498  1.00  0.00     0.124 S 
ATOM     93  O   UNL A   1      46.629  24.290  37.237  1.00  0.00    -0.237 OA
ATOM     94  O   UNL A   1      44.182  24.651  37.262  1.00  0.00    -0.237 OA
ATOM     95  O   UNL A   1      45.195  23.167  35.575  1.00  0.00    -0.744 OA
ENDBRANCH  88  92
ENDBRANCH  62  85
ENDBRANCH  36  37
ENDBRANCH  29  31
ENDBRANCH  28  29
ENDBRANCH  27  28
ENDBRANCH  26  27
ENDBRANCH   1  26
TORSDOF 20
ENDMDL
MODEL 3
REMARK VINA RESULT:     -10.7      2.115      7.833
REMARK SMILES C[C@@H]1[NH2+]CC[C@H]1C(=O)NCc1cccc(C(=O)OCCOCCOC(=O)c2ccc(-c3c4nc(c(-c5cc(S(=O)(=O)[O-])ccc5F)c5ccc([nH]5)c(-c5cc(S(=O)(=O)[O-])ccc5F)c5nc(c(-c6cc(S(=O)(=O)[O-])ccc6F)c6ccc3[nH]6)C=C5)C=C4)cc2)c1
REMARK SMILES IDX 21 1 20 2 19 3 18 4 16 5 17 6 15 7 11 8 12 9 90 10 13 11
REMARK SMILES IDX 14 12 10 13 9 14 7 15 8 16 6 18 1 19 2 20 3 21 4 22 5 25
REMARK SMILES IDX 22 26 23 27 24 28 25 29 26 30 27 31 28 32 89 33 29 34 88 35
REMARK SMILES IDX 30 36 31 37 32 38 82 39 33 40 87 41 81 42 83 43 34 44 86 45
REMARK SMILES IDX 80 46 79 47 35 49 67 50 47 51 66 52 48 53 51 54 65 55 84 56
REMARK SMILES IDX 49 57 50 58 64 60 85 61 52 62 36 63 37 64 45 65 38 66 44 67
REMARK SMILES IDX 46 68 43 69 39 70 40 71 41 72 42 73 68 74 69 75 77 76 70 77
REMARK SMILES IDX 76 78 78 79 75 80 71 81 72 82 73 83 74 84 53 85 54 86 62 87
REMARK SMILES IDX 55 88 61 89 63 90 60 91 56 92 57 93 58 94 59 95
REMARK H PARENT 9 17 3 23 3 24 83 48 51 59
REMARK Flexibility Score: inf
ROOT
ATOM      1  O   UNL A   1      38.672  22.390  26.184  1.00  0.00    -0.374 OA
ENDROOT
BRANCH   1   2
ATOM      2  C   UNL A   1      38.004  23.643  26.022  1.00  0.00     0.202 C 
BRANCH   2   3
ATOM      3  C   UNL A   1      36.736  23.641  25.162  1.00  0.00     0.261 C 
BRANCH   3   4
ATOM      4  O   UNL A   1      35.554  23.672  25.979  1.00  0.00    -0.460 OA
BRANCH   4   5
ATOM      5  C   UNL A   1      34.855  22.514  26.040  1.00  0.00     0.338 C 
ATOM      6  O   UNL A   1      34.862  21.697  26.947  1.00  0.00    -0.246 OA
BRANCH   5   7
ATOM      7  C   UNL A   1      33.891  22.459  24.912  1.00  0.00     0.060 A 
ATOM      8  C   UNL A   1      32.398  23.506  23.297  1.00  0.00    -0.028 A 
ATOM      9  C   UNL A   1      31.966  22.224  22.909  1.00  0.00     0.005 A 
ATOM     10  C   UNL A   1      33.356  23.611  24.320  1.00  0.00     0.021 A 
ATOM     11  C   UNL A   1      32.493  21.077  23.504  1.00  0.00     0.001 A 
ATOM     12  C   UNL A   1      33.457  21.194  24.499  1.00  0.00     0.016 A 
BRANCH   8  13
ATOM     13  C   UNL A   1      31.765  24.711  22.642  1.00  0.00     0.151 C 
BRANCH  13  14
ATOM     14  N   UNL A   1      32.718  25.643  22.078  1.00  0.00    -0.352 N 
ATOM     15  C   UNL A   1      33.158  26.858  22.495  1.00  0.00     0.229 C 
ATOM     16  O   UNL A   1      33.941  27.453  21.752  1.00  0.00    -0.275 OA
ATOM     17  H   UNL A   1      33.123  25.341  21.234  1.00  0.00     0.163 HD
BRANCH  15  18
ATOM     18  C   UNL A   1      32.743  27.490  23.814  1.00  0.00     0.142 C 
ATOM     19  C   UNL A   1      33.706  26.725  26.029  1.00  0.00     0.076 C 
ATOM     20  C   UNL A   1      33.886  27.640  24.816  1.00  0.00     0.192 C 
ATOM     21  N   UNL A   1      33.895  29.047  25.261  1.00  0.00    -0.343 N 
ATOM     22  C   UNL A   1      32.603  29.628  24.890  1.00  0.00     0.261 C 
ATOM     23  H   UNL A   1      34.651  29.554  24.800  1.00  0.00     0.346 HD
ATOM     24  H   UNL A   1      34.041  29.108  26.269  1.00  0.00     0.346 HD
ATOM     25  C   UNL A   1      32.105  28.863  23.680  1.00  0.00     0.081 C 
ENDBRANCH  15  18
ENDBRANCH  13  14
ENDBRANCH   8  13
ENDBRANCH   5   7
ENDBRANCH   4   5
ENDBRANCH   3   4
ENDBRANCH   2   3
ENDBRANCH   1   2
BRANCH   1  26
ATOM     26  C   UNL A   1      38.212  21.297  25.388  1.00  0.00     0.202 C 
BRANCH  26  27
ATOM     27  C   UNL A   1      39.054  20.015  25.391  1.00  0.00     0.261 C 
BRANCH  27  28
ATOM     28  O   UNL A   1      39.890  19.900  26.555  1.00  0.00    -0.460 OA
BRANCH  28  29
ATOM     29  C   UNL A   1      41.215  19.791  26.287  1.00  0.00     0.338 C 
ATOM     30  O   UNL A   1      41.782  18.850  25.759  1.00  0.00    -0.246 OA
BRANCH  29  31
ATOM     31  C   UNL A   1      41.884  21.078  26.559  1.00  0.00     0.060 A 
ATOM     32  C   UNL A   1      42.156  21.399  27.895  1.00  0.00     0.016 A 
ATOM     33  C   UNL A   1      42.186  21.979  25.537  1.00  0.00     0.016 A 
ATOM     34  C   UNL A   1      42.704  22.639  28.219  1.00  0.00     0.010 A 
ATOM     35  C   UNL A   1      42.728  23.227  25.865  1.00  0.00     0.010 A 
ATOM     36  C   UNL A   1      42.965  23.574  27.208  1.00  0.00    -0.014 A 
BRANCH  36  37
ATOM     37  C   UNL A   1      43.372  24.955  27.566  1.00  0.00     0.031 A 
ATOM     38  C   UNL A   1      42.344  25.901  28.121  1.00  0.00     0.074 A 
ATOM     39  C   UNL A   1      44.648  25.355  27.414  1.00  0.00     0.049 A 
ATOM     40  N   UNL A   1      42.459  27.166  28.432  1.00  0.00    -0.248 NA
ATOM     41  C   UNL A   1      41.003  25.342  28.351  1.00  0.00     0.031 C 
ATOM     42  C   UNL A   1      45.742  24.512  26.934  1.00  0.00     0.029 A 
ATOM     43  N   UNL A   1      45.236  26.574  27.639  1.00  0.00    -0.354 N 
ATOM     44  C   UNL A   1      41.205  27.560  28.888  1.00  0.00     0.074 A 
ATOM     45  C   UNL A   1      40.337  26.406  28.774  1.00  0.00     0.031 C 
ATOM     46  C   UNL A   1      46.869  25.243  26.894  1.00  0.00     0.029 A 
ATOM     47  C   UNL A   1      46.567  26.615  27.295  1.00  0.00     0.049 A 
ATOM     48  H   UNL A   1      44.751  27.346  28.013  1.00  0.00     0.167 HD
ATOM     49  C   UNL A   1      40.819  28.769  29.365  1.00  0.00     0.034 A 
ATOM     50  C   UNL A   1      47.432  27.649  27.275  1.00  0.00     0.034 A 
ATOM     51  C   UNL A   1      41.697  29.913  29.458  1.00  0.00     0.049 A 
ATOM     52  C   UNL A   1      46.951  29.015  27.706  1.00  0.00     0.074 A 
ATOM     53  C   UNL A   1      41.415  31.178  29.942  1.00  0.00     0.029 A 
ATOM     54  N   UNL A   1      43.022  29.935  29.043  1.00  0.00    -0.354 N 
ATOM     55  N   UNL A   1      45.765  29.375  28.142  1.00  0.00    -0.248 NA
ATOM     56  C   UNL A   1      47.926  30.111  27.641  1.00  0.00     0.031 C 
ATOM     57  C   UNL A   1      42.540  31.985  29.741  1.00  0.00     0.029 A 
ATOM     58  C   UNL A   1      43.556  31.203  29.216  1.00  0.00     0.049 A 
ATOM     59  H   UNL A   1      43.512  29.162  28.678  1.00  0.00     0.167 HD
ATOM     60  C   UNL A   1      45.864  30.734  28.431  1.00  0.00     0.074 A 
ATOM     61  C   UNL A   1      47.228  31.123  28.136  1.00  0.00     0.031 C 
ATOM     62  C   UNL A   1      44.914  31.586  28.900  1.00  0.00     0.034 A 
BRANCH  49  63
ATOM     63  C   UNL A   1      39.370  28.929  29.763  1.00  0.00     0.023 A 
ATOM     64  C   UNL A   1      38.373  29.259  28.827  1.00  0.00     0.031 A 
ATOM     65  C   UNL A   1      38.983  28.779  31.107  1.00  0.00     0.131 A 
ATOM     66  C   UNL A   1      37.061  29.504  29.258  1.00  0.00     0.055 A 
ATOM     67  C   UNL A   1      37.658  28.939  31.515  1.00  0.00     0.041 A 
ATOM     68  F   UNL A   1      39.892  28.489  32.052  1.00  0.00    -0.206 F 
ATOM     69  C   UNL A   1      36.689  29.320  30.592  1.00  0.00     0.022 A 
BRANCH  66  70
ATOM     70  S   UNL A   1      35.881  30.219  28.079  1.00  0.00     0.124 S 
ATOM     71  O   UNL A   1      34.728  29.337  28.246  1.00  0.00    -0.237 OA
ATOM     72  O   UNL A   1      35.721  31.580  28.579  1.00  0.00    -0.237 OA
ATOM     73  O   UNL A   1      36.565  30.101  26.794  1.00  0.00    -0.744 OA
ENDBRANCH  66  70
ENDBRANCH  49  63
BRANCH  50  74
ATOM     74  C   UNL A   1      48.827  27.457  26.784  1.00  0.00     0.023 A 
ATOM     75  C   UNL A   1      49.161  27.679  25.438  1.00  0.00     0.031 A 
ATOM     76  C   UNL A   1      49.838  26.993  27.645  1.00  0.00     0.131 A 
ATOM     77  C   UNL A   1      50.459  27.398  24.984  1.00  0.00     0.055 A 
ATOM     78  C   UNL A   1      51.143  26.771  27.202  1.00  0.00     0.041 A 
ATOM     79  F   UNL A   1      49.571  26.756  28.939  1.00  0.00    -0.206 F 
ATOM     80  C   UNL A   1      51.456  26.962  25.860  1.00  0.00     0.022 A 
BRANCH  77  81
ATOM     81  S   UNL A   1      50.803  27.525  23.208  1.00  0.00     0.124 S 
ATOM     82  O   UNL A   1      50.881  28.969  23.023  1.00  0.00    -0.237 OA
ATOM     83  O   UNL A   1      52.060  26.794  23.090  1.00  0.00    -0.237 OA
ATOM     84  O   UNL A   1      49.648  26.876  22.591  1.00  0.00    -0.744 OA
ENDBRANCH  77  81
ENDBRANCH  50  74
BRANCH  62  85
ATOM     85  C   UNL A   1      45.335  33.014  29.157  1.00  0.00     0.023 A 
ATOM     86  C   UNL A   1      45.238  34.006  28.166  1.00  0.00     0.031 A 
ATOM     87  C   UNL A   1      45.853  33.385  30.412  1.00  0.00     0.131 A 
ATOM     88  C   UNL A   1      45.704  35.304  28.426  1.00  0.00     0.055 A 
ATOM     89  C   UNL A   1      46.251  34.694  30.686  1.00  0.00     0.041 A 
ATOM     90  F   UNL A   1      45.974  32.480  31.397  1.00  0.00    -0.206 F 
ATOM     91  C   UNL A   1      46.191  35.660  29.686  1.00  0.00     0.022 A 
BRANCH  88  92
ATOM     92  S   UNL A   1      45.758  36.500  27.062  1.00  0.00     0.124 S 
ATOM     93  O   UNL A   1      44.382  36.986  27.031  1.00  0.00    -0.237 OA
ATOM     94  O   UNL A   1      46.761  37.454  27.524  1.00  0.00    -0.237 OA
ATOM     95  O   UNL A   1      46.156  35.690  25.912  1.00  0.00    -0.744 OA
ENDBRANCH  88  92
ENDBRANCH  62  85
ENDBRANCH  36  37
ENDBRANCH  29  31
ENDBRANCH  28  29
ENDBRANCH  27  28
ENDBRANCH  26  27
ENDBRANCH   1  26
TORSDOF 20
ENDMDL
