MODEL 1
REMARK VINA RESULT:     -11.4      0.000      0.000
REMARK SMILES COc1ccc2c(c1)[C@@](NC=O)(C(=O)OCCOCCOC(=O)c1ccc(-c3c4nc(c(-c5cc(S(=O)(=O)[O-])ccc5F)c5ccc([nH]5)c(-c5cc(S(=O)(=O)[O-])ccc5F)c5nc(c(-c6cc(S(=O)(=O)[O-])ccc6F)c6ccc3[nH]6)C=C5)C=C4)cc1)CCC2
REMARK SMILES IDX 19 1 18 2 17 3 16 4 15 5 13 6 14 7 9 8 3 9 4 10 8 11 5 12
REMARK SMILES IDX 7 13 6 14 89 15 87 16 88 17 2 18 1 19 10 20 11 21 12 23
REMARK SMILES IDX 20 24 21 25 22 26 23 27 24 28 25 29 86 30 26 31 85 32 27 33
REMARK SMILES IDX 28 34 29 35 79 36 30 37 84 38 78 39 80 40 31 41 83 42 77 43
REMARK SMILES IDX 76 44 32 46 64 47 44 48 63 49 45 50 48 51 62 52 81 53 46 54
REMARK SMILES IDX 47 55 61 57 82 58 49 59 33 60 34 61 42 62 35 63 41 64 43 65
REMARK SMILES IDX 40 66 36 67 37 68 38 69 39 70 65 71 66 72 74 73 67 74 73 75
REMARK SMILES IDX 75 76 72 77 68 78 69 79 70 80 71 81 50 82 51 83 59 84 52 85
REMARK SMILES IDX 58 86 60 87 57 88 53 89 54 90 55 91 56 92
REMARK H PARENT 10 22 80 45 48 56
REMARK Flexibility Score: inf
ROOT
ATOM      1  C   UNL A   1      31.088  31.702  26.480  1.00  0.00     0.202 C 
ENDROOT
BRANCH   1   2
ATOM      2  O   UNL A   1      31.757  30.857  25.550  1.00  0.00    -0.374 OA
BRANCH   2   3
ATOM      3  C   UNL A   1      31.980  29.507  25.964  1.00  0.00     0.202 C 
BRANCH   3   4
ATOM      4  C   UNL A   1      33.353  28.914  25.626  1.00  0.00     0.261 C 
BRANCH   4   5
ATOM      5  O   UNL A   1      33.267  27.871  24.631  1.00  0.00    -0.461 OA
BRANCH   5   6
ATOM      6  C   UNL A   1      32.799  28.241  23.405  1.00  0.00     0.336 C 
ATOM      7  O   UNL A   1      33.370  29.040  22.667  1.00  0.00    -0.249 OA
BRANCH   6   8
ATOM      8  C   UNL A   1      31.527  27.446  22.967  1.00  0.00     0.164 C 
ATOM      9  C   UNL A   1      29.108  30.338  22.214  1.00  0.00     0.119 A 
ATOM     10  C   UNL A   1      27.892  29.798  22.622  1.00  0.00     0.047 A 
ATOM     11  C   UNL A   1      30.276  29.590  22.363  1.00  0.00     0.053 A 
ATOM     12  C   UNL A   1      27.833  28.503  23.130  1.00  0.00     0.008 A 
ATOM     13  C   UNL A   1      30.242  28.276  22.878  1.00  0.00    -0.004 A 
ATOM     14  C   UNL A   1      28.994  27.724  23.246  1.00  0.00    -0.042 A 
ATOM     15  C   UNL A   1      28.852  26.339  23.834  1.00  0.00     0.036 C 
ATOM     16  C   UNL A   1      31.338  26.296  23.986  1.00  0.00     0.046 C 
ATOM     17  C   UNL A   1      30.096  25.474  23.672  1.00  0.00     0.008 C 
BRANCH   9  18
ATOM     18  O   UNL A   1      29.039  31.603  21.702  1.00  0.00    -0.497 OA
ATOM     19  C   UNL A   1      28.051  31.820  20.701  1.00  0.00     0.278 C 
ENDBRANCH   9  18
BRANCH   8  20
ATOM     20  N   UNL A   1      31.890  26.828  21.666  1.00  0.00    -0.339 N 
ATOM     21  C   UNL A   1      32.928  26.003  21.377  1.00  0.00     0.338 C 
ATOM     22  H   UNL A   1      31.297  27.046  20.912  1.00  0.00     0.164 HD
ATOM     23  O   UNL A   1      32.960  25.334  20.351  1.00  0.00    -0.279 OA
ENDBRANCH   8  20
ENDBRANCH   6   8
ENDBRANCH   5   6
ENDBRANCH   4   5
ENDBRANCH   3   4
ENDBRANCH   2   3
ENDBRANCH   1   2
BRANCH   1  24
ATOM     24  C   UNL A   1      31.791  33.012  26.858  1.00  0.00     0.261 C 
BRANCH  24  25
ATOM     25  O   UNL A   1      32.675  32.854  27.980  1.00  0.00    -0.460 OA
BRANCH  25  26
ATOM     26  C   UNL A   1      33.749  33.679  27.953  1.00  0.00     0.338 C 
ATOM     27  O   UNL A   1      33.725  34.903  27.866  1.00  0.00    -0.246 OA
BRANCH  26  28
ATOM     28  C   UNL A   1      34.991  32.935  28.227  1.00  0.00     0.060 A 
ATOM     29  C   UNL A   1      34.854  31.593  28.606  1.00  0.00     0.016 A 
ATOM     30  C   UNL A   1      36.251  33.536  28.197  1.00  0.00     0.016 A 
ATOM     31  C   UNL A   1      35.966  30.867  29.023  1.00  0.00     0.010 A 
ATOM     32  C   UNL A   1      37.369  32.805  28.622  1.00  0.00     0.010 A 
ATOM     33  C   UNL A   1      37.223  31.481  29.077  1.00  0.00    -0.014 A 
BRANCH  33  34
ATOM     34  C   UNL A   1      38.335  30.783  29.771  1.00  0.00     0.031 A 
ATOM     35  C   UNL A   1      38.589  31.089  31.225  1.00  0.00     0.074 A 
ATOM     36  C   UNL A   1      39.069  29.851  29.134  1.00  0.00     0.049 A 
ATOM     37  N   UNL A   1      39.502  30.608  32.028  1.00  0.00    -0.248 NA
ATOM     38  C   UNL A   1      37.693  32.072  31.854  1.00  0.00     0.031 C 
ATOM     39  C   UNL A   1      38.883  29.440  27.743  1.00  0.00     0.029 A 
ATOM     40  N   UNL A   1      40.118  29.084  29.574  1.00  0.00    -0.354 N 
ATOM     41  C   UNL A   1      39.301  31.236  33.252  1.00  0.00     0.074 A 
ATOM     42  C   UNL A   1      38.195  32.153  33.078  1.00  0.00     0.031 C 
ATOM     43  C   UNL A   1      39.798  28.503  27.440  1.00  0.00     0.029 A 
ATOM     44  C   UNL A   1      40.656  28.274  28.601  1.00  0.00     0.049 A 
ATOM     45  H   UNL A   1      40.454  29.110  30.499  1.00  0.00     0.167 HD
ATOM     46  C   UNL A   1      39.975  31.061  34.416  1.00  0.00     0.034 A 
ATOM     47  C   UNL A   1      41.735  27.464  28.635  1.00  0.00     0.034 A 
ATOM     48  C   UNL A   1      41.069  30.135  34.575  1.00  0.00     0.049 A 
ATOM     49  C   UNL A   1      42.509  27.336  29.927  1.00  0.00     0.074 A 
ATOM     50  C   UNL A   1      41.791  29.846  35.720  1.00  0.00     0.029 A 
ATOM     51  N   UNL A   1      41.612  29.361  33.558  1.00  0.00    -0.354 N 
ATOM     52  N   UNL A   1      42.287  27.912  31.086  1.00  0.00    -0.248 NA
ATOM     53  C   UNL A   1      43.674  26.440  29.918  1.00  0.00     0.031 C 
ATOM     54  C   UNL A   1      42.817  28.959  35.378  1.00  0.00     0.029 A 
ATOM     55  C   UNL A   1      42.687  28.629  34.039  1.00  0.00     0.049 A 
ATOM     56  H   UNL A   1      41.282  29.335  32.631  1.00  0.00     0.167 HD
ATOM     57  C   UNL A   1      43.265  27.422  31.950  1.00  0.00     0.074 A 
ATOM     58  C   UNL A   1      44.066  26.492  31.182  1.00  0.00     0.031 C 
ATOM     59  C   UNL A   1      43.481  27.709  33.259  1.00  0.00     0.034 A 
BRANCH  46  60
ATOM     60  C   UNL A   1      39.590  31.930  35.589  1.00  0.00     0.023 A 
ATOM     61  C   UNL A   1      38.773  31.463  36.632  1.00  0.00     0.031 A 
ATOM     62  C   UNL A   1      40.053  33.256  35.657  1.00  0.00     0.131 A 
ATOM     63  C   UNL A   1      38.402  32.330  37.672  1.00  0.00     0.055 A 
ATOM     64  C   UNL A   1      39.740  34.092  36.730  1.00  0.00     0.041 A 
ATOM     65  F   UNL A   1      40.817  33.765  34.677  1.00  0.00    -0.206 F 
ATOM     66  C   UNL A   1      38.901  33.634  37.741  1.00  0.00     0.022 A 
BRANCH  63  67
ATOM     67  S   UNL A   1      37.166  31.770  38.876  1.00  0.00     0.124 S 
ATOM     68  O   UNL A   1      37.905  31.878  40.131  1.00  0.00    -0.237 OA
ATOM     69  O   UNL A   1      36.084  32.731  38.686  1.00  0.00    -0.237 OA
ATOM     70  O   UNL A   1      36.868  30.404  38.452  1.00  0.00    -0.744 OA
ENDBRANCH  63  67
ENDBRANCH  46  60
BRANCH  47  71
ATOM     71  C   UNL A   1      42.191  26.752  27.405  1.00  0.00     0.023 A 
ATOM     72  C   UNL A   1      41.971  25.376  27.231  1.00  0.00     0.031 A 
ATOM     73  C   UNL A   1      42.928  27.430  26.416  1.00  0.00     0.131 A 
ATOM     74  C   UNL A   1      42.529  24.712  26.127  1.00  0.00     0.055 A 
ATOM     75  C   UNL A   1      43.429  26.777  25.289  1.00  0.00     0.041 A 
ATOM     76  F   UNL A   1      43.172  28.745  26.533  1.00  0.00    -0.206 F 
ATOM     77  C   UNL A   1      43.245  25.406  25.148  1.00  0.00     0.022 A 
BRANCH  74  78
ATOM     78  S   UNL A   1      42.401  22.904  26.045  1.00  0.00     0.124 S 
ATOM     79  O   UNL A   1      40.967  22.700  26.205  1.00  0.00    -0.237 OA
ATOM     80  O   UNL A   1      42.947  22.623  24.721  1.00  0.00    -0.237 OA
ATOM     81  O   UNL A   1      43.226  22.454  27.165  1.00  0.00    -0.744 OA
ENDBRANCH  74  78
ENDBRANCH  47  71
BRANCH  59  82
ATOM     82  C   UNL A   1      44.600  26.970  33.951  1.00  0.00     0.023 A 
ATOM     83  C   UNL A   1      45.905  27.488  34.014  1.00  0.00     0.031 A 
ATOM     84  C   UNL A   1      44.355  25.722  34.552  1.00  0.00     0.131 A 
ATOM     85  C   UNL A   1      46.928  26.737  34.612  1.00  0.00     0.055 A 
ATOM     86  C   UNL A   1      45.363  25.007  35.201  1.00  0.00     0.041 A 
ATOM     87  F   UNL A   1      43.128  25.177  34.521  1.00  0.00    -0.206 F 
ATOM     88  C   UNL A   1      46.661  25.507  35.222  1.00  0.00     0.022 A 
BRANCH  85  89
ATOM     89  S   UNL A   1      48.634  27.343  34.503  1.00  0.00     0.124 S 
ATOM     90  O   UNL A   1      48.974  27.548  35.907  1.00  0.00    -0.237 OA
ATOM     91  O   UNL A   1      49.316  26.238  33.838  1.00  0.00    -0.237 OA
ATOM     92  O   UNL A   1      48.514  28.565  33.709  1.00  0.00    -0.744 OA
ENDBRANCH  85  89
ENDBRANCH  59  82
ENDBRANCH  33  34
ENDBRANCH  26  28
ENDBRANCH  25  26
ENDBRANCH  24  25
ENDBRANCH   1  24
TORSDOF 19
ENDMDL
MODEL 2
REMARK VINA RESULT:     -11.1      4.831     10.270
REMARK SMILES COc1ccc2c(c1)[C@@](NC=O)(C(=O)OCCOCCOC(=O)c1ccc(-c3c4nc(c(-c5cc(S(=O)(=O)[O-])ccc5F)c5ccc([nH]5)c(-c5cc(S(=O)(=O)[O-])ccc5F)c5nc(c(-c6cc(S(=O)(=O)[O-])ccc6F)c6ccc3[nH]6)C=C5)C=C4)cc1)CCC2
REMARK SMILES IDX 19 1 18 2 17 3 16 4 15 5 13 6 14 7 9 8 3 9 4 10 8 11 5 12
REMARK SMILES IDX 7 13 6 14 89 15 87 16 88 17 2 18 1 19 10 20 11 21 12 23
REMARK SMILES IDX 20 24 21 25 22 26 23 27 24 28 25 29 86 30 26 31 85 32 27 33
REMARK SMILES IDX 28 34 29 35 79 36 30 37 84 38 78 39 80 40 31 41 83 42 77 43
REMARK SMILES IDX 76 44 32 46 64 47 44 48 63 49 45 50 48 51 62 52 81 53 46 54
REMARK SMILES IDX 47 55 61 57 82 58 49 59 33 60 34 61 42 62 35 63 41 64 43 65
REMARK SMILES IDX 40 66 36 67 37 68 38 69 39 70 65 71 66 72 74 73 67 74 73 75
REMARK SMILES IDX 75 76 72 77 68 78 69 79 70 80 71 81 50 82 51 83 59 84 52 85
REMARK SMILES IDX 58 86 60 87 57 88 53 89 54 90 55 91 56 92
REMARK H PARENT 10 22 80 45 48 56
REMARK Flexibility Score: inf
ROOT
ATOM      1  C   UNL A   1      35.712  21.584  25.268  1.00  0.00     0.202 C 
ENDROOT
BRANCH   1   2
ATOM      2  O   UNL A   1      34.504  21.135  24.662  1.00  0.00    -0.374 OA
BRANCH   2   3
ATOM      3  C   UNL A   1      33.292  21.701  25.165  1.00  0.00     0.202 C 
BRANCH   3   4
ATOM      4  C   UNL A   1      32.551  22.658  24.223  1.00  0.00     0.261 C 
BRANCH   4   5
ATOM      5  O   UNL A   1      32.240  23.917  24.859  1.00  0.00    -0.461 OA
BRANCH   5   6
ATOM      6  C   UNL A   1      33.126  24.933  24.653  1.00  0.00     0.336 C 
ATOM      7  O   UNL A   1      34.336  24.835  24.841  1.00  0.00    -0.249 OA
BRANCH   6   8
ATOM      8  C   UNL A   1      32.469  26.203  24.024  1.00  0.00     0.164 C 
ATOM      9  C   UNL A   1      34.012  28.960  26.215  1.00  0.00     0.119 A 
ATOM     10  C   UNL A   1      32.965  29.872  26.294  1.00  0.00     0.047 A 
ATOM     11  C   UNL A   1      33.832  27.767  25.514  1.00  0.00     0.053 A 
ATOM     12  C   UNL A   1      31.761  29.621  25.640  1.00  0.00     0.008 A 
ATOM     13  C   UNL A   1      32.620  27.488  24.846  1.00  0.00    -0.004 A 
ATOM     14  C   UNL A   1      31.581  28.444  24.897  1.00  0.00    -0.042 A 
ATOM     15  C   UNL A   1      30.237  28.229  24.242  1.00  0.00     0.036 C 
ATOM     16  C   UNL A   1      30.967  25.885  23.823  1.00  0.00     0.046 C 
ATOM     17  C   UNL A   1      30.219  27.078  23.245  1.00  0.00     0.008 C 
BRANCH   9  18
ATOM     18  O   UNL A   1      35.155  29.329  26.868  1.00  0.00    -0.497 OA
ATOM     19  C   UNL A   1      35.077  30.522  27.638  1.00  0.00     0.278 C 
ENDBRANCH   9  18
BRANCH   8  20
ATOM     20  N   UNL A   1      33.079  26.322  22.675  1.00  0.00    -0.339 N 
ATOM     21  C   UNL A   1      32.969  25.482  21.615  1.00  0.00     0.338 C 
ATOM     22  H   UNL A   1      33.638  27.119  22.530  1.00  0.00     0.164 HD
ATOM     23  O   UNL A   1      33.276  25.826  20.479  1.00  0.00    -0.279 OA
ENDBRANCH   8  20
ENDBRANCH   6   8
ENDBRANCH   5   6
ENDBRANCH   4   5
ENDBRANCH   3   4
ENDBRANCH   2   3
ENDBRANCH   1   2
BRANCH   1  24
ATOM     24  C   UNL A   1      36.947  20.689  25.101  1.00  0.00     0.261 C 
BRANCH  24  25
ATOM     25  O   UNL A   1      38.155  21.449  24.934  1.00  0.00    -0.460 OA
BRANCH  25  26
ATOM     26  C   UNL A   1      39.099  21.192  25.871  1.00  0.00     0.338 C 
ATOM     27  O   UNL A   1      39.651  20.114  26.072  1.00  0.00    -0.246 OA
BRANCH  26  28
ATOM     28  C   UNL A   1      39.536  22.435  26.531  1.00  0.00     0.060 A 
ATOM     29  C   UNL A   1      38.901  23.619  26.136  1.00  0.00     0.016 A 
ATOM     30  C   UNL A   1      40.586  22.469  27.452  1.00  0.00     0.016 A 
ATOM     31  C   UNL A   1      39.357  24.848  26.604  1.00  0.00     0.010 A 
ATOM     32  C   UNL A   1      41.047  23.707  27.918  1.00  0.00     0.010 A 
ATOM     33  C   UNL A   1      40.462  24.903  27.462  1.00  0.00    -0.014 A 
BRANCH  33  34
ATOM     34  C   UNL A   1      41.096  26.218  27.734  1.00  0.00     0.031 A 
ATOM     35  C   UNL A   1      42.470  26.490  27.178  1.00  0.00     0.074 A 
ATOM     36  C   UNL A   1      40.436  27.174  28.415  1.00  0.00     0.049 A 
ATOM     37  N   UNL A   1      43.215  27.558  27.292  1.00  0.00    -0.248 NA
ATOM     38  C   UNL A   1      43.084  25.410  26.390  1.00  0.00     0.031 C 
ATOM     39  C   UNL A   1      39.086  27.039  28.959  1.00  0.00     0.029 A 
ATOM     40  N   UNL A   1      40.815  28.446  28.766  1.00  0.00    -0.354 N 
ATOM     41  C   UNL A   1      44.391  27.277  26.604  1.00  0.00     0.074 A 
ATOM     42  C   UNL A   1      44.269  25.926  26.097  1.00  0.00     0.031 C 
ATOM     43  C   UNL A   1      38.753  28.182  29.587  1.00  0.00     0.029 A 
ATOM     44  C   UNL A   1      39.878  29.113  29.522  1.00  0.00     0.049 A 
ATOM     45  H   UNL A   1      41.675  28.845  28.501  1.00  0.00     0.167 HD
ATOM     46  C   UNL A   1      45.471  28.073  26.409  1.00  0.00     0.034 A 
ATOM     47  C   UNL A   1      39.935  30.322  30.116  1.00  0.00     0.034 A 
ATOM     48  C   UNL A   1      45.572  29.421  26.913  1.00  0.00     0.049 A 
ATOM     49  C   UNL A   1      41.177  31.165  29.938  1.00  0.00     0.074 A 
ATOM     50  C   UNL A   1      46.601  30.330  26.735  1.00  0.00     0.029 A 
ATOM     51  N   UNL A   1      44.622  30.049  27.706  1.00  0.00    -0.354 N 
ATOM     52  N   UNL A   1      42.267  30.898  29.256  1.00  0.00    -0.248 NA
ATOM     53  C   UNL A   1      41.191  32.477  30.601  1.00  0.00     0.031 C 
ATOM     54  C   UNL A   1      46.308  31.474  27.484  1.00  0.00     0.029 A 
ATOM     55  C   UNL A   1      45.059  31.315  28.063  1.00  0.00     0.049 A 
ATOM     56  H   UNL A   1      43.762  29.652  27.977  1.00  0.00     0.167 HD
ATOM     57  C   UNL A   1      43.081  32.022  29.384  1.00  0.00     0.074 A 
ATOM     58  C   UNL A   1      42.349  32.974  30.191  1.00  0.00     0.031 C 
ATOM     59  C   UNL A   1      44.319  32.251  28.876  1.00  0.00     0.034 A 
BRANCH  46  60
ATOM     60  C   UNL A   1      46.652  27.488  25.672  1.00  0.00     0.023 A 
ATOM     61  C   UNL A   1      46.993  27.884  24.368  1.00  0.00     0.031 A 
ATOM     62  C   UNL A   1      47.449  26.512  26.296  1.00  0.00     0.131 A 
ATOM     63  C   UNL A   1      48.070  27.269  23.710  1.00  0.00     0.055 A 
ATOM     64  C   UNL A   1      48.562  25.955  25.663  1.00  0.00     0.041 A 
ATOM     65  F   UNL A   1      47.157  26.078  27.532  1.00  0.00    -0.206 F 
ATOM     66  C   UNL A   1      48.872  26.326  24.358  1.00  0.00     0.022 A 
BRANCH  63  67
ATOM     67  S   UNL A   1      48.342  27.632  21.954  1.00  0.00     0.124 S 
ATOM     68  O   UNL A   1      48.649  26.307  21.422  1.00  0.00    -0.237 OA
ATOM     69  O   UNL A   1      47.062  28.203  21.548  1.00  0.00    -0.237 OA
ATOM     70  O   UNL A   1      49.465  28.567  21.967  1.00  0.00    -0.744 OA
ENDBRANCH  63  67
ENDBRANCH  46  60
BRANCH  47  71
ATOM     71  C   UNL A   1      38.816  30.797  30.982  1.00  0.00     0.023 A 
ATOM     72  C   UNL A   1      37.774  31.585  30.467  1.00  0.00     0.031 A 
ATOM     73  C   UNL A   1      38.817  30.531  32.364  1.00  0.00     0.131 A 
ATOM     74  C   UNL A   1      36.810  32.125  31.334  1.00  0.00     0.055 A 
ATOM     75  C   UNL A   1      37.822  31.020  33.213  1.00  0.00     0.041 A 
ATOM     76  F   UNL A   1      39.791  29.788  32.912  1.00  0.00    -0.206 F 
ATOM     77  C   UNL A   1      36.820  31.838  32.701  1.00  0.00     0.022 A 
BRANCH  74  78
ATOM     78  S   UNL A   1      35.604  33.305  30.666  1.00  0.00     0.124 S 
ATOM     79  O   UNL A   1      34.404  32.482  30.572  1.00  0.00    -0.237 OA
ATOM     80  O   UNL A   1      35.595  34.341  31.693  1.00  0.00    -0.237 OA
ATOM     81  O   UNL A   1      36.191  33.702  29.387  1.00  0.00    -0.744 OA
ENDBRANCH  74  78
ENDBRANCH  47  71
BRANCH  59  82
ATOM     82  C   UNL A   1      44.934  33.603  29.143  1.00  0.00     0.023 A 
ATOM     83  C   UNL A   1      44.789  34.676  28.247  1.00  0.00     0.031 A 
ATOM     84  C   UNL A   1      45.685  33.818  30.314  1.00  0.00     0.131 A 
ATOM     85  C   UNL A   1      45.431  35.896  28.506  1.00  0.00     0.055 A 
ATOM     86  C   UNL A   1      46.269  35.053  30.597  1.00  0.00     0.041 A 
ATOM     87  F   UNL A   1      45.858  32.829  31.206  1.00  0.00    -0.206 F 
ATOM     88  C   UNL A   1      46.155  36.097  29.684  1.00  0.00     0.022 A 
BRANCH  85  89
ATOM     89  S   UNL A   1      45.386  37.192  27.237  1.00  0.00     0.124 S 
ATOM     90  O   UNL A   1      43.966  37.245  26.908  1.00  0.00    -0.237 OA
ATOM     91  O   UNL A   1      45.917  38.348  27.953  1.00  0.00    -0.237 OA
ATOM     92  O   UNL A   1      46.250  36.668  26.181  1.00  0.00    -0.744 OA
ENDBRANCH  85  89
ENDBRANCH  59  82
ENDBRANCH  33  34
ENDBRANCH  26  28
ENDBRANCH  25  26
ENDBRANCH  24  25
ENDBRANCH   1  24
TORSDOF 19
ENDMDL
MODEL 3
REMARK VINA RESULT:     -11.1      2.182      3.396
REMARK SMILES COc1ccc2c(c1)[C@@](NC=O)(C(=O)OCCOCCOC(=O)c1ccc(-c3c4nc(c(-c5cc(S(=O)(=O)[O-])ccc5F)c5ccc([nH]5)c(-c5cc(S(=O)(=O)[O-])ccc5F)c5nc(c(-c6cc(S(=O)(=O)[O-])ccc6F)c6ccc3[nH]6)C=C5)C=C4)cc1)CCC2
REMARK SMILES IDX 19 1 18 2 17 3 16 4 15 5 13 6 14 7 9 8 3 9 4 10 8 11 5 12
REMARK SMILES IDX 7 13 6 14 89 15 87 16 88 17 2 18 1 19 10 20 11 21 12 23
REMARK SMILES IDX 20 24 21 25 22 26 23 27 24 28 25 29 86 30 26 31 85 32 27 33
REMARK SMILES IDX 28 34 29 35 79 36 30 37 84 38 78 39 80 40 31 41 83 42 77 43
REMARK SMILES IDX 76 44 32 46 64 47 44 48 63 49 45 50 48 51 62 52 81 53 46 54
REMARK SMILES IDX 47 55 61 57 82 58 49 59 33 60 34 61 42 62 35 63 41 64 43 65
REMARK SMILES IDX 40 66 36 67 37 68 38 69 39 70 65 71 66 72 74 73 67 74 73 75
REMARK SMILES IDX 75 76 72 77 68 78 69 79 70 80 71 81 50 82 51 83 59 84 52 85
REMARK SMILES IDX 58 86 60 87 57 88 53 89 54 90 55 91 56 92
REMARK H PARENT 10 22 80 45 48 56
REMARK Flexibility Score: inf
ROOT
ATOM      1  C   UNL A   1      31.428  31.673  26.514  1.00  0.00     0.202 C 
ENDROOT
BRANCH   1   2
ATOM      2  O   UNL A   1      32.119  30.523  26.992  1.00  0.00    -0.374 OA
BRANCH   2   3
ATOM      3  C   UNL A   1      33.121  29.980  26.130  1.00  0.00     0.202 C 
BRANCH   3   4
ATOM      4  C   UNL A   1      32.669  28.852  25.195  1.00  0.00     0.261 C 
BRANCH   4   5
ATOM      5  O   UNL A   1      31.387  28.308  25.576  1.00  0.00    -0.461 OA
BRANCH   5   6
ATOM      6  C   UNL A   1      31.411  27.163  26.316  1.00  0.00     0.336 C 
ATOM      7  O   UNL A   1      31.465  27.142  27.543  1.00  0.00    -0.249 OA
BRANCH   6   8
ATOM      8  C   UNL A   1      31.226  25.871  25.457  1.00  0.00     0.164 C 
ATOM      9  C   UNL A   1      34.841  24.568  25.349  1.00  0.00     0.119 A 
ATOM     10  C   UNL A   1      34.901  24.018  24.073  1.00  0.00     0.047 A 
ATOM     11  C   UNL A   1      33.669  25.194  25.772  1.00  0.00     0.053 A 
ATOM     12  C   UNL A   1      33.785  24.048  23.240  1.00  0.00     0.008 A 
ATOM     13  C   UNL A   1      32.525  25.240  24.945  1.00  0.00    -0.004 A 
ATOM     14  C   UNL A   1      32.587  24.637  23.669  1.00  0.00    -0.042 A 
ATOM     15  C   UNL A   1      31.430  24.657  22.697  1.00  0.00     0.036 C 
ATOM     16  C   UNL A   1      30.321  26.249  24.259  1.00  0.00     0.046 C 
ATOM     17  C   UNL A   1      30.105  25.063  23.330  1.00  0.00     0.008 C 
BRANCH   9  18
ATOM     18  O   UNL A   1      35.986  24.450  26.087  1.00  0.00    -0.497 OA
ATOM     19  C   UNL A   1      36.939  23.505  25.616  1.00  0.00     0.278 C 
ENDBRANCH   9  18
BRANCH   8  20
ATOM     20  N   UNL A   1      30.451  24.944  26.320  1.00  0.00    -0.339 N 
ATOM     21  C   UNL A   1      30.704  23.644  26.615  1.00  0.00     0.338 C 
ATOM     22  H   UNL A   1      29.643  25.324  26.735  1.00  0.00     0.164 HD
ATOM     23  O   UNL A   1      30.163  23.073  27.554  1.00  0.00    -0.279 OA
ENDBRANCH   8  20
ENDBRANCH   6   8
ENDBRANCH   5   6
ENDBRANCH   4   5
ENDBRANCH   3   4
ENDBRANCH   2   3
ENDBRANCH   1   2
BRANCH   1  24
ATOM     24  C   UNL A   1      32.045  33.039  26.841  1.00  0.00     0.261 C 
BRANCH  24  25
ATOM     25  O   UNL A   1      32.768  33.029  28.083  1.00  0.00    -0.460 OA
BRANCH  25  26
ATOM     26  C   UNL A   1      33.823  33.880  28.111  1.00  0.00     0.338 C 
ATOM     27  O   UNL A   1      33.772  35.106  28.080  1.00  0.00    -0.246 OA
BRANCH  26  28
ATOM     28  C   UNL A   1      35.078  33.151  28.368  1.00  0.00     0.060 A 
ATOM     29  C   UNL A   1      34.975  31.774  28.598  1.00  0.00     0.016 A 
ATOM     30  C   UNL A   1      36.315  33.794  28.462  1.00  0.00     0.016 A 
ATOM     31  C   UNL A   1      36.093  31.044  28.993  1.00  0.00     0.010 A 
ATOM     32  C   UNL A   1      37.439  33.059  28.865  1.00  0.00     0.010 A 
ATOM     33  C   UNL A   1      37.322  31.691  29.173  1.00  0.00    -0.014 A 
BRANCH  33  34
ATOM     34  C   UNL A   1      38.427  30.960  29.845  1.00  0.00     0.031 A 
ATOM     35  C   UNL A   1      38.757  31.302  31.275  1.00  0.00     0.074 A 
ATOM     36  C   UNL A   1      39.085  29.971  29.213  1.00  0.00     0.049 A 
ATOM     37  N   UNL A   1      39.678  30.802  32.057  1.00  0.00    -0.248 NA
ATOM     38  C   UNL A   1      37.939  32.350  31.905  1.00  0.00     0.031 C 
ATOM     39  C   UNL A   1      38.820  29.524  27.846  1.00  0.00     0.029 A 
ATOM     40  N   UNL A   1      40.113  29.167  29.637  1.00  0.00    -0.354 N 
ATOM     41  C   UNL A   1      39.561  31.481  33.265  1.00  0.00     0.074 A 
ATOM     42  C   UNL A   1      38.496  32.447  33.104  1.00  0.00     0.031 C 
ATOM     43  C   UNL A   1      39.674  28.531  27.540  1.00  0.00     0.029 A 
ATOM     44  C   UNL A   1      40.568  28.298  28.671  1.00  0.00     0.049 A 
ATOM     45  H   UNL A   1      40.489  29.207  30.546  1.00  0.00     0.167 HD
ATOM     46  C   UNL A   1      40.275  31.311  34.406  1.00  0.00     0.034 A 
ATOM     47  C   UNL A   1      41.606  27.436  28.691  1.00  0.00     0.034 A 
ATOM     48  C   UNL A   1      41.328  30.336  34.553  1.00  0.00     0.049 A 
ATOM     49  C   UNL A   1      42.427  27.312  29.954  1.00  0.00     0.074 A 
ATOM     50  C   UNL A   1      42.082  30.050  35.678  1.00  0.00     0.029 A 
ATOM     51  N   UNL A   1      41.787  29.501  33.544  1.00  0.00    -0.354 N 
ATOM     52  N   UNL A   1      42.283  27.937  31.100  1.00  0.00    -0.248 NA
ATOM     53  C   UNL A   1      43.545  26.357  29.929  1.00  0.00     0.031 C 
ATOM     54  C   UNL A   1      43.048  29.100  35.326  1.00  0.00     0.029 A 
ATOM     55  C   UNL A   1      42.844  28.732  34.006  1.00  0.00     0.049 A 
ATOM     56  H   UNL A   1      41.417  29.461  32.632  1.00  0.00     0.167 HD
ATOM     57  C   UNL A   1      43.272  27.427  31.939  1.00  0.00     0.074 A 
ATOM     58  C   UNL A   1      43.992  26.432  31.174  1.00  0.00     0.031 C 
ATOM     59  C   UNL A   1      43.557  27.747  33.227  1.00  0.00     0.034 A 
BRANCH  46  60
ATOM     60  C   UNL A   1      39.984  32.238  35.562  1.00  0.00     0.023 A 
ATOM     61  C   UNL A   1      39.046  31.921  36.559  1.00  0.00     0.031 A 
ATOM     62  C   UNL A   1      40.662  33.465  35.661  1.00  0.00     0.131 A 
ATOM     63  C   UNL A   1      38.776  32.843  37.583  1.00  0.00     0.055 A 
ATOM     64  C   UNL A   1      40.442  34.347  36.720  1.00  0.00     0.041 A 
ATOM     65  F   UNL A   1      41.552  33.832  34.724  1.00  0.00    -0.206 F 
ATOM     66  C   UNL A   1      39.486  34.042  37.684  1.00  0.00     0.022 A 
BRANCH  63  67
ATOM     67  S   UNL A   1      37.402  32.508  38.718  1.00  0.00     0.124 S 
ATOM     68  O   UNL A   1      37.462  31.053  38.835  1.00  0.00    -0.237 OA
ATOM     69  O   UNL A   1      37.785  33.261  39.908  1.00  0.00    -0.237 OA
ATOM     70  O   UNL A   1      36.234  33.021  38.005  1.00  0.00    -0.744 OA
ENDBRANCH  63  67
ENDBRANCH  46  60
BRANCH  47  71
ATOM     71  C   UNL A   1      41.973  26.660  27.470  1.00  0.00     0.023 A 
ATOM     72  C   UNL A   1      41.716  25.283  27.372  1.00  0.00     0.031 A 
ATOM     73  C   UNL A   1      42.663  27.277  26.409  1.00  0.00     0.131 A 
ATOM     74  C   UNL A   1      42.193  24.559  26.267  1.00  0.00     0.055 A 
ATOM     75  C   UNL A   1      43.082  26.564  25.285  1.00  0.00     0.041 A 
ATOM     76  F   UNL A   1      42.940  28.590  26.452  1.00  0.00    -0.206 F 
ATOM     77  C   UNL A   1      42.863  25.192  25.217  1.00  0.00     0.022 A 
BRANCH  74  78
ATOM     78  S   UNL A   1      42.025  22.752  26.274  1.00  0.00     0.124 S 
ATOM     79  O   UNL A   1      42.673  22.389  25.020  1.00  0.00    -0.237 OA
ATOM     80  O   UNL A   1      42.736  22.388  27.495  1.00  0.00    -0.237 OA
ATOM     81  O   UNL A   1      40.578  22.546  26.313  1.00  0.00    -0.744 OA
ENDBRANCH  74  78
ENDBRANCH  47  71
BRANCH  59  82
ATOM     82  C   UNL A   1      44.667  26.975  33.899  1.00  0.00     0.023 A 
ATOM     83  C   UNL A   1      44.438  25.736  34.522  1.00  0.00     0.031 A 
ATOM     84  C   UNL A   1      45.974  27.495  33.921  1.00  0.00     0.131 A 
ATOM     85  C   UNL A   1      45.487  25.084  35.189  1.00  0.00     0.055 A 
ATOM     86  C   UNL A   1      47.027  26.812  34.533  1.00  0.00     0.041 A 
ATOM     87  F   UNL A   1      46.251  28.675  33.345  1.00  0.00    -0.206 F 
ATOM     88  C   UNL A   1      46.784  25.606  35.183  1.00  0.00     0.022 A 
BRANCH  85  89
ATOM     89  S   UNL A   1      45.116  23.589  36.146  1.00  0.00     0.124 S 
ATOM     90  O   UNL A   1      44.648  24.146  37.411  1.00  0.00    -0.237 OA
ATOM     91  O   UNL A   1      44.103  22.936  35.324  1.00  0.00    -0.237 OA
ATOM     92  O   UNL A   1      46.401  22.896  36.211  1.00  0.00    -0.744 OA
ENDBRANCH  85  89
ENDBRANCH  59  82
ENDBRANCH  33  34
ENDBRANCH  26  28
ENDBRANCH  25  26
ENDBRANCH  24  25
ENDBRANCH   1  24
TORSDOF 19
ENDMDL
