MODEL 1
REMARK VINA RESULT:     -11.4      0.000      0.000
REMARK SMILES COc1ccccc1CCNC(=O)[C@@H]1[C@@H](C(=O)OCCOCCOC(=O)c2ccc(-c3c4nc(c(-c5cc(S(=O)(=O)[O-])ccc5F)c5ccc([nH]5)c(-c5cc(S(=O)(=O)[O-])ccc5F)c5nc(c(-c6cc(S(=O)(=O)[O-])ccc6F)c6ccc3[nH]6)C=C5)C=C4)cc2)[C@H]2C=C[C@@H]1CC2
REMARK SMILES IDX 20 1 19 2 18 3 16 4 17 5 15 6 14 7 93 8 90 9 92 10 94 11
REMARK SMILES IDX 91 12 95 13 12 14 11 15 13 17 10 18 9 19 8 20 3 21 4 22 5 23
REMARK SMILES IDX 7 24 6 25 2 26 1 27 21 28 22 29 23 30 24 31 25 32 26 33
REMARK SMILES IDX 27 34 28 35 89 36 29 37 88 38 30 39 31 40 32 41 82 42 33 43
REMARK SMILES IDX 87 44 81 45 83 46 34 47 86 48 80 49 79 50 35 52 67 53 47 54
REMARK SMILES IDX 66 55 48 56 51 57 65 58 84 59 49 60 50 61 64 63 85 64 52 65
REMARK SMILES IDX 36 66 37 67 45 68 38 69 44 70 46 71 43 72 39 73 40 74 41 75
REMARK SMILES IDX 42 76 68 77 69 78 77 79 70 80 76 81 78 82 75 83 71 84 72 85
REMARK SMILES IDX 73 86 74 87 53 88 54 89 62 90 55 91 61 92 63 93 60 94 56 95
REMARK SMILES IDX 57 96 58 97 59 98
REMARK H PARENT 11 16 83 51 51 62
REMARK Flexibility Score: inf
ROOT
ATOM      1  C   UNL A   1      36.689  22.973  24.322  1.00  0.00     0.202 C 
ENDROOT
BRANCH   1   2
ATOM      2  C   UNL A   1      35.624  23.917  23.763  1.00  0.00     0.261 C 
BRANCH   2   3
ATOM      3  O   UNL A   1      34.965  24.655  24.809  1.00  0.00    -0.463 OA
BRANCH   3   4
ATOM      4  C   UNL A   1      34.069  25.584  24.399  1.00  0.00     0.310 C 
ATOM      5  O   UNL A   1      33.838  25.872  23.228  1.00  0.00    -0.252 OA
BRANCH   4   6
ATOM      6  C   UNL A   1      33.323  26.246  25.535  1.00  0.00     0.119 C 
ATOM      7  C   UNL A   1      31.802  26.011  25.444  1.00  0.00     0.100 C 
ATOM      8  C   UNL A   1      31.043  27.268  25.955  1.00  0.00     0.025 C 
ATOM      9  C   UNL A   1      33.596  27.763  25.743  1.00  0.00     0.026 C 
ATOM     10  C   UNL A   1      31.395  28.358  24.948  1.00  0.00    -0.027 C 
ATOM     11  C   UNL A   1      31.599  27.811  27.293  1.00  0.00     0.009 C 
ATOM     12  C   UNL A   1      32.715  28.594  24.827  1.00  0.00    -0.027 C 
ATOM     13  C   UNL A   1      33.115  28.108  27.175  1.00  0.00     0.009 C 
BRANCH   7  14
ATOM     14  C   UNL A   1      31.325  24.649  25.927  1.00  0.00     0.224 C 
ATOM     15  N   UNL A   1      30.781  23.701  25.132  1.00  0.00    -0.355 N 
ATOM     16  H   UNL A   1      30.187  23.077  25.608  1.00  0.00     0.163 HD
ATOM     17  O   UNL A   1      31.390  24.373  27.129  1.00  0.00    -0.275 OA
BRANCH  15  18
ATOM     18  C   UNL A   1      30.906  23.425  23.714  1.00  0.00     0.120 C 
BRANCH  18  19
ATOM     19  C   UNL A   1      32.292  22.867  23.391  1.00  0.00     0.060 C 
BRANCH  19  20
ATOM     20  C   UNL A   1      32.422  21.428  23.810  1.00  0.00    -0.004 A 
ATOM     21  C   UNL A   1      33.010  21.062  25.028  1.00  0.00     0.122 A 
ATOM     22  C   UNL A   1      33.244  19.719  25.322  1.00  0.00     0.047 A 
ATOM     23  C   UNL A   1      32.867  18.728  24.415  1.00  0.00     0.004 A 
ATOM     24  C   UNL A   1      32.028  20.420  22.916  1.00  0.00     0.007 A 
ATOM     25  C   UNL A   1      32.255  19.078  23.213  1.00  0.00     0.001 A 
BRANCH  21  26
ATOM     26  O   UNL A   1      33.476  21.990  25.921  1.00  0.00    -0.496 OA
ATOM     27  C   UNL A   1      33.306  21.564  27.276  1.00  0.00     0.278 C 
ENDBRANCH  21  26
ENDBRANCH  19  20
ENDBRANCH  18  19
ENDBRANCH  15  18
ENDBRANCH   7  14
ENDBRANCH   4   6
ENDBRANCH   3   4
ENDBRANCH   2   3
ENDBRANCH   1   2
BRANCH   1  28
ATOM     28  O   UNL A   1      36.399  21.575  24.266  1.00  0.00    -0.374 OA
BRANCH  28  29
ATOM     29  C   UNL A   1      36.827  20.773  25.363  1.00  0.00     0.202 C 
BRANCH  29  30
ATOM     30  C   UNL A   1      38.158  20.030  25.208  1.00  0.00     0.261 C 
BRANCH  30  31
ATOM     31  O   UNL A   1      39.289  20.917  25.271  1.00  0.00    -0.460 OA
BRANCH  31  32
ATOM     32  C   UNL A   1      40.088  20.732  26.350  1.00  0.00     0.338 C 
ATOM     33  O   UNL A   1      40.662  19.698  26.663  1.00  0.00    -0.246 OA
BRANCH  32  34
ATOM     34  C   UNL A   1      40.351  22.014  27.030  1.00  0.00     0.060 A 
ATOM     35  C   UNL A   1      39.640  23.131  26.575  1.00  0.00     0.016 A 
ATOM     36  C   UNL A   1      41.328  22.154  28.019  1.00  0.00     0.016 A 
ATOM     37  C   UNL A   1      39.952  24.402  27.049  1.00  0.00     0.010 A 
ATOM     38  C   UNL A   1      41.646  23.436  28.490  1.00  0.00     0.010 A 
ATOM     39  C   UNL A   1      40.991  24.569  27.972  1.00  0.00    -0.014 A 
BRANCH  39  40
ATOM     40  C   UNL A   1      41.496  25.942  28.235  1.00  0.00     0.031 A 
ATOM     41  C   UNL A   1      42.861  26.324  27.725  1.00  0.00     0.074 A 
ATOM     42  C   UNL A   1      40.721  26.860  28.841  1.00  0.00     0.049 A 
ATOM     43  N   UNL A   1      43.493  27.467  27.812  1.00  0.00    -0.248 NA
ATOM     44  C   UNL A   1      43.612  25.274  27.020  1.00  0.00     0.031 C 
ATOM     45  C   UNL A   1      39.363  26.627  29.329  1.00  0.00     0.029 A 
ATOM     46  N   UNL A   1      40.963  28.178  29.141  1.00  0.00    -0.354 N 
ATOM     47  C   UNL A   1      44.715  27.274  27.175  1.00  0.00     0.074 A 
ATOM     48  C   UNL A   1      44.751  25.893  26.745  1.00  0.00     0.031 C 
ATOM     49  C   UNL A   1      38.893  27.764  29.870  1.00  0.00     0.029 A 
ATOM     50  C   UNL A   1      39.925  28.795  29.799  1.00  0.00     0.049 A 
ATOM     51  H   UNL A   1      41.802  28.637  28.907  1.00  0.00     0.167 HD
ATOM     52  C   UNL A   1      45.711  28.169  26.960  1.00  0.00     0.034 A 
ATOM     53  C   UNL A   1      39.829  30.042  30.303  1.00  0.00     0.034 A 
ATOM     54  C   UNL A   1      45.666  29.542  27.400  1.00  0.00     0.049 A 
ATOM     55  C   UNL A   1      40.985  30.998  30.127  1.00  0.00     0.074 A 
ATOM     56  C   UNL A   1      46.613  30.537  27.222  1.00  0.00     0.029 A 
ATOM     57  N   UNL A   1      44.623  30.116  28.116  1.00  0.00    -0.354 N 
ATOM     58  N   UNL A   1      42.133  30.804  29.518  1.00  0.00    -0.248 NA
ATOM     59  C   UNL A   1      40.828  32.343  30.696  1.00  0.00     0.031 C 
ATOM     60  C   UNL A   1      46.178  31.684  27.893  1.00  0.00     0.029 A 
ATOM     61  C   UNL A   1      44.921  31.436  28.420  1.00  0.00     0.049 A 
ATOM     62  H   UNL A   1      43.793  29.652  28.372  1.00  0.00     0.167 HD
ATOM     63  C   UNL A   1      42.819  32.014  29.607  1.00  0.00     0.074 A 
ATOM     64  C   UNL A   1      41.951  32.932  30.314  1.00  0.00     0.031 C 
ATOM     65  C   UNL A   1      44.052  32.339  29.138  1.00  0.00     0.034 A 
BRANCH  52  66
ATOM     66  C   UNL A   1      46.956  27.669  26.266  1.00  0.00     0.023 A 
ATOM     67  C   UNL A   1      47.218  27.950  24.914  1.00  0.00     0.031 A 
ATOM     68  C   UNL A   1      47.883  26.876  26.965  1.00  0.00     0.131 A 
ATOM     69  C   UNL A   1      48.342  27.388  24.288  1.00  0.00     0.055 A 
ATOM     70  C   UNL A   1      49.039  26.383  26.357  1.00  0.00     0.041 A 
ATOM     71  F   UNL A   1      47.675  26.553  28.252  1.00  0.00    -0.206 F 
ATOM     72  C   UNL A   1      49.267  26.627  25.006  1.00  0.00     0.022 A 
BRANCH  69  73
ATOM     73  S   UNL A   1      48.506  27.549  22.488  1.00  0.00     0.124 S 
ATOM     74  O   UNL A   1      47.270  28.246  22.140  1.00  0.00    -0.237 OA
ATOM     75  O   UNL A   1      49.736  28.320  22.351  1.00  0.00    -0.237 OA
ATOM     76  O   UNL A   1      48.582  26.165  22.024  1.00  0.00    -0.744 OA
ENDBRANCH  69  73
ENDBRANCH  52  66
BRANCH  53  77
ATOM     77  C   UNL A   1      38.614  30.456  31.066  1.00  0.00     0.023 A 
ATOM     78  C   UNL A   1      37.552  31.128  30.443  1.00  0.00     0.031 A 
ATOM     79  C   UNL A   1      38.530  30.232  32.452  1.00  0.00     0.131 A 
ATOM     80  C   UNL A   1      36.472  31.592  31.212  1.00  0.00     0.055 A 
ATOM     81  C   UNL A   1      37.429  30.646  33.203  1.00  0.00     0.041 A 
ATOM     82  F   UNL A   1      39.522  29.598  33.099  1.00  0.00    -0.206 F 
ATOM     83  C   UNL A   1      36.397  31.344  32.584  1.00  0.00     0.022 A 
BRANCH  80  84
ATOM     84  S   UNL A   1      35.201  32.606  30.405  1.00  0.00     0.124 S 
ATOM     85  O   UNL A   1      34.223  32.763  31.475  1.00  0.00    -0.237 OA
ATOM     86  O   UNL A   1      35.953  33.802  30.042  1.00  0.00    -0.237 OA
ATOM     87  O   UNL A   1      34.769  31.777  29.281  1.00  0.00    -0.744 OA
ENDBRANCH  80  84
ENDBRANCH  53  77
BRANCH  65  88
ATOM     88  C   UNL A   1      44.513  33.763  29.340  1.00  0.00     0.023 A 
ATOM     89  C   UNL A   1      45.252  34.152  30.472  1.00  0.00     0.031 A 
ATOM     90  C   UNL A   1      44.199  34.749  28.388  1.00  0.00     0.131 A 
ATOM     91  C   UNL A   1      45.604  35.500  30.649  1.00  0.00     0.055 A 
ATOM     92  C   UNL A   1      44.605  36.076  28.539  1.00  0.00     0.041 A 
ATOM     93  F   UNL A   1      43.495  34.436  27.288  1.00  0.00    -0.206 F 
ATOM     94  C   UNL A   1      45.300  36.460  29.682  1.00  0.00     0.022 A 
BRANCH  91  95
ATOM     95  S   UNL A   1      46.387  35.999  32.207  1.00  0.00     0.124 S 
ATOM     96  O   UNL A   1      47.805  35.834  31.902  1.00  0.00    -0.237 OA
ATOM     97  O   UNL A   1      45.924  37.375  32.362  1.00  0.00    -0.237 OA
ATOM     98  O   UNL A   1      45.848  35.053  33.182  1.00  0.00    -0.744 OA
ENDBRANCH  91  95
ENDBRANCH  65  88
ENDBRANCH  39  40
ENDBRANCH  32  34
ENDBRANCH  31  32
ENDBRANCH  30  31
ENDBRANCH  29  30
ENDBRANCH  28  29
ENDBRANCH   1  28
TORSDOF 22
ENDMDL
MODEL 2
REMARK VINA RESULT:     -11.1      1.908      2.216
REMARK SMILES COc1ccccc1CCNC(=O)[C@@H]1[C@@H](C(=O)OCCOCCOC(=O)c2ccc(-c3c4nc(c(-c5cc(S(=O)(=O)[O-])ccc5F)c5ccc([nH]5)c(-c5cc(S(=O)(=O)[O-])ccc5F)c5nc(c(-c6cc(S(=O)(=O)[O-])ccc6F)c6ccc3[nH]6)C=C5)C=C4)cc2)[C@H]2C=C[C@@H]1CC2
REMARK SMILES IDX 20 1 19 2 18 3 16 4 17 5 15 6 14 7 93 8 90 9 92 10 94 11
REMARK SMILES IDX 91 12 95 13 12 14 11 15 13 17 10 18 9 19 8 20 3 21 4 22 5 23
REMARK SMILES IDX 7 24 6 25 2 26 1 27 21 28 22 29 23 30 24 31 25 32 26 33
REMARK SMILES IDX 27 34 28 35 89 36 29 37 88 38 30 39 31 40 32 41 82 42 33 43
REMARK SMILES IDX 87 44 81 45 83 46 34 47 86 48 80 49 79 50 35 52 67 53 47 54
REMARK SMILES IDX 66 55 48 56 51 57 65 58 84 59 49 60 50 61 64 63 85 64 52 65
REMARK SMILES IDX 36 66 37 67 45 68 38 69 44 70 46 71 43 72 39 73 40 74 41 75
REMARK SMILES IDX 42 76 68 77 69 78 77 79 70 80 76 81 78 82 75 83 71 84 72 85
REMARK SMILES IDX 73 86 74 87 53 88 54 89 62 90 55 91 61 92 63 93 60 94 56 95
REMARK SMILES IDX 57 96 58 97 59 98
REMARK H PARENT 11 16 83 51 51 62
REMARK Flexibility Score: inf
ROOT
ATOM      1  C   UNL A   1      36.605  23.200  24.932  1.00  0.00     0.202 C 
ENDROOT
BRANCH   1   2
ATOM      2  C   UNL A   1      35.537  23.761  23.991  1.00  0.00     0.261 C 
BRANCH   2   3
ATOM      3  O   UNL A   1      34.832  24.866  24.585  1.00  0.00    -0.463 OA
BRANCH   3   4
ATOM      4  C   UNL A   1      34.076  25.605  23.739  1.00  0.00     0.310 C 
ATOM      5  O   UNL A   1      34.045  25.469  22.519  1.00  0.00    -0.252 OA
BRANCH   4   6
ATOM      6  C   UNL A   1      33.214  26.632  24.438  1.00  0.00     0.119 C 
ATOM      7  C   UNL A   1      31.710  26.351  24.251  1.00  0.00     0.100 C 
ATOM      8  C   UNL A   1      30.931  27.692  24.151  1.00  0.00     0.025 C 
ATOM      9  C   UNL A   1      33.504  28.120  24.093  1.00  0.00     0.026 C 
ATOM     10  C   UNL A   1      31.438  28.330  22.862  1.00  0.00    -0.027 C 
ATOM     11  C   UNL A   1      31.332  28.710  25.245  1.00  0.00     0.009 C 
ATOM     12  C   UNL A   1      32.769  28.528  22.829  1.00  0.00    -0.027 C 
ATOM     13  C   UNL A   1      32.860  28.970  25.218  1.00  0.00     0.009 C 
BRANCH   7  14
ATOM     14  C   UNL A   1      31.136  25.262  25.145  1.00  0.00     0.224 C 
ATOM     15  N   UNL A   1      30.534  24.139  24.697  1.00  0.00    -0.355 N 
ATOM     16  H   UNL A   1      29.894  23.749  25.335  1.00  0.00     0.163 HD
ATOM     17  O   UNL A   1      31.172  25.401  26.372  1.00  0.00    -0.275 OA
BRANCH  15  18
ATOM     18  C   UNL A   1      30.650  23.396  23.456  1.00  0.00     0.120 C 
BRANCH  18  19
ATOM     19  C   UNL A   1      32.084  22.909  23.250  1.00  0.00     0.060 C 
BRANCH  19  20
ATOM     20  C   UNL A   1      32.313  21.569  23.892  1.00  0.00    -0.004 A 
ATOM     21  C   UNL A   1      32.738  21.447  25.222  1.00  0.00     0.122 A 
ATOM     22  C   UNL A   1      33.077  20.199  25.743  1.00  0.00     0.047 A 
ATOM     23  C   UNL A   1      32.968  19.057  24.949  1.00  0.00     0.004 A 
ATOM     24  C   UNL A   1      32.186  20.409  23.111  1.00  0.00     0.007 A 
ATOM     25  C   UNL A   1      32.518  19.161  23.635  1.00  0.00     0.001 A 
BRANCH  21  26
ATOM     26  O   UNL A   1      32.944  22.539  26.023  1.00  0.00    -0.496 OA
ATOM     27  C   UNL A   1      33.265  22.165  27.366  1.00  0.00     0.278 C 
ENDBRANCH  21  26
ENDBRANCH  19  20
ENDBRANCH  18  19
ENDBRANCH  15  18
ENDBRANCH   7  14
ENDBRANCH   4   6
ENDBRANCH   3   4
ENDBRANCH   2   3
ENDBRANCH   1   2
BRANCH   1  28
ATOM     28  O   UNL A   1      36.305  21.958  25.571  1.00  0.00    -0.374 OA
BRANCH  28  29
ATOM     29  C   UNL A   1      36.524  20.766  24.821  1.00  0.00     0.202 C 
BRANCH  29  30
ATOM     30  C   UNL A   1      37.782  19.955  25.149  1.00  0.00     0.261 C 
BRANCH  30  31
ATOM     31  O   UNL A   1      38.973  20.763  25.129  1.00  0.00    -0.460 OA
BRANCH  31  32
ATOM     32  C   UNL A   1      39.819  20.540  26.164  1.00  0.00     0.338 C 
ATOM     33  O   UNL A   1      40.380  19.486  26.432  1.00  0.00    -0.246 OA
BRANCH  32  34
ATOM     34  C   UNL A   1      40.148  21.804  26.851  1.00  0.00     0.060 A 
ATOM     35  C   UNL A   1      39.495  22.958  26.402  1.00  0.00     0.016 A 
ATOM     36  C   UNL A   1      41.132  21.888  27.839  1.00  0.00     0.016 A 
ATOM     37  C   UNL A   1      39.873  24.208  26.881  1.00  0.00     0.010 A 
ATOM     38  C   UNL A   1      41.516  23.149  28.316  1.00  0.00     0.010 A 
ATOM     39  C   UNL A   1      40.920  24.317  27.804  1.00  0.00    -0.014 A 
BRANCH  39  40
ATOM     40  C   UNL A   1      41.495  25.661  28.074  1.00  0.00     0.031 A 
ATOM     41  C   UNL A   1      42.887  25.967  27.584  1.00  0.00     0.074 A 
ATOM     42  C   UNL A   1      40.762  26.621  28.666  1.00  0.00     0.049 A 
ATOM     43  N   UNL A   1      43.579  27.073  27.680  1.00  0.00    -0.248 NA
ATOM     44  C   UNL A   1      43.590  24.875  26.892  1.00  0.00     0.031 C 
ATOM     45  C   UNL A   1      39.386  26.464  29.134  1.00  0.00     0.029 A 
ATOM     46  N   UNL A   1      41.072  27.924  28.969  1.00  0.00    -0.354 N 
ATOM     47  C   UNL A   1      44.799  26.813  27.063  1.00  0.00     0.074 A 
ATOM     48  C   UNL A   1      44.765  25.430  26.634  1.00  0.00     0.031 C 
ATOM     49  C   UNL A   1      38.971  27.626  29.666  1.00  0.00     0.029 A 
ATOM     50  C   UNL A   1      40.059  28.599  29.610  1.00  0.00     0.049 A 
ATOM     51  H   UNL A   1      41.938  28.336  28.747  1.00  0.00     0.167 HD
ATOM     52  C   UNL A   1      45.845  27.651  26.862  1.00  0.00     0.034 A 
ATOM     53  C   UNL A   1      40.024  29.850  30.112  1.00  0.00     0.034 A 
ATOM     54  C   UNL A   1      45.869  29.025  27.299  1.00  0.00     0.049 A 
ATOM     55  C   UNL A   1      41.233  30.740  29.952  1.00  0.00     0.074 A 
ATOM     56  C   UNL A   1      46.872  29.966  27.135  1.00  0.00     0.029 A 
ATOM     57  N   UNL A   1      44.848  29.657  27.999  1.00  0.00    -0.354 N 
ATOM     58  N   UNL A   1      42.378  30.483  29.361  1.00  0.00    -0.248 NA
ATOM     59  C   UNL A   1      41.141  32.093  30.517  1.00  0.00     0.031 C 
ATOM     60  C   UNL A   1      46.489  31.137  27.798  1.00  0.00     0.029 A 
ATOM     61  C   UNL A   1      45.213  30.959  28.306  1.00  0.00     0.049 A 
ATOM     62  H   UNL A   1      43.990  29.239  28.242  1.00  0.00     0.167 HD
ATOM     63  C   UNL A   1      43.128  31.654  29.459  1.00  0.00     0.074 A 
ATOM     64  C   UNL A   1      42.301  32.619  30.152  1.00  0.00     0.031 C 
ATOM     65  C   UNL A   1      44.384  31.910  29.009  1.00  0.00     0.034 A 
BRANCH  52  66
ATOM     66  C   UNL A   1      47.072  27.082  26.188  1.00  0.00     0.023 A 
ATOM     67  C   UNL A   1      48.062  26.390  26.906  1.00  0.00     0.031 A 
ATOM     68  C   UNL A   1      47.264  27.259  24.806  1.00  0.00     0.131 A 
ATOM     69  C   UNL A   1      49.228  25.959  26.253  1.00  0.00     0.055 A 
ATOM     70  C   UNL A   1      48.389  26.760  24.148  1.00  0.00     0.041 A 
ATOM     71  F   UNL A   1      46.364  27.934  24.072  1.00  0.00    -0.206 F 
ATOM     72  C   UNL A   1      49.386  26.117  24.875  1.00  0.00     0.022 A 
BRANCH  69  73
ATOM     73  S   UNL A   1      50.596  25.310  27.253  1.00  0.00     0.124 S 
ATOM     74  O   UNL A   1      50.984  26.490  28.022  1.00  0.00    -0.237 OA
ATOM     75  O   UNL A   1      49.956  24.238  28.005  1.00  0.00    -0.237 OA
ATOM     76  O   UNL A   1      51.574  24.877  26.257  1.00  0.00    -0.744 OA
ENDBRANCH  69  73
ENDBRANCH  52  66
BRANCH  53  77
ATOM     77  C   UNL A   1      38.822  30.331  30.855  1.00  0.00     0.023 A 
ATOM     78  C   UNL A   1      37.772  30.993  30.200  1.00  0.00     0.031 A 
ATOM     79  C   UNL A   1      38.739  30.183  32.251  1.00  0.00     0.131 A 
ATOM     80  C   UNL A   1      36.706  31.521  30.947  1.00  0.00     0.055 A 
ATOM     81  C   UNL A   1      37.651  30.662  32.982  1.00  0.00     0.041 A 
ATOM     82  F   UNL A   1      39.719  29.562  32.928  1.00  0.00    -0.206 F 
ATOM     83  C   UNL A   1      36.632  31.348  32.330  1.00  0.00     0.022 A 
BRANCH  80  84
ATOM     84  S   UNL A   1      35.455  32.519  30.091  1.00  0.00     0.124 S 
ATOM     85  O   UNL A   1      36.211  33.720  29.756  1.00  0.00    -0.237 OA
ATOM     86  O   UNL A   1      35.093  31.657  28.971  1.00  0.00    -0.237 OA
ATOM     87  O   UNL A   1      34.413  32.698  31.101  1.00  0.00    -0.744 OA
ENDBRANCH  80  84
ENDBRANCH  53  77
BRANCH  65  88
ATOM     88  C   UNL A   1      44.919  33.307  29.217  1.00  0.00     0.023 A 
ATOM     89  C   UNL A   1      44.904  34.269  28.191  1.00  0.00     0.031 A 
ATOM     90  C   UNL A   1      45.462  33.677  30.461  1.00  0.00     0.131 A 
ATOM     91  C   UNL A   1      45.471  35.535  28.411  1.00  0.00     0.055 A 
ATOM     92  C   UNL A   1      45.968  34.957  30.692  1.00  0.00     0.041 A 
ATOM     93  F   UNL A   1      45.504  32.799  31.476  1.00  0.00    -0.206 F 
ATOM     94  C   UNL A   1      45.987  35.890  29.659  1.00  0.00     0.022 A 
BRANCH  91  95
ATOM     95  S   UNL A   1      45.608  36.684  27.014  1.00  0.00     0.124 S 
ATOM     96  O   UNL A   1      44.724  37.770  27.425  1.00  0.00    -0.237 OA
ATOM     97  O   UNL A   1      47.034  36.992  27.003  1.00  0.00    -0.237 OA
ATOM     98  O   UNL A   1      45.137  35.898  25.875  1.00  0.00    -0.744 OA
ENDBRANCH  91  95
ENDBRANCH  65  88
ENDBRANCH  39  40
ENDBRANCH  32  34
ENDBRANCH  31  32
ENDBRANCH  30  31
ENDBRANCH  29  30
ENDBRANCH  28  29
ENDBRANCH   1  28
TORSDOF 22
ENDMDL
MODEL 3
REMARK VINA RESULT:     -10.8      1.965      2.252
REMARK SMILES COc1ccccc1CCNC(=O)[C@@H]1[C@@H](C(=O)OCCOCCOC(=O)c2ccc(-c3c4nc(c(-c5cc(S(=O)(=O)[O-])ccc5F)c5ccc([nH]5)c(-c5cc(S(=O)(=O)[O-])ccc5F)c5nc(c(-c6cc(S(=O)(=O)[O-])ccc6F)c6ccc3[nH]6)C=C5)C=C4)cc2)[C@H]2C=C[C@@H]1CC2
REMARK SMILES IDX 20 1 19 2 18 3 16 4 17 5 15 6 14 7 93 8 90 9 92 10 94 11
REMARK SMILES IDX 91 12 95 13 12 14 11 15 13 17 10 18 9 19 8 20 3 21 4 22 5 23
REMARK SMILES IDX 7 24 6 25 2 26 1 27 21 28 22 29 23 30 24 31 25 32 26 33
REMARK SMILES IDX 27 34 28 35 89 36 29 37 88 38 30 39 31 40 32 41 82 42 33 43
REMARK SMILES IDX 87 44 81 45 83 46 34 47 86 48 80 49 79 50 35 52 67 53 47 54
REMARK SMILES IDX 66 55 48 56 51 57 65 58 84 59 49 60 50 61 64 63 85 64 52 65
REMARK SMILES IDX 36 66 37 67 45 68 38 69 44 70 46 71 43 72 39 73 40 74 41 75
REMARK SMILES IDX 42 76 68 77 69 78 77 79 70 80 76 81 78 82 75 83 71 84 72 85
REMARK SMILES IDX 73 86 74 87 53 88 54 89 62 90 55 91 61 92 63 93 60 94 56 95
REMARK SMILES IDX 57 96 58 97 59 98
REMARK H PARENT 11 16 83 51 51 62
REMARK Flexibility Score: inf
ROOT
ATOM      1  C   UNL A   1      37.042  23.538  24.933  1.00  0.00     0.202 C 
ENDROOT
BRANCH   1   2
ATOM      2  C   UNL A   1      35.778  23.715  24.090  1.00  0.00     0.261 C 
BRANCH   2   3
ATOM      3  O   UNL A   1      34.667  24.168  24.886  1.00  0.00    -0.463 OA
BRANCH   3   4
ATOM      4  C   UNL A   1      34.050  25.292  24.449  1.00  0.00     0.310 C 
ATOM      5  O   UNL A   1      34.040  25.683  23.286  1.00  0.00    -0.252 OA
BRANCH   4   6
ATOM      6  C   UNL A   1      33.319  26.043  25.539  1.00  0.00     0.119 C 
ATOM      7  C   UNL A   1      31.789  25.897  25.418  1.00  0.00     0.100 C 
ATOM      8  C   UNL A   1      31.097  27.216  25.860  1.00  0.00     0.025 C 
ATOM      9  C   UNL A   1      33.680  27.547  25.695  1.00  0.00     0.026 C 
ATOM     10  C   UNL A   1      31.539  28.242  24.822  1.00  0.00    -0.027 C 
ATOM     11  C   UNL A   1      31.653  27.778  27.190  1.00  0.00     0.009 C 
ATOM     12  C   UNL A   1      32.873  28.393  24.726  1.00  0.00    -0.027 C 
ATOM     13  C   UNL A   1      33.188  27.978  27.100  1.00  0.00     0.009 C 
BRANCH   7  14
ATOM     14  C   UNL A   1      31.219  24.586  25.940  1.00  0.00     0.224 C 
ATOM     15  N   UNL A   1      30.656  23.632  25.166  1.00  0.00    -0.355 N 
ATOM     16  H   UNL A   1      30.009  23.064  25.643  1.00  0.00     0.163 HD
ATOM     17  O   UNL A   1      31.219  24.364  27.155  1.00  0.00    -0.275 OA
BRANCH  15  18
ATOM     18  C   UNL A   1      30.823  23.283  23.768  1.00  0.00     0.120 C 
BRANCH  18  19
ATOM     19  C   UNL A   1      32.210  22.692  23.520  1.00  0.00     0.060 C 
BRANCH  19  20
ATOM     20  C   UNL A   1      32.239  21.212  23.790  1.00  0.00    -0.004 A 
ATOM     21  C   UNL A   1      32.448  20.697  25.076  1.00  0.00     0.122 A 
ATOM     22  C   UNL A   1      32.610  19.326  25.270  1.00  0.00     0.047 A 
ATOM     23  C   UNL A   1      32.537  18.453  24.183  1.00  0.00     0.004 A 
ATOM     24  C   UNL A   1      32.145  20.321  22.709  1.00  0.00     0.007 A 
ATOM     25  C   UNL A   1      32.300  18.950  22.904  1.00  0.00     0.001 A 
BRANCH  21  26
ATOM     26  O   UNL A   1      32.611  21.509  26.168  1.00  0.00    -0.496 OA
ATOM     27  C   UNL A   1      33.909  21.365  26.754  1.00  0.00     0.278 C 
ENDBRANCH  21  26
ENDBRANCH  19  20
ENDBRANCH  18  19
ENDBRANCH  15  18
ENDBRANCH   7  14
ENDBRANCH   4   6
ENDBRANCH   3   4
ENDBRANCH   2   3
ENDBRANCH   1   2
BRANCH   1  28
ATOM     28  O   UNL A   1      37.114  22.361  25.740  1.00  0.00    -0.374 OA
BRANCH  28  29
ATOM     29  C   UNL A   1      37.366  21.126  25.074  1.00  0.00     0.202 C 
BRANCH  29  30
ATOM     30  C   UNL A   1      38.637  20.367  25.469  1.00  0.00     0.261 C 
BRANCH  30  31
ATOM     31  O   UNL A   1      39.748  21.250  25.711  1.00  0.00    -0.460 OA
BRANCH  31  32
ATOM     32  C   UNL A   1      40.300  21.132  26.942  1.00  0.00     0.338 C 
ATOM     33  O   UNL A   1      40.632  20.092  27.495  1.00  0.00    -0.246 OA
BRANCH  32  34
ATOM     34  C   UNL A   1      40.645  22.458  27.489  1.00  0.00     0.060 A 
ATOM     35  C   UNL A   1      40.006  23.565  26.917  1.00  0.00     0.016 A 
ATOM     36  C   UNL A   1      41.628  22.636  28.466  1.00  0.00     0.016 A 
ATOM     37  C   UNL A   1      40.399  24.855  27.260  1.00  0.00     0.010 A 
ATOM     38  C   UNL A   1      42.027  23.937  28.805  1.00  0.00     0.010 A 
ATOM     39  C   UNL A   1      41.446  25.050  28.168  1.00  0.00    -0.014 A 
BRANCH  39  40
ATOM     40  C   UNL A   1      42.037  26.408  28.293  1.00  0.00     0.031 A 
ATOM     41  C   UNL A   1      43.379  26.676  27.664  1.00  0.00     0.074 A 
ATOM     42  C   UNL A   1      41.355  27.409  28.879  1.00  0.00     0.049 A 
ATOM     43  N   UNL A   1      44.073  27.785  27.622  1.00  0.00    -0.248 NA
ATOM     44  C   UNL A   1      44.024  25.538  26.990  1.00  0.00     0.031 C 
ATOM     45  C   UNL A   1      40.025  27.287  29.475  1.00  0.00     0.029 A 
ATOM     46  N   UNL A   1      41.685  28.729  29.063  1.00  0.00    -0.354 N 
ATOM     47  C   UNL A   1      45.235  27.480  26.920  1.00  0.00     0.074 A 
ATOM     48  C   UNL A   1      45.170  26.071  26.592  1.00  0.00     0.031 C 
ATOM     49  C   UNL A   1      39.654  28.484  29.960  1.00  0.00     0.029 A 
ATOM     50  C   UNL A   1      40.730  29.449  29.742  1.00  0.00     0.049 A 
ATOM     51  H   UNL A   1      42.527  29.123  28.738  1.00  0.00     0.167 HD
ATOM     52  C   UNL A   1      46.257  28.300  26.571  1.00  0.00     0.034 A 
ATOM     53  C   UNL A   1      40.733  30.732  30.157  1.00  0.00     0.034 A 
ATOM     54  C   UNL A   1      46.313  29.701  26.908  1.00  0.00     0.049 A 
ATOM     55  C   UNL A   1      41.920  31.606  29.830  1.00  0.00     0.074 A 
ATOM     56  C   UNL A   1      47.294  30.626  26.592  1.00  0.00     0.029 A 
ATOM     57  N   UNL A   1      45.355  30.382  27.649  1.00  0.00    -0.354 N 
ATOM     58  N   UNL A   1      43.010  31.306  29.161  1.00  0.00    -0.248 NA
ATOM     59  C   UNL A   1      41.873  32.995  30.307  1.00  0.00     0.031 C 
ATOM     60  C   UNL A   1      46.967  31.841  27.203  1.00  0.00     0.029 A 
ATOM     61  C   UNL A   1      45.740  31.702  27.832  1.00  0.00     0.049 A 
ATOM     62  H   UNL A   1      44.523  29.984  27.995  1.00  0.00     0.167 HD
ATOM     63  C   UNL A   1      43.761  32.479  29.112  1.00  0.00     0.074 A 
ATOM     64  C   UNL A   1      42.994  33.492  29.806  1.00  0.00     0.031 C 
ATOM     65  C   UNL A   1      44.972  32.701  28.537  1.00  0.00     0.034 A 
BRANCH  52  66
ATOM     66  C   UNL A   1      47.422  27.683  25.833  1.00  0.00     0.023 A 
ATOM     67  C   UNL A   1      48.504  27.093  26.511  1.00  0.00     0.031 A 
ATOM     68  C   UNL A   1      47.462  27.710  24.428  1.00  0.00     0.131 A 
ATOM     69  C   UNL A   1      49.606  26.614  25.785  1.00  0.00     0.055 A 
ATOM     70  C   UNL A   1      48.526  27.162  23.710  1.00  0.00     0.041 A 
ATOM     71  F   UNL A   1      46.470  28.283  23.727  1.00  0.00    -0.206 F 
ATOM     72  C   UNL A   1      49.614  26.623  24.389  1.00  0.00     0.022 A 
BRANCH  69  73
ATOM     73  S   UNL A   1      51.091  26.106  26.695  1.00  0.00     0.124 S 
ATOM     74  O   UNL A   1      52.110  26.157  25.650  1.00  0.00    -0.237 OA
ATOM     75  O   UNL A   1      51.189  27.124  27.734  1.00  0.00    -0.237 OA
ATOM     76  O   UNL A   1      50.762  24.762  27.167  1.00  0.00    -0.744 OA
ENDBRANCH  69  73
ENDBRANCH  52  66
BRANCH  53  77
ATOM     77  C   UNL A   1      39.599  31.266  30.967  1.00  0.00     0.023 A 
ATOM     78  C   UNL A   1      39.623  31.236  32.369  1.00  0.00     0.031 A 
ATOM     79  C   UNL A   1      38.442  31.761  30.337  1.00  0.00     0.131 A 
ATOM     80  C   UNL A   1      38.495  31.653  33.096  1.00  0.00     0.055 A 
ATOM     81  C   UNL A   1      37.346  32.225  31.065  1.00  0.00     0.041 A 
ATOM     82  F   UNL A   1      38.365  31.806  28.997  1.00  0.00    -0.206 F 
ATOM     83  C   UNL A   1      37.364  32.160  32.454  1.00  0.00     0.022 A 
BRANCH  80  84
ATOM     84  S   UNL A   1      38.495  31.441  34.898  1.00  0.00     0.124 S 
ATOM     85  O   UNL A   1      39.741  32.099  35.274  1.00  0.00    -0.237 OA
ATOM     86  O   UNL A   1      37.266  32.125  35.284  1.00  0.00    -0.237 OA
ATOM     87  O   UNL A   1      38.479  29.989  35.070  1.00  0.00    -0.744 OA
ENDBRANCH  80  84
ENDBRANCH  53  77
BRANCH  65  88
ATOM     88  C   UNL A   1      45.518  34.108  28.601  1.00  0.00     0.023 A 
ATOM     89  C   UNL A   1      46.362  34.532  29.643  1.00  0.00     0.031 A 
ATOM     90  C   UNL A   1      45.180  35.041  27.605  1.00  0.00     0.131 A 
ATOM     91  C   UNL A   1      46.794  35.867  29.695  1.00  0.00     0.055 A 
ATOM     92  C   UNL A   1      45.662  36.351  27.628  1.00  0.00     0.041 A 
ATOM     93  F   UNL A   1      44.377  34.693  26.586  1.00  0.00    -0.206 F 
ATOM     94  C   UNL A   1      46.463  36.774  28.685  1.00  0.00     0.022 A 
BRANCH  91  95
ATOM     95  S   UNL A   1      47.720  36.429  31.149  1.00  0.00     0.124 S 
ATOM     96  O   UNL A   1      47.000  37.645  31.517  1.00  0.00    -0.237 OA
ATOM     97  O   UNL A   1      47.577  35.302  32.065  1.00  0.00    -0.237 OA
ATOM     98  O   UNL A   1      49.072  36.641  30.635  1.00  0.00    -0.744 OA
ENDBRANCH  91  95
ENDBRANCH  65  88
ENDBRANCH  39  40
ENDBRANCH  32  34
ENDBRANCH  31  32
ENDBRANCH  30  31
ENDBRANCH  29  30
ENDBRANCH  28  29
ENDBRANCH   1  28
TORSDOF 22
ENDMDL
