MODEL 1
REMARK VINA RESULT:     -12.5      0.000      0.000
REMARK SMILES O=C(OCCOCCOC(=O)[C@@H]1c2ccccc2C(=O)N(C2CCCC2)C12CCCCC2)c1ccc(-c2c3nc(c(-c4cc(S(=O)(=O)[O-])ccc4F)c4ccc([nH]4)c(-c4cc(S(=O)(=O)[O-])ccc4F)c4nc(c(-c5cc(S(=O)(=O)[O-])ccc5F)c5ccc2[nH]5)C=C4)C=C3)cc1
REMARK SMILES IDX 5 1 4 2 3 3 2 4 1 5 33 6 34 7 95 8 35 9 94 10 36 11 37 12
REMARK SMILES IDX 38 13 88 14 39 15 93 16 87 17 89 18 40 19 92 20 86 21 85 22
REMARK SMILES IDX 41 24 73 25 53 26 72 27 54 28 57 29 71 30 90 31 55 32 56 33
REMARK SMILES IDX 70 35 91 36 58 37 42 38 43 39 51 40 44 41 50 42 52 43 49 44
REMARK SMILES IDX 45 45 46 46 47 47 48 48 74 49 75 50 83 51 76 52 82 53 84 54
REMARK SMILES IDX 81 55 77 56 78 57 79 58 80 59 59 60 60 61 68 62 61 63 67 64
REMARK SMILES IDX 69 65 66 66 62 67 63 68 64 69 65 70 6 71 7 72 8 73 9 74
REMARK SMILES IDX 10 75 11 76 12 77 13 78 27 79 14 80 18 81 21 82 28 83 32 84
REMARK SMILES IDX 15 85 17 86 19 87 29 88 31 89 16 90 20 91 30 92 22 93 23 94
REMARK SMILES IDX 26 95 24 96 25 97
REMARK H PARENT 89 23 57 34
REMARK Flexibility Score: inf
ROOT
ATOM      1  C   UNL A   1      32.163  28.661  25.422  1.00  0.00     0.202 C 
ENDROOT
BRANCH   1   2
ATOM      2  C   UNL A   1      31.985  29.823  26.417  1.00  0.00     0.261 C 
BRANCH   2   3
ATOM      3  O   UNL A   1      32.976  30.856  26.293  1.00  0.00    -0.460 OA
BRANCH   3   4
ATOM      4  C   UNL A   1      33.575  31.567  27.284  1.00  0.00     0.338 C 
ATOM      5  O   UNL A   1      33.140  32.692  27.526  1.00  0.00    -0.246 OA
BRANCH   4   6
ATOM      6  C   UNL A   1      34.812  31.121  28.010  1.00  0.00     0.060 A 
ATOM      7  C   UNL A   1      35.882  32.033  28.109  1.00  0.00     0.016 A 
ATOM      8  C   UNL A   1      35.022  29.841  28.514  1.00  0.00     0.016 A 
ATOM      9  C   UNL A   1      37.112  31.648  28.658  1.00  0.00     0.010 A 
ATOM     10  C   UNL A   1      36.253  29.414  28.952  1.00  0.00     0.010 A 
ATOM     11  C   UNL A   1      37.293  30.324  29.061  1.00  0.00    -0.014 A 
BRANCH  11  12
ATOM     12  C   UNL A   1      38.413  29.831  29.866  1.00  0.00     0.031 A 
ATOM     13  C   UNL A   1      38.720  30.446  31.190  1.00  0.00     0.074 A 
ATOM     14  C   UNL A   1      39.326  29.126  29.172  1.00  0.00     0.049 A 
ATOM     15  N   UNL A   1      39.708  30.188  31.998  1.00  0.00    -0.248 NA
ATOM     16  C   UNL A   1      37.836  31.536  31.645  1.00  0.00     0.031 C 
ATOM     17  C   UNL A   1      39.181  28.754  27.756  1.00  0.00     0.029 A 
ATOM     18  N   UNL A   1      40.576  28.692  29.500  1.00  0.00    -0.354 N 
ATOM     19  C   UNL A   1      39.548  31.048  33.079  1.00  0.00     0.074 A 
ATOM     20  C   UNL A   1      38.421  31.902  32.779  1.00  0.00     0.031 C 
ATOM     21  C   UNL A   1      40.308  28.173  27.334  1.00  0.00     0.029 A 
ATOM     22  C   UNL A   1      41.233  28.087  28.456  1.00  0.00     0.049 A 
ATOM     23  H   UNL A   1      40.969  28.801  30.396  1.00  0.00     0.167 HD
ATOM     24  C   UNL A   1      40.275  31.070  34.220  1.00  0.00     0.034 A 
ATOM     25  C   UNL A   1      42.434  27.480  28.428  1.00  0.00     0.034 A 
ATOM     26  C   UNL A   1      41.418  30.208  34.399  1.00  0.00     0.049 A 
ATOM     27  C   UNL A   1      43.141  27.362  29.747  1.00  0.00     0.074 A 
ATOM     28  C   UNL A   1      42.173  29.993  35.535  1.00  0.00     0.029 A 
ATOM     29  N   UNL A   1      41.979  29.427  33.391  1.00  0.00    -0.354 N 
ATOM     30  N   UNL A   1      42.854  27.966  30.879  1.00  0.00    -0.248 NA
ATOM     31  C   UNL A   1      44.275  26.440  29.823  1.00  0.00     0.031 C 
ATOM     32  C   UNL A   1      43.219  29.129  35.198  1.00  0.00     0.029 A 
ATOM     33  C   UNL A   1      43.078  28.741  33.872  1.00  0.00     0.049 A 
ATOM     34  H   UNL A   1      41.640  29.371  32.468  1.00  0.00     0.167 HD
ATOM     35  C   UNL A   1      43.756  27.482  31.814  1.00  0.00     0.074 A 
ATOM     36  C   UNL A   1      44.583  26.515  31.113  1.00  0.00     0.031 C 
ATOM     37  C   UNL A   1      43.890  27.803  33.126  1.00  0.00     0.034 A 
BRANCH  24  38
ATOM     38  C   UNL A   1      39.838  31.962  35.363  1.00  0.00     0.023 A 
ATOM     39  C   UNL A   1      39.004  31.472  36.387  1.00  0.00     0.031 A 
ATOM     40  C   UNL A   1      40.131  33.341  35.363  1.00  0.00     0.131 A 
ATOM     41  C   UNL A   1      38.473  32.353  37.342  1.00  0.00     0.055 A 
ATOM     42  C   UNL A   1      39.638  34.205  36.343  1.00  0.00     0.041 A 
ATOM     43  F   UNL A   1      40.903  33.877  34.404  1.00  0.00    -0.206 F 
ATOM     44  C   UNL A   1      38.794  33.715  37.331  1.00  0.00     0.022 A 
BRANCH  41  45
ATOM     45  S   UNL A   1      37.292  31.790  38.598  1.00  0.00     0.124 S 
ATOM     46  O   UNL A   1      36.188  32.732  38.417  1.00  0.00    -0.237 OA
ATOM     47  O   UNL A   1      37.018  30.422  38.167  1.00  0.00    -0.237 OA
ATOM     48  O   UNL A   1      38.022  31.924  39.853  1.00  0.00    -0.744 OA
ENDBRANCH  41  45
ENDBRANCH  24  38
BRANCH  25  49
ATOM     49  C   UNL A   1      42.816  26.763  27.179  1.00  0.00     0.023 A 
ATOM     50  C   UNL A   1      42.413  25.431  26.954  1.00  0.00     0.031 A 
ATOM     51  C   UNL A   1      43.815  27.302  26.352  1.00  0.00     0.131 A 
ATOM     52  C   UNL A   1      43.071  24.664  25.980  1.00  0.00     0.055 A 
ATOM     53  C   UNL A   1      44.422  26.553  25.342  1.00  0.00     0.041 A 
ATOM     54  F   UNL A   1      44.264  28.549  26.561  1.00  0.00    -0.206 F 
ATOM     55  C   UNL A   1      44.066  25.218  25.168  1.00  0.00     0.022 A 
BRANCH  52  56
ATOM     56  S   UNL A   1      42.803  22.869  25.866  1.00  0.00     0.124 S 
ATOM     57  O   UNL A   1      41.394  22.748  26.227  1.00  0.00    -0.237 OA
ATOM     58  O   UNL A   1      43.121  22.605  24.464  1.00  0.00    -0.237 OA
ATOM     59  O   UNL A   1      43.753  22.317  26.827  1.00  0.00    -0.744 OA
ENDBRANCH  52  56
ENDBRANCH  25  49
BRANCH  37  60
ATOM     60  C   UNL A   1      45.001  27.138  33.892  1.00  0.00     0.023 A 
ATOM     61  C   UNL A   1      44.726  26.007  34.681  1.00  0.00     0.031 A 
ATOM     62  C   UNL A   1      46.276  27.721  33.968  1.00  0.00     0.131 A 
ATOM     63  C   UNL A   1      45.704  25.521  35.554  1.00  0.00     0.055 A 
ATOM     64  C   UNL A   1      47.265  27.201  34.800  1.00  0.00     0.041 A 
ATOM     65  F   UNL A   1      46.574  28.808  33.239  1.00  0.00    -0.206 F 
ATOM     66  C   UNL A   1      46.975  26.106  35.611  1.00  0.00     0.022 A 
BRANCH  63  67
ATOM     67  S   UNL A   1      45.331  24.184  36.718  1.00  0.00     0.124 S 
ATOM     68  O   UNL A   1      44.248  24.767  37.508  1.00  0.00    -0.237 OA
ATOM     69  O   UNL A   1      44.936  23.099  35.824  1.00  0.00    -0.237 OA
ATOM     70  O   UNL A   1      46.584  23.981  37.437  1.00  0.00    -0.744 OA
ENDBRANCH  63  67
ENDBRANCH  37  60
ENDBRANCH  11  12
ENDBRANCH   4   6
ENDBRANCH   3   4
ENDBRANCH   2   3
ENDBRANCH   1   2
BRANCH   1  71
ATOM     71  O   UNL A   1      32.425  29.013  24.063  1.00  0.00    -0.374 OA
BRANCH  71  72
ATOM     72  C   UNL A   1      33.733  28.781  23.545  1.00  0.00     0.202 C 
BRANCH  72  73
ATOM     73  C   UNL A   1      33.715  27.700  22.476  1.00  0.00     0.261 C 
BRANCH  73  74
ATOM     74  O   UNL A   1      33.652  26.409  23.095  1.00  0.00    -0.463 OA
BRANCH  74  75
ATOM     75  C   UNL A   1      33.303  25.375  22.297  1.00  0.00     0.315 C 
ATOM     76  O   UNL A   1      33.413  25.338  21.077  1.00  0.00    -0.251 OA
BRANCH  75  77
ATOM     77  C   UNL A   1      32.550  24.320  23.064  1.00  0.00     0.156 C 
ATOM     78  C   UNL A   1      31.314  24.962  23.680  1.00  0.00    -0.019 A 
ATOM     79  C   UNL A   1      33.395  23.449  24.088  1.00  0.00     0.061 C 
ATOM     80  C   UNL A   1      30.668  26.055  23.067  1.00  0.00     0.005 A 
ATOM     81  C   UNL A   1      30.804  24.471  24.882  1.00  0.00     0.044 A 
ATOM     82  N   UNL A   1      32.320  22.531  24.697  1.00  0.00    -0.329 N 
ATOM     83  C   UNL A   1      33.990  24.235  25.323  1.00  0.00     0.030 C 
ATOM     84  C   UNL A   1      34.535  22.673  23.333  1.00  0.00     0.030 C 
ATOM     85  C   UNL A   1      29.641  26.734  23.716  1.00  0.00     0.000 A 
ATOM     86  C   UNL A   1      29.785  25.166  25.544  1.00  0.00     0.014 A 
ATOM     87  C   UNL A   1      31.238  23.133  25.378  1.00  0.00     0.254 C 
ATOM     88  C   UNL A   1      35.465  24.638  25.334  1.00  0.00     0.002 C 
ATOM     89  C   UNL A   1      35.980  23.149  23.465  1.00  0.00     0.002 C 
ATOM     90  C   UNL A   1      29.228  26.314  24.975  1.00  0.00     0.001 A 
ATOM     91  O   UNL A   1      30.596  22.581  26.256  1.00  0.00    -0.269 OA
ATOM     92  C   UNL A   1      36.368  23.515  24.875  1.00  0.00     0.000 C 
BRANCH  82  93
ATOM     93  C   UNL A   1      32.306  21.064  24.655  1.00  0.00     0.086 C 
ATOM     94  C   UNL A   1      32.215  20.424  23.266  1.00  0.00     0.025 C 
ATOM     95  C   UNL A   1      33.429  20.353  25.409  1.00  0.00     0.025 C 
ATOM     96  C   UNL A   1      32.647  18.988  23.521  1.00  0.00     0.002 C 
ATOM     97  C   UNL A   1      33.707  19.073  24.617  1.00  0.00     0.002 C 
ENDBRANCH  82  93
ENDBRANCH  75  77
ENDBRANCH  74  75
ENDBRANCH  73  74
ENDBRANCH  72  73
ENDBRANCH  71  72
ENDBRANCH   1  71
TORSDOF 18
ENDMDL
MODEL 2
REMARK VINA RESULT:     -12.3      4.448      9.776
REMARK SMILES O=C(OCCOCCOC(=O)[C@@H]1c2ccccc2C(=O)N(C2CCCC2)C12CCCCC2)c1ccc(-c2c3nc(c(-c4cc(S(=O)(=O)[O-])ccc4F)c4ccc([nH]4)c(-c4cc(S(=O)(=O)[O-])ccc4F)c4nc(c(-c5cc(S(=O)(=O)[O-])ccc5F)c5ccc2[nH]5)C=C4)C=C3)cc1
REMARK SMILES IDX 5 1 4 2 3 3 2 4 1 5 33 6 34 7 95 8 35 9 94 10 36 11 37 12
REMARK SMILES IDX 38 13 88 14 39 15 93 16 87 17 89 18 40 19 92 20 86 21 85 22
REMARK SMILES IDX 41 24 73 25 53 26 72 27 54 28 57 29 71 30 90 31 55 32 56 33
REMARK SMILES IDX 70 35 91 36 58 37 42 38 43 39 51 40 44 41 50 42 52 43 49 44
REMARK SMILES IDX 45 45 46 46 47 47 48 48 74 49 75 50 83 51 76 52 82 53 84 54
REMARK SMILES IDX 81 55 77 56 78 57 79 58 80 59 59 60 60 61 68 62 61 63 67 64
REMARK SMILES IDX 69 65 66 66 62 67 63 68 64 69 65 70 6 71 7 72 8 73 9 74
REMARK SMILES IDX 10 75 11 76 12 77 13 78 27 79 14 80 18 81 21 82 28 83 32 84
REMARK SMILES IDX 15 85 17 86 19 87 29 88 31 89 16 90 20 91 30 92 22 93 23 94
REMARK SMILES IDX 26 95 24 96 25 97
REMARK H PARENT 89 23 57 34
REMARK Flexibility Score: inf
ROOT
ATOM      1  C   UNL A   1      35.301  20.737  25.291  1.00  0.00     0.202 C 
ENDROOT
BRANCH   1   2
ATOM      2  C   UNL A   1      36.805  20.876  24.991  1.00  0.00     0.261 C 
BRANCH   2   3
ATOM      3  O   UNL A   1      37.580  21.360  26.101  1.00  0.00    -0.460 OA
BRANCH   3   4
ATOM      4  C   UNL A   1      38.921  21.577  26.157  1.00  0.00     0.338 C 
ATOM      5  O   UNL A   1      39.665  20.608  26.006  1.00  0.00    -0.246 OA
BRANCH   4   6
ATOM      6  C   UNL A   1      39.546  22.893  26.520  1.00  0.00     0.060 A 
ATOM      7  C   UNL A   1      40.530  22.898  27.529  1.00  0.00     0.016 A 
ATOM      8  C   UNL A   1      39.163  24.126  26.002  1.00  0.00     0.016 A 
ATOM      9  C   UNL A   1      41.066  24.100  28.010  1.00  0.00     0.010 A 
ATOM     10  C   UNL A   1      39.595  25.317  26.537  1.00  0.00     0.010 A 
ATOM     11  C   UNL A   1      40.575  25.310  27.518  1.00  0.00    -0.014 A 
BRANCH  11  12
ATOM     12  C   UNL A   1      41.190  26.622  27.733  1.00  0.00     0.031 A 
ATOM     13  C   UNL A   1      42.631  26.841  27.415  1.00  0.00     0.074 A 
ATOM     14  C   UNL A   1      40.509  27.422  28.575  1.00  0.00     0.049 A 
ATOM     15  N   UNL A   1      43.353  27.908  27.608  1.00  0.00    -0.248 NA
ATOM     16  C   UNL A   1      43.378  25.697  26.861  1.00  0.00     0.031 C 
ATOM     17  C   UNL A   1      39.194  27.091  29.146  1.00  0.00     0.029 A 
ATOM     18  N   UNL A   1      40.845  28.597  29.178  1.00  0.00    -0.354 N 
ATOM     19  C   UNL A   1      44.630  27.585  27.163  1.00  0.00     0.074 A 
ATOM     20  C   UNL A   1      44.607  26.193  26.777  1.00  0.00     0.031 C 
ATOM     21  C   UNL A   1      38.852  28.028  30.036  1.00  0.00     0.029 A 
ATOM     22  C   UNL A   1      39.892  29.046  30.061  1.00  0.00     0.049 A 
ATOM     23  H   UNL A   1      41.686  29.076  28.999  1.00  0.00     0.167 HD
ATOM     24  C   UNL A   1      45.695  28.415  27.065  1.00  0.00     0.034 A 
ATOM     25  C   UNL A   1      39.846  30.187  30.772  1.00  0.00     0.034 A 
ATOM     26  C   UNL A   1      45.629  29.780  27.529  1.00  0.00     0.049 A 
ATOM     27  C   UNL A   1      40.951  31.170  30.512  1.00  0.00     0.074 A 
ATOM     28  C   UNL A   1      46.553  30.794  27.376  1.00  0.00     0.029 A 
ATOM     29  N   UNL A   1      44.569  30.311  28.260  1.00  0.00    -0.354 N 
ATOM     30  N   UNL A   1      42.073  30.974  29.855  1.00  0.00    -0.248 NA
ATOM     31  C   UNL A   1      40.769  32.534  31.007  1.00  0.00     0.031 C 
ATOM     32  C   UNL A   1      46.077  31.916  28.060  1.00  0.00     0.029 A 
ATOM     33  C   UNL A   1      44.821  31.631  28.579  1.00  0.00     0.049 A 
ATOM     34  H   UNL A   1      43.756  29.816  28.513  1.00  0.00     0.167 HD
ATOM     35  C   UNL A   1      42.727  32.196  29.836  1.00  0.00     0.074 A 
ATOM     36  C   UNL A   1      41.856  33.130  30.528  1.00  0.00     0.031 C 
ATOM     37  C   UNL A   1      43.931  32.519  29.296  1.00  0.00     0.034 A 
BRANCH  24  38
ATOM     38  C   UNL A   1      46.958  27.927  26.387  1.00  0.00     0.023 A 
ATOM     39  C   UNL A   1      47.150  28.097  25.002  1.00  0.00     0.031 A 
ATOM     40  C   UNL A   1      47.912  27.164  27.089  1.00  0.00     0.131 A 
ATOM     41  C   UNL A   1      48.244  27.491  24.365  1.00  0.00     0.055 A 
ATOM     42  C   UNL A   1      49.025  26.602  26.459  1.00  0.00     0.041 A 
ATOM     43  F   UNL A   1      47.780  26.946  28.408  1.00  0.00    -0.206 F 
ATOM     44  C   UNL A   1      49.187  26.753  25.087  1.00  0.00     0.022 A 
BRANCH  41  45
ATOM     45  S   UNL A   1      48.457  27.573  22.565  1.00  0.00     0.124 S 
ATOM     46  O   UNL A   1      48.477  26.158  22.199  1.00  0.00    -0.237 OA
ATOM     47  O   UNL A   1      47.263  28.305  22.150  1.00  0.00    -0.237 OA
ATOM     48  O   UNL A   1      49.722  28.277  22.393  1.00  0.00    -0.744 OA
ENDBRANCH  41  45
ENDBRANCH  24  38
BRANCH  25  49
ATOM     49  C   UNL A   1      38.596  30.479  31.528  1.00  0.00     0.023 A 
ATOM     50  C   UNL A   1      37.496  31.098  30.902  1.00  0.00     0.031 A 
ATOM     51  C   UNL A   1      38.604  30.406  32.932  1.00  0.00     0.131 A 
ATOM     52  C   UNL A   1      36.495  31.692  31.687  1.00  0.00     0.055 A 
ATOM     53  C   UNL A   1      37.574  30.942  33.705  1.00  0.00     0.041 A 
ATOM     54  F   UNL A   1      39.654  29.869  33.573  1.00  0.00    -0.206 F 
ATOM     55  C   UNL A   1      36.523  31.610  33.083  1.00  0.00     0.022 A 
BRANCH  52  56
ATOM     56  S   UNL A   1      35.230  32.761  30.938  1.00  0.00     0.124 S 
ATOM     57  O   UNL A   1      34.102  32.580  31.846  1.00  0.00    -0.237 OA
ATOM     58  O   UNL A   1      35.875  34.071  30.986  1.00  0.00    -0.237 OA
ATOM     59  O   UNL A   1      35.059  32.207  29.599  1.00  0.00    -0.744 OA
ENDBRANCH  52  56
ENDBRANCH  25  49
BRANCH  37  60
ATOM     60  C   UNL A   1      44.409  33.935  29.468  1.00  0.00     0.023 A 
ATOM     61  C   UNL A   1      45.066  34.311  30.653  1.00  0.00     0.031 A 
ATOM     62  C   UNL A   1      44.066  34.931  28.540  1.00  0.00     0.131 A 
ATOM     63  C   UNL A   1      45.317  35.664  30.902  1.00  0.00     0.055 A 
ATOM     64  C   UNL A   1      44.366  36.272  28.769  1.00  0.00     0.041 A 
ATOM     65  F   UNL A   1      43.427  34.614  27.403  1.00  0.00    -0.206 F 
ATOM     66  C   UNL A   1      44.979  36.646  29.962  1.00  0.00     0.022 A 
BRANCH  63  67
ATOM     67  S   UNL A   1      45.993  36.207  32.493  1.00  0.00     0.124 S 
ATOM     68  O   UNL A   1      45.012  37.206  32.910  1.00  0.00    -0.237 OA
ATOM     69  O   UNL A   1      45.990  34.969  33.267  1.00  0.00    -0.237 OA
ATOM     70  O   UNL A   1      47.311  36.733  32.156  1.00  0.00    -0.744 OA
ENDBRANCH  63  67
ENDBRANCH  37  60
ENDBRANCH  11  12
ENDBRANCH   4   6
ENDBRANCH   3   4
ENDBRANCH   2   3
ENDBRANCH   1   2
BRANCH   1  71
ATOM     71  O   UNL A   1      34.675  21.832  25.961  1.00  0.00    -0.374 OA
BRANCH  71  72
ATOM     72  C   UNL A   1      33.854  21.551  27.092  1.00  0.00     0.202 C 
BRANCH  72  73
ATOM     73  C   UNL A   1      33.184  22.814  27.609  1.00  0.00     0.261 C 
BRANCH  73  74
ATOM     74  O   UNL A   1      32.850  23.669  26.507  1.00  0.00    -0.463 OA
BRANCH  74  75
ATOM     75  C   UNL A   1      31.561  24.070  26.427  1.00  0.00     0.315 C 
ATOM     76  O   UNL A   1      30.684  23.846  27.252  1.00  0.00    -0.251 OA
BRANCH  75  77
ATOM     77  C   UNL A   1      31.256  24.664  25.076  1.00  0.00     0.156 C 
ATOM     78  C   UNL A   1      31.711  23.681  24.005  1.00  0.00    -0.019 A 
ATOM     79  C   UNL A   1      31.747  26.152  24.828  1.00  0.00     0.061 C 
ATOM     80  C   UNL A   1      31.717  22.290  24.235  1.00  0.00     0.005 A 
ATOM     81  C   UNL A   1      32.140  24.157  22.766  1.00  0.00     0.044 A 
ATOM     82  N   UNL A   1      31.308  26.400  23.374  1.00  0.00    -0.329 N 
ATOM     83  C   UNL A   1      33.314  26.359  24.809  1.00  0.00     0.030 C 
ATOM     84  C   UNL A   1      31.080  27.127  25.865  1.00  0.00     0.030 C 
ATOM     85  C   UNL A   1      32.284  21.416  23.312  1.00  0.00     0.000 A 
ATOM     86  C   UNL A   1      32.729  23.280  21.847  1.00  0.00     0.014 A 
ATOM     87  C   UNL A   1      31.834  25.561  22.366  1.00  0.00     0.254 C 
ATOM     88  C   UNL A   1      34.024  26.939  26.033  1.00  0.00     0.002 C 
ATOM     89  C   UNL A   1      31.914  27.677  27.020  1.00  0.00     0.002 C 
ATOM     90  C   UNL A   1      32.828  21.916  22.135  1.00  0.00     0.001 A 
ATOM     91  O   UNL A   1      31.948  25.891  21.197  1.00  0.00    -0.269 OA
ATOM     92  C   UNL A   1      33.291  28.129  26.609  1.00  0.00     0.000 C 
BRANCH  82  93
ATOM     93  C   UNL A   1      30.389  27.448  22.911  1.00  0.00     0.086 C 
ATOM     94  C   UNL A   1      28.957  27.383  23.450  1.00  0.00     0.025 C 
ATOM     95  C   UNL A   1      30.869  28.890  23.070  1.00  0.00     0.025 C 
ATOM     96  C   UNL A   1      28.416  28.773  23.155  1.00  0.00     0.002 C 
ATOM     97  C   UNL A   1      29.606  29.715  23.325  1.00  0.00     0.002 C 
ENDBRANCH  82  93
ENDBRANCH  75  77
ENDBRANCH  74  75
ENDBRANCH  73  74
ENDBRANCH  72  73
ENDBRANCH  71  72
ENDBRANCH   1  71
TORSDOF 18
ENDMDL
MODEL 3
REMARK VINA RESULT:     -12.1      1.164      7.321
REMARK SMILES O=C(OCCOCCOC(=O)[C@@H]1c2ccccc2C(=O)N(C2CCCC2)C12CCCCC2)c1ccc(-c2c3nc(c(-c4cc(S(=O)(=O)[O-])ccc4F)c4ccc([nH]4)c(-c4cc(S(=O)(=O)[O-])ccc4F)c4nc(c(-c5cc(S(=O)(=O)[O-])ccc5F)c5ccc2[nH]5)C=C4)C=C3)cc1
REMARK SMILES IDX 5 1 4 2 3 3 2 4 1 5 33 6 34 7 95 8 35 9 94 10 36 11 37 12
REMARK SMILES IDX 38 13 88 14 39 15 93 16 87 17 89 18 40 19 92 20 86 21 85 22
REMARK SMILES IDX 41 24 73 25 53 26 72 27 54 28 57 29 71 30 90 31 55 32 56 33
REMARK SMILES IDX 70 35 91 36 58 37 42 38 43 39 51 40 44 41 50 42 52 43 49 44
REMARK SMILES IDX 45 45 46 46 47 47 48 48 74 49 75 50 83 51 76 52 82 53 84 54
REMARK SMILES IDX 81 55 77 56 78 57 79 58 80 59 59 60 60 61 68 62 61 63 67 64
REMARK SMILES IDX 69 65 66 66 62 67 63 68 64 69 65 70 6 71 7 72 8 73 9 74
REMARK SMILES IDX 10 75 11 76 12 77 13 78 27 79 14 80 18 81 21 82 28 83 32 84
REMARK SMILES IDX 15 85 17 86 19 87 29 88 31 89 16 90 20 91 30 92 22 93 23 94
REMARK SMILES IDX 26 95 24 96 25 97
REMARK H PARENT 89 23 57 34
REMARK Flexibility Score: inf
ROOT
ATOM      1  C   UNL A   1      32.930  28.329  26.772  1.00  0.00     0.202 C 
ENDROOT
BRANCH   1   2
ATOM      2  C   UNL A   1      32.342  29.732  27.005  1.00  0.00     0.261 C 
BRANCH   2   3
ATOM      3  O   UNL A   1      33.272  30.803  26.772  1.00  0.00    -0.460 OA
BRANCH   3   4
ATOM      4  C   UNL A   1      34.014  31.483  27.685  1.00  0.00     0.338 C 
ATOM      5  O   UNL A   1      33.606  32.585  28.050  1.00  0.00    -0.246 OA
BRANCH   4   6
ATOM      6  C   UNL A   1      35.360  31.035  28.177  1.00  0.00     0.060 A 
ATOM      7  C   UNL A   1      36.423  31.959  28.119  1.00  0.00     0.016 A 
ATOM      8  C   UNL A   1      35.665  29.745  28.600  1.00  0.00     0.016 A 
ATOM      9  C   UNL A   1      37.732  31.577  28.439  1.00  0.00     0.010 A 
ATOM     10  C   UNL A   1      36.957  29.324  28.810  1.00  0.00     0.010 A 
ATOM     11  C   UNL A   1      37.992  30.245  28.766  1.00  0.00    -0.014 A 
BRANCH  11  12
ATOM     12  C   UNL A   1      39.237  29.747  29.354  1.00  0.00     0.031 A 
ATOM     13  C   UNL A   1      39.881  28.510  28.823  1.00  0.00     0.074 A 
ATOM     14  C   UNL A   1      39.495  30.218  30.589  1.00  0.00     0.049 A 
ATOM     15  N   UNL A   1      40.938  27.889  29.264  1.00  0.00    -0.248 NA
ATOM     16  C   UNL A   1      39.223  27.848  27.681  1.00  0.00     0.031 C 
ATOM     17  C   UNL A   1      38.686  31.243  31.267  1.00  0.00     0.029 A 
ATOM     18  N   UNL A   1      40.411  29.846  31.527  1.00  0.00    -0.354 N 
ATOM     19  C   UNL A   1      41.102  26.786  28.433  1.00  0.00     0.074 A 
ATOM     20  C   UNL A   1      39.982  26.770  27.521  1.00  0.00     0.031 C 
ATOM     21  C   UNL A   1      39.127  31.395  32.519  1.00  0.00     0.029 A 
ATOM     22  C   UNL A   1      40.275  30.521  32.717  1.00  0.00     0.049 A 
ATOM     23  H   UNL A   1      41.102  29.162  31.368  1.00  0.00     0.167 HD
ATOM     24  C   UNL A   1      42.131  25.906  28.439  1.00  0.00     0.034 A 
ATOM     25  C   UNL A   1      41.034  30.473  33.827  1.00  0.00     0.034 A 
ATOM     26  C   UNL A   1      43.176  25.978  29.430  1.00  0.00     0.049 A 
ATOM     27  C   UNL A   1      42.268  29.623  33.743  1.00  0.00     0.074 A 
ATOM     28  C   UNL A   1      44.359  25.268  29.497  1.00  0.00     0.029 A 
ATOM     29  N   UNL A   1      43.145  26.812  30.546  1.00  0.00    -0.354 N 
ATOM     30  N   UNL A   1      42.588  28.745  32.817  1.00  0.00    -0.248 NA
ATOM     31  C   UNL A   1      43.276  29.794  34.790  1.00  0.00     0.031 C 
ATOM     32  C   UNL A   1      45.011  25.632  30.678  1.00  0.00     0.029 A 
ATOM     33  C   UNL A   1      44.277  26.624  31.316  1.00  0.00     0.049 A 
ATOM     34  H   UNL A   1      42.420  27.444  30.756  1.00  0.00     0.167 HD
ATOM     35  C   UNL A   1      43.848  28.273  33.153  1.00  0.00     0.074 A 
ATOM     36  C   UNL A   1      44.237  28.985  34.358  1.00  0.00     0.031 C 
ATOM     37  C   UNL A   1      44.612  27.341  32.527  1.00  0.00     0.034 A 
BRANCH  24  38
ATOM     38  C   UNL A   1      42.227  24.869  27.339  1.00  0.00     0.023 A 
ATOM     39  C   UNL A   1      41.461  23.689  27.386  1.00  0.00     0.031 A 
ATOM     40  C   UNL A   1      43.187  24.985  26.313  1.00  0.00     0.131 A 
ATOM     41  C   UNL A   1      41.688  22.667  26.450  1.00  0.00     0.055 A 
ATOM     42  C   UNL A   1      43.376  23.985  25.356  1.00  0.00     0.041 A 
ATOM     43  F   UNL A   1      43.965  26.076  26.222  1.00  0.00    -0.206 F 
ATOM     44  C   UNL A   1      42.633  22.813  25.430  1.00  0.00     0.022 A 
BRANCH  41  45
ATOM     45  S   UNL A   1      40.818  21.078  26.553  1.00  0.00     0.124 S 
ATOM     46  O   UNL A   1      40.796  20.839  27.995  1.00  0.00    -0.237 OA
ATOM     47  O   UNL A   1      39.524  21.400  25.957  1.00  0.00    -0.237 OA
ATOM     48  O   UNL A   1      41.658  20.167  25.786  1.00  0.00    -0.744 OA
ENDBRANCH  41  45
ENDBRANCH  24  38
BRANCH  25  49
ATOM     49  C   UNL A   1      40.734  31.450  34.910  1.00  0.00     0.023 A 
ATOM     50  C   UNL A   1      39.777  31.162  35.904  1.00  0.00     0.031 A 
ATOM     51  C   UNL A   1      41.185  32.776  34.789  1.00  0.00     0.131 A 
ATOM     52  C   UNL A   1      39.245  32.206  36.678  1.00  0.00     0.055 A 
ATOM     53  C   UNL A   1      40.698  33.799  35.604  1.00  0.00     0.041 A 
ATOM     54  F   UNL A   1      42.058  33.105  33.825  1.00  0.00    -0.206 F 
ATOM     55  C   UNL A   1      39.706  33.520  36.540  1.00  0.00     0.022 A 
BRANCH  52  56
ATOM     56  S   UNL A   1      37.800  31.936  37.747  1.00  0.00     0.124 S 
ATOM     57  O   UNL A   1      36.865  32.944  37.256  1.00  0.00    -0.237 OA
ATOM     58  O   UNL A   1      37.452  30.550  37.439  1.00  0.00    -0.237 OA
ATOM     59  O   UNL A   1      38.320  32.156  39.092  1.00  0.00    -0.744 OA
ENDBRANCH  52  56
ENDBRANCH  25  49
BRANCH  37  60
ATOM     60  C   UNL A   1      45.936  26.997  33.154  1.00  0.00     0.023 A 
ATOM     61  C   UNL A   1      46.004  25.992  34.135  1.00  0.00     0.031 A 
ATOM     62  C   UNL A   1      47.078  27.772  32.899  1.00  0.00     0.131 A 
ATOM     63  C   UNL A   1      47.183  25.821  34.865  1.00  0.00     0.055 A 
ATOM     64  C   UNL A   1      48.268  27.562  33.593  1.00  0.00     0.041 A 
ATOM     65  F   UNL A   1      47.050  28.748  31.978  1.00  0.00    -0.206 F 
ATOM     66  C   UNL A   1      48.319  26.594  34.593  1.00  0.00     0.022 A 
BRANCH  63  67
ATOM     67  S   UNL A   1      47.255  24.666  36.259  1.00  0.00     0.124 S 
ATOM     68  O   UNL A   1      45.840  24.490  36.577  1.00  0.00    -0.237 OA
ATOM     69  O   UNL A   1      47.910  23.505  35.662  1.00  0.00    -0.237 OA
ATOM     70  O   UNL A   1      48.035  25.377  37.267  1.00  0.00    -0.744 OA
ENDBRANCH  63  67
ENDBRANCH  37  60
ENDBRANCH  11  12
ENDBRANCH   4   6
ENDBRANCH   3   4
ENDBRANCH   2   3
ENDBRANCH   1   2
BRANCH   1  71
ATOM     71  O   UNL A   1      32.872  27.820  25.439  1.00  0.00    -0.374 OA
BRANCH  71  72
ATOM     72  C   UNL A   1      33.877  28.230  24.514  1.00  0.00     0.202 C 
BRANCH  72  73
ATOM     73  C   UNL A   1      33.668  27.581  23.155  1.00  0.00     0.261 C 
BRANCH  73  74
ATOM     74  O   UNL A   1      34.045  26.199  23.216  1.00  0.00    -0.463 OA
BRANCH  74  75
ATOM     75  C   UNL A   1      33.415  25.365  22.359  1.00  0.00     0.315 C 
ATOM     76  O   UNL A   1      33.323  25.514  21.146  1.00  0.00    -0.251 OA
BRANCH  75  77
ATOM     77  C   UNL A   1      32.635  24.308  23.096  1.00  0.00     0.156 C 
ATOM     78  C   UNL A   1      31.414  24.963  23.729  1.00  0.00    -0.019 A 
ATOM     79  C   UNL A   1      33.457  23.389  24.096  1.00  0.00     0.061 C 
ATOM     80  C   UNL A   1      30.795  26.088  23.145  1.00  0.00     0.005 A 
ATOM     81  C   UNL A   1      30.891  24.451  24.916  1.00  0.00     0.044 A 
ATOM     82  N   UNL A   1      32.360  22.481  24.678  1.00  0.00    -0.329 N 
ATOM     83  C   UNL A   1      34.069  24.126  25.353  1.00  0.00     0.030 C 
ATOM     84  C   UNL A   1      34.579  22.607  23.321  1.00  0.00     0.030 C 
ATOM     85  C   UNL A   1      29.785  26.773  23.812  1.00  0.00     0.000 A 
ATOM     86  C   UNL A   1      29.888  25.153  25.596  1.00  0.00     0.014 A 
ATOM     87  C   UNL A   1      31.291  23.090  25.375  1.00  0.00     0.254 C 
ATOM     88  C   UNL A   1      35.554  24.492  25.377  1.00  0.00     0.002 C 
ATOM     89  C   UNL A   1      36.035  23.044  23.468  1.00  0.00     0.002 C 
ATOM     90  C   UNL A   1      29.359  26.329  25.058  1.00  0.00     0.001 A 
ATOM     91  O   UNL A   1      30.635  22.530  26.237  1.00  0.00    -0.269 OA
ATOM     92  C   UNL A   1      36.430  23.361  24.887  1.00  0.00     0.000 C 
BRANCH  82  93
ATOM     93  C   UNL A   1      32.309  21.016  24.596  1.00  0.00     0.086 C 
ATOM     94  C   UNL A   1      32.218  20.417  23.189  1.00  0.00     0.025 C 
ATOM     95  C   UNL A   1      33.407  20.257  25.341  1.00  0.00     0.025 C 
ATOM     96  C   UNL A   1      32.612  18.964  23.409  1.00  0.00     0.002 C 
ATOM     97  C   UNL A   1      33.661  18.993  24.517  1.00  0.00     0.002 C 
ENDBRANCH  82  93
ENDBRANCH  75  77
ENDBRANCH  74  75
ENDBRANCH  73  74
ENDBRANCH  72  73
ENDBRANCH  71  72
ENDBRANCH   1  71
TORSDOF 18
ENDMDL
