MODEL 1
REMARK VINA RESULT:     -10.4      0.000      0.000
REMARK SMILES C[C@@H](CC(=O)OCCOCCOC(=O)c1ccc(-c2c3nc(c(-c4cc(S(=O)(=O)[O-])ccc4F)c4ccc([nH]4)c(-c4cc(S(=O)(=O)[O-])ccc4F)c4nc(c(-c5cc(S(=O)(=O)[O-])ccc5F)c5ccc2[nH]5)C=C4)C=C3)cc1)NC(=O)c1ccc(O)cc1
REMARK SMILES IDX 8 1 7 2 6 3 4 4 5 5 3 6 2 7 1 8 78 9 79 10 80 12 81 13 82 14
REMARK SMILES IDX 87 15 83 16 86 17 84 18 85 19 9 21 10 22 11 23 12 24 13 25
REMARK SMILES IDX 14 26 15 27 16 28 77 29 17 30 76 31 18 32 19 33 20 34 70 35
REMARK SMILES IDX 21 36 75 37 69 38 71 39 22 40 74 41 68 42 67 43 23 45 55 46
REMARK SMILES IDX 35 47 54 48 36 49 39 50 53 51 72 52 37 53 38 54 52 56 73 57
REMARK SMILES IDX 40 58 24 59 25 60 33 61 26 62 32 63 34 64 31 65 27 66 28 67
REMARK SMILES IDX 29 68 30 69 56 70 57 71 65 72 58 73 64 74 66 75 63 76 59 77
REMARK SMILES IDX 60 78 61 79 62 80 41 81 42 82 50 83 43 84 49 85 51 86 48 87
REMARK SMILES IDX 44 88 45 89 46 90 47 91
REMARK H PARENT 78 11 85 20 71 44 39 55
REMARK Flexibility Score: inf
ROOT
ATOM      1  C   UNL A   1      32.947  29.462  26.821  1.00  0.00     0.202 C 
ENDROOT
BRANCH   1   2
ATOM      2  C   UNL A   1      33.090  29.322  25.305  1.00  0.00     0.261 C 
BRANCH   2   3
ATOM      3  O   UNL A   1      32.762  27.993  24.854  1.00  0.00    -0.463 OA
BRANCH   3   4
ATOM      4  C   UNL A   1      31.512  27.833  24.365  1.00  0.00     0.307 C 
ATOM      5  O   UNL A   1      31.086  28.364  23.343  1.00  0.00    -0.252 OA
BRANCH   4   6
ATOM      6  C   UNL A   1      30.632  26.896  25.159  1.00  0.00     0.147 C 
BRANCH   6   7
ATOM      7  C   UNL A   1      30.747  25.369  25.062  1.00  0.00     0.090 C 
ATOM      8  C   UNL A   1      30.393  24.782  23.700  1.00  0.00     0.031 C 
BRANCH   7   9
ATOM      9  N   UNL A   1      30.023  24.676  26.128  1.00  0.00    -0.349 N 
ATOM     10  C   UNL A   1      30.323  23.513  26.797  1.00  0.00     0.251 C 
ATOM     11  H   UNL A   1      29.186  25.112  26.411  1.00  0.00     0.164 HD
ATOM     12  O   UNL A   1      29.532  23.054  27.617  1.00  0.00    -0.269 OA
BRANCH  10  13
ATOM     13  C   UNL A   1      31.572  22.770  26.506  1.00  0.00     0.040 A 
ATOM     14  C   UNL A   1      32.720  23.083  27.243  1.00  0.00     0.017 A 
ATOM     15  C   UNL A   1      31.637  21.808  25.493  1.00  0.00     0.017 A 
ATOM     16  C   UNL A   1      33.907  22.380  27.017  1.00  0.00     0.047 A 
ATOM     17  C   UNL A   1      32.819  21.093  25.279  1.00  0.00     0.047 A 
ATOM     18  C   UNL A   1      33.940  21.376  26.054  1.00  0.00     0.115 A 
BRANCH  18  19
ATOM     19  O   UNL A   1      35.104  20.686  25.893  1.00  0.00    -0.508 OA
ATOM     20  H   UNL A   1      35.860  21.118  25.548  1.00  0.00     0.293 HD
ENDBRANCH  18  19
ENDBRANCH  10  13
ENDBRANCH   7   9
ENDBRANCH   6   7
ENDBRANCH   4   6
ENDBRANCH   3   4
ENDBRANCH   2   3
ENDBRANCH   1   2
BRANCH   1  21
ATOM     21  O   UNL A   1      31.940  30.374  27.259  1.00  0.00    -0.374 OA
BRANCH  21  22
ATOM     22  C   UNL A   1      31.714  31.541  26.463  1.00  0.00     0.202 C 
BRANCH  22  23
ATOM     23  C   UNL A   1      31.792  32.880  27.207  1.00  0.00     0.261 C 
BRANCH  23  24
ATOM     24  O   UNL A   1      33.120  33.449  27.149  1.00  0.00    -0.460 OA
BRANCH  24  25
ATOM     25  C   UNL A   1      33.685  33.634  28.369  1.00  0.00     0.338 C 
ATOM     26  O   UNL A   1      33.189  34.224  29.322  1.00  0.00    -0.246 OA
BRANCH  25  27
ATOM     27  C   UNL A   1      34.934  32.861  28.507  1.00  0.00     0.060 A 
ATOM     28  C   UNL A   1      34.835  31.577  29.058  1.00  0.00     0.016 A 
ATOM     29  C   UNL A   1      36.186  33.429  28.264  1.00  0.00     0.016 A 
ATOM     30  C   UNL A   1      35.986  30.880  29.423  1.00  0.00     0.010 A 
ATOM     31  C   UNL A   1      37.344  32.726  28.635  1.00  0.00     0.010 A 
ATOM     32  C   UNL A   1      37.249  31.466  29.258  1.00  0.00    -0.014 A 
BRANCH  32  33
ATOM     33  C   UNL A   1      38.432  30.819  29.891  1.00  0.00     0.031 A 
ATOM     34  C   UNL A   1      38.799  31.180  31.310  1.00  0.00     0.074 A 
ATOM     35  C   UNL A   1      39.126  29.860  29.249  1.00  0.00     0.049 A 
ATOM     36  N   UNL A   1      39.759  30.710  32.066  1.00  0.00    -0.248 NA
ATOM     37  C   UNL A   1      37.970  32.206  31.958  1.00  0.00     0.031 C 
ATOM     38  C   UNL A   1      38.845  29.382  27.896  1.00  0.00     0.029 A 
ATOM     39  N   UNL A   1      40.202  29.110  29.653  1.00  0.00    -0.354 N 
ATOM     40  C   UNL A   1      39.647  31.378  33.282  1.00  0.00     0.074 A 
ATOM     41  C   UNL A   1      38.553  32.318  33.142  1.00  0.00     0.031 C 
ATOM     42  C   UNL A   1      39.726  28.416  27.583  1.00  0.00     0.029 A 
ATOM     43  C   UNL A   1      40.653  28.228  28.700  1.00  0.00     0.049 A 
ATOM     44  H   UNL A   1      40.613  29.196  30.544  1.00  0.00     0.167 HD
ATOM     45  C   UNL A   1      40.376  31.216  34.415  1.00  0.00     0.034 A 
ATOM     46  C   UNL A   1      41.700  27.377  28.716  1.00  0.00     0.034 A 
ATOM     47  C   UNL A   1      41.472  30.285  34.547  1.00  0.00     0.049 A 
ATOM     48  C   UNL A   1      42.554  27.276  29.957  1.00  0.00     0.074 A 
ATOM     49  C   UNL A   1      42.265  30.038  35.656  1.00  0.00     0.029 A 
ATOM     50  N   UNL A   1      41.940  29.456  33.536  1.00  0.00    -0.354 N 
ATOM     51  N   UNL A   1      42.429  27.909  31.101  1.00  0.00    -0.248 NA
ATOM     52  C   UNL A   1      43.683  26.336  29.911  1.00  0.00     0.031 C 
ATOM     53  C   UNL A   1      43.254  29.115  35.294  1.00  0.00     0.029 A 
ATOM     54  C   UNL A   1      43.031  28.725  33.984  1.00  0.00     0.049 A 
ATOM     55  H   UNL A   1      41.553  29.395  32.633  1.00  0.00     0.167 HD
ATOM     56  C   UNL A   1      43.446  27.419  31.919  1.00  0.00     0.074 A 
ATOM     57  C   UNL A   1      44.164  26.430  31.142  1.00  0.00     0.031 C 
ATOM     58  C   UNL A   1      43.753  27.751  33.198  1.00  0.00     0.034 A 
BRANCH  45  59
ATOM     59  C   UNL A   1      40.037  32.106  35.587  1.00  0.00     0.023 A 
ATOM     60  C   UNL A   1      39.039  31.762  36.516  1.00  0.00     0.031 A 
ATOM     61  C   UNL A   1      40.706  33.331  35.765  1.00  0.00     0.131 A 
ATOM     62  C   UNL A   1      38.690  32.662  37.535  1.00  0.00     0.055 A 
ATOM     63  C   UNL A   1      40.408  34.187  36.826  1.00  0.00     0.041 A 
ATOM     64  F   UNL A   1      41.655  33.721  34.899  1.00  0.00    -0.206 F 
ATOM     65  C   UNL A   1      39.384  33.861  37.711  1.00  0.00     0.022 A 
BRANCH  62  66
ATOM     66  S   UNL A   1      37.225  32.308  38.543  1.00  0.00     0.124 S 
ATOM     67  O   UNL A   1      37.634  32.817  39.849  1.00  0.00    -0.237 OA
ATOM     68  O   UNL A   1      36.182  33.065  37.859  1.00  0.00    -0.237 OA
ATOM     69  O   UNL A   1      37.095  30.854  38.462  1.00  0.00    -0.744 OA
ENDBRANCH  62  66
ENDBRANCH  45  59
BRANCH  46  70
ATOM     70  C   UNL A   1      42.035  26.571  27.505  1.00  0.00     0.023 A 
ATOM     71  C   UNL A   1      41.721  25.206  27.426  1.00  0.00     0.031 A 
ATOM     72  C   UNL A   1      42.736  27.151  26.432  1.00  0.00     0.131 A 
ATOM     73  C   UNL A   1      42.148  24.454  26.319  1.00  0.00     0.055 A 
ATOM     74  C   UNL A   1      43.113  26.411  25.311  1.00  0.00     0.041 A 
ATOM     75  F   UNL A   1      43.062  28.453  26.459  1.00  0.00    -0.206 F 
ATOM     76  C   UNL A   1      42.830  25.050  25.257  1.00  0.00     0.022 A 
BRANCH  73  77
ATOM     77  S   UNL A   1      41.870  22.661  26.325  1.00  0.00     0.124 S 
ATOM     78  O   UNL A   1      42.510  22.257  25.078  1.00  0.00    -0.237 OA
ATOM     79  O   UNL A   1      42.545  22.256  27.554  1.00  0.00    -0.237 OA
ATOM     80  O   UNL A   1      40.414  22.543  26.349  1.00  0.00    -0.744 OA
ENDBRANCH  73  77
ENDBRANCH  46  70
BRANCH  58  81
ATOM     81  C   UNL A   1      44.892  27.002  33.851  1.00  0.00     0.023 A 
ATOM     82  C   UNL A   1      44.711  25.733  34.432  1.00  0.00     0.031 A 
ATOM     83  C   UNL A   1      46.176  27.575  33.906  1.00  0.00     0.131 A 
ATOM     84  C   UNL A   1      45.779  25.107  35.093  1.00  0.00     0.055 A 
ATOM     85  C   UNL A   1      47.250  26.921  34.514  1.00  0.00     0.041 A 
ATOM     86  F   UNL A   1      46.408  28.784  33.369  1.00  0.00    -0.206 F 
ATOM     87  C   UNL A   1      47.051  25.686  35.124  1.00  0.00     0.022 A 
BRANCH  84  88
ATOM     88  S   UNL A   1      45.465  23.567  35.998  1.00  0.00     0.124 S 
ATOM     89  O   UNL A   1      44.049  23.338  35.726  1.00  0.00    -0.237 OA
ATOM     90  O   UNL A   1      46.393  22.637  35.363  1.00  0.00    -0.237 OA
ATOM     91  O   UNL A   1      45.782  23.909  37.383  1.00  0.00    -0.744 OA
ENDBRANCH  84  88
ENDBRANCH  58  81
ENDBRANCH  32  33
ENDBRANCH  25  27
ENDBRANCH  24  25
ENDBRANCH  23  24
ENDBRANCH  22  23
ENDBRANCH  21  22
ENDBRANCH   1  21
TORSDOF 21
ENDMDL
MODEL 2
REMARK VINA RESULT:     -10.3      1.828      2.277
REMARK SMILES C[C@@H](CC(=O)OCCOCCOC(=O)c1ccc(-c2c3nc(c(-c4cc(S(=O)(=O)[O-])ccc4F)c4ccc([nH]4)c(-c4cc(S(=O)(=O)[O-])ccc4F)c4nc(c(-c5cc(S(=O)(=O)[O-])ccc5F)c5ccc2[nH]5)C=C4)C=C3)cc1)NC(=O)c1ccc(O)cc1
REMARK SMILES IDX 8 1 7 2 6 3 4 4 5 5 3 6 2 7 1 8 78 9 79 10 80 12 81 13 82 14
REMARK SMILES IDX 87 15 83 16 86 17 84 18 85 19 9 21 10 22 11 23 12 24 13 25
REMARK SMILES IDX 14 26 15 27 16 28 77 29 17 30 76 31 18 32 19 33 20 34 70 35
REMARK SMILES IDX 21 36 75 37 69 38 71 39 22 40 74 41 68 42 67 43 23 45 55 46
REMARK SMILES IDX 35 47 54 48 36 49 39 50 53 51 72 52 37 53 38 54 52 56 73 57
REMARK SMILES IDX 40 58 24 59 25 60 33 61 26 62 32 63 34 64 31 65 27 66 28 67
REMARK SMILES IDX 29 68 30 69 56 70 57 71 65 72 58 73 64 74 66 75 63 76 59 77
REMARK SMILES IDX 60 78 61 79 62 80 41 81 42 82 50 83 43 84 49 85 51 86 48 87
REMARK SMILES IDX 44 88 45 89 46 90 47 91
REMARK H PARENT 78 11 85 20 71 44 39 55
REMARK Flexibility Score: inf
ROOT
ATOM      1  C   UNL A   1      33.278  29.719  25.999  1.00  0.00     0.202 C 
ENDROOT
BRANCH   1   2
ATOM      2  C   UNL A   1      33.229  28.246  25.589  1.00  0.00     0.261 C 
BRANCH   2   3
ATOM      3  O   UNL A   1      33.566  28.064  24.200  1.00  0.00    -0.463 OA
BRANCH   3   4
ATOM      4  C   UNL A   1      33.601  26.783  23.769  1.00  0.00     0.307 C 
ATOM      5  O   UNL A   1      33.592  26.440  22.590  1.00  0.00    -0.252 OA
BRANCH   4   6
ATOM      6  C   UNL A   1      33.689  25.745  24.862  1.00  0.00     0.147 C 
BRANCH   6   7
ATOM      7  C   UNL A   1      32.521  24.816  25.219  1.00  0.00     0.090 C 
ATOM      8  C   UNL A   1      32.675  24.064  26.536  1.00  0.00     0.031 C 
BRANCH   7   9
ATOM      9  N   UNL A   1      32.177  23.896  24.135  1.00  0.00    -0.349 N 
ATOM     10  C   UNL A   1      32.946  22.958  23.484  1.00  0.00     0.251 C 
ATOM     11  H   UNL A   1      31.247  23.958  23.819  1.00  0.00     0.164 HD
ATOM     12  O   UNL A   1      32.480  22.333  22.535  1.00  0.00    -0.269 OA
BRANCH  10  13
ATOM     13  C   UNL A   1      34.354  22.725  23.880  1.00  0.00     0.040 A 
ATOM     14  C   UNL A   1      34.609  21.895  24.979  1.00  0.00     0.017 A 
ATOM     15  C   UNL A   1      35.418  23.344  23.217  1.00  0.00     0.017 A 
ATOM     16  C   UNL A   1      35.926  21.627  25.360  1.00  0.00     0.047 A 
ATOM     17  C   UNL A   1      36.736  23.062  23.587  1.00  0.00     0.047 A 
ATOM     18  C   UNL A   1      36.978  22.194  24.647  1.00  0.00     0.115 A 
BRANCH  18  19
ATOM     19  O   UNL A   1      38.248  21.875  25.024  1.00  0.00    -0.508 OA
ATOM     20  H   UNL A   1      38.740  22.466  25.559  1.00  0.00     0.293 HD
ENDBRANCH  18  19
ENDBRANCH  10  13
ENDBRANCH   7   9
ENDBRANCH   6   7
ENDBRANCH   4   6
ENDBRANCH   3   4
ENDBRANCH   2   3
ENDBRANCH   1   2
BRANCH   1  21
ATOM     21  O   UNL A   1      32.140  30.192  26.718  1.00  0.00    -0.374 OA
BRANCH  21  22
ATOM     22  C   UNL A   1      31.346  31.210  26.102  1.00  0.00     0.202 C 
BRANCH  22  23
ATOM     23  C   UNL A   1      31.734  32.654  26.442  1.00  0.00     0.261 C 
BRANCH  23  24
ATOM     24  O   UNL A   1      32.189  32.779  27.809  1.00  0.00    -0.460 OA
BRANCH  24  25
ATOM     25  C   UNL A   1      33.221  33.648  27.961  1.00  0.00     0.338 C 
ATOM     26  O   UNL A   1      33.139  34.865  28.081  1.00  0.00    -0.246 OA
BRANCH  25  27
ATOM     27  C   UNL A   1      34.498  32.939  28.164  1.00  0.00     0.060 A 
ATOM     28  C   UNL A   1      34.432  31.629  28.659  1.00  0.00     0.016 A 
ATOM     29  C   UNL A   1      35.730  33.582  28.035  1.00  0.00     0.016 A 
ATOM     30  C   UNL A   1      35.590  30.981  29.084  1.00  0.00     0.010 A 
ATOM     31  C   UNL A   1      36.895  32.927  28.466  1.00  0.00     0.010 A 
ATOM     32  C   UNL A   1      36.827  31.640  29.034  1.00  0.00    -0.014 A 
BRANCH  32  33
ATOM     33  C   UNL A   1      37.995  31.032  29.730  1.00  0.00     0.031 A 
ATOM     34  C   UNL A   1      38.269  31.397  31.168  1.00  0.00     0.074 A 
ATOM     35  C   UNL A   1      38.758  30.103  29.124  1.00  0.00     0.049 A 
ATOM     36  N   UNL A   1      39.201  30.958  31.975  1.00  0.00    -0.248 NA
ATOM     37  C   UNL A   1      37.368  32.388  31.774  1.00  0.00     0.031 C 
ATOM     38  C   UNL A   1      38.571  29.623  27.755  1.00  0.00     0.029 A 
ATOM     39  N   UNL A   1      39.837  29.389  29.585  1.00  0.00    -0.354 N 
ATOM     40  C   UNL A   1      38.997  31.613  33.186  1.00  0.00     0.074 A 
ATOM     41  C   UNL A   1      37.880  32.514  32.989  1.00  0.00     0.031 C 
ATOM     42  C   UNL A   1      39.503  28.692  27.489  1.00  0.00     0.029 A 
ATOM     43  C   UNL A   1      40.372  28.530  28.654  1.00  0.00     0.049 A 
ATOM     44  H   UNL A   1      40.194  29.484  30.497  1.00  0.00     0.167 HD
ATOM     45  C   UNL A   1      39.668  31.470  34.358  1.00  0.00     0.034 A 
ATOM     46  C   UNL A   1      41.447  27.717  28.726  1.00  0.00     0.034 A 
ATOM     47  C   UNL A   1      40.787  30.579  34.547  1.00  0.00     0.049 A 
ATOM     48  C   UNL A   1      42.233  27.639  30.012  1.00  0.00     0.074 A 
ATOM     49  C   UNL A   1      41.526  30.354  35.697  1.00  0.00     0.029 A 
ATOM     50  N   UNL A   1      41.341  29.773  33.560  1.00  0.00    -0.354 N 
ATOM     51  N   UNL A   1      42.022  28.260  31.150  1.00  0.00    -0.248 NA
ATOM     52  C   UNL A   1      43.396  26.741  30.026  1.00  0.00     0.031 C 
ATOM     53  C   UNL A   1      42.566  29.470  35.388  1.00  0.00     0.029 A 
ATOM     54  C   UNL A   1      42.431  29.079  34.066  1.00  0.00     0.049 A 
ATOM     55  H   UNL A   1      41.007  29.705  32.637  1.00  0.00     0.167 HD
ATOM     56  C   UNL A   1      43.009  27.802  32.022  1.00  0.00     0.074 A 
ATOM     57  C   UNL A   1      43.804  26.845  31.282  1.00  0.00     0.031 C 
ATOM     58  C   UNL A   1      43.231  28.137  33.318  1.00  0.00     0.034 A 
BRANCH  45  59
ATOM     59  C   UNL A   1      39.231  32.340  35.513  1.00  0.00     0.023 A 
ATOM     60  C   UNL A   1      39.657  33.674  35.640  1.00  0.00     0.031 A 
ATOM     61  C   UNL A   1      38.395  31.819  36.517  1.00  0.00     0.131 A 
ATOM     62  C   UNL A   1      39.305  34.417  36.777  1.00  0.00     0.055 A 
ATOM     63  C   UNL A   1      37.985  32.588  37.608  1.00  0.00     0.041 A 
ATOM     64  F   UNL A   1      37.972  30.546  36.460  1.00  0.00    -0.206 F 
ATOM     65  C   UNL A   1      38.453  33.891  37.750  1.00  0.00     0.022 A 
BRANCH  62  66
ATOM     66  S   UNL A   1      40.089  36.032  37.037  1.00  0.00     0.124 S 
ATOM     67  O   UNL A   1      39.267  36.591  38.108  1.00  0.00    -0.237 OA
ATOM     68  O   UNL A   1      41.452  35.664  37.403  1.00  0.00    -0.237 OA
ATOM     69  O   UNL A   1      39.947  36.695  35.742  1.00  0.00    -0.744 OA
ENDBRANCH  62  66
ENDBRANCH  45  59
BRANCH  46  70
ATOM     70  C   UNL A   1      41.879  26.932  27.533  1.00  0.00     0.023 A 
ATOM     71  C   UNL A   1      41.635  25.553  27.438  1.00  0.00     0.031 A 
ATOM     72  C   UNL A   1      42.601  27.547  26.494  1.00  0.00     0.131 A 
ATOM     73  C   UNL A   1      42.150  24.825  26.352  1.00  0.00     0.055 A 
ATOM     74  C   UNL A   1      43.066  26.829  25.393  1.00  0.00     0.041 A 
ATOM     75  F   UNL A   1      42.862  28.863  26.537  1.00  0.00    -0.206 F 
ATOM     76  C   UNL A   1      42.852  25.456  25.324  1.00  0.00     0.022 A 
BRANCH  73  77
ATOM     77  S   UNL A   1      41.959  23.021  26.345  1.00  0.00     0.124 S 
ATOM     78  O   UNL A   1      40.512  22.875  26.434  1.00  0.00    -0.237 OA
ATOM     79  O   UNL A   1      42.564  22.659  25.067  1.00  0.00    -0.237 OA
ATOM     80  O   UNL A   1      42.706  22.596  27.526  1.00  0.00    -0.744 OA
ENDBRANCH  73  77
ENDBRANCH  46  70
BRANCH  58  81
ATOM     81  C   UNL A   1      44.358  27.425  34.030  1.00  0.00     0.023 A 
ATOM     82  C   UNL A   1      44.172  26.180  34.657  1.00  0.00     0.031 A 
ATOM     83  C   UNL A   1      45.634  28.013  34.097  1.00  0.00     0.131 A 
ATOM     84  C   UNL A   1      45.227  25.590  35.371  1.00  0.00     0.055 A 
ATOM     85  C   UNL A   1      46.697  27.394  34.759  1.00  0.00     0.041 A 
ATOM     86  F   UNL A   1      45.871  29.201  33.518  1.00  0.00    -0.206 F 
ATOM     87  C   UNL A   1      46.493  26.182  35.413  1.00  0.00     0.022 A 
BRANCH  84  88
ATOM     88  S   UNL A   1      44.901  24.084  36.328  1.00  0.00     0.124 S 
ATOM     89  O   UNL A   1      44.886  24.591  37.697  1.00  0.00    -0.237 OA
ATOM     90  O   UNL A   1      43.614  23.649  35.796  1.00  0.00    -0.237 OA
ATOM     91  O   UNL A   1      46.031  23.217  36.001  1.00  0.00    -0.744 OA
ENDBRANCH  84  88
ENDBRANCH  58  81
ENDBRANCH  32  33
ENDBRANCH  25  27
ENDBRANCH  24  25
ENDBRANCH  23  24
ENDBRANCH  22  23
ENDBRANCH  21  22
ENDBRANCH   1  21
TORSDOF 21
ENDMDL
MODEL 3
REMARK VINA RESULT:     -10.2      1.474      7.808
REMARK SMILES C[C@@H](CC(=O)OCCOCCOC(=O)c1ccc(-c2c3nc(c(-c4cc(S(=O)(=O)[O-])ccc4F)c4ccc([nH]4)c(-c4cc(S(=O)(=O)[O-])ccc4F)c4nc(c(-c5cc(S(=O)(=O)[O-])ccc5F)c5ccc2[nH]5)C=C4)C=C3)cc1)NC(=O)c1ccc(O)cc1
REMARK SMILES IDX 8 1 7 2 6 3 4 4 5 5 3 6 2 7 1 8 78 9 79 10 80 12 81 13 82 14
REMARK SMILES IDX 87 15 83 16 86 17 84 18 85 19 9 21 10 22 11 23 12 24 13 25
REMARK SMILES IDX 14 26 15 27 16 28 77 29 17 30 76 31 18 32 19 33 20 34 70 35
REMARK SMILES IDX 21 36 75 37 69 38 71 39 22 40 74 41 68 42 67 43 23 45 55 46
REMARK SMILES IDX 35 47 54 48 36 49 39 50 53 51 72 52 37 53 38 54 52 56 73 57
REMARK SMILES IDX 40 58 24 59 25 60 33 61 26 62 32 63 34 64 31 65 27 66 28 67
REMARK SMILES IDX 29 68 30 69 56 70 57 71 65 72 58 73 64 74 66 75 63 76 59 77
REMARK SMILES IDX 60 78 61 79 62 80 41 81 42 82 50 83 43 84 49 85 51 86 48 87
REMARK SMILES IDX 44 88 45 89 46 90 47 91
REMARK H PARENT 78 11 85 20 71 44 39 55
REMARK Flexibility Score: inf
ROOT
ATOM      1  C   UNL A   1      32.493  27.271  26.500  1.00  0.00     0.202 C 
ENDROOT
BRANCH   1   2
ATOM      2  C   UNL A   1      32.385  25.801  26.091  1.00  0.00     0.261 C 
BRANCH   2   3
ATOM      3  O   UNL A   1      31.154  25.526  25.395  1.00  0.00    -0.463 OA
BRANCH   3   4
ATOM      4  C   UNL A   1      31.260  25.374  24.056  1.00  0.00     0.307 C 
ATOM      5  O   UNL A   1      31.416  26.293  23.256  1.00  0.00    -0.252 OA
BRANCH   4   6
ATOM      6  C   UNL A   1      31.208  23.945  23.570  1.00  0.00     0.147 C 
BRANCH   6   7
ATOM      7  C   UNL A   1      32.433  23.021  23.580  1.00  0.00     0.090 C 
ATOM      8  C   UNL A   1      32.919  22.581  22.203  1.00  0.00     0.031 C 
BRANCH   7   9
ATOM      9  N   UNL A   1      32.267  21.867  24.464  1.00  0.00    -0.349 N 
ATOM     10  C   UNL A   1      33.183  21.212  25.254  1.00  0.00     0.251 C 
ATOM     11  H   UNL A   1      31.354  21.500  24.497  1.00  0.00     0.164 HD
ATOM     12  O   UNL A   1      32.852  20.202  25.869  1.00  0.00    -0.269 OA
BRANCH  10  13
ATOM     13  C   UNL A   1      34.587  21.678  25.335  1.00  0.00     0.040 A 
ATOM     14  C   UNL A   1      35.602  20.811  24.914  1.00  0.00     0.017 A 
ATOM     15  C   UNL A   1      34.917  22.932  25.860  1.00  0.00     0.017 A 
ATOM     16  C   UNL A   1      36.935  21.230  24.946  1.00  0.00     0.047 A 
ATOM     17  C   UNL A   1      36.249  23.357  25.876  1.00  0.00     0.047 A 
ATOM     18  C   UNL A   1      37.244  22.507  25.405  1.00  0.00     0.115 A 
BRANCH  18  19
ATOM     19  O   UNL A   1      38.551  22.892  25.383  1.00  0.00    -0.508 OA
ATOM     20  H   UNL A   1      39.209  22.342  25.760  1.00  0.00     0.293 HD
ENDBRANCH  18  19
ENDBRANCH  10  13
ENDBRANCH   7   9
ENDBRANCH   6   7
ENDBRANCH   4   6
ENDBRANCH   3   4
ENDBRANCH   2   3
ENDBRANCH   1   2
BRANCH   1  21
ATOM     21  O   UNL A   1      31.411  28.103  26.083  1.00  0.00    -0.374 OA
BRANCH  21  22
ATOM     22  C   UNL A   1      31.724  29.226  25.253  1.00  0.00     0.202 C 
BRANCH  22  23
ATOM     23  C   UNL A   1      31.530  30.604  25.897  1.00  0.00     0.261 C 
BRANCH  23  24
ATOM     24  O   UNL A   1      32.193  30.695  27.178  1.00  0.00    -0.460 OA
BRANCH  24  25
ATOM     25  C   UNL A   1      32.998  31.782  27.298  1.00  0.00     0.338 C 
ATOM     26  O   UNL A   1      32.653  32.956  27.234  1.00  0.00    -0.246 OA
BRANCH  25  27
ATOM     27  C   UNL A   1      34.360  31.401  27.716  1.00  0.00     0.060 A 
ATOM     28  C   UNL A   1      34.599  30.042  27.959  1.00  0.00     0.016 A 
ATOM     29  C   UNL A   1      35.332  32.354  28.025  1.00  0.00     0.016 A 
ATOM     30  C   UNL A   1      35.786  29.637  28.567  1.00  0.00     0.010 A 
ATOM     31  C   UNL A   1      36.526  31.943  28.640  1.00  0.00     0.010 A 
ATOM     32  C   UNL A   1      36.741  30.587  28.955  1.00  0.00    -0.014 A 
BRANCH  32  33
ATOM     33  C   UNL A   1      37.868  30.159  29.830  1.00  0.00     0.031 A 
ATOM     34  C   UNL A   1      38.898  29.197  29.289  1.00  0.00     0.074 A 
ATOM     35  C   UNL A   1      38.028  30.681  31.061  1.00  0.00     0.049 A 
ATOM     36  N   UNL A   1      39.978  28.727  29.860  1.00  0.00    -0.248 NA
ATOM     37  C   UNL A   1      38.677  28.703  27.923  1.00  0.00     0.031 C 
ATOM     38  C   UNL A   1      37.135  31.657  31.683  1.00  0.00     0.029 A 
ATOM     39  N   UNL A   1      39.004  30.470  32.004  1.00  0.00    -0.354 N 
ATOM     40  C   UNL A   1      40.570  27.887  28.922  1.00  0.00     0.074 A 
ATOM     41  C   UNL A   1      39.700  27.878  27.763  1.00  0.00     0.031 C 
ATOM     42  C   UNL A   1      37.607  31.962  32.904  1.00  0.00     0.029 A 
ATOM     43  C   UNL A   1      38.817  31.182  33.165  1.00  0.00     0.049 A 
ATOM     44  H   UNL A   1      39.767  29.864  31.861  1.00  0.00     0.167 HD
ATOM     45  C   UNL A   1      41.736  27.196  29.009  1.00  0.00     0.034 A 
ATOM     46  C   UNL A   1      39.528  31.194  34.312  1.00  0.00     0.034 A 
ATOM     47  C   UNL A   1      42.594  27.200  30.170  1.00  0.00     0.049 A 
ATOM     48  C   UNL A   1      40.774  30.349  34.420  1.00  0.00     0.074 A 
ATOM     49  C   UNL A   1      43.800  26.543  30.352  1.00  0.00     0.029 A 
ATOM     50  N   UNL A   1      42.335  27.883  31.351  1.00  0.00    -0.354 N 
ATOM     51  N   UNL A   1      41.324  29.566  33.520  1.00  0.00    -0.248 NA
ATOM     52  C   UNL A   1      41.501  30.400  35.696  1.00  0.00     0.031 C 
ATOM     53  C   UNL A   1      44.232  26.770  31.664  1.00  0.00     0.029 A 
ATOM     54  C   UNL A   1      43.339  27.634  32.277  1.00  0.00     0.049 A 
ATOM     55  H   UNL A   1      41.553  28.460  31.508  1.00  0.00     0.167 HD
ATOM     56  C   UNL A   1      42.478  29.057  34.114  1.00  0.00     0.074 A 
ATOM     57  C   UNL A   1      42.550  29.633  35.441  1.00  0.00     0.031 C 
ATOM     58  C   UNL A   1      43.397  28.199  33.605  1.00  0.00     0.034 A 
BRANCH  45  59
ATOM     59  C   UNL A   1      42.120  26.339  27.827  1.00  0.00     0.023 A 
ATOM     60  C   UNL A   1      41.778  24.977  27.755  1.00  0.00     0.031 A 
ATOM     61  C   UNL A   1      42.862  26.887  26.764  1.00  0.00     0.131 A 
ATOM     62  C   UNL A   1      42.236  24.195  26.684  1.00  0.00     0.055 A 
ATOM     63  C   UNL A   1      43.249  26.122  25.663  1.00  0.00     0.041 A 
ATOM     64  F   UNL A   1      43.233  28.177  26.786  1.00  0.00    -0.206 F 
ATOM     65  C   UNL A   1      42.950  24.763  25.626  1.00  0.00     0.022 A 
BRANCH  62  66
ATOM     66  S   UNL A   1      42.010  22.397  26.761  1.00  0.00     0.124 S 
ATOM     67  O   UNL A   1      40.622  22.293  27.207  1.00  0.00    -0.237 OA
ATOM     68  O   UNL A   1      42.272  21.987  25.386  1.00  0.00    -0.237 OA
ATOM     69  O   UNL A   1      43.005  21.967  27.741  1.00  0.00    -0.744 OA
ENDBRANCH  62  66
ENDBRANCH  45  59
BRANCH  46  70
ATOM     70  C   UNL A   1      39.065  32.004  35.476  1.00  0.00     0.023 A 
ATOM     71  C   UNL A   1      38.422  31.408  36.572  1.00  0.00     0.031 A 
ATOM     72  C   UNL A   1      39.209  33.404  35.476  1.00  0.00     0.131 A 
ATOM     73  C   UNL A   1      37.904  32.214  37.600  1.00  0.00     0.055 A 
ATOM     74  C   UNL A   1      38.737  34.194  36.524  1.00  0.00     0.041 A 
ATOM     75  F   UNL A   1      39.815  34.023  34.450  1.00  0.00    -0.206 F 
ATOM     76  C   UNL A   1      38.068  33.600  37.589  1.00  0.00     0.022 A 
BRANCH  73  77
ATOM     77  S   UNL A   1      36.935  31.427  38.917  1.00  0.00     0.124 S 
ATOM     78  O   UNL A   1      35.748  32.273  38.958  1.00  0.00    -0.237 OA
ATOM     79  O   UNL A   1      36.746  30.080  38.388  1.00  0.00    -0.237 OA
ATOM     80  O   UNL A   1      37.810  31.519  40.083  1.00  0.00    -0.744 OA
ENDBRANCH  73  77
ENDBRANCH  46  70
BRANCH  58  81
ATOM     81  C   UNL A   1      44.587  27.866  34.476  1.00  0.00     0.023 A 
ATOM     82  C   UNL A   1      44.581  26.765  35.352  1.00  0.00     0.031 A 
ATOM     83  C   UNL A   1      45.737  28.675  34.440  1.00  0.00     0.131 A 
ATOM     84  C   UNL A   1      45.679  26.538  36.198  1.00  0.00     0.055 A 
ATOM     85  C   UNL A   1      46.851  28.409  35.240  1.00  0.00     0.041 A 
ATOM     86  F   UNL A   1      45.800  29.739  33.624  1.00  0.00    -0.206 F 
ATOM     87  C   UNL A   1      46.820  27.344  36.136  1.00  0.00     0.022 A 
BRANCH  84  88
ATOM     88  S   UNL A   1      45.562  25.231  37.450  1.00  0.00     0.124 S 
ATOM     89  O   UNL A   1      44.145  25.272  37.801  1.00  0.00    -0.237 OA
ATOM     90  O   UNL A   1      46.001  24.052  36.712  1.00  0.00    -0.237 OA
ATOM     91  O   UNL A   1      46.473  25.678  38.501  1.00  0.00    -0.744 OA
ENDBRANCH  84  88
ENDBRANCH  58  81
ENDBRANCH  32  33
ENDBRANCH  25  27
ENDBRANCH  24  25
ENDBRANCH  23  24
ENDBRANCH  22  23
ENDBRANCH  21  22
ENDBRANCH   1  21
TORSDOF 21
ENDMDL
