MODEL 1
REMARK VINA RESULT:     -11.7      0.000      0.000
REMARK SMILES NC(=O)C[C@H](NC(=O)C1(c2ccccc2)CCN(C(=O)[C@@H]2CCC[NH2+]2)CC1)C(=O)OCCOCCOC(=O)c1ccc(-c2c3nc(c(-c4cc(S(=O)(=O)[O-])ccc4F)c4ccc([nH]4)c(-c4cc(S(=O)(=O)[O-])ccc4F)c4nc(c(-c5cc(S(=O)(=O)[O-])ccc5F)c5ccc2[nH]5)C=C4)C=C3)cc1
REMARK SMILES IDX 33 1 32 2 31 3 30 4 28 5 29 6 5 7 4 8 2 9 1 10 3 13 6 14
REMARK SMILES IDX 7 15 8 17 9 18 16 19 27 20 17 21 26 22 18 23 19 24 20 25
REMARK SMILES IDX 10 26 11 27 15 28 12 29 14 30 13 31 21 32 22 33 25 34 23 35
REMARK SMILES IDX 24 36 34 39 35 40 36 41 37 42 38 43 39 44 40 45 101 46 41 47
REMARK SMILES IDX 100 48 42 49 43 50 44 51 94 52 45 53 99 54 93 55 95 56 46 57
REMARK SMILES IDX 98 58 92 59 91 60 47 62 79 63 59 64 78 65 60 66 63 67 77 68
REMARK SMILES IDX 96 69 61 70 62 71 76 73 97 74 64 75 48 76 49 77 57 78 50 79
REMARK SMILES IDX 56 80 58 81 55 82 51 83 52 84 53 85 54 86 80 87 81 88 89 89
REMARK SMILES IDX 82 90 88 91 90 92 87 93 83 94 84 95 85 96 86 97 65 98 66 99
REMARK SMILES IDX 74 100 67 101 73 102 75 103 72 104 68 105 69 106 70 107
REMARK SMILES IDX 71 108
REMARK H PARENT 1 11 1 12 6 16 25 37 25 38 95 61 63 72
REMARK Flexibility Score: inf
ROOT
ATOM      1  O   UNL A   1      35.961  20.253  24.727  1.00  0.00    -0.374 OA
ENDROOT
BRANCH   1   2
ATOM      2  C   UNL A   1      35.717  21.219  25.751  1.00  0.00     0.202 C 
BRANCH   2   3
ATOM      3  C   UNL A   1      35.598  22.680  25.324  1.00  0.00     0.261 C 
BRANCH   3   4
ATOM      4  O   UNL A   1      34.321  23.221  25.705  1.00  0.00    -0.462 OA
BRANCH   4   5
ATOM      5  C   UNL A   1      33.446  23.329  24.677  1.00  0.00     0.329 C 
ATOM      6  O   UNL A   1      33.245  22.477  23.818  1.00  0.00    -0.250 OA
BRANCH   5   7
ATOM      7  C   UNL A   1      32.665  24.649  24.691  1.00  0.00     0.201 C 
BRANCH   7   8
ATOM      8  C   UNL A   1      31.176  24.315  24.852  1.00  0.00     0.136 C 
BRANCH   8   9
ATOM      9  C   UNL A   1      30.762  24.355  26.304  1.00  0.00     0.220 C 
ATOM     10  N   UNL A   1      29.424  24.391  26.542  1.00  0.00    -0.370 N 
ATOM     11  H   UNL A   1      29.089  24.418  27.466  1.00  0.00     0.159 HD
ATOM     12  H   UNL A   1      28.790  24.389  25.789  1.00  0.00     0.159 HD
ATOM     13  O   UNL A   1      31.566  24.316  27.226  1.00  0.00    -0.275 OA
ENDBRANCH   8   9
ENDBRANCH   7   8
BRANCH   7  14
ATOM     14  N   UNL A   1      32.870  25.638  23.614  1.00  0.00    -0.342 N 
ATOM     15  C   UNL A   1      32.104  26.690  23.191  1.00  0.00     0.231 C 
ATOM     16  H   UNL A   1      33.708  25.519  23.111  1.00  0.00     0.164 HD
ATOM     17  O   UNL A   1      32.056  26.815  21.958  1.00  0.00    -0.274 OA
BRANCH  15  18
ATOM     18  C   UNL A   1      31.413  27.785  24.104  1.00  0.00     0.077 C 
ATOM     19  C   UNL A   1      30.052  27.447  24.751  1.00  0.00     0.043 C 
ATOM     20  C   UNL A   1      31.211  29.077  23.246  1.00  0.00     0.043 C 
ATOM     21  C   UNL A   1      28.846  27.502  23.816  1.00  0.00     0.121 C 
ATOM     22  C   UNL A   1      30.016  29.018  22.308  1.00  0.00     0.121 C 
ATOM     23  N   UNL A   1      28.791  28.724  23.043  1.00  0.00    -0.337 N 
ATOM     24  C   UNL A   1      27.536  29.305  22.888  1.00  0.00     0.280 C 
ATOM     25  O   UNL A   1      26.528  28.765  23.362  1.00  0.00    -0.268 OA
BRANCH  18  26
ATOM     26  C   UNL A   1      32.416  28.100  25.277  1.00  0.00    -0.032 A 
ATOM     27  C   UNL A   1      33.792  28.344  25.084  1.00  0.00     0.005 A 
ATOM     28  C   UNL A   1      31.950  28.160  26.601  1.00  0.00     0.005 A 
ATOM     29  C   UNL A   1      34.643  28.640  26.157  1.00  0.00     0.000 A 
ATOM     30  C   UNL A   1      32.805  28.419  27.679  1.00  0.00     0.000 A 
ATOM     31  C   UNL A   1      34.152  28.666  27.456  1.00  0.00     0.000 A 
ENDBRANCH  18  26
BRANCH  24  32
ATOM     32  C   UNL A   1      27.355  30.626  22.134  1.00  0.00     0.272 C 
ATOM     33  C   UNL A   1      28.002  30.701  20.766  1.00  0.00     0.081 C 
ATOM     34  N   UNL A   1      27.804  31.804  22.910  1.00  0.00    -0.336 N 
ATOM     35  C   UNL A   1      28.195  32.191  20.579  1.00  0.00     0.068 C 
ATOM     36  C   UNL A   1      28.472  32.713  21.980  1.00  0.00     0.261 C 
ATOM     37  H   UNL A   1      28.455  31.512  23.639  1.00  0.00     0.346 HD
ATOM     38  H   UNL A   1      27.012  32.264  23.356  1.00  0.00     0.346 HD
ENDBRANCH  24  32
ENDBRANCH  15  18
ENDBRANCH   7  14
ENDBRANCH   5   7
ENDBRANCH   4   5
ENDBRANCH   3   4
ENDBRANCH   2   3
ENDBRANCH   1   2
BRANCH   1  39
ATOM     39  C   UNL A   1      37.011  19.315  24.918  1.00  0.00     0.202 C 
BRANCH  39  40
ATOM     40  C   UNL A   1      38.466  19.811  24.970  1.00  0.00     0.261 C 
BRANCH  40  41
ATOM     41  O   UNL A   1      38.840  20.425  26.203  1.00  0.00    -0.460 OA
BRANCH  41  42
ATOM     42  C   UNL A   1      40.178  20.442  26.416  1.00  0.00     0.338 C 
ATOM     43  O   UNL A   1      40.997  19.601  26.069  1.00  0.00    -0.246 OA
BRANCH  42  44
ATOM     44  C   UNL A   1      40.554  21.750  26.962  1.00  0.00     0.060 A 
ATOM     45  C   UNL A   1      40.033  22.878  26.321  1.00  0.00     0.016 A 
ATOM     46  C   UNL A   1      41.406  21.869  28.063  1.00  0.00     0.016 A 
ATOM     47  C   UNL A   1      40.389  24.143  26.764  1.00  0.00     0.010 A 
ATOM     48  C   UNL A   1      41.775  23.143  28.497  1.00  0.00     0.010 A 
ATOM     49  C   UNL A   1      41.289  24.280  27.829  1.00  0.00    -0.014 A 
BRANCH  49  50
ATOM     50  C   UNL A   1      41.821  25.628  28.117  1.00  0.00     0.031 A 
ATOM     51  C   UNL A   1      43.194  25.977  27.617  1.00  0.00     0.074 A 
ATOM     52  C   UNL A   1      41.044  26.542  28.722  1.00  0.00     0.049 A 
ATOM     53  N   UNL A   1      43.826  27.120  27.660  1.00  0.00    -0.248 NA
ATOM     54  C   UNL A   1      43.953  24.890  26.980  1.00  0.00     0.031 C 
ATOM     55  C   UNL A   1      39.684  26.301  29.204  1.00  0.00     0.029 A 
ATOM     56  N   UNL A   1      41.278  27.858  29.017  1.00  0.00    -0.354 N 
ATOM     57  C   UNL A   1      45.051  26.895  27.042  1.00  0.00     0.074 A 
ATOM     58  C   UNL A   1      45.091  25.495  26.678  1.00  0.00     0.031 C 
ATOM     59  C   UNL A   1      39.198  27.439  29.726  1.00  0.00     0.029 A 
ATOM     60  C   UNL A   1      40.221  28.479  29.639  1.00  0.00     0.049 A 
ATOM     61  H   UNL A   1      42.122  28.317  28.804  1.00  0.00     0.167 HD
ATOM     62  C   UNL A   1      46.043  27.784  26.789  1.00  0.00     0.034 A 
ATOM     63  C   UNL A   1      40.102  29.743  30.089  1.00  0.00     0.034 A 
ATOM     64  C   UNL A   1      45.984  29.169  27.186  1.00  0.00     0.049 A 
ATOM     65  C   UNL A   1      41.253  30.693  29.868  1.00  0.00     0.074 A 
ATOM     66  C   UNL A   1      46.923  30.166  26.991  1.00  0.00     0.029 A 
ATOM     67  N   UNL A   1      44.926  29.751  27.878  1.00  0.00    -0.354 N 
ATOM     68  N   UNL A   1      42.401  30.476  29.264  1.00  0.00    -0.248 NA
ATOM     69  C   UNL A   1      41.086  32.060  30.374  1.00  0.00     0.031 C 
ATOM     70  C   UNL A   1      46.467  31.327  27.625  1.00  0.00     0.029 A 
ATOM     71  C   UNL A   1      45.207  31.081  28.150  1.00  0.00     0.049 A 
ATOM     72  H   UNL A   1      44.099  29.285  28.137  1.00  0.00     0.167 HD
ATOM     73  C   UNL A   1      43.085  31.688  29.302  1.00  0.00     0.074 A 
ATOM     74  C   UNL A   1      42.206  32.635  29.962  1.00  0.00     0.031 C 
ATOM     75  C   UNL A   1      44.324  31.996  28.836  1.00  0.00     0.034 A 
BRANCH  62  76
ATOM     76  C   UNL A   1      47.284  27.259  26.109  1.00  0.00     0.023 A 
ATOM     77  C   UNL A   1      48.240  26.490  26.797  1.00  0.00     0.031 A 
ATOM     78  C   UNL A   1      47.539  27.571  24.762  1.00  0.00     0.131 A 
ATOM     79  C   UNL A   1      49.435  26.120  26.159  1.00  0.00     0.055 A 
ATOM     80  C   UNL A   1      48.694  27.134  24.110  1.00  0.00     0.041 A 
ATOM     81  F   UNL A   1      46.677  28.324  24.060  1.00  0.00    -0.206 F 
ATOM     82  C   UNL A   1      49.657  26.417  24.812  1.00  0.00     0.022 A 
BRANCH  79  83
ATOM     83  S   UNL A   1      50.757  25.371  27.150  1.00  0.00     0.124 S 
ATOM     84  O   UNL A   1      50.024  24.351  27.898  1.00  0.00    -0.237 OA
ATOM     85  O   UNL A   1      51.675  24.878  26.130  1.00  0.00    -0.237 OA
ATOM     86  O   UNL A   1      51.257  26.484  27.954  1.00  0.00    -0.744 OA
ENDBRANCH  79  83
ENDBRANCH  62  76
BRANCH  63  87
ATOM     87  C   UNL A   1      38.873  30.176  30.814  1.00  0.00     0.023 A 
ATOM     88  C   UNL A   1      37.873  30.927  30.176  1.00  0.00     0.031 A 
ATOM     89  C   UNL A   1      38.703  29.879  32.178  1.00  0.00     0.131 A 
ATOM     90  C   UNL A   1      36.770  31.389  30.912  1.00  0.00     0.055 A 
ATOM     91  C   UNL A   1      37.580  30.296  32.892  1.00  0.00     0.041 A 
ATOM     92  F   UNL A   1      39.630  29.165  32.839  1.00  0.00    -0.206 F 
ATOM     93  C   UNL A   1      36.609  31.068  32.262  1.00  0.00     0.022 A 
BRANCH  90  94
ATOM     94  S   UNL A   1      35.581  32.492  30.096  1.00  0.00     0.124 S 
ATOM     95  O   UNL A   1      35.470  31.887  28.774  1.00  0.00    -0.237 OA
ATOM     96  O   UNL A   1      34.412  32.368  30.959  1.00  0.00    -0.237 OA
ATOM     97  O   UNL A   1      36.245  33.794  30.133  1.00  0.00    -0.744 OA
ENDBRANCH  90  94
ENDBRANCH  63  87
BRANCH  75  98
ATOM     98  C   UNL A   1      44.776  33.425  29.017  1.00  0.00     0.023 A 
ATOM     99  C   UNL A   1      45.549  33.816  30.124  1.00  0.00     0.031 A 
ATOM    100  C   UNL A   1      44.405  34.412  28.087  1.00  0.00     0.131 A 
ATOM    101  C   UNL A   1      45.864  35.169  30.313  1.00  0.00     0.055 A 
ATOM    102  C   UNL A   1      44.780  35.747  28.244  1.00  0.00     0.041 A 
ATOM    103  F   UNL A   1      43.666  34.096  27.011  1.00  0.00    -0.206 F 
ATOM    104  C   UNL A   1      45.500  36.135  29.371  1.00  0.00     0.022 A 
BRANCH 101 105
ATOM    105  S   UNL A   1      46.660  35.666  31.865  1.00  0.00     0.124 S 
ATOM    106  O   UNL A   1      48.064  35.743  31.475  1.00  0.00    -0.237 OA
ATOM    107  O   UNL A   1      46.007  36.938  32.157  1.00  0.00    -0.237 OA
ATOM    108  O   UNL A   1      46.331  34.576  32.782  1.00  0.00    -0.744 OA
ENDBRANCH 101 105
ENDBRANCH  75  98
ENDBRANCH  49  50
ENDBRANCH  42  44
ENDBRANCH  41  42
ENDBRANCH  40  41
ENDBRANCH  39  40
ENDBRANCH   1  39
TORSDOF 23
ENDMDL
MODEL 2
REMARK VINA RESULT:     -11.6      4.635     10.412
REMARK SMILES NC(=O)C[C@H](NC(=O)C1(c2ccccc2)CCN(C(=O)[C@@H]2CCC[NH2+]2)CC1)C(=O)OCCOCCOC(=O)c1ccc(-c2c3nc(c(-c4cc(S(=O)(=O)[O-])ccc4F)c4ccc([nH]4)c(-c4cc(S(=O)(=O)[O-])ccc4F)c4nc(c(-c5cc(S(=O)(=O)[O-])ccc5F)c5ccc2[nH]5)C=C4)C=C3)cc1
REMARK SMILES IDX 33 1 32 2 31 3 30 4 28 5 29 6 5 7 4 8 2 9 1 10 3 13 6 14
REMARK SMILES IDX 7 15 8 17 9 18 16 19 27 20 17 21 26 22 18 23 19 24 20 25
REMARK SMILES IDX 10 26 11 27 15 28 12 29 14 30 13 31 21 32 22 33 25 34 23 35
REMARK SMILES IDX 24 36 34 39 35 40 36 41 37 42 38 43 39 44 40 45 101 46 41 47
REMARK SMILES IDX 100 48 42 49 43 50 44 51 94 52 45 53 99 54 93 55 95 56 46 57
REMARK SMILES IDX 98 58 92 59 91 60 47 62 79 63 59 64 78 65 60 66 63 67 77 68
REMARK SMILES IDX 96 69 61 70 62 71 76 73 97 74 64 75 48 76 49 77 57 78 50 79
REMARK SMILES IDX 56 80 58 81 55 82 51 83 52 84 53 85 54 86 80 87 81 88 89 89
REMARK SMILES IDX 82 90 88 91 90 92 87 93 83 94 84 95 85 96 86 97 65 98 66 99
REMARK SMILES IDX 74 100 67 101 73 102 75 103 72 104 68 105 69 106 70 107
REMARK SMILES IDX 71 108
REMARK H PARENT 1 11 1 12 6 16 25 37 25 38 95 61 63 72
REMARK Flexibility Score: inf
ROOT
ATOM      1  O   UNL A   1      31.461  28.341  24.822  1.00  0.00    -0.374 OA
ENDROOT
BRANCH   1   2
ATOM      2  C   UNL A   1      30.389  28.056  23.922  1.00  0.00     0.202 C 
BRANCH   2   3
ATOM      3  C   UNL A   1      30.019  26.590  23.712  1.00  0.00     0.261 C 
BRANCH   3   4
ATOM      4  O   UNL A   1      30.556  25.772  24.766  1.00  0.00    -0.462 OA
BRANCH   4   5
ATOM      5  C   UNL A   1      31.520  24.914  24.354  1.00  0.00     0.329 C 
ATOM      6  O   UNL A   1      31.355  23.966  23.593  1.00  0.00    -0.250 OA
BRANCH   5   7
ATOM      7  C   UNL A   1      32.906  25.257  24.914  1.00  0.00     0.201 C 
BRANCH   7   8
ATOM      8  C   UNL A   1      33.930  25.071  23.786  1.00  0.00     0.136 C 
BRANCH   8   9
ATOM      9  C   UNL A   1      33.775  26.137  22.728  1.00  0.00     0.220 C 
ATOM     10  N   UNL A   1      33.811  27.423  23.167  1.00  0.00    -0.370 N 
ATOM     11  H   UNL A   1      33.716  28.164  22.527  1.00  0.00     0.159 HD
ATOM     12  H   UNL A   1      33.934  27.613  24.125  1.00  0.00     0.159 HD
ATOM     13  O   UNL A   1      33.665  25.880  21.536  1.00  0.00    -0.275 OA
ENDBRANCH   8   9
ENDBRANCH   7   8
BRANCH   7  14
ATOM     14  N   UNL A   1      33.374  24.621  26.161  1.00  0.00    -0.342 N 
ATOM     15  C   UNL A   1      33.666  23.318  26.461  1.00  0.00     0.231 C 
ATOM     16  H   UNL A   1      33.499  25.246  26.912  1.00  0.00     0.164 HD
ATOM     17  O   UNL A   1      33.272  22.958  27.581  1.00  0.00    -0.274 OA
BRANCH  15  18
ATOM     18  C   UNL A   1      34.536  22.319  25.592  1.00  0.00     0.077 C 
ATOM     19  C   UNL A   1      34.285  22.264  24.069  1.00  0.00     0.043 C 
ATOM     20  C   UNL A   1      34.321  20.874  26.150  1.00  0.00     0.043 C 
ATOM     21  C   UNL A   1      33.031  21.510  23.634  1.00  0.00     0.121 C 
ATOM     22  C   UNL A   1      33.020  20.224  25.705  1.00  0.00     0.121 C 
ATOM     23  N   UNL A   1      32.919  20.206  24.250  1.00  0.00    -0.337 N 
ATOM     24  C   UNL A   1      32.478  19.169  23.433  1.00  0.00     0.280 C 
ATOM     25  O   UNL A   1      32.166  19.384  22.254  1.00  0.00    -0.268 OA
BRANCH  18  26
ATOM     26  C   UNL A   1      36.043  22.729  25.798  1.00  0.00    -0.032 A 
ATOM     27  C   UNL A   1      36.453  24.010  26.221  1.00  0.00     0.005 A 
ATOM     28  C   UNL A   1      37.063  21.790  25.566  1.00  0.00     0.005 A 
ATOM     29  C   UNL A   1      37.806  24.323  26.410  1.00  0.00     0.000 A 
ATOM     30  C   UNL A   1      38.416  22.111  25.718  1.00  0.00     0.000 A 
ATOM     31  C   UNL A   1      38.789  23.378  26.146  1.00  0.00     0.000 A 
ENDBRANCH  18  26
BRANCH  24  32
ATOM     32  C   UNL A   1      32.366  17.733  23.955  1.00  0.00     0.272 C 
ATOM     33  C   UNL A   1      32.383  17.573  25.461  1.00  0.00     0.081 C 
ATOM     34  N   UNL A   1      33.396  16.830  23.394  1.00  0.00    -0.336 N 
ATOM     35  C   UNL A   1      32.878  16.152  25.632  1.00  0.00     0.068 C 
ATOM     36  C   UNL A   1      33.838  15.946  24.471  1.00  0.00     0.261 C 
ATOM     37  H   UNL A   1      34.185  17.376  23.045  1.00  0.00     0.346 HD
ATOM     38  H   UNL A   1      33.016  16.288  22.618  1.00  0.00     0.346 HD
ENDBRANCH  24  32
ENDBRANCH  15  18
ENDBRANCH   7  14
ENDBRANCH   5   7
ENDBRANCH   4   5
ENDBRANCH   3   4
ENDBRANCH   2   3
ENDBRANCH   1   2
BRANCH   1  39
ATOM     39  C   UNL A   1      31.569  29.657  25.350  1.00  0.00     0.202 C 
BRANCH  39  40
ATOM     40  C   UNL A   1      32.924  30.140  25.898  1.00  0.00     0.261 C 
BRANCH  40  41
ATOM     41  O   UNL A   1      32.912  30.492  27.281  1.00  0.00    -0.460 OA
BRANCH  41  42
ATOM     42  C   UNL A   1      33.594  31.630  27.555  1.00  0.00     0.338 C 
ATOM     43  O   UNL A   1      33.159  32.775  27.561  1.00  0.00    -0.246 OA
BRANCH  42  44
ATOM     44  C   UNL A   1      34.924  31.275  28.059  1.00  0.00     0.060 A 
ATOM     45  C   UNL A   1      35.106  29.960  28.499  1.00  0.00     0.016 A 
ATOM     46  C   UNL A   1      35.962  32.209  28.115  1.00  0.00     0.016 A 
ATOM     47  C   UNL A   1      36.329  29.577  29.028  1.00  0.00     0.010 A 
ATOM     48  C   UNL A   1      37.188  31.825  28.663  1.00  0.00     0.010 A 
ATOM     49  C   UNL A   1      37.361  30.517  29.147  1.00  0.00    -0.014 A 
BRANCH  49  50
ATOM     50  C   UNL A   1      38.559  30.136  29.924  1.00  0.00     0.031 A 
ATOM     51  C   UNL A   1      38.710  30.677  31.317  1.00  0.00     0.074 A 
ATOM     52  C   UNL A   1      39.430  29.246  29.421  1.00  0.00     0.049 A 
ATOM     53  N   UNL A   1      39.615  30.406  32.218  1.00  0.00    -0.248 NA
ATOM     54  C   UNL A   1      37.698  31.653  31.751  1.00  0.00     0.031 C 
ATOM     55  C   UNL A   1      39.340  28.639  28.093  1.00  0.00     0.029 A 
ATOM     56  N   UNL A   1      40.550  28.682  29.973  1.00  0.00    -0.354 N 
ATOM     57  C   UNL A   1      39.276  31.164  33.333  1.00  0.00     0.074 A 
ATOM     58  C   UNL A   1      38.110  31.943  32.975  1.00  0.00     0.031 C 
ATOM     59  C   UNL A   1      40.358  27.776  27.937  1.00  0.00     0.029 A 
ATOM     60  C   UNL A   1      41.184  27.790  29.142  1.00  0.00     0.049 A 
ATOM     61  H   UNL A   1      40.869  28.895  30.880  1.00  0.00     0.167 HD
ATOM     62  C   UNL A   1      39.877  31.193  34.547  1.00  0.00     0.034 A 
ATOM     63  C   UNL A   1      42.309  27.074  29.336  1.00  0.00     0.034 A 
ATOM     64  C   UNL A   1      41.054  30.423  34.866  1.00  0.00     0.049 A 
ATOM     65  C   UNL A   1      43.006  27.185  30.670  1.00  0.00     0.074 A 
ATOM     66  C   UNL A   1      41.757  30.368  36.056  1.00  0.00     0.029 A 
ATOM     67  N   UNL A   1      41.715  29.580  33.977  1.00  0.00    -0.354 N 
ATOM     68  N   UNL A   1      42.666  27.891  31.726  1.00  0.00    -0.248 NA
ATOM     69  C   UNL A   1      44.228  26.392  30.843  1.00  0.00     0.031 C 
ATOM     70  C   UNL A   1      42.878  29.551  35.866  1.00  0.00     0.029 A 
ATOM     71  C   UNL A   1      42.836  29.032  34.581  1.00  0.00     0.049 A 
ATOM     72  H   UNL A   1      41.427  29.399  33.053  1.00  0.00     0.167 HD
ATOM     73  C   UNL A   1      43.625  27.610  32.695  1.00  0.00     0.074 A 
ATOM     74  C   UNL A   1      44.537  26.649  32.105  1.00  0.00     0.031 C 
ATOM     75  C   UNL A   1      43.745  28.097  33.958  1.00  0.00     0.034 A 
BRANCH  62  76
ATOM     76  C   UNL A   1      39.301  32.130  35.581  1.00  0.00     0.023 A 
ATOM     77  C   UNL A   1      39.733  33.463  35.699  1.00  0.00     0.031 A 
ATOM     78  C   UNL A   1      38.336  31.669  36.495  1.00  0.00     0.131 A 
ATOM     79  C   UNL A   1      39.255  34.266  36.748  1.00  0.00     0.055 A 
ATOM     80  C   UNL A   1      37.808  32.496  37.488  1.00  0.00     0.041 A 
ATOM     81  F   UNL A   1      37.904  30.398  36.450  1.00  0.00    -0.206 F 
ATOM     82  C   UNL A   1      38.277  33.797  37.628  1.00  0.00     0.022 A 
BRANCH  79  83
ATOM     83  S   UNL A   1      40.032  35.880  37.033  1.00  0.00     0.124 S 
ATOM     84  O   UNL A   1      39.342  36.331  38.240  1.00  0.00    -0.237 OA
ATOM     85  O   UNL A   1      41.438  35.529  37.195  1.00  0.00    -0.237 OA
ATOM     86  O   UNL A   1      39.713  36.634  35.823  1.00  0.00    -0.744 OA
ENDBRANCH  79  83
ENDBRANCH  62  76
BRANCH  63  87
ATOM     87  C   UNL A   1      42.860  26.221  28.246  1.00  0.00     0.023 A 
ATOM     88  C   UNL A   1      43.980  26.619  27.499  1.00  0.00     0.031 A 
ATOM     89  C   UNL A   1      42.241  25.005  27.904  1.00  0.00     0.131 A 
ATOM     90  C   UNL A   1      44.421  25.830  26.424  1.00  0.00     0.055 A 
ATOM     91  C   UNL A   1      42.714  24.199  26.869  1.00  0.00     0.041 A 
ATOM     92  F   UNL A   1      41.165  24.576  28.585  1.00  0.00    -0.206 F 
ATOM     93  C   UNL A   1      43.804  24.617  26.112  1.00  0.00     0.022 A 
BRANCH  90  94
ATOM     94  S   UNL A   1      45.767  26.456  25.380  1.00  0.00     0.124 S 
ATOM     95  O   UNL A   1      46.779  26.799  26.372  1.00  0.00    -0.237 OA
ATOM     96  O   UNL A   1      46.059  25.301  24.538  1.00  0.00    -0.237 OA
ATOM     97  O   UNL A   1      45.162  27.591  24.688  1.00  0.00    -0.744 OA
ENDBRANCH  90  94
ENDBRANCH  63  87
BRANCH  75  98
ATOM     98  C   UNL A   1      44.900  27.572  34.776  1.00  0.00     0.023 A 
ATOM     99  C   UNL A   1      44.774  26.416  35.566  1.00  0.00     0.031 A 
ATOM    100  C   UNL A   1      46.130  28.254  34.791  1.00  0.00     0.131 A 
ATOM    101  C   UNL A   1      45.835  26.015  36.391  1.00  0.00     0.055 A 
ATOM    102  C   UNL A   1      47.205  27.811  35.563  1.00  0.00     0.041 A 
ATOM    103  F   UNL A   1      46.305  29.364  34.057  1.00  0.00    -0.206 F 
ATOM    104  C   UNL A   1      47.056  26.695  36.382  1.00  0.00     0.022 A 
BRANCH 101 105
ATOM    105  S   UNL A   1      45.557  24.659  37.564  1.00  0.00     0.124 S 
ATOM    106  O   UNL A   1      45.003  23.621  36.701  1.00  0.00    -0.237 OA
ATOM    107  O   UNL A   1      46.900  24.412  38.079  1.00  0.00    -0.237 OA
ATOM    108  O   UNL A   1      44.619  25.229  38.529  1.00  0.00    -0.744 OA
ENDBRANCH 101 105
ENDBRANCH  75  98
ENDBRANCH  49  50
ENDBRANCH  42  44
ENDBRANCH  41  42
ENDBRANCH  40  41
ENDBRANCH  39  40
ENDBRANCH   1  39
TORSDOF 23
ENDMDL
MODEL 3
REMARK VINA RESULT:     -11.3      2.430      4.019
REMARK SMILES NC(=O)C[C@H](NC(=O)C1(c2ccccc2)CCN(C(=O)[C@@H]2CCC[NH2+]2)CC1)C(=O)OCCOCCOC(=O)c1ccc(-c2c3nc(c(-c4cc(S(=O)(=O)[O-])ccc4F)c4ccc([nH]4)c(-c4cc(S(=O)(=O)[O-])ccc4F)c4nc(c(-c5cc(S(=O)(=O)[O-])ccc5F)c5ccc2[nH]5)C=C4)C=C3)cc1
REMARK SMILES IDX 33 1 32 2 31 3 30 4 28 5 29 6 5 7 4 8 2 9 1 10 3 13 6 14
REMARK SMILES IDX 7 15 8 17 9 18 16 19 27 20 17 21 26 22 18 23 19 24 20 25
REMARK SMILES IDX 10 26 11 27 15 28 12 29 14 30 13 31 21 32 22 33 25 34 23 35
REMARK SMILES IDX 24 36 34 39 35 40 36 41 37 42 38 43 39 44 40 45 101 46 41 47
REMARK SMILES IDX 100 48 42 49 43 50 44 51 94 52 45 53 99 54 93 55 95 56 46 57
REMARK SMILES IDX 98 58 92 59 91 60 47 62 79 63 59 64 78 65 60 66 63 67 77 68
REMARK SMILES IDX 96 69 61 70 62 71 76 73 97 74 64 75 48 76 49 77 57 78 50 79
REMARK SMILES IDX 56 80 58 81 55 82 51 83 52 84 53 85 54 86 80 87 81 88 89 89
REMARK SMILES IDX 82 90 88 91 90 92 87 93 83 94 84 95 85 96 86 97 65 98 66 99
REMARK SMILES IDX 74 100 67 101 73 102 75 103 72 104 68 105 69 106 70 107
REMARK SMILES IDX 71 108
REMARK H PARENT 1 11 1 12 6 16 25 37 25 38 95 61 63 72
REMARK Flexibility Score: inf
ROOT
ATOM      1  O   UNL A   1      34.890  21.599  24.728  1.00  0.00    -0.374 OA
ENDROOT
BRANCH   1   2
ATOM      2  C   UNL A   1      34.017  22.091  25.746  1.00  0.00     0.202 C 
BRANCH   2   3
ATOM      3  C   UNL A   1      34.549  23.200  26.652  1.00  0.00     0.261 C 
BRANCH   3   4
ATOM      4  O   UNL A   1      33.565  24.233  26.827  1.00  0.00    -0.462 OA
BRANCH   4   5
ATOM      5  C   UNL A   1      33.470  25.081  25.774  1.00  0.00     0.329 C 
ATOM      6  O   UNL A   1      34.415  25.563  25.158  1.00  0.00    -0.250 OA
BRANCH   5   7
ATOM      7  C   UNL A   1      32.020  25.379  25.374  1.00  0.00     0.201 C 
BRANCH   7   8
ATOM      8  C   UNL A   1      31.998  25.682  23.870  1.00  0.00     0.136 C 
BRANCH   8   9
ATOM      9  C   UNL A   1      31.889  24.413  23.060  1.00  0.00     0.220 C 
ATOM     10  N   UNL A   1      30.635  23.912  22.901  1.00  0.00    -0.370 N 
ATOM     11  H   UNL A   1      30.497  23.087  22.384  1.00  0.00     0.159 HD
ATOM     12  H   UNL A   1      29.866  24.376  23.304  1.00  0.00     0.159 HD
ATOM     13  O   UNL A   1      32.855  23.876  22.533  1.00  0.00    -0.275 OA
ENDBRANCH   8   9
ENDBRANCH   7   8
BRANCH   7  14
ATOM     14  N   UNL A   1      31.240  26.383  26.125  1.00  0.00    -0.342 N 
ATOM     15  C   UNL A   1      31.574  27.623  26.598  1.00  0.00     0.231 C 
ATOM     16  H   UNL A   1      30.314  26.111  26.321  1.00  0.00     0.164 HD
ATOM     17  O   UNL A   1      31.130  27.866  27.731  1.00  0.00    -0.274 OA
BRANCH  15  18
ATOM     18  C   UNL A   1      32.333  28.765  25.805  1.00  0.00     0.077 C 
ATOM     19  C   UNL A   1      33.832  28.567  25.492  1.00  0.00     0.043 C 
ATOM     20  C   UNL A   1      32.200  30.094  26.619  1.00  0.00     0.043 C 
ATOM     21  C   UNL A   1      34.785  28.784  26.665  1.00  0.00     0.121 C 
ATOM     22  C   UNL A   1      33.153  30.196  27.799  1.00  0.00     0.121 C 
ATOM     23  N   UNL A   1      34.536  30.024  27.367  1.00  0.00    -0.337 N 
ATOM     24  C   UNL A   1      35.656  30.748  27.765  1.00  0.00     0.280 C 
ATOM     25  O   UNL A   1      36.796  30.314  27.553  1.00  0.00    -0.268 OA
BRANCH  18  26
ATOM     26  C   UNL A   1      31.591  28.933  24.426  1.00  0.00    -0.032 A 
ATOM     27  C   UNL A   1      32.250  28.925  23.179  1.00  0.00     0.005 A 
ATOM     28  C   UNL A   1      30.195  29.092  24.395  1.00  0.00     0.005 A 
ATOM     29  C   UNL A   1      31.545  29.057  21.975  1.00  0.00     0.000 A 
ATOM     30  C   UNL A   1      29.493  29.262  23.196  1.00  0.00     0.000 A 
ATOM     31  C   UNL A   1      30.168  29.239  21.984  1.00  0.00     0.000 A 
ENDBRANCH  18  26
BRANCH  24  32
ATOM     32  C   UNL A   1      35.524  32.101  28.473  1.00  0.00     0.272 C 
ATOM     33  C   UNL A   1      34.188  32.372  29.136  1.00  0.00     0.081 C 
ATOM     34  N   UNL A   1      35.831  33.249  27.590  1.00  0.00    -0.336 N 
ATOM     35  C   UNL A   1      34.143  33.886  29.166  1.00  0.00     0.068 C 
ATOM     36  C   UNL A   1      34.874  34.310  27.902  1.00  0.00     0.261 C 
ATOM     37  H   UNL A   1      35.737  32.972  26.613  1.00  0.00     0.346 HD
ATOM     38  H   UNL A   1      36.787  33.572  27.740  1.00  0.00     0.346 HD
ENDBRANCH  24  32
ENDBRANCH  15  18
ENDBRANCH   7  14
ENDBRANCH   5   7
ENDBRANCH   4   5
ENDBRANCH   3   4
ENDBRANCH   2   3
ENDBRANCH   1   2
BRANCH   1  39
ATOM     39  C   UNL A   1      35.996  20.795  25.115  1.00  0.00     0.202 C 
BRANCH  39  40
ATOM     40  C   UNL A   1      37.424  21.271  24.793  1.00  0.00     0.261 C 
BRANCH  40  41
ATOM     41  O   UNL A   1      37.955  22.220  25.716  1.00  0.00    -0.460 OA
BRANCH  41  42
ATOM     42  C   UNL A   1      39.158  21.863  26.228  1.00  0.00     0.338 C 
ATOM     43  O   UNL A   1      39.737  20.793  26.091  1.00  0.00    -0.246 OA
BRANCH  42  44
ATOM     44  C   UNL A   1      39.789  23.045  26.823  1.00  0.00     0.060 A 
ATOM     45  C   UNL A   1      39.357  24.294  26.365  1.00  0.00     0.016 A 
ATOM     46  C   UNL A   1      40.789  22.934  27.793  1.00  0.00     0.016 A 
ATOM     47  C   UNL A   1      39.948  25.447  26.859  1.00  0.00     0.010 A 
ATOM     48  C   UNL A   1      41.394  24.096  28.276  1.00  0.00     0.010 A 
ATOM     49  C   UNL A   1      40.993  25.351  27.787  1.00  0.00    -0.014 A 
BRANCH  49  50
ATOM     50  C   UNL A   1      41.748  26.580  28.109  1.00  0.00     0.031 A 
ATOM     51  C   UNL A   1      43.142  26.725  27.568  1.00  0.00     0.074 A 
ATOM     52  C   UNL A   1      41.153  27.577  28.783  1.00  0.00     0.049 A 
ATOM     53  N   UNL A   1      43.954  27.746  27.632  1.00  0.00    -0.248 NA
ATOM     54  C   UNL A   1      43.690  25.560  26.855  1.00  0.00     0.031 C 
ATOM     55  C   UNL A   1      39.788  27.538  29.310  1.00  0.00     0.029 A 
ATOM     56  N   UNL A   1      41.609  28.823  29.122  1.00  0.00    -0.354 N 
ATOM     57  C   UNL A   1      45.104  27.355  26.955  1.00  0.00     0.074 A 
ATOM     58  C   UNL A   1      44.901  25.985  26.533  1.00  0.00     0.031 C 
ATOM     59  C   UNL A   1      39.514  28.714  29.898  1.00  0.00     0.029 A 
ATOM     60  C   UNL A   1      40.690  29.577  29.812  1.00  0.00     0.049 A 
ATOM     61  H   UNL A   1      42.509  29.148  28.893  1.00  0.00     0.167 HD
ATOM     62  C   UNL A   1      46.219  28.082  26.699  1.00  0.00     0.034 A 
ATOM     63  C   UNL A   1      40.795  30.821  30.319  1.00  0.00     0.034 A 
ATOM     64  C   UNL A   1      46.402  29.438  27.155  1.00  0.00     0.049 A 
ATOM     65  C   UNL A   1      42.078  31.581  30.090  1.00  0.00     0.074 A 
ATOM     66  C   UNL A   1      47.485  30.277  26.964  1.00  0.00     0.029 A 
ATOM     67  N   UNL A   1      45.478  30.150  27.914  1.00  0.00    -0.354 N 
ATOM     68  N   UNL A   1      43.154  31.209  29.431  1.00  0.00    -0.248 NA
ATOM     69  C   UNL A   1      42.155  32.931  30.658  1.00  0.00     0.031 C 
ATOM     70  C   UNL A   1      47.247  31.466  27.663  1.00  0.00     0.029 A 
ATOM     71  C   UNL A   1      45.982  31.403  28.228  1.00  0.00     0.049 A 
ATOM     72  H   UNL A   1      44.594  29.813  28.187  1.00  0.00     0.167 HD
ATOM     73  C   UNL A   1      44.028  32.291  29.491  1.00  0.00     0.074 A 
ATOM     74  C   UNL A   1      43.340  33.335  30.226  1.00  0.00     0.031 C 
ATOM     75  C   UNL A   1      45.285  32.415  28.988  1.00  0.00     0.034 A 
BRANCH  62  76
ATOM     76  C   UNL A   1      47.334  27.395  25.947  1.00  0.00     0.023 A 
ATOM     77  C   UNL A   1      48.352  26.687  26.611  1.00  0.00     0.031 A 
ATOM     78  C   UNL A   1      47.406  27.489  24.546  1.00  0.00     0.131 A 
ATOM     79  C   UNL A   1      49.431  26.161  25.882  1.00  0.00     0.055 A 
ATOM     80  C   UNL A   1      48.441  26.898  23.820  1.00  0.00     0.041 A 
ATOM     81  F   UNL A   1      46.478  28.175  23.858  1.00  0.00    -0.206 F 
ATOM     82  C   UNL A   1      49.470  26.242  24.488  1.00  0.00     0.022 A 
BRANCH  79  83
ATOM     83  S   UNL A   1      50.854  25.497  26.790  1.00  0.00     0.124 S 
ATOM     84  O   UNL A   1      50.242  24.402  27.539  1.00  0.00    -0.237 OA
ATOM     85  O   UNL A   1      51.760  25.108  25.716  1.00  0.00    -0.237 OA
ATOM     86  O   UNL A   1      51.300  26.626  27.604  1.00  0.00    -0.744 OA
ENDBRANCH  79  83
ENDBRANCH  62  76
BRANCH  63  87
ATOM     87  C   UNL A   1      39.679  31.412  31.111  1.00  0.00     0.023 A 
ATOM     88  C   UNL A   1      39.623  31.282  32.507  1.00  0.00     0.031 A 
ATOM     89  C   UNL A   1      38.622  32.083  30.469  1.00  0.00     0.131 A 
ATOM     90  C   UNL A   1      38.514  31.778  33.212  1.00  0.00     0.055 A 
ATOM     91  C   UNL A   1      37.547  32.620  31.179  1.00  0.00     0.041 A 
ATOM     92  F   UNL A   1      38.624  32.235  29.135  1.00  0.00    -0.206 F 
ATOM     93  C   UNL A   1      37.483  32.458  32.559  1.00  0.00     0.022 A 
BRANCH  90  94
ATOM     94  S   UNL A   1      38.396  31.449  34.993  1.00  0.00     0.124 S 
ATOM     95  O   UNL A   1      38.252  29.998  35.020  1.00  0.00    -0.237 OA
ATOM     96  O   UNL A   1      39.666  31.977  35.482  1.00  0.00    -0.237 OA
ATOM     97  O   UNL A   1      37.212  32.202  35.401  1.00  0.00    -0.744 OA
ENDBRANCH  90  94
ENDBRANCH  63  87
BRANCH  75  98
ATOM     98  C   UNL A   1      45.971  33.741  29.209  1.00  0.00     0.023 A 
ATOM     99  C   UNL A   1      45.894  34.775  28.259  1.00  0.00     0.031 A 
ATOM    100  C   UNL A   1      46.737  33.961  30.367  1.00  0.00     0.131 A 
ATOM    101  C   UNL A   1      46.628  35.955  28.451  1.00  0.00     0.055 A 
ATOM    102  C   UNL A   1      47.410  35.165  30.585  1.00  0.00     0.041 A 
ATOM    103  F   UNL A   1      46.846  33.009  31.307  1.00  0.00    -0.206 F 
ATOM    104  C   UNL A   1      47.372  36.163  29.615  1.00  0.00     0.022 A 
BRANCH 101 105
ATOM    105  S   UNL A   1      46.689  37.166  27.102  1.00  0.00     0.124 S 
ATOM    106  O   UNL A   1      45.282  37.529  26.957  1.00  0.00    -0.237 OA
ATOM    107  O   UNL A   1      47.561  38.200  27.650  1.00  0.00    -0.237 OA
ATOM    108  O   UNL A   1      47.252  36.408  25.986  1.00  0.00    -0.744 OA
ENDBRANCH 101 105
ENDBRANCH  75  98
ENDBRANCH  49  50
ENDBRANCH  42  44
ENDBRANCH  41  42
ENDBRANCH  40  41
ENDBRANCH  39  40
ENDBRANCH   1  39
TORSDOF 23
ENDMDL
