MODEL 1
REMARK VINA RESULT:     -11.3      0.000      0.000
REMARK SMILES O=C(C[C@H](C(=O)OCCOCCOC(=O)c1ccc(-c2c3nc(c(-c4cc(S(=O)(=O)[O-])ccc4F)c4ccc([nH]4)c(-c4cc(S(=O)(=O)[O-])ccc4F)c4nc(c(-c5cc(S(=O)(=O)[O-])ccc5F)c5ccc2[nH]5)C=C4)C=C3)cc1)c1ccccc1)Nc1ccc(Cl)cc1Cl
REMARK SMILES IDX 10 1 9 2 8 3 7 4 5 5 6 6 4 7 3 8 2 9 1 10 85 11 86 13 87 14
REMARK SMILES IDX 92 15 88 16 91 17 93 18 89 19 90 20 79 21 80 22 84 23 81 24
REMARK SMILES IDX 83 25 82 26 11 27 12 28 13 29 14 30 15 31 16 32 17 33 78 34
REMARK SMILES IDX 18 35 77 36 19 37 20 38 21 39 71 40 22 41 76 42 70 43 72 44
REMARK SMILES IDX 23 45 75 46 69 47 68 48 24 50 56 51 36 52 55 53 37 54 40 55
REMARK SMILES IDX 54 56 73 57 38 58 39 59 53 61 74 62 41 63 25 64 26 65 34 66
REMARK SMILES IDX 27 67 33 68 35 69 32 70 28 71 29 72 30 73 31 74 57 75 58 76
REMARK SMILES IDX 66 77 59 78 65 79 67 80 64 81 60 82 61 83 62 84 63 85 42 86
REMARK SMILES IDX 43 87 51 88 44 89 50 90 52 91 49 92 45 93 46 94 47 95 48 96
REMARK H PARENT 85 12 72 49 40 60
REMARK Flexibility Score: inf
ROOT
ATOM      1  O   UNL A   1      29.892  29.685  23.858  1.00  0.00    -0.374 OA
ENDROOT
BRANCH   1   2
ATOM      2  C   UNL A   1      29.537  28.716  22.875  1.00  0.00     0.202 C 
BRANCH   2   3
ATOM      3  C   UNL A   1      30.714  27.956  22.241  1.00  0.00     0.261 C 
BRANCH   3   4
ATOM      4  O   UNL A   1      30.602  26.528  22.416  1.00  0.00    -0.463 OA
BRANCH   4   5
ATOM      5  C   UNL A   1      31.605  25.807  21.857  1.00  0.00     0.314 C 
ATOM      6  O   UNL A   1      32.002  25.975  20.706  1.00  0.00    -0.252 OA
BRANCH   5   7
ATOM      7  C   UNL A   1      32.276  24.798  22.800  1.00  0.00     0.138 C 
BRANCH   7   8
ATOM      8  C   UNL A   1      33.301  23.774  22.277  1.00  0.00     0.120 C 
BRANCH   8   9
ATOM      9  C   UNL A   1      33.464  22.526  23.108  1.00  0.00     0.225 C 
ATOM     10  O   UNL A   1      34.556  22.222  23.576  1.00  0.00    -0.275 OA
ATOM     11  N   UNL A   1      32.301  21.758  23.190  1.00  0.00    -0.325 N 
ATOM     12  H   UNL A   1      31.427  22.151  22.960  1.00  0.00     0.169 HD
BRANCH  11  13
ATOM     13  C   UNL A   1      32.395  20.412  23.606  1.00  0.00     0.060 A 
ATOM     14  C   UNL A   1      32.142  19.463  22.618  1.00  0.00     0.029 A 
ATOM     15  C   UNL A   1      32.910  19.998  24.838  1.00  0.00     0.066 A 
ATOM     16  C   UNL A   1      32.621  18.166  22.748  1.00  0.00     0.023 A 
ATOM     17  C   UNL A   1      33.363  18.688  24.990  1.00  0.00     0.043 A 
ATOM     18  Cl  UNL A   1      32.900  21.044  26.213  1.00  0.00    -0.082 Cl
ATOM     19  C   UNL A   1      33.294  17.806  23.910  1.00  0.00     0.042 A 
ATOM     20  Cl  UNL A   1      34.015  16.251  24.005  1.00  0.00    -0.084 Cl
ENDBRANCH  11  13
ENDBRANCH   8   9
ENDBRANCH   7   8
BRANCH   7  21
ATOM     21  C   UNL A   1      32.625  25.445  24.137  1.00  0.00    -0.033 A 
ATOM     22  C   UNL A   1      33.615  26.434  24.245  1.00  0.00     0.004 A 
ATOM     23  C   UNL A   1      31.841  25.153  25.265  1.00  0.00     0.004 A 
ATOM     24  C   UNL A   1      33.747  27.182  25.415  1.00  0.00     0.000 A 
ATOM     25  C   UNL A   1      31.989  25.889  26.442  1.00  0.00     0.000 A 
ATOM     26  C   UNL A   1      32.924  26.919  26.507  1.00  0.00     0.000 A 
ENDBRANCH   7  21
ENDBRANCH   5   7
ENDBRANCH   4   5
ENDBRANCH   3   4
ENDBRANCH   2   3
ENDBRANCH   1   2
BRANCH   1  27
ATOM     27  C   UNL A   1      31.191  29.581  24.438  1.00  0.00     0.202 C 
BRANCH  27  28
ATOM     28  C   UNL A   1      31.449  30.437  25.677  1.00  0.00     0.261 C 
BRANCH  28  29
ATOM     29  O   UNL A   1      32.853  30.467  26.016  1.00  0.00    -0.460 OA
BRANCH  29  30
ATOM     30  C   UNL A   1      33.189  31.416  26.932  1.00  0.00     0.338 C 
ATOM     31  O   UNL A   1      32.498  32.348  27.281  1.00  0.00    -0.246 OA
BRANCH  30  32
ATOM     32  C   UNL A   1      34.480  31.083  27.586  1.00  0.00     0.060 A 
ATOM     33  C   UNL A   1      34.769  29.725  27.756  1.00  0.00     0.016 A 
ATOM     34  C   UNL A   1      35.374  32.052  28.056  1.00  0.00     0.016 A 
ATOM     35  C   UNL A   1      35.929  29.333  28.425  1.00  0.00     0.010 A 
ATOM     36  C   UNL A   1      36.537  31.656  28.738  1.00  0.00     0.010 A 
ATOM     37  C   UNL A   1      36.804  30.293  28.954  1.00  0.00    -0.014 A 
BRANCH  37  38
ATOM     38  C   UNL A   1      37.883  29.829  29.870  1.00  0.00     0.031 A 
ATOM     39  C   UNL A   1      39.009  29.026  29.302  1.00  0.00     0.074 A 
ATOM     40  C   UNL A   1      37.911  30.181  31.166  1.00  0.00     0.049 A 
ATOM     41  N   UNL A   1      40.120  28.646  29.873  1.00  0.00    -0.248 NA
ATOM     42  C   UNL A   1      38.837  28.562  27.920  1.00  0.00     0.031 C 
ATOM     43  C   UNL A   1      36.833  30.885  31.830  1.00  0.00     0.029 A 
ATOM     44  N   UNL A   1      38.862  30.036  32.145  1.00  0.00    -0.354 N 
ATOM     45  C   UNL A   1      40.778  27.872  28.927  1.00  0.00     0.074 A 
ATOM     46  C   UNL A   1      39.924  27.827  27.756  1.00  0.00     0.031 C 
ATOM     47  C   UNL A   1      37.207  31.205  33.078  1.00  0.00     0.029 A 
ATOM     48  C   UNL A   1      38.547  30.689  33.320  1.00  0.00     0.049 A 
ATOM     49  H   UNL A   1      39.689  29.516  32.021  1.00  0.00     0.167 HD
ATOM     50  C   UNL A   1      41.976  27.247  29.038  1.00  0.00     0.034 A 
ATOM     51  C   UNL A   1      39.260  30.858  34.454  1.00  0.00     0.034 A 
ATOM     52  C   UNL A   1      42.782  27.271  30.236  1.00  0.00     0.049 A 
ATOM     53  C   UNL A   1      40.604  30.180  34.542  1.00  0.00     0.074 A 
ATOM     54  C   UNL A   1      44.010  26.675  30.461  1.00  0.00     0.029 A 
ATOM     55  N   UNL A   1      42.431  27.909  31.423  1.00  0.00    -0.354 N 
ATOM     56  N   UNL A   1      41.233  29.474  33.629  1.00  0.00    -0.248 NA
ATOM     57  C   UNL A   1      41.319  30.292  35.817  1.00  0.00     0.031 C 
ATOM     58  C   UNL A   1      44.363  26.886  31.799  1.00  0.00     0.029 A 
ATOM     59  C   UNL A   1      43.403  27.692  32.391  1.00  0.00     0.049 A 
ATOM     60  H   UNL A   1      41.612  28.438  31.557  1.00  0.00     0.167 HD
ATOM     61  C   UNL A   1      42.414  29.047  34.227  1.00  0.00     0.074 A 
ATOM     62  C   UNL A   1      42.433  29.625  35.557  1.00  0.00     0.031 C 
ATOM     63  C   UNL A   1      43.385  28.237  33.731  1.00  0.00     0.034 A 
BRANCH  50  64
ATOM     64  C   UNL A   1      42.410  26.417  27.856  1.00  0.00     0.023 A 
ATOM     65  C   UNL A   1      42.109  25.046  27.764  1.00  0.00     0.031 A 
ATOM     66  C   UNL A   1      43.231  26.978  26.863  1.00  0.00     0.131 A 
ATOM     67  C   UNL A   1      42.714  24.264  26.769  1.00  0.00     0.055 A 
ATOM     68  C   UNL A   1      43.749  26.212  25.817  1.00  0.00     0.041 A 
ATOM     69  F   UNL A   1      43.580  28.274  26.915  1.00  0.00    -0.206 F 
ATOM     70  C   UNL A   1      43.510  24.842  25.779  1.00  0.00     0.022 A 
BRANCH  67  71
ATOM     71  S   UNL A   1      42.614  22.458  26.914  1.00  0.00     0.124 S 
ATOM     72  O   UNL A   1      41.482  22.157  26.039  1.00  0.00    -0.237 OA
ATOM     73  O   UNL A   1      43.922  22.029  26.436  1.00  0.00    -0.237 OA
ATOM     74  O   UNL A   1      42.365  22.241  28.337  1.00  0.00    -0.744 OA
ENDBRANCH  67  71
ENDBRANCH  50  64
BRANCH  51  75
ATOM     75  C   UNL A   1      38.739  31.673  35.599  1.00  0.00     0.023 A 
ATOM     76  C   UNL A   1      38.145  31.057  36.717  1.00  0.00     0.031 A 
ATOM     77  C   UNL A   1      38.772  33.078  35.574  1.00  0.00     0.131 A 
ATOM     78  C   UNL A   1      37.582  31.841  37.740  1.00  0.00     0.055 A 
ATOM     79  C   UNL A   1      38.270  33.852  36.625  1.00  0.00     0.041 A 
ATOM     80  F   UNL A   1      39.304  33.727  34.527  1.00  0.00    -0.206 F 
ATOM     81  C   UNL A   1      37.661  33.234  37.711  1.00  0.00     0.022 A 
BRANCH  78  82
ATOM     82  S   UNL A   1      36.655  31.019  39.070  1.00  0.00     0.124 S 
ATOM     83  O   UNL A   1      37.636  31.002  40.149  1.00  0.00    -0.237 OA
ATOM     84  O   UNL A   1      35.518  31.916  39.249  1.00  0.00    -0.237 OA
ATOM     85  O   UNL A   1      36.330  29.712  38.502  1.00  0.00    -0.744 OA
ENDBRANCH  78  82
ENDBRANCH  51  75
BRANCH  63  86
ATOM     86  C   UNL A   1      44.547  27.945  34.651  1.00  0.00     0.023 A 
ATOM     87  C   UNL A   1      44.541  26.834  35.516  1.00  0.00     0.031 A 
ATOM     88  C   UNL A   1      45.644  28.820  34.710  1.00  0.00     0.131 A 
ATOM     89  C   UNL A   1      45.565  26.678  36.461  1.00  0.00     0.055 A 
ATOM     90  C   UNL A   1      46.700  28.617  35.601  1.00  0.00     0.041 A 
ATOM     91  F   UNL A   1      45.702  29.898  33.913  1.00  0.00    -0.206 F 
ATOM     92  C   UNL A   1      46.654  27.553  36.498  1.00  0.00     0.022 A 
BRANCH  89  93
ATOM     93  S   UNL A   1      45.384  25.401  37.739  1.00  0.00     0.124 S 
ATOM     94  O   UNL A   1      46.738  24.864  37.825  1.00  0.00    -0.237 OA
ATOM     95  O   UNL A   1      44.928  26.175  38.890  1.00  0.00    -0.237 OA
ATOM     96  O   UNL A   1      44.390  24.490  37.173  1.00  0.00    -0.744 OA
ENDBRANCH  89  93
ENDBRANCH  63  86
ENDBRANCH  37  38
ENDBRANCH  30  32
ENDBRANCH  29  30
ENDBRANCH  28  29
ENDBRANCH  27  28
ENDBRANCH   1  27
TORSDOF 21
ENDMDL
MODEL 2
REMARK VINA RESULT:     -11.0      2.370      3.370
REMARK SMILES O=C(C[C@H](C(=O)OCCOCCOC(=O)c1ccc(-c2c3nc(c(-c4cc(S(=O)(=O)[O-])ccc4F)c4ccc([nH]4)c(-c4cc(S(=O)(=O)[O-])ccc4F)c4nc(c(-c5cc(S(=O)(=O)[O-])ccc5F)c5ccc2[nH]5)C=C4)C=C3)cc1)c1ccccc1)Nc1ccc(Cl)cc1Cl
REMARK SMILES IDX 10 1 9 2 8 3 7 4 5 5 6 6 4 7 3 8 2 9 1 10 85 11 86 13 87 14
REMARK SMILES IDX 92 15 88 16 91 17 93 18 89 19 90 20 79 21 80 22 84 23 81 24
REMARK SMILES IDX 83 25 82 26 11 27 12 28 13 29 14 30 15 31 16 32 17 33 78 34
REMARK SMILES IDX 18 35 77 36 19 37 20 38 21 39 71 40 22 41 76 42 70 43 72 44
REMARK SMILES IDX 23 45 75 46 69 47 68 48 24 50 56 51 36 52 55 53 37 54 40 55
REMARK SMILES IDX 54 56 73 57 38 58 39 59 53 61 74 62 41 63 25 64 26 65 34 66
REMARK SMILES IDX 27 67 33 68 35 69 32 70 28 71 29 72 30 73 31 74 57 75 58 76
REMARK SMILES IDX 66 77 59 78 65 79 67 80 64 81 60 82 61 83 62 84 63 85 42 86
REMARK SMILES IDX 43 87 51 88 44 89 50 90 52 91 49 92 45 93 46 94 47 95 48 96
REMARK H PARENT 85 12 72 49 40 60
REMARK Flexibility Score: inf
ROOT
ATOM      1  O   UNL A   1      31.824  30.322  26.873  1.00  0.00    -0.374 OA
ENDROOT
BRANCH   1   2
ATOM      2  C   UNL A   1      33.107  29.859  26.458  1.00  0.00     0.202 C 
BRANCH   2   3
ATOM      3  C   UNL A   1      33.183  29.328  25.017  1.00  0.00     0.261 C 
BRANCH   3   4
ATOM      4  O   UNL A   1      31.888  29.277  24.384  1.00  0.00    -0.463 OA
BRANCH   4   5
ATOM      5  C   UNL A   1      31.772  28.346  23.404  1.00  0.00     0.314 C 
ATOM      6  O   UNL A   1      32.724  27.924  22.751  1.00  0.00    -0.252 OA
BRANCH   5   7
ATOM      7  C   UNL A   1      30.354  27.786  23.213  1.00  0.00     0.138 C 
BRANCH   7   8
ATOM      8  C   UNL A   1      29.737  26.807  24.229  1.00  0.00     0.120 C 
BRANCH   8   9
ATOM      9  C   UNL A   1      30.636  25.685  24.688  1.00  0.00     0.225 C 
ATOM     10  O   UNL A   1      31.619  25.914  25.384  1.00  0.00    -0.275 OA
ATOM     11  N   UNL A   1      30.278  24.440  24.168  1.00  0.00    -0.325 N 
ATOM     12  H   UNL A   1      29.382  24.299  23.783  1.00  0.00     0.169 HD
BRANCH  11  13
ATOM     13  C   UNL A   1      31.218  23.387  24.201  1.00  0.00     0.060 A 
ATOM     14  C   UNL A   1      32.104  23.344  23.127  1.00  0.00     0.029 A 
ATOM     15  C   UNL A   1      31.435  22.554  25.304  1.00  0.00     0.066 A 
ATOM     16  C   UNL A   1      33.318  22.679  23.242  1.00  0.00     0.023 A 
ATOM     17  C   UNL A   1      32.637  21.856  25.412  1.00  0.00     0.043 A 
ATOM     18  Cl  UNL A   1      30.203  22.287  26.484  1.00  0.00    -0.082 Cl
ATOM     19  C   UNL A   1      33.607  21.995  24.417  1.00  0.00     0.042 A 
ATOM     20  Cl  UNL A   1      35.166  21.303  24.614  1.00  0.00    -0.084 Cl
ENDBRANCH  11  13
ENDBRANCH   8   9
ENDBRANCH   7   8
BRANCH   7  21
ATOM     21  C   UNL A   1      29.408  28.859  22.683  1.00  0.00    -0.033 A 
ATOM     22  C   UNL A   1      28.080  28.959  23.126  1.00  0.00     0.004 A 
ATOM     23  C   UNL A   1      29.913  29.863  21.841  1.00  0.00     0.004 A 
ATOM     24  C   UNL A   1      27.312  30.084  22.821  1.00  0.00     0.000 A 
ATOM     25  C   UNL A   1      29.136  30.977  21.520  1.00  0.00     0.000 A 
ATOM     26  C   UNL A   1      27.846  31.098  22.030  1.00  0.00     0.000 A 
ENDBRANCH   7  21
ENDBRANCH   5   7
ENDBRANCH   4   5
ENDBRANCH   3   4
ENDBRANCH   2   3
ENDBRANCH   1   2
BRANCH   1  27
ATOM     27  C   UNL A   1      31.514  31.692  26.628  1.00  0.00     0.202 C 
BRANCH  27  28
ATOM     28  C   UNL A   1      32.629  32.699  26.909  1.00  0.00     0.261 C 
BRANCH  28  29
ATOM     29  O   UNL A   1      32.160  33.790  27.732  1.00  0.00    -0.460 OA
BRANCH  29  30
ATOM     30  C   UNL A   1      33.148  34.593  28.215  1.00  0.00     0.338 C 
ATOM     31  O   UNL A   1      33.079  35.792  28.375  1.00  0.00    -0.246 OA
BRANCH  30  32
ATOM     32  C   UNL A   1      34.304  33.784  28.679  1.00  0.00     0.060 A 
ATOM     33  C   UNL A   1      34.013  32.631  29.416  1.00  0.00     0.016 A 
ATOM     34  C   UNL A   1      35.636  34.143  28.440  1.00  0.00     0.016 A 
ATOM     35  C   UNL A   1      35.046  31.858  29.947  1.00  0.00     0.010 A 
ATOM     36  C   UNL A   1      36.675  33.369  28.984  1.00  0.00     0.010 A 
ATOM     37  C   UNL A   1      36.383  32.239  29.767  1.00  0.00    -0.014 A 
BRANCH  37  38
ATOM     38  C   UNL A   1      37.426  31.529  30.559  1.00  0.00     0.031 A 
ATOM     39  C   UNL A   1      38.335  30.573  29.855  1.00  0.00     0.074 A 
ATOM     40  C   UNL A   1      37.621  31.786  31.863  1.00  0.00     0.049 A 
ATOM     41  N   UNL A   1      39.397  29.962  30.305  1.00  0.00    -0.248 NA
ATOM     42  C   UNL A   1      37.971  30.238  28.472  1.00  0.00     0.031 C 
ATOM     43  C   UNL A   1      36.748  32.629  32.655  1.00  0.00     0.029 A 
ATOM     44  N   UNL A   1      38.603  31.408  32.745  1.00  0.00    -0.354 N 
ATOM     45  C   UNL A   1      39.823  29.145  29.267  1.00  0.00     0.074 A 
ATOM     46  C   UNL A   1      38.886  29.331  28.176  1.00  0.00     0.031 C 
ATOM     47  C   UNL A   1      37.272  32.795  33.878  1.00  0.00     0.029 A 
ATOM     48  C   UNL A   1      38.508  32.030  33.974  1.00  0.00     0.049 A 
ATOM     49  H   UNL A   1      39.306  30.756  32.523  1.00  0.00     0.167 HD
ATOM     50  C   UNL A   1      40.889  28.308  29.240  1.00  0.00     0.034 A 
ATOM     51  C   UNL A   1      39.327  31.994  35.046  1.00  0.00     0.034 A 
ATOM     52  C   UNL A   1      41.778  28.108  30.361  1.00  0.00     0.049 A 
ATOM     53  C   UNL A   1      40.524  31.079  34.981  1.00  0.00     0.074 A 
ATOM     54  C   UNL A   1      42.886  27.286  30.446  1.00  0.00     0.029 A 
ATOM     55  N   UNL A   1      41.646  28.721  31.604  1.00  0.00    -0.354 N 
ATOM     56  N   UNL A   1      40.937  30.331  33.982  1.00  0.00    -0.248 NA
ATOM     57  C   UNL A   1      41.346  30.978  36.192  1.00  0.00     0.031 C 
ATOM     58  C   UNL A   1      43.377  27.343  31.756  1.00  0.00     0.029 A 
ATOM     59  C   UNL A   1      42.633  28.269  32.470  1.00  0.00     0.049 A 
ATOM     60  H   UNL A   1      40.953  29.379  31.836  1.00  0.00     0.167 HD
ATOM     61  C   UNL A   1      42.061  29.660  34.450  1.00  0.00     0.074 A 
ATOM     62  C   UNL A   1      42.292  30.138  35.800  1.00  0.00     0.031 C 
ATOM     63  C   UNL A   1      42.823  28.721  33.831  1.00  0.00     0.034 A 
BRANCH  50  64
ATOM     64  C   UNL A   1      41.067  27.491  27.985  1.00  0.00     0.023 A 
ATOM     65  C   UNL A   1      40.713  26.130  27.931  1.00  0.00     0.031 A 
ATOM     66  C   UNL A   1      41.703  28.050  26.863  1.00  0.00     0.131 A 
ATOM     67  C   UNL A   1      41.095  25.353  26.828  1.00  0.00     0.055 A 
ATOM     68  C   UNL A   1      41.990  27.292  25.726  1.00  0.00     0.041 A 
ATOM     69  F   UNL A   1      42.094  29.334  26.868  1.00  0.00    -0.206 F 
ATOM     70  C   UNL A   1      41.706  25.930  25.713  1.00  0.00     0.022 A 
BRANCH  67  71
ATOM     71  S   UNL A   1      40.968  23.548  26.961  1.00  0.00     0.124 S 
ATOM     72  O   UNL A   1      39.527  23.345  26.832  1.00  0.00    -0.237 OA
ATOM     73  O   UNL A   1      41.781  23.090  25.840  1.00  0.00    -0.237 OA
ATOM     74  O   UNL A   1      41.513  23.263  28.287  1.00  0.00    -0.744 OA
ENDBRANCH  67  71
ENDBRANCH  50  64
BRANCH  51  75
ATOM     75  C   UNL A   1      39.058  32.814  36.272  1.00  0.00     0.023 A 
ATOM     76  C   UNL A   1      39.598  34.105  36.415  1.00  0.00     0.031 A 
ATOM     77  C   UNL A   1      38.304  32.305  37.344  1.00  0.00     0.131 A 
ATOM     78  C   UNL A   1      39.408  34.824  37.608  1.00  0.00     0.055 A 
ATOM     79  C   UNL A   1      38.061  33.049  38.502  1.00  0.00     0.041 A 
ATOM     80  F   UNL A   1      37.779  31.071  37.280  1.00  0.00    -0.206 F 
ATOM     81  C   UNL A   1      38.624  34.313  38.644  1.00  0.00     0.022 A 
BRANCH  78  82
ATOM     82  S   UNL A   1      40.279  36.403  37.835  1.00  0.00     0.124 S 
ATOM     83  O   UNL A   1      39.274  37.200  38.529  1.00  0.00    -0.237 OA
ATOM     84  O   UNL A   1      41.439  36.002  38.625  1.00  0.00    -0.237 OA
ATOM     85  O   UNL A   1      40.577  36.828  36.469  1.00  0.00    -0.744 OA
ENDBRANCH  78  82
ENDBRANCH  51  75
BRANCH  63  86
ATOM     86  C   UNL A   1      43.978  28.165  34.628  1.00  0.00     0.023 A 
ATOM     87  C   UNL A   1      43.792  27.151  35.587  1.00  0.00     0.031 A 
ATOM     88  C   UNL A   1      45.270  28.697  34.474  1.00  0.00     0.131 A 
ATOM     89  C   UNL A   1      44.858  26.765  36.413  1.00  0.00     0.055 A 
ATOM     90  C   UNL A   1      46.345  28.253  35.247  1.00  0.00     0.041 A 
ATOM     91  F   UNL A   1      45.506  29.668  33.579  1.00  0.00    -0.206 F 
ATOM     92  C   UNL A   1      46.138  27.297  36.237  1.00  0.00     0.022 A 
BRANCH  89  93
ATOM     93  S   UNL A   1      44.518  25.665  37.816  1.00  0.00     0.124 S 
ATOM     94  O   UNL A   1      44.189  24.411  37.146  1.00  0.00    -0.237 OA
ATOM     95  O   UNL A   1      45.783  25.687  38.544  1.00  0.00    -0.237 OA
ATOM     96  O   UNL A   1      43.400  26.316  38.498  1.00  0.00    -0.744 OA
ENDBRANCH  89  93
ENDBRANCH  63  86
ENDBRANCH  37  38
ENDBRANCH  30  32
ENDBRANCH  29  30
ENDBRANCH  28  29
ENDBRANCH  27  28
ENDBRANCH   1  27
TORSDOF 21
ENDMDL
MODEL 3
REMARK VINA RESULT:     -10.9      2.196      4.067
REMARK SMILES O=C(C[C@H](C(=O)OCCOCCOC(=O)c1ccc(-c2c3nc(c(-c4cc(S(=O)(=O)[O-])ccc4F)c4ccc([nH]4)c(-c4cc(S(=O)(=O)[O-])ccc4F)c4nc(c(-c5cc(S(=O)(=O)[O-])ccc5F)c5ccc2[nH]5)C=C4)C=C3)cc1)c1ccccc1)Nc1ccc(Cl)cc1Cl
REMARK SMILES IDX 10 1 9 2 8 3 7 4 5 5 6 6 4 7 3 8 2 9 1 10 85 11 86 13 87 14
REMARK SMILES IDX 92 15 88 16 91 17 93 18 89 19 90 20 79 21 80 22 84 23 81 24
REMARK SMILES IDX 83 25 82 26 11 27 12 28 13 29 14 30 15 31 16 32 17 33 78 34
REMARK SMILES IDX 18 35 77 36 19 37 20 38 21 39 71 40 22 41 76 42 70 43 72 44
REMARK SMILES IDX 23 45 75 46 69 47 68 48 24 50 56 51 36 52 55 53 37 54 40 55
REMARK SMILES IDX 54 56 73 57 38 58 39 59 53 61 74 62 41 63 25 64 26 65 34 66
REMARK SMILES IDX 27 67 33 68 35 69 32 70 28 71 29 72 30 73 31 74 57 75 58 76
REMARK SMILES IDX 66 77 59 78 65 79 67 80 64 81 60 82 61 83 62 84 63 85 42 86
REMARK SMILES IDX 43 87 51 88 44 89 50 90 52 91 49 92 45 93 46 94 47 95 48 96
REMARK H PARENT 85 12 72 49 40 60
REMARK Flexibility Score: inf
ROOT
ATOM      1  O   UNL A   1      32.251  30.057  27.239  1.00  0.00    -0.374 OA
ENDROOT
BRANCH   1   2
ATOM      2  C   UNL A   1      31.667  28.758  27.182  1.00  0.00     0.202 C 
BRANCH   2   3
ATOM      3  C   UNL A   1      32.646  27.605  26.907  1.00  0.00     0.261 C 
BRANCH   3   4
ATOM      4  O   UNL A   1      32.018  26.509  26.210  1.00  0.00    -0.463 OA
BRANCH   4   5
ATOM      5  C   UNL A   1      32.829  25.847  25.347  1.00  0.00     0.314 C 
ATOM      6  O   UNL A   1      34.026  26.092  25.216  1.00  0.00    -0.252 OA
BRANCH   5   7
ATOM      7  C   UNL A   1      32.155  24.697  24.584  1.00  0.00     0.138 C 
BRANCH   7   8
ATOM      8  C   UNL A   1      32.031  24.721  23.049  1.00  0.00     0.120 C 
BRANCH   8   9
ATOM      9  C   UNL A   1      31.238  25.868  22.473  1.00  0.00     0.225 C 
ATOM     10  O   UNL A   1      31.405  26.226  21.312  1.00  0.00    -0.275 OA
ATOM     11  N   UNL A   1      30.409  26.492  23.407  1.00  0.00    -0.325 N 
ATOM     12  H   UNL A   1      30.181  26.041  24.252  1.00  0.00     0.169 HD
BRANCH  11  13
ATOM     13  C   UNL A   1      29.904  27.780  23.123  1.00  0.00     0.060 A 
ATOM     14  C   UNL A   1      28.560  27.828  22.760  1.00  0.00     0.029 A 
ATOM     15  C   UNL A   1      30.588  28.973  23.379  1.00  0.00     0.066 A 
ATOM     16  C   UNL A   1      27.837  29.006  22.891  1.00  0.00     0.023 A 
ATOM     17  C   UNL A   1      29.875  30.167  23.480  1.00  0.00     0.043 A 
ATOM     18  Cl  UNL A   1      32.313  29.018  23.469  1.00  0.00    -0.082 Cl
ATOM     19  C   UNL A   1      28.488  30.157  23.321  1.00  0.00     0.042 A 
ATOM     20  Cl  UNL A   1      27.563  31.571  23.626  1.00  0.00    -0.084 Cl
ENDBRANCH  11  13
ENDBRANCH   8   9
ENDBRANCH   7   8
BRANCH   7  21
ATOM     21  C   UNL A   1      32.528  23.346  25.188  1.00  0.00    -0.033 A 
ATOM     22  C   UNL A   1      32.142  22.136  24.589  1.00  0.00     0.004 A 
ATOM     23  C   UNL A   1      33.399  23.304  26.287  1.00  0.00     0.004 A 
ATOM     24  C   UNL A   1      32.694  20.927  25.013  1.00  0.00     0.000 A 
ATOM     25  C   UNL A   1      33.934  22.090  26.723  1.00  0.00     0.000 A 
ATOM     26  C   UNL A   1      33.601  20.906  26.070  1.00  0.00     0.000 A 
ENDBRANCH   7  21
ENDBRANCH   5   7
ENDBRANCH   4   5
ENDBRANCH   3   4
ENDBRANCH   2   3
ENDBRANCH   1   2
BRANCH   1  27
ATOM     27  C   UNL A   1      31.669  31.072  26.425  1.00  0.00     0.202 C 
BRANCH  27  28
ATOM     28  C   UNL A   1      31.564  32.463  27.049  1.00  0.00     0.261 C 
BRANCH  28  29
ATOM     29  O   UNL A   1      32.786  33.215  26.872  1.00  0.00    -0.460 OA
BRANCH  29  30
ATOM     30  C   UNL A   1      33.229  33.837  27.998  1.00  0.00     0.338 C 
ATOM     31  O   UNL A   1      32.654  34.717  28.601  1.00  0.00    -0.246 OA
BRANCH  30  32
ATOM     32  C   UNL A   1      34.467  33.191  28.504  1.00  0.00     0.060 A 
ATOM     33  C   UNL A   1      34.397  31.821  28.776  1.00  0.00     0.016 A 
ATOM     34  C   UNL A   1      35.654  33.892  28.745  1.00  0.00     0.016 A 
ATOM     35  C   UNL A   1      35.496  31.157  29.321  1.00  0.00     0.010 A 
ATOM     36  C   UNL A   1      36.757  33.224  29.303  1.00  0.00     0.010 A 
ATOM     37  C   UNL A   1      36.672  31.858  29.624  1.00  0.00    -0.014 A 
BRANCH  37  38
ATOM     38  C   UNL A   1      37.715  31.164  30.430  1.00  0.00     0.031 A 
ATOM     39  C   UNL A   1      38.653  30.229  29.737  1.00  0.00     0.074 A 
ATOM     40  C   UNL A   1      37.883  31.418  31.739  1.00  0.00     0.049 A 
ATOM     41  N   UNL A   1      39.719  29.635  30.202  1.00  0.00    -0.248 NA
ATOM     42  C   UNL A   1      38.319  29.894  28.347  1.00  0.00     0.031 C 
ATOM     43  C   UNL A   1      36.981  32.241  32.519  1.00  0.00     0.029 A 
ATOM     44  N   UNL A   1      38.856  31.054  32.636  1.00  0.00    -0.354 N 
ATOM     45  C   UNL A   1      40.178  28.831  29.168  1.00  0.00     0.074 A 
ATOM     46  C   UNL A   1      39.256  29.005  28.063  1.00  0.00     0.031 C 
ATOM     47  C   UNL A   1      37.481  32.411  33.752  1.00  0.00     0.029 A 
ATOM     48  C   UNL A   1      38.729  31.668  33.866  1.00  0.00     0.049 A 
ATOM     49  H   UNL A   1      39.575  30.417  32.422  1.00  0.00     0.167 HD
ATOM     50  C   UNL A   1      41.259  28.014  29.156  1.00  0.00     0.034 A 
ATOM     51  C   UNL A   1      39.530  31.642  34.952  1.00  0.00     0.034 A 
ATOM     52  C   UNL A   1      42.132  27.826  30.291  1.00  0.00     0.049 A 
ATOM     53  C   UNL A   1      40.745  30.750  34.903  1.00  0.00     0.074 A 
ATOM     54  C   UNL A   1      43.255  27.024  30.391  1.00  0.00     0.029 A 
ATOM     55  N   UNL A   1      41.968  28.429  31.534  1.00  0.00    -0.354 N 
ATOM     56  N   UNL A   1      41.189  30.015  33.907  1.00  0.00    -0.248 NA
ATOM     57  C   UNL A   1      41.548  30.658  36.127  1.00  0.00     0.031 C 
ATOM     58  C   UNL A   1      43.722  27.083  31.710  1.00  0.00     0.029 A 
ATOM     59  C   UNL A   1      42.949  27.992  32.415  1.00  0.00     0.049 A 
ATOM     60  H   UNL A   1      41.259  29.074  31.758  1.00  0.00     0.167 HD
ATOM     61  C   UNL A   1      42.317  29.363  34.392  1.00  0.00     0.074 A 
ATOM     62  C   UNL A   1      42.516  29.838  35.747  1.00  0.00     0.031 C 
ATOM     63  C   UNL A   1      43.106  28.441  33.782  1.00  0.00     0.034 A 
BRANCH  50  64
ATOM     64  C   UNL A   1      41.474  27.207  27.900  1.00  0.00     0.023 A 
ATOM     65  C   UNL A   1      41.101  25.853  27.818  1.00  0.00     0.031 A 
ATOM     66  C   UNL A   1      42.162  27.766  26.810  1.00  0.00     0.131 A 
ATOM     67  C   UNL A   1      41.514  25.080  26.723  1.00  0.00     0.055 A 
ATOM     68  C   UNL A   1      42.482  27.016  25.678  1.00  0.00     0.041 A 
ATOM     69  F   UNL A   1      42.573  29.044  26.844  1.00  0.00    -0.206 F 
ATOM     70  C   UNL A   1      42.178  25.659  25.639  1.00  0.00     0.022 A 
BRANCH  67  71
ATOM     71  S   UNL A   1      41.354  23.276  26.832  1.00  0.00     0.124 S 
ATOM     72  O   UNL A   1      39.917  23.097  26.633  1.00  0.00    -0.237 OA
ATOM     73  O   UNL A   1      42.212  22.816  25.747  1.00  0.00    -0.237 OA
ATOM     74  O   UNL A   1      41.831  22.971  28.179  1.00  0.00    -0.744 OA
ENDBRANCH  67  71
ENDBRANCH  50  64
BRANCH  51  75
ATOM     75  C   UNL A   1      39.224  32.451  36.176  1.00  0.00     0.023 A 
ATOM     76  C   UNL A   1      38.378  31.951  37.184  1.00  0.00     0.031 A 
ATOM     77  C   UNL A   1      39.725  33.755  36.338  1.00  0.00     0.131 A 
ATOM     78  C   UNL A   1      38.033  32.759  38.282  1.00  0.00     0.055 A 
ATOM     79  C   UNL A   1      39.432  34.530  37.463  1.00  0.00     0.041 A 
ATOM     80  F   UNL A   1      40.520  34.298  35.403  1.00  0.00    -0.206 F 
ATOM     81  C   UNL A   1      38.572  34.037  38.439  1.00  0.00     0.022 A 
BRANCH  78  82
ATOM     82  S   UNL A   1      36.788  32.157  39.461  1.00  0.00     0.124 S 
ATOM     83  O   UNL A   1      37.028  30.718  39.438  1.00  0.00    -0.237 OA
ATOM     84  O   UNL A   1      37.166  32.851  40.687  1.00  0.00    -0.237 OA
ATOM     85  O   UNL A   1      35.522  32.587  38.871  1.00  0.00    -0.744 OA
ENDBRANCH  78  82
ENDBRANCH  51  75
BRANCH  63  86
ATOM     86  C   UNL A   1      44.259  27.902  34.596  1.00  0.00     0.023 A 
ATOM     87  C   UNL A   1      44.114  26.770  35.419  1.00  0.00     0.031 A 
ATOM     88  C   UNL A   1      45.498  28.565  34.598  1.00  0.00     0.131 A 
ATOM     89  C   UNL A   1      45.157  26.388  36.274  1.00  0.00     0.055 A 
ATOM     90  C   UNL A   1      46.560  28.133  35.396  1.00  0.00     0.041 A 
ATOM     91  F   UNL A   1      45.693  29.652  33.837  1.00  0.00    -0.206 F 
ATOM     92  C   UNL A   1      46.386  27.052  36.255  1.00  0.00     0.022 A 
BRANCH  89  93
ATOM     93  S   UNL A   1      44.840  25.103  37.517  1.00  0.00     0.124 S 
ATOM     94  O   UNL A   1      43.403  25.239  37.732  1.00  0.00    -0.237 OA
ATOM     95  O   UNL A   1      45.271  23.890  36.829  1.00  0.00    -0.237 OA
ATOM     96  O   UNL A   1      45.677  25.505  38.646  1.00  0.00    -0.744 OA
ENDBRANCH  89  93
ENDBRANCH  63  86
ENDBRANCH  37  38
ENDBRANCH  30  32
ENDBRANCH  29  30
ENDBRANCH  28  29
ENDBRANCH  27  28
ENDBRANCH   1  27
TORSDOF 21
ENDMDL
