MODEL 1
REMARK VINA RESULT:      -8.6      0.000      0.000
REMARK SMILES C[C@@H](C(=O)NCC(=O)OCCOCCOC(=O)c1ccc(-c2c3nc(c(-c4cc(S(=O)(=O)[O-])ccc4F)c4ccc([nH]4)c(-c4cc(S(=O)(=O)[O-])ccc4F)c4nc(c(-c5cc(S(=O)(=O)[O-])ccc5F)c5ccc2[nH]5)C=C4)C=C3)cc1)N1C(=O)/C(=C/c2cccc([N+](=O)[O-])c2)SC1=S
REMARK SMILES IDX 11 1 10 2 9 3 7 4 8 5 6 6 5 7 3 8 4 9 2 11 1 12 81 13 82 14
REMARK SMILES IDX 96 15 83 16 84 17 95 18 97 19 85 20 86 21 87 22 94 23 88 24
REMARK SMILES IDX 90 25 89 26 91 27 92 28 93 29 12 30 13 31 14 32 15 33 16 34
REMARK SMILES IDX 17 35 18 36 19 37 80 38 20 39 79 40 21 41 22 42 23 43 73 44
REMARK SMILES IDX 24 45 78 46 72 47 74 48 25 49 77 50 71 51 70 52 26 54 58 55
REMARK SMILES IDX 38 56 57 57 39 58 42 59 56 60 75 61 40 62 41 63 55 65 76 66
REMARK SMILES IDX 43 67 27 68 28 69 36 70 29 71 35 72 37 73 34 74 30 75 31 76
REMARK SMILES IDX 32 77 33 78 59 79 60 80 68 81 61 82 67 83 69 84 66 85 62 86
REMARK SMILES IDX 63 87 64 88 65 89 44 90 45 91 53 92 46 93 52 94 54 95 51 96
REMARK SMILES IDX 47 97 48 98 49 99 50 100
REMARK H PARENT 5 10 74 53 42 64
REMARK Flexibility Score: inf
ROOT
ATOM      1  C   UNL A   1      39.225  28.112  28.871  1.00  0.00     0.202 C 
ENDROOT
BRANCH   1   2
ATOM      2  C   UNL A   1      40.519  28.309  28.075  1.00  0.00     0.261 C 
BRANCH   2   3
ATOM      3  O   UNL A   1      40.485  27.567  26.844  1.00  0.00    -0.462 OA
BRANCH   3   4
ATOM      4  C   UNL A   1      41.659  27.004  26.461  1.00  0.00     0.325 C 
ATOM      5  O   UNL A   1      42.761  27.266  26.932  1.00  0.00    -0.250 OA
BRANCH   4   6
ATOM      6  C   UNL A   1      41.476  25.944  25.375  1.00  0.00     0.238 C 
BRANCH   6   7
ATOM      7  N   UNL A   1      42.349  24.774  25.379  1.00  0.00    -0.343 N 
ATOM      8  C   UNL A   1      42.193  23.575  26.008  1.00  0.00     0.243 C 
ATOM      9  O   UNL A   1      42.892  22.644  25.604  1.00  0.00    -0.273 OA
ATOM     10  H   UNL A   1      43.173  24.865  24.848  1.00  0.00     0.164 HD
BRANCH   8  11
ATOM     11  C   UNL A   1      41.133  23.406  27.114  1.00  0.00     0.178 C 
ATOM     12  C   UNL A   1      41.583  22.599  28.328  1.00  0.00     0.042 C 
BRANCH  11  13
ATOM     13  N   UNL A   1      39.855  22.913  26.559  1.00  0.00    -0.281 N 
ATOM     14  C   UNL A   1      38.802  23.809  26.478  1.00  0.00     0.266 C 
ATOM     15  C   UNL A   1      39.591  21.618  26.144  1.00  0.00     0.149 C 
ATOM     16  O   UNL A   1      38.840  25.003  26.746  1.00  0.00    -0.268 OA
ATOM     17  C   UNL A   1      37.558  23.110  26.070  1.00  0.00     0.081 C 
ATOM     18  S   UNL A   1      37.915  21.498  25.615  1.00  0.00    -0.054 SA
ATOM     19  S   UNL A   1      40.590  20.281  26.113  1.00  0.00    -0.052 S 
ATOM     20  C   UNL A   1      36.359  23.705  26.141  1.00  0.00     0.029 C 
BRANCH  20  21
ATOM     21  C   UNL A   1      35.072  23.058  25.866  1.00  0.00    -0.018 A 
ATOM     22  C   UNL A   1      34.303  22.567  26.927  1.00  0.00     0.008 A 
ATOM     23  C   UNL A   1      34.615  22.901  24.551  1.00  0.00     0.093 A 
ATOM     24  C   UNL A   1      33.069  21.957  26.685  1.00  0.00     0.008 A 
ATOM     25  C   UNL A   1      33.375  22.294  24.314  1.00  0.00     0.270 A 
ATOM     26  C   UNL A   1      32.597  21.823  25.379  1.00  0.00     0.085 A 
BRANCH  25  27
ATOM     27  N   UNL A   1      32.891  22.145  22.936  1.00  0.00     0.062 N 
ATOM     28  O   UNL A   1      32.350  21.072  22.632  1.00  0.00    -0.258 OA
ATOM     29  O   UNL A   1      33.071  23.091  22.158  1.00  0.00    -0.258 OA
ENDBRANCH  25  27
ENDBRANCH  20  21
ENDBRANCH  11  13
ENDBRANCH   8  11
ENDBRANCH   6   7
ENDBRANCH   4   6
ENDBRANCH   3   4
ENDBRANCH   2   3
ENDBRANCH   1   2
BRANCH   1  30
ATOM     30  O   UNL A   1      38.052  28.702  28.310  1.00  0.00    -0.374 OA
BRANCH  30  31
ATOM     31  C   UNL A   1      37.543  29.879  28.936  1.00  0.00     0.202 C 
BRANCH  31  32
ATOM     32  C   UNL A   1      36.319  29.725  29.848  1.00  0.00     0.261 C 
BRANCH  32  33
ATOM     33  O   UNL A   1      36.661  29.285  31.173  1.00  0.00    -0.460 OA
BRANCH  33  34
ATOM     34  C   UNL A   1      37.334  30.198  31.917  1.00  0.00     0.338 C 
ATOM     35  O   UNL A   1      36.908  31.276  32.311  1.00  0.00    -0.246 OA
BRANCH  34  36
ATOM     36  C   UNL A   1      38.619  29.639  32.374  1.00  0.00     0.060 A 
ATOM     37  C   UNL A   1      39.671  30.536  32.601  1.00  0.00     0.016 A 
ATOM     38  C   UNL A   1      38.816  28.264  32.516  1.00  0.00     0.016 A 
ATOM     39  C   UNL A   1      40.935  30.058  32.943  1.00  0.00     0.010 A 
ATOM     40  C   UNL A   1      40.090  27.787  32.848  1.00  0.00     0.010 A 
ATOM     41  C   UNL A   1      41.160  28.679  33.042  1.00  0.00    -0.014 A 
BRANCH  41  42
ATOM     42  C   UNL A   1      42.538  28.170  33.253  1.00  0.00     0.031 A 
ATOM     43  C   UNL A   1      43.360  27.755  32.065  1.00  0.00     0.074 A 
ATOM     44  C   UNL A   1      43.055  28.098  34.492  1.00  0.00     0.049 A 
ATOM     45  N   UNL A   1      44.558  27.227  32.027  1.00  0.00    -0.248 NA
ATOM     46  C   UNL A   1      42.749  27.964  30.745  1.00  0.00     0.031 C 
ATOM     47  C   UNL A   1      42.369  28.516  35.714  1.00  0.00     0.029 A 
ATOM     48  N   UNL A   1      44.270  27.633  34.929  1.00  0.00    -0.354 N 
ATOM     49  C   UNL A   1      44.848  27.044  30.678  1.00  0.00     0.074 A 
ATOM     50  C   UNL A   1      43.682  27.482  29.938  1.00  0.00     0.031 C 
ATOM     51  C   UNL A   1      43.166  28.265  36.766  1.00  0.00     0.029 A 
ATOM     52  C   UNL A   1      44.396  27.630  36.298  1.00  0.00     0.049 A 
ATOM     53  H   UNL A   1      44.983  27.331  34.320  1.00  0.00     0.167 HD
ATOM     54  C   UNL A   1      45.985  26.564  30.113  1.00  0.00     0.034 A 
ATOM     55  C   UNL A   1      45.373  27.135  37.085  1.00  0.00     0.034 A 
ATOM     56  C   UNL A   1      47.123  26.101  30.870  1.00  0.00     0.049 A 
ATOM     57  C   UNL A   1      46.579  26.495  36.441  1.00  0.00     0.074 A 
ATOM     58  C   UNL A   1      48.327  25.604  30.402  1.00  0.00     0.029 A 
ATOM     59  N   UNL A   1      47.193  26.059  32.258  1.00  0.00    -0.354 N 
ATOM     60  N   UNL A   1      46.848  26.335  35.166  1.00  0.00    -0.248 NA
ATOM     61  C   UNL A   1      47.613  25.970  37.344  1.00  0.00     0.031 C 
ATOM     62  C   UNL A   1      49.091  25.191  31.500  1.00  0.00     0.029 A 
ATOM     63  C   UNL A   1      48.400  25.506  32.659  1.00  0.00     0.049 A 
ATOM     64  H   UNL A   1      46.489  26.377  32.867  1.00  0.00     0.167 HD
ATOM     65  C   UNL A   1      48.091  25.708  35.115  1.00  0.00     0.074 A 
ATOM     66  C   UNL A   1      48.525  25.536  36.487  1.00  0.00     0.031 C 
ATOM     67  C   UNL A   1      48.811  25.315  34.032  1.00  0.00     0.034 A 
BRANCH  54  68
ATOM     68  C   UNL A   1      46.017  26.468  28.607  1.00  0.00     0.023 A 
ATOM     69  C   UNL A   1      46.453  27.540  27.806  1.00  0.00     0.031 A 
ATOM     70  C   UNL A   1      45.570  25.302  27.957  1.00  0.00     0.131 A 
ATOM     71  C   UNL A   1      46.360  27.454  26.410  1.00  0.00     0.055 A 
ATOM     72  C   UNL A   1      45.557  25.194  26.565  1.00  0.00     0.041 A 
ATOM     73  F   UNL A   1      45.123  24.254  28.666  1.00  0.00    -0.206 F 
ATOM     74  C   UNL A   1      45.937  26.280  25.783  1.00  0.00     0.022 A 
BRANCH  71  75
ATOM     75  S   UNL A   1      46.656  28.951  25.428  1.00  0.00     0.124 S 
ATOM     76  O   UNL A   1      46.461  28.457  24.067  1.00  0.00    -0.237 OA
ATOM     77  O   UNL A   1      45.634  29.864  25.929  1.00  0.00    -0.237 OA
ATOM     78  O   UNL A   1      48.032  29.313  25.760  1.00  0.00    -0.744 OA
ENDBRANCH  71  75
ENDBRANCH  54  68
BRANCH  55  79
ATOM     79  C   UNL A   1      45.223  27.160  38.567  1.00  0.00     0.023 A 
ATOM     80  C   UNL A   1      45.684  28.241  39.333  1.00  0.00     0.031 A 
ATOM     81  C   UNL A   1      44.643  26.070  39.244  1.00  0.00     0.131 A 
ATOM     82  C   UNL A   1      45.588  28.195  40.733  1.00  0.00     0.055 A 
ATOM     83  C   UNL A   1      44.507  26.051  40.633  1.00  0.00     0.041 A 
ATOM     84  F   UNL A   1      44.185  25.011  38.559  1.00  0.00    -0.206 F 
ATOM     85  C   UNL A   1      44.991  27.113  41.387  1.00  0.00     0.022 A 
BRANCH  82  86
ATOM     86  S   UNL A   1      46.319  29.545  41.700  1.00  0.00     0.124 S 
ATOM     87  O   UNL A   1      47.505  29.867  40.914  1.00  0.00    -0.237 OA
ATOM     88  O   UNL A   1      45.250  30.539  41.687  1.00  0.00    -0.237 OA
ATOM     89  O   UNL A   1      46.578  28.931  43.001  1.00  0.00    -0.744 OA
ENDBRANCH  82  86
ENDBRANCH  55  79
BRANCH  67  90
ATOM     90  C   UNL A   1      50.159  24.686  34.294  1.00  0.00     0.023 A 
ATOM     91  C   UNL A   1      50.329  23.291  34.342  1.00  0.00     0.031 A 
ATOM     92  C   UNL A   1      51.290  25.497  34.502  1.00  0.00     0.131 A 
ATOM     93  C   UNL A   1      51.590  22.750  34.637  1.00  0.00     0.055 A 
ATOM     94  C   UNL A   1      52.553  24.952  34.737  1.00  0.00     0.041 A 
ATOM     95  F   UNL A   1      51.186  26.835  34.471  1.00  0.00    -0.206 F 
ATOM     96  C   UNL A   1      52.706  23.571  34.817  1.00  0.00     0.022 A 
BRANCH  93  97
ATOM     97  S   UNL A   1      51.741  20.956  34.859  1.00  0.00     0.124 S 
ATOM     98  O   UNL A   1      50.349  20.552  35.024  1.00  0.00    -0.237 OA
ATOM     99  O   UNL A   1      52.384  20.539  33.616  1.00  0.00    -0.237 OA
ATOM    100  O   UNL A   1      52.571  20.827  36.057  1.00  0.00    -0.744 OA
ENDBRANCH  93  97
ENDBRANCH  67  90
ENDBRANCH  41  42
ENDBRANCH  34  36
ENDBRANCH  33  34
ENDBRANCH  32  33
ENDBRANCH  31  32
ENDBRANCH  30  31
ENDBRANCH   1  30
TORSDOF 22
ENDMDL
MODEL 2
REMARK VINA RESULT:      -8.6      5.095     13.142
REMARK SMILES C[C@@H](C(=O)NCC(=O)OCCOCCOC(=O)c1ccc(-c2c3nc(c(-c4cc(S(=O)(=O)[O-])ccc4F)c4ccc([nH]4)c(-c4cc(S(=O)(=O)[O-])ccc4F)c4nc(c(-c5cc(S(=O)(=O)[O-])ccc5F)c5ccc2[nH]5)C=C4)C=C3)cc1)N1C(=O)/C(=C/c2cccc([N+](=O)[O-])c2)SC1=S
REMARK SMILES IDX 11 1 10 2 9 3 7 4 8 5 6 6 5 7 3 8 4 9 2 11 1 12 81 13 82 14
REMARK SMILES IDX 96 15 83 16 84 17 95 18 97 19 85 20 86 21 87 22 94 23 88 24
REMARK SMILES IDX 90 25 89 26 91 27 92 28 93 29 12 30 13 31 14 32 15 33 16 34
REMARK SMILES IDX 17 35 18 36 19 37 80 38 20 39 79 40 21 41 22 42 23 43 73 44
REMARK SMILES IDX 24 45 78 46 72 47 74 48 25 49 77 50 71 51 70 52 26 54 58 55
REMARK SMILES IDX 38 56 57 57 39 58 42 59 56 60 75 61 40 62 41 63 55 65 76 66
REMARK SMILES IDX 43 67 27 68 28 69 36 70 29 71 35 72 37 73 34 74 30 75 31 76
REMARK SMILES IDX 32 77 33 78 59 79 60 80 68 81 61 82 67 83 69 84 66 85 62 86
REMARK SMILES IDX 63 87 64 88 65 89 44 90 45 91 53 92 46 93 52 94 54 95 51 96
REMARK SMILES IDX 47 97 48 98 49 99 50 100
REMARK H PARENT 5 10 74 53 42 64
REMARK Flexibility Score: inf
ROOT
ATOM      1  C   UNL A   1      53.205  25.766  35.888  1.00  0.00     0.202 C 
ENDROOT
BRANCH   1   2
ATOM      2  C   UNL A   1      53.836  25.032  34.701  1.00  0.00     0.261 C 
BRANCH   2   3
ATOM      3  O   UNL A   1      52.984  23.968  34.243  1.00  0.00    -0.462 OA
BRANCH   3   4
ATOM      4  C   UNL A   1      53.286  22.729  34.708  1.00  0.00     0.325 C 
ATOM      5  O   UNL A   1      54.340  22.134  34.515  1.00  0.00    -0.250 OA
BRANCH   4   6
ATOM      6  C   UNL A   1      52.165  22.132  35.560  1.00  0.00     0.238 C 
BRANCH   6   7
ATOM      7  N   UNL A   1      50.855  22.773  35.548  1.00  0.00    -0.343 N 
ATOM      8  C   UNL A   1      49.616  22.221  35.685  1.00  0.00     0.243 C 
ATOM      9  O   UNL A   1      48.695  22.992  35.964  1.00  0.00    -0.273 OA
ATOM     10  H   UNL A   1      50.867  23.749  35.421  1.00  0.00     0.164 HD
BRANCH   8  11
ATOM     11  C   UNL A   1      49.423  20.696  35.568  1.00  0.00     0.178 C 
ATOM     12  C   UNL A   1      49.252  20.170  34.146  1.00  0.00     0.042 C 
BRANCH  11  13
ATOM     13  N   UNL A   1      48.354  20.222  36.471  1.00  0.00    -0.281 N 
ATOM     14  C   UNL A   1      48.731  19.726  37.708  1.00  0.00     0.266 C 
ATOM     15  C   UNL A   1      46.999  20.186  36.184  1.00  0.00     0.149 C 
ATOM     16  O   UNL A   1      49.864  19.712  38.171  1.00  0.00    -0.268 OA
ATOM     17  C   UNL A   1      47.563  19.134  38.407  1.00  0.00     0.081 C 
ATOM     18  S   UNL A   1      46.126  19.486  37.545  1.00  0.00    -0.054 SA
ATOM     19  S   UNL A   1      46.185  20.671  34.810  1.00  0.00    -0.052 S 
ATOM     20  C   UNL A   1      47.706  18.389  39.512  1.00  0.00     0.029 C 
BRANCH  20  21
ATOM     21  C   UNL A   1      46.625  17.677  40.201  1.00  0.00    -0.018 A 
ATOM     22  C   UNL A   1      46.666  17.536  41.594  1.00  0.00     0.008 A 
ATOM     23  C   UNL A   1      45.564  17.111  39.481  1.00  0.00     0.093 A 
ATOM     24  C   UNL A   1      45.641  16.869  42.269  1.00  0.00     0.008 A 
ATOM     25  C   UNL A   1      44.536  16.449  40.163  1.00  0.00     0.270 A 
ATOM     26  C   UNL A   1      44.569  16.328  41.558  1.00  0.00     0.085 A 
BRANCH  25  27
ATOM     27  N   UNL A   1      43.418  15.871  39.408  1.00  0.00     0.062 N 
ATOM     28  O   UNL A   1      42.415  15.520  40.047  1.00  0.00    -0.258 OA
ATOM     29  O   UNL A   1      43.553  15.751  38.183  1.00  0.00    -0.258 OA
ENDBRANCH  25  27
ENDBRANCH  20  21
ENDBRANCH  11  13
ENDBRANCH   8  11
ENDBRANCH   6   7
ENDBRANCH   4   6
ENDBRANCH   3   4
ENDBRANCH   2   3
ENDBRANCH   1   2
BRANCH   1  30
ATOM     30  O   UNL A   1      51.826  25.488  36.134  1.00  0.00    -0.374 OA
BRANCH  30  31
ATOM     31  C   UNL A   1      51.000  26.576  36.550  1.00  0.00     0.202 C 
BRANCH  31  32
ATOM     32  C   UNL A   1      49.987  27.123  35.536  1.00  0.00     0.261 C 
BRANCH  32  33
ATOM     33  O   UNL A   1      48.729  26.427  35.572  1.00  0.00    -0.460 OA
BRANCH  33  34
ATOM     34  C   UNL A   1      47.756  27.053  36.281  1.00  0.00     0.338 C 
ATOM     35  O   UNL A   1      47.860  27.521  37.408  1.00  0.00    -0.246 OA
BRANCH  34  36
ATOM     36  C   UNL A   1      46.573  27.283  35.434  1.00  0.00     0.060 A 
ATOM     37  C   UNL A   1      46.522  28.477  34.702  1.00  0.00     0.016 A 
ATOM     38  C   UNL A   1      45.503  26.385  35.401  1.00  0.00     0.016 A 
ATOM     39  C   UNL A   1      45.386  28.792  33.957  1.00  0.00     0.010 A 
ATOM     40  C   UNL A   1      44.360  26.710  34.662  1.00  0.00     0.010 A 
ATOM     41  C   UNL A   1      44.287  27.923  33.954  1.00  0.00    -0.014 A 
BRANCH  41  42
ATOM     42  C   UNL A   1      43.026  28.334  33.288  1.00  0.00     0.031 A 
ATOM     43  C   UNL A   1      42.812  27.994  31.839  1.00  0.00     0.074 A 
ATOM     44  C   UNL A   1      42.075  28.990  33.976  1.00  0.00     0.049 A 
ATOM     45  N   UNL A   1      41.817  28.309  31.049  1.00  0.00    -0.248 NA
ATOM     46  C   UNL A   1      43.862  27.190  31.198  1.00  0.00     0.031 C 
ATOM     47  C   UNL A   1      42.150  29.333  35.395  1.00  0.00     0.029 A 
ATOM     48  N   UNL A   1      40.866  29.496  33.571  1.00  0.00    -0.354 N 
ATOM     49  C   UNL A   1      42.116  27.738  29.816  1.00  0.00     0.074 A 
ATOM     50  C   UNL A   1      43.406  27.093  29.959  1.00  0.00     0.031 C 
ATOM     51  C   UNL A   1      41.045  30.016  35.737  1.00  0.00     0.029 A 
ATOM     52  C   UNL A   1      40.207  30.196  34.553  1.00  0.00     0.049 A 
ATOM     53  H   UNL A   1      40.504  29.370  32.663  1.00  0.00     0.167 HD
ATOM     54  C   UNL A   1      41.379  27.746  28.677  1.00  0.00     0.034 A 
ATOM     55  C   UNL A   1      39.079  30.933  34.495  1.00  0.00     0.034 A 
ATOM     56  C   UNL A   1      40.111  28.424  28.547  1.00  0.00     0.049 A 
ATOM     57  C   UNL A   1      38.332  31.030  33.187  1.00  0.00     0.074 A 
ATOM     58  C   UNL A   1      39.277  28.491  27.443  1.00  0.00     0.029 A 
ATOM     59  N   UNL A   1      39.502  29.173  29.547  1.00  0.00    -0.354 N 
ATOM     60  N   UNL A   1      38.618  30.479  32.030  1.00  0.00    -0.248 NA
ATOM     61  C   UNL A   1      37.111  31.846  33.178  1.00  0.00     0.031 C 
ATOM     62  C   UNL A   1      38.207  29.339  27.751  1.00  0.00     0.029 A 
ATOM     63  C   UNL A   1      38.327  29.738  29.073  1.00  0.00     0.049 A 
ATOM     64  H   UNL A   1      39.854  29.285  30.459  1.00  0.00     0.167 HD
ATOM     65  C   UNL A   1      37.601  30.868  31.162  1.00  0.00     0.074 A 
ATOM     66  C   UNL A   1      36.687  31.684  31.934  1.00  0.00     0.031 C 
ATOM     67  C   UNL A   1      37.435  30.572  29.846  1.00  0.00     0.034 A 
BRANCH  54  68
ATOM     68  C   UNL A   1      41.963  27.044  27.475  1.00  0.00     0.023 A 
ATOM     69  C   UNL A   1      41.787  25.664  27.267  1.00  0.00     0.031 A 
ATOM     70  C   UNL A   1      42.739  27.755  26.541  1.00  0.00     0.131 A 
ATOM     71  C   UNL A   1      42.439  25.027  26.201  1.00  0.00     0.055 A 
ATOM     72  C   UNL A   1      43.320  27.128  25.437  1.00  0.00     0.041 A 
ATOM     73  F   UNL A   1      42.961  29.070  26.697  1.00  0.00    -0.206 F 
ATOM     74  C   UNL A   1      43.186  25.754  25.271  1.00  0.00     0.022 A 
BRANCH  71  75
ATOM     75  S   UNL A   1      42.423  23.214  26.134  1.00  0.00     0.124 S 
ATOM     76  O   UNL A   1      41.011  22.921  26.366  1.00  0.00    -0.237 OA
ATOM     77  O   UNL A   1      42.921  22.943  24.790  1.00  0.00    -0.237 OA
ATOM     78  O   UNL A   1      43.319  22.822  27.221  1.00  0.00    -0.744 OA
ENDBRANCH  71  75
ENDBRANCH  54  68
BRANCH  55  79
ATOM     79  C   UNL A   1      38.621  31.695  35.692  1.00  0.00     0.023 A 
ATOM     80  C   UNL A   1      37.990  31.057  36.770  1.00  0.00     0.031 A 
ATOM     81  C   UNL A   1      38.781  33.092  35.752  1.00  0.00     0.131 A 
ATOM     82  C   UNL A   1      37.509  31.819  37.848  1.00  0.00     0.055 A 
ATOM     83  C   UNL A   1      38.344  33.839  36.847  1.00  0.00     0.041 A 
ATOM     84  F   UNL A   1      39.380  33.751  34.748  1.00  0.00    -0.206 F 
ATOM     85  C   UNL A   1      37.694  33.204  37.899  1.00  0.00     0.022 A 
BRANCH  82  86
ATOM     86  S   UNL A   1      36.574  30.981  39.157  1.00  0.00     0.124 S 
ATOM     87  O   UNL A   1      35.423  31.863  39.312  1.00  0.00    -0.237 OA
ATOM     88  O   UNL A   1      36.311  29.679  38.554  1.00  0.00    -0.237 OA
ATOM     89  O   UNL A   1      37.506  30.965  40.283  1.00  0.00    -0.744 OA
ENDBRANCH  82  86
ENDBRANCH  55  79
BRANCH  67  90
ATOM     90  C   UNL A   1      36.198  31.115  29.170  1.00  0.00     0.023 A 
ATOM     91  C   UNL A   1      35.823  32.466  29.287  1.00  0.00     0.031 A 
ATOM     92  C   UNL A   1      35.382  30.267  28.400  1.00  0.00     0.131 A 
ATOM     93  C   UNL A   1      34.639  32.917  28.683  1.00  0.00     0.055 A 
ATOM     94  C   UNL A   1      34.238  30.734  27.753  1.00  0.00     0.041 A 
ATOM     95  F   UNL A   1      35.691  28.968  28.257  1.00  0.00    -0.206 F 
ATOM     96  C   UNL A   1      33.854  32.065  27.902  1.00  0.00     0.022 A 
BRANCH  93  97
ATOM     97  S   UNL A   1      34.093  34.619  28.992  1.00  0.00     0.124 S 
ATOM     98  O   UNL A   1      34.385  34.778  30.413  1.00  0.00    -0.237 OA
ATOM     99  O   UNL A   1      34.933  35.388  28.078  1.00  0.00    -0.237 OA
ATOM    100  O   UNL A   1      32.672  34.592  28.649  1.00  0.00    -0.744 OA
ENDBRANCH  93  97
ENDBRANCH  67  90
ENDBRANCH  41  42
ENDBRANCH  34  36
ENDBRANCH  33  34
ENDBRANCH  32  33
ENDBRANCH  31  32
ENDBRANCH  30  31
ENDBRANCH   1  30
TORSDOF 22
ENDMDL
MODEL 3
REMARK VINA RESULT:      -8.5      8.962     14.736
REMARK SMILES C[C@@H](C(=O)NCC(=O)OCCOCCOC(=O)c1ccc(-c2c3nc(c(-c4cc(S(=O)(=O)[O-])ccc4F)c4ccc([nH]4)c(-c4cc(S(=O)(=O)[O-])ccc4F)c4nc(c(-c5cc(S(=O)(=O)[O-])ccc5F)c5ccc2[nH]5)C=C4)C=C3)cc1)N1C(=O)/C(=C/c2cccc([N+](=O)[O-])c2)SC1=S
REMARK SMILES IDX 11 1 10 2 9 3 7 4 8 5 6 6 5 7 3 8 4 9 2 11 1 12 81 13 82 14
REMARK SMILES IDX 96 15 83 16 84 17 95 18 97 19 85 20 86 21 87 22 94 23 88 24
REMARK SMILES IDX 90 25 89 26 91 27 92 28 93 29 12 30 13 31 14 32 15 33 16 34
REMARK SMILES IDX 17 35 18 36 19 37 80 38 20 39 79 40 21 41 22 42 23 43 73 44
REMARK SMILES IDX 24 45 78 46 72 47 74 48 25 49 77 50 71 51 70 52 26 54 58 55
REMARK SMILES IDX 38 56 57 57 39 58 42 59 56 60 75 61 40 62 41 63 55 65 76 66
REMARK SMILES IDX 43 67 27 68 28 69 36 70 29 71 35 72 37 73 34 74 30 75 31 76
REMARK SMILES IDX 32 77 33 78 59 79 60 80 68 81 61 82 67 83 69 84 66 85 62 86
REMARK SMILES IDX 63 87 64 88 65 89 44 90 45 91 53 92 46 93 52 94 54 95 51 96
REMARK SMILES IDX 47 97 48 98 49 99 50 100
REMARK H PARENT 5 10 74 53 42 64
REMARK Flexibility Score: inf
ROOT
ATOM      1  C   UNL A   1      45.640  39.954  25.816  1.00  0.00     0.202 C 
ENDROOT
BRANCH   1   2
ATOM      2  C   UNL A   1      44.630  39.180  26.668  1.00  0.00     0.261 C 
BRANCH   2   3
ATOM      3  O   UNL A   1      43.385  39.892  26.764  1.00  0.00    -0.462 OA
BRANCH   3   4
ATOM      4  C   UNL A   1      42.857  39.994  28.011  1.00  0.00     0.325 C 
ATOM      5  O   UNL A   1      41.906  39.348  28.436  1.00  0.00    -0.250 OA
BRANCH   4   6
ATOM      6  C   UNL A   1      43.607  40.998  28.887  1.00  0.00     0.238 C 
BRANCH   6   7
ATOM      7  N   UNL A   1      42.842  41.865  29.776  1.00  0.00    -0.343 N 
ATOM      8  C   UNL A   1      43.279  42.783  30.684  1.00  0.00     0.243 C 
ATOM      9  O   UNL A   1      42.455  43.611  31.074  1.00  0.00    -0.273 OA
ATOM     10  H   UNL A   1      41.864  41.774  29.710  1.00  0.00     0.164 HD
BRANCH   8  11
ATOM     11  C   UNL A   1      44.757  42.805  31.122  1.00  0.00     0.178 C 
ATOM     12  C   UNL A   1      45.070  43.710  32.310  1.00  0.00     0.042 C 
BRANCH  11  13
ATOM     13  N   UNL A   1      45.652  43.062  29.975  1.00  0.00    -0.281 N 
ATOM     14  C   UNL A   1      45.460  44.233  29.261  1.00  0.00     0.266 C 
ATOM     15  C   UNL A   1      46.649  42.218  29.512  1.00  0.00     0.149 C 
ATOM     16  O   UNL A   1      44.670  45.129  29.531  1.00  0.00    -0.268 OA
ATOM     17  C   UNL A   1      46.317  44.246  28.049  1.00  0.00     0.081 C 
ATOM     18  S   UNL A   1      47.406  42.926  28.087  1.00  0.00    -0.054 SA
ATOM     19  S   UNL A   1      47.148  40.736  30.094  1.00  0.00    -0.052 S 
ATOM     20  C   UNL A   1      46.151  45.157  27.079  1.00  0.00     0.029 C 
BRANCH  20  21
ATOM     21  C   UNL A   1      46.873  45.178  25.802  1.00  0.00    -0.018 A 
ATOM     22  C   UNL A   1      48.207  45.600  25.768  1.00  0.00     0.008 A 
ATOM     23  C   UNL A   1      46.235  44.808  24.611  1.00  0.00     0.093 A 
ATOM     24  C   UNL A   1      48.914  45.619  24.562  1.00  0.00     0.008 A 
ATOM     25  C   UNL A   1      46.950  44.822  23.407  1.00  0.00     0.270 A 
ATOM     26  C   UNL A   1      48.291  45.224  23.378  1.00  0.00     0.085 A 
BRANCH  25  27
ATOM     27  N   UNL A   1      46.283  44.418  22.162  1.00  0.00     0.062 N 
ATOM     28  O   UNL A   1      45.381  43.572  22.244  1.00  0.00    -0.258 OA
ATOM     29  O   UNL A   1      46.677  44.932  21.106  1.00  0.00    -0.258 OA
ENDBRANCH  25  27
ENDBRANCH  20  21
ENDBRANCH  11  13
ENDBRANCH   8  11
ENDBRANCH   6   7
ENDBRANCH   4   6
ENDBRANCH   3   4
ENDBRANCH   2   3
ENDBRANCH   1   2
BRANCH   1  30
ATOM     30  O   UNL A   1      46.986  39.958  26.292  1.00  0.00    -0.374 OA
BRANCH  30  31
ATOM     31  C   UNL A   1      47.737  38.752  26.152  1.00  0.00     0.202 C 
BRANCH  31  32
ATOM     32  C   UNL A   1      47.997  37.928  27.420  1.00  0.00     0.261 C 
BRANCH  32  33
ATOM     33  O   UNL A   1      46.804  37.329  27.952  1.00  0.00    -0.460 OA
BRANCH  33  34
ATOM     34  C   UNL A   1      46.998  36.562  29.055  1.00  0.00     0.338 C 
ATOM     35  O   UNL A   1      47.625  36.873  30.059  1.00  0.00    -0.246 OA
BRANCH  34  36
ATOM     36  C   UNL A   1      46.176  35.342  28.980  1.00  0.00     0.060 A 
ATOM     37  C   UNL A   1      46.431  34.331  29.916  1.00  0.00     0.016 A 
ATOM     38  C   UNL A   1      45.221  35.155  27.977  1.00  0.00     0.016 A 
ATOM     39  C   UNL A   1      45.751  33.117  29.836  1.00  0.00     0.010 A 
ATOM     40  C   UNL A   1      44.549  33.930  27.893  1.00  0.00     0.010 A 
ATOM     41  C   UNL A   1      44.825  32.898  28.807  1.00  0.00    -0.014 A 
BRANCH  41  42
ATOM     42  C   UNL A   1      44.221  31.553  28.634  1.00  0.00     0.031 A 
ATOM     43  C   UNL A   1      44.929  30.529  27.792  1.00  0.00     0.074 A 
ATOM     44  C   UNL A   1      43.060  31.246  29.238  1.00  0.00     0.049 A 
ATOM     45  N   UNL A   1      44.551  29.321  27.459  1.00  0.00    -0.248 NA
ATOM     46  C   UNL A   1      46.240  30.922  27.255  1.00  0.00     0.031 C 
ATOM     47  C   UNL A   1      42.306  32.141  30.115  1.00  0.00     0.029 A 
ATOM     48  N   UNL A   1      42.303  30.102  29.194  1.00  0.00    -0.354 N 
ATOM     49  C   UNL A   1      45.578  28.805  26.676  1.00  0.00     0.074 A 
ATOM     50  C   UNL A   1      46.575  29.849  26.555  1.00  0.00     0.031 C 
ATOM     51  C   UNL A   1      41.181  31.520  30.507  1.00  0.00     0.029 A 
ATOM     52  C   UNL A   1      41.113  30.204  29.875  1.00  0.00     0.049 A 
ATOM     53  H   UNL A   1      42.586  29.286  28.720  1.00  0.00     0.167 HD
ATOM     54  C   UNL A   1      45.682  27.572  26.120  1.00  0.00     0.034 A 
ATOM     55  C   UNL A   1      40.071  29.352  29.947  1.00  0.00     0.034 A 
ATOM     56  C   UNL A   1      44.662  26.555  26.225  1.00  0.00     0.049 A 
ATOM     57  C   UNL A   1      40.153  28.030  29.222  1.00  0.00     0.074 A 
ATOM     58  C   UNL A   1      44.666  25.271  25.708  1.00  0.00     0.029 A 
ATOM     59  N   UNL A   1      43.444  26.715  26.874  1.00  0.00    -0.354 N 
ATOM     60  N   UNL A   1      41.133  27.547  28.493  1.00  0.00    -0.248 NA
ATOM     61  C   UNL A   1      38.990  27.139  29.332  1.00  0.00     0.031 C 
ATOM     62  C   UNL A   1      43.424  24.684  25.978  1.00  0.00     0.029 A 
ATOM     63  C   UNL A   1      42.674  25.569  26.735  1.00  0.00     0.049 A 
ATOM     64  H   UNL A   1      43.168  27.523  27.363  1.00  0.00     0.167 HD
ATOM     65  C   UNL A   1      40.710  26.288  28.074  1.00  0.00     0.074 A 
ATOM     66  C   UNL A   1      39.395  26.080  28.646  1.00  0.00     0.031 C 
ATOM     67  C   UNL A   1      41.352  25.383  27.290  1.00  0.00     0.034 A 
BRANCH  54  68
ATOM     68  C   UNL A   1      46.920  27.286  25.304  1.00  0.00     0.023 A 
ATOM     69  C   UNL A   1      47.084  27.798  24.004  1.00  0.00     0.031 A 
ATOM     70  C   UNL A   1      47.937  26.459  25.817  1.00  0.00     0.131 A 
ATOM     71  C   UNL A   1      48.193  27.417  23.235  1.00  0.00     0.055 A 
ATOM     72  C   UNL A   1      49.078  26.149  25.075  1.00  0.00     0.041 A 
ATOM     73  F   UNL A   1      47.829  25.924  27.043  1.00  0.00    -0.206 F 
ATOM     74  C   UNL A   1      49.204  26.615  23.770  1.00  0.00     0.022 A 
BRANCH  71  75
ATOM     75  S   UNL A   1      48.222  27.860  21.476  1.00  0.00     0.124 S 
ATOM     76  O   UNL A   1      46.849  28.310  21.260  1.00  0.00    -0.237 OA
ATOM     77  O   UNL A   1      49.249  28.895  21.428  1.00  0.00    -0.237 OA
ATOM     78  O   UNL A   1      48.570  26.606  20.811  1.00  0.00    -0.744 OA
ENDBRANCH  71  75
ENDBRANCH  54  68
BRANCH  55  79
ATOM     79  C   UNL A   1      38.832  29.746  30.675  1.00  0.00     0.023 A 
ATOM     80  C   UNL A   1      37.915  30.654  30.126  1.00  0.00     0.031 A 
ATOM     81  C   UNL A   1      38.569  29.239  31.962  1.00  0.00     0.131 A 
ATOM     82  C   UNL A   1      36.796  31.055  30.872  1.00  0.00     0.055 A 
ATOM     83  C   UNL A   1      37.430  29.604  32.681  1.00  0.00     0.041 A 
ATOM     84  F   UNL A   1      39.413  28.366  32.533  1.00  0.00    -0.206 F 
ATOM     85  C   UNL A   1      36.540  30.525  32.141  1.00  0.00     0.022 A 
BRANCH  82  86
ATOM     86  S   UNL A   1      35.707  32.335  30.190  1.00  0.00     0.124 S 
ATOM     87  O   UNL A   1      35.513  31.864  28.824  1.00  0.00    -0.237 OA
ATOM     88  O   UNL A   1      34.547  32.246  31.072  1.00  0.00    -0.237 OA
ATOM     89  O   UNL A   1      36.494  33.559  30.324  1.00  0.00    -0.744 OA
ENDBRANCH  82  86
ENDBRANCH  55  79
BRANCH  67  90
ATOM     90  C   UNL A   1      40.647  24.072  27.034  1.00  0.00     0.023 A 
ATOM     91  C   UNL A   1      39.463  24.004  26.277  1.00  0.00     0.031 A 
ATOM     92  C   UNL A   1      41.167  22.875  27.558  1.00  0.00     0.131 A 
ATOM     93  C   UNL A   1      38.814  22.771  26.105  1.00  0.00     0.055 A 
ATOM     94  C   UNL A   1      40.549  21.644  27.334  1.00  0.00     0.041 A 
ATOM     95  F   UNL A   1      42.293  22.882  28.290  1.00  0.00    -0.206 F 
ATOM     96  C   UNL A   1      39.359  21.588  26.614  1.00  0.00     0.022 A 
BRANCH  93  97
ATOM     97  S   UNL A   1      37.204  22.739  25.271  1.00  0.00     0.124 S 
ATOM     98  O   UNL A   1      37.024  21.315  25.012  1.00  0.00    -0.237 OA
ATOM     99  O   UNL A   1      36.319  23.321  26.277  1.00  0.00    -0.237 OA
ATOM    100  O   UNL A   1      37.416  23.565  24.083  1.00  0.00    -0.744 OA
ENDBRANCH  93  97
ENDBRANCH  67  90
ENDBRANCH  41  42
ENDBRANCH  34  36
ENDBRANCH  33  34
ENDBRANCH  32  33
ENDBRANCH  31  32
ENDBRANCH  30  31
ENDBRANCH   1  30
TORSDOF 22
ENDMDL
