MODEL 1
REMARK VINA RESULT:     -11.6      0.000      0.000
REMARK SMILES Cn1c(=O)c2c(nc(Nc3cccc(Cl)c3Cl)n2CC(=O)OCCOCCOC(=O)c2ccc(-c3c4nc(c(-c5cc(S(=O)(=O)[O-])ccc5F)c5ccc([nH]5)c(-c5cc(S(=O)(=O)[O-])ccc5F)c5nc(c(-c6cc(S(=O)(=O)[O-])ccc6F)c6ccc3[nH]6)C=C5)C=C4)cc2)n(C)c1=O
REMARK SMILES IDX 25 1 24 2 23 3 22 4 20 5 21 6 19 7 18 8 1 9 2 10 3 11 96 12
REMARK SMILES IDX 4 13 5 14 94 15 97 16 6 17 95 18 7 19 8 20 9 21 10 23 11 24
REMARK SMILES IDX 16 25 12 26 14 27 17 28 13 29 15 30 26 31 27 32 28 33 29 34
REMARK SMILES IDX 30 35 31 36 32 37 93 38 33 39 92 40 34 41 35 42 36 43 86 44
REMARK SMILES IDX 37 45 91 46 85 47 87 48 38 49 90 50 84 51 83 52 39 54 71 55
REMARK SMILES IDX 51 56 70 57 52 58 55 59 69 60 88 61 53 62 54 63 68 65 89 66
REMARK SMILES IDX 56 67 40 68 41 69 49 70 42 71 48 72 50 73 47 74 43 75 44 76
REMARK SMILES IDX 45 77 46 78 72 79 73 80 81 81 74 82 80 83 82 84 79 85 75 86
REMARK SMILES IDX 76 87 77 88 78 89 57 90 58 91 66 92 59 93 65 94 67 95 64 96
REMARK SMILES IDX 60 97 61 98 62 99 63 100
REMARK H PARENT 9 22 87 53 55 64
REMARK Flexibility Score: inf
ROOT
ATOM      1  O   UNL A   1      33.845  29.511  27.511  1.00  0.00    -0.374 OA
ENDROOT
BRANCH   1   2
ATOM      2  C   UNL A   1      34.388  28.566  26.593  1.00  0.00     0.202 C 
BRANCH   2   3
ATOM      3  C   UNL A   1      33.760  28.509  25.192  1.00  0.00     0.261 C 
BRANCH   3   4
ATOM      4  O   UNL A   1      32.887  27.370  24.990  1.00  0.00    -0.462 OA
BRANCH   4   5
ATOM      5  C   UNL A   1      33.243  26.532  23.980  1.00  0.00     0.326 C 
ATOM      6  O   UNL A   1      34.222  25.788  24.023  1.00  0.00    -0.250 OA
BRANCH   5   7
ATOM      7  C   UNL A   1      32.231  26.407  22.870  1.00  0.00     0.248 C 
BRANCH   7   8
ATOM      8  N   UNL A   1      30.813  26.484  23.177  1.00  0.00    -0.293 N 
ATOM      9  C   UNL A   1      29.437  31.064  21.873  1.00  0.00     0.159 C 
ATOM     10  N   UNL A   1      29.243  29.773  22.507  1.00  0.00    -0.261 N 
ATOM     11  C   UNL A   1      30.374  28.988  22.745  1.00  0.00     0.282 A 
ATOM     12  C   UNL A   1      27.936  29.442  22.902  1.00  0.00     0.332 A 
ATOM     13  O   UNL A   1      31.524  29.406  22.630  1.00  0.00    -0.267 OA
ATOM     14  C   UNL A   1      30.060  27.645  23.105  1.00  0.00     0.154 A 
ATOM     15  N   UNL A   1      27.734  28.153  23.396  1.00  0.00    -0.279 N 
ATOM     16  O   UNL A   1      27.022  30.266  22.832  1.00  0.00    -0.247 OA
ATOM     17  C   UNL A   1      28.795  27.278  23.444  1.00  0.00     0.170 A 
ATOM     18  C   UNL A   1      26.410  27.743  23.835  1.00  0.00     0.157 C 
ATOM     19  N   UNL A   1      28.740  25.983  23.825  1.00  0.00    -0.194 NA
ATOM     20  C   UNL A   1      29.973  25.525  23.734  1.00  0.00     0.210 A 
BRANCH  20  21
ATOM     21  N   UNL A   1      30.257  24.259  24.100  1.00  0.00    -0.324 N 
ATOM     22  H   UNL A   1      29.612  23.602  23.752  1.00  0.00     0.170 HD
BRANCH  21  23
ATOM     23  C   UNL A   1      31.275  23.678  24.871  1.00  0.00     0.061 A 
ATOM     24  C   UNL A   1      31.277  24.008  26.237  1.00  0.00     0.028 A 
ATOM     25  C   UNL A   1      32.314  22.865  24.374  1.00  0.00     0.083 A 
ATOM     26  C   UNL A   1      32.206  23.456  27.115  1.00  0.00     0.004 A 
ATOM     27  C   UNL A   1      33.209  22.258  25.272  1.00  0.00     0.061 A 
ATOM     28  Cl  UNL A   1      32.543  22.691  22.657  1.00  0.00    -0.080 Cl
ATOM     29  C   UNL A   1      33.145  22.548  26.638  1.00  0.00     0.022 A 
ATOM     30  Cl  UNL A   1      34.412  21.124  24.761  1.00  0.00    -0.083 Cl
ENDBRANCH  21  23
ENDBRANCH  20  21
ENDBRANCH   7   8
ENDBRANCH   5   7
ENDBRANCH   4   5
ENDBRANCH   3   4
ENDBRANCH   2   3
ENDBRANCH   1   2
BRANCH   1  31
ATOM     31  C   UNL A   1      33.691  30.852  27.069  1.00  0.00     0.202 C 
BRANCH  31  32
ATOM     32  C   UNL A   1      34.024  31.975  28.045  1.00  0.00     0.261 C 
BRANCH  32  33
ATOM     33  O   UNL A   1      34.869  31.638  29.139  1.00  0.00    -0.460 OA
BRANCH  33  34
ATOM     34  C   UNL A   1      35.972  32.429  29.201  1.00  0.00     0.338 C 
ATOM     35  O   UNL A   1      35.980  33.642  29.174  1.00  0.00    -0.246 OA
BRANCH  34  36
ATOM     36  C   UNL A   1      37.190  31.603  29.119  1.00  0.00     0.060 A 
ATOM     37  C   UNL A   1      36.993  30.242  28.888  1.00  0.00     0.016 A 
ATOM     38  C   UNL A   1      38.455  32.103  29.455  1.00  0.00     0.016 A 
ATOM     39  C   UNL A   1      38.031  29.367  29.138  1.00  0.00     0.010 A 
ATOM     40  C   UNL A   1      39.498  31.222  29.698  1.00  0.00     0.010 A 
ATOM     41  C   UNL A   1      39.265  29.856  29.596  1.00  0.00    -0.014 A 
BRANCH  41  42
ATOM     42  C   UNL A   1      40.347  28.895  29.739  1.00  0.00     0.031 A 
ATOM     43  C   UNL A   1      40.618  28.584  31.160  1.00  0.00     0.074 A 
ATOM     44  C   UNL A   1      41.058  28.323  28.747  1.00  0.00     0.049 A 
ATOM     45  N   UNL A   1      41.575  29.078  31.868  1.00  0.00    -0.248 NA
ATOM     46  C   UNL A   1      39.613  27.848  31.939  1.00  0.00     0.031 C 
ATOM     47  C   UNL A   1      40.840  28.369  27.304  1.00  0.00     0.029 A 
ATOM     48  N   UNL A   1      42.150  27.513  28.862  1.00  0.00    -0.354 N 
ATOM     49  C   UNL A   1      41.442  28.523  33.130  1.00  0.00     0.074 A 
ATOM     50  C   UNL A   1      40.126  27.942  33.169  1.00  0.00     0.031 C 
ATOM     51  C   UNL A   1      41.639  27.455  26.701  1.00  0.00     0.029 A 
ATOM     52  C   UNL A   1      42.512  26.846  27.695  1.00  0.00     0.049 A 
ATOM     53  H   UNL A   1      42.645  27.407  29.707  1.00  0.00     0.167 HD
ATOM     54  C   UNL A   1      42.531  28.377  33.929  1.00  0.00     0.034 A 
ATOM     55  C   UNL A   1      43.446  25.859  27.568  1.00  0.00     0.034 A 
ATOM     56  C   UNL A   1      43.624  29.217  33.481  1.00  0.00     0.049 A 
ATOM     57  C   UNL A   1      44.431  26.086  28.660  1.00  0.00     0.074 A 
ATOM     58  C   UNL A   1      43.773  30.574  33.260  1.00  0.00     0.029 A 
ATOM     59  N   UNL A   1      44.666  28.621  32.802  1.00  0.00    -0.354 N 
ATOM     60  N   UNL A   1      45.199  27.143  28.712  1.00  0.00    -0.248 NA
ATOM     61  C   UNL A   1      44.198  25.423  29.937  1.00  0.00     0.031 C 
ATOM     62  C   UNL A   1      44.546  30.669  32.066  1.00  0.00     0.029 A 
ATOM     63  C   UNL A   1      44.899  29.375  31.679  1.00  0.00     0.049 A 
ATOM     64  H   UNL A   1      45.151  27.808  33.072  1.00  0.00     0.167 HD
ATOM     65  C   UNL A   1      45.179  27.530  30.044  1.00  0.00     0.074 A 
ATOM     66  C   UNL A   1      44.603  26.393  30.762  1.00  0.00     0.031 C 
ATOM     67  C   UNL A   1      45.362  28.831  30.419  1.00  0.00     0.034 A 
BRANCH  54  68
ATOM     68  C   UNL A   1      42.760  27.189  34.830  1.00  0.00     0.023 A 
ATOM     69  C   UNL A   1      43.559  26.153  34.315  1.00  0.00     0.031 A 
ATOM     70  C   UNL A   1      41.992  26.872  35.973  1.00  0.00     0.131 A 
ATOM     71  C   UNL A   1      43.465  24.852  34.831  1.00  0.00     0.055 A 
ATOM     72  C   UNL A   1      41.955  25.590  36.525  1.00  0.00     0.041 A 
ATOM     73  F   UNL A   1      41.168  27.744  36.563  1.00  0.00    -0.206 F 
ATOM     74  C   UNL A   1      42.662  24.560  35.930  1.00  0.00     0.022 A 
BRANCH  71  75
ATOM     75  S   UNL A   1      44.277  23.518  33.919  1.00  0.00     0.124 S 
ATOM     76  O   UNL A   1      45.625  24.050  33.767  1.00  0.00    -0.237 OA
ATOM     77  O   UNL A   1      44.126  22.393  34.837  1.00  0.00    -0.237 OA
ATOM     78  O   UNL A   1      43.494  23.427  32.688  1.00  0.00    -0.744 OA
ENDBRANCH  71  75
ENDBRANCH  54  68
BRANCH  55  79
ATOM     79  C   UNL A   1      43.304  24.562  26.824  1.00  0.00     0.023 A 
ATOM     80  C   UNL A   1      42.336  23.579  27.158  1.00  0.00     0.031 A 
ATOM     81  C   UNL A   1      43.975  24.370  25.595  1.00  0.00     0.131 A 
ATOM     82  C   UNL A   1      42.079  22.489  26.284  1.00  0.00     0.055 A 
ATOM     83  C   UNL A   1      43.718  23.294  24.739  1.00  0.00     0.041 A 
ATOM     84  F   UNL A   1      44.854  25.268  25.128  1.00  0.00    -0.206 F 
ATOM     85  C   UNL A   1      42.761  22.355  25.074  1.00  0.00     0.022 A 
BRANCH  82  86
ATOM     86  S   UNL A   1      40.767  21.268  26.644  1.00  0.00     0.124 S 
ATOM     87  O   UNL A   1      40.707  21.300  28.100  1.00  0.00    -0.237 OA
ATOM     88  O   UNL A   1      39.617  21.815  25.933  1.00  0.00    -0.237 OA
ATOM     89  O   UNL A   1      41.295  20.024  26.077  1.00  0.00    -0.744 OA
ENDBRANCH  82  86
ENDBRANCH  55  79
BRANCH  67  90
ATOM     90  C   UNL A   1      45.895  29.835  29.421  1.00  0.00     0.023 A 
ATOM     91  C   UNL A   1      45.114  30.543  28.480  1.00  0.00     0.031 A 
ATOM     92  C   UNL A   1      47.237  30.225  29.587  1.00  0.00     0.131 A 
ATOM     93  C   UNL A   1      45.691  31.610  27.758  1.00  0.00     0.055 A 
ATOM     94  C   UNL A   1      47.794  31.292  28.888  1.00  0.00     0.041 A 
ATOM     95  F   UNL A   1      48.018  29.605  30.490  1.00  0.00    -0.206 F 
ATOM     96  C   UNL A   1      47.021  31.992  27.971  1.00  0.00     0.022 A 
BRANCH  93  97
ATOM     97  S   UNL A   1      44.703  32.562  26.554  1.00  0.00     0.124 S 
ATOM     98  O   UNL A   1      45.718  33.161  25.694  1.00  0.00    -0.237 OA
ATOM     99  O   UNL A   1      43.864  31.536  25.942  1.00  0.00    -0.237 OA
ATOM    100  O   UNL A   1      43.973  33.519  27.388  1.00  0.00    -0.744 OA
ENDBRANCH  93  97
ENDBRANCH  67  90
ENDBRANCH  41  42
ENDBRANCH  34  36
ENDBRANCH  33  34
ENDBRANCH  32  33
ENDBRANCH  31  32
ENDBRANCH   1  31
TORSDOF 20
ENDMDL
MODEL 2
REMARK VINA RESULT:     -11.6      3.205      8.614
REMARK SMILES Cn1c(=O)c2c(nc(Nc3cccc(Cl)c3Cl)n2CC(=O)OCCOCCOC(=O)c2ccc(-c3c4nc(c(-c5cc(S(=O)(=O)[O-])ccc5F)c5ccc([nH]5)c(-c5cc(S(=O)(=O)[O-])ccc5F)c5nc(c(-c6cc(S(=O)(=O)[O-])ccc6F)c6ccc3[nH]6)C=C5)C=C4)cc2)n(C)c1=O
REMARK SMILES IDX 25 1 24 2 23 3 22 4 20 5 21 6 19 7 18 8 1 9 2 10 3 11 96 12
REMARK SMILES IDX 4 13 5 14 94 15 97 16 6 17 95 18 7 19 8 20 9 21 10 23 11 24
REMARK SMILES IDX 16 25 12 26 14 27 17 28 13 29 15 30 26 31 27 32 28 33 29 34
REMARK SMILES IDX 30 35 31 36 32 37 93 38 33 39 92 40 34 41 35 42 36 43 86 44
REMARK SMILES IDX 37 45 91 46 85 47 87 48 38 49 90 50 84 51 83 52 39 54 71 55
REMARK SMILES IDX 51 56 70 57 52 58 55 59 69 60 88 61 53 62 54 63 68 65 89 66
REMARK SMILES IDX 56 67 40 68 41 69 49 70 42 71 48 72 50 73 47 74 43 75 44 76
REMARK SMILES IDX 45 77 46 78 72 79 73 80 81 81 74 82 80 83 82 84 79 85 75 86
REMARK SMILES IDX 76 87 77 88 78 89 57 90 58 91 66 92 59 93 65 94 67 95 64 96
REMARK SMILES IDX 60 97 61 98 62 99 63 100
REMARK H PARENT 9 22 87 53 55 64
REMARK Flexibility Score: inf
ROOT
ATOM      1  O   UNL A   1      37.775  23.209  25.513  1.00  0.00    -0.374 OA
ENDROOT
BRANCH   1   2
ATOM      2  C   UNL A   1      36.530  23.548  26.118  1.00  0.00     0.202 C 
BRANCH   2   3
ATOM      3  C   UNL A   1      35.481  24.232  25.228  1.00  0.00     0.261 C 
BRANCH   3   4
ATOM      4  O   UNL A   1      34.728  23.311  24.401  1.00  0.00    -0.462 OA
BRANCH   4   5
ATOM      5  C   UNL A   1      35.052  23.312  23.080  1.00  0.00     0.326 C 
ATOM      6  O   UNL A   1      36.177  23.058  22.652  1.00  0.00    -0.250 OA
BRANCH   5   7
ATOM      7  C   UNL A   1      33.881  23.437  22.139  1.00  0.00     0.248 C 
BRANCH   7   8
ATOM      8  N   UNL A   1      32.587  23.857  22.650  1.00  0.00    -0.293 N 
ATOM      9  C   UNL A   1      32.721  28.812  22.644  1.00  0.00     0.159 C 
ATOM     10  N   UNL A   1      32.150  27.521  22.984  1.00  0.00    -0.261 N 
ATOM     11  C   UNL A   1      32.972  26.397  22.873  1.00  0.00     0.282 A 
ATOM     12  C   UNL A   1      30.832  27.510  23.470  1.00  0.00     0.332 A 
ATOM     13  O   UNL A   1      34.187  26.462  22.699  1.00  0.00    -0.267 OA
ATOM     14  C   UNL A   1      32.255  25.167  22.954  1.00  0.00     0.154 A 
ATOM     15  N   UNL A   1      30.246  26.261  23.677  1.00  0.00    -0.279 N 
ATOM     16  O   UNL A   1      30.239  28.561  23.721  1.00  0.00    -0.247 OA
ATOM     17  C   UNL A   1      30.962  25.126  23.373  1.00  0.00     0.170 A 
ATOM     18  C   UNL A   1      28.889  26.172  24.190  1.00  0.00     0.157 C 
ATOM     19  N   UNL A   1      30.507  23.856  23.449  1.00  0.00    -0.194 NA
ATOM     20  C   UNL A   1      31.513  23.087  23.082  1.00  0.00     0.210 A 
BRANCH  20  21
ATOM     21  N   UNL A   1      31.385  21.745  23.103  1.00  0.00    -0.324 N 
ATOM     22  H   UNL A   1      30.648  21.418  22.538  1.00  0.00     0.170 HD
BRANCH  21  23
ATOM     23  C   UNL A   1      32.078  20.715  23.757  1.00  0.00     0.061 A 
ATOM     24  C   UNL A   1      32.536  21.008  25.053  1.00  0.00     0.028 A 
ATOM     25  C   UNL A   1      32.405  19.465  23.196  1.00  0.00     0.083 A 
ATOM     26  C   UNL A   1      33.193  20.052  25.824  1.00  0.00     0.004 A 
ATOM     27  C   UNL A   1      33.009  18.481  23.998  1.00  0.00     0.061 A 
ATOM     28  Cl  UNL A   1      32.147  19.174  21.499  1.00  0.00    -0.080 Cl
ATOM     29  C   UNL A   1      33.391  18.776  25.310  1.00  0.00     0.022 A 
ATOM     30  Cl  UNL A   1      33.298  16.870  23.434  1.00  0.00    -0.083 Cl
ENDBRANCH  21  23
ENDBRANCH  20  21
ENDBRANCH   7   8
ENDBRANCH   5   7
ENDBRANCH   4   5
ENDBRANCH   3   4
ENDBRANCH   2   3
ENDBRANCH   1   2
BRANCH   1  31
ATOM     31  C   UNL A   1      38.227  21.868  25.633  1.00  0.00     0.202 C 
BRANCH  31  32
ATOM     32  C   UNL A   1      39.637  21.628  26.162  1.00  0.00     0.261 C 
BRANCH  32  33
ATOM     33  O   UNL A   1      39.970  22.257  27.395  1.00  0.00    -0.460 OA
BRANCH  33  34
ATOM     34  C   UNL A   1      41.151  22.925  27.330  1.00  0.00     0.338 C 
ATOM     35  O   UNL A   1      42.208  22.465  26.950  1.00  0.00    -0.246 OA
BRANCH  34  36
ATOM     36  C   UNL A   1      41.018  24.248  27.965  1.00  0.00     0.060 A 
ATOM     37  C   UNL A   1      39.822  24.925  27.727  1.00  0.00     0.016 A 
ATOM     38  C   UNL A   1      42.095  24.885  28.597  1.00  0.00     0.016 A 
ATOM     39  C   UNL A   1      39.759  26.279  27.989  1.00  0.00     0.010 A 
ATOM     40  C   UNL A   1      42.025  26.243  28.866  1.00  0.00     0.010 A 
ATOM     41  C   UNL A   1      40.881  26.945  28.507  1.00  0.00    -0.014 A 
BRANCH  41  42
ATOM     42  C   UNL A   1      40.715  28.346  28.859  1.00  0.00     0.031 A 
ATOM     43  C   UNL A   1      41.779  29.188  28.267  1.00  0.00     0.074 A 
ATOM     44  C   UNL A   1      39.742  28.879  29.624  1.00  0.00     0.049 A 
ATOM     45  N   UNL A   1      42.821  29.628  28.887  1.00  0.00    -0.248 NA
ATOM     46  C   UNL A   1      41.828  29.368  26.811  1.00  0.00     0.031 C 
ATOM     47  C   UNL A   1      38.532  28.256  30.152  1.00  0.00     0.029 A 
ATOM     48  N   UNL A   1      39.636  30.167  30.063  1.00  0.00    -0.354 N 
ATOM     49  C   UNL A   1      43.542  30.354  27.954  1.00  0.00     0.074 A 
ATOM     50  C   UNL A   1      42.997  29.998  26.670  1.00  0.00     0.031 C 
ATOM     51  C   UNL A   1      37.718  29.217  30.655  1.00  0.00     0.029 A 
ATOM     52  C   UNL A   1      38.396  30.504  30.600  1.00  0.00     0.049 A 
ATOM     53  H   UNL A   1      40.379  30.811  30.003  1.00  0.00     0.167 HD
ATOM     54  C   UNL A   1      44.349  31.370  28.357  1.00  0.00     0.034 A 
ATOM     55  C   UNL A   1      37.964  31.750  30.953  1.00  0.00     0.034 A 
ATOM     56  C   UNL A   1      44.646  31.272  29.771  1.00  0.00     0.049 A 
ATOM     57  C   UNL A   1      39.188  32.523  31.299  1.00  0.00     0.074 A 
ATOM     58  C   UNL A   1      45.210  30.298  30.575  1.00  0.00     0.029 A 
ATOM     59  N   UNL A   1      43.987  32.122  30.634  1.00  0.00    -0.354 N 
ATOM     60  N   UNL A   1      39.946  32.229  32.323  1.00  0.00    -0.248 NA
ATOM     61  C   UNL A   1      39.843  33.273  30.235  1.00  0.00     0.031 C 
ATOM     62  C   UNL A   1      44.435  30.316  31.772  1.00  0.00     0.029 A 
ATOM     63  C   UNL A   1      43.507  31.354  31.666  1.00  0.00     0.049 A 
ATOM     64  H   UNL A   1      43.882  33.095  30.531  1.00  0.00     0.167 HD
ATOM     65  C   UNL A   1      41.244  32.355  31.851  1.00  0.00     0.074 A 
ATOM     66  C   UNL A   1      41.119  33.068  30.579  1.00  0.00     0.031 C 
ATOM     67  C   UNL A   1      42.276  31.632  32.378  1.00  0.00     0.034 A 
BRANCH  54  68
ATOM     68  C   UNL A   1      44.513  32.664  27.597  1.00  0.00     0.023 A 
ATOM     69  C   UNL A   1      43.813  33.778  28.094  1.00  0.00     0.031 A 
ATOM     70  C   UNL A   1      45.012  32.780  26.281  1.00  0.00     0.131 A 
ATOM     71  C   UNL A   1      43.513  34.865  27.259  1.00  0.00     0.055 A 
ATOM     72  C   UNL A   1      44.767  33.894  25.476  1.00  0.00     0.041 A 
ATOM     73  F   UNL A   1      45.678  31.797  25.664  1.00  0.00    -0.206 F 
ATOM     74  C   UNL A   1      43.979  34.928  25.949  1.00  0.00     0.022 A 
BRANCH  71  75
ATOM     75  S   UNL A   1      42.346  36.105  27.869  1.00  0.00     0.124 S 
ATOM     76  O   UNL A   1      42.558  37.192  26.922  1.00  0.00    -0.237 OA
ATOM     77  O   UNL A   1      41.074  35.396  27.764  1.00  0.00    -0.237 OA
ATOM     78  O   UNL A   1      42.806  36.359  29.233  1.00  0.00    -0.744 OA
ENDBRANCH  71  75
ENDBRANCH  54  68
BRANCH  55  79
ATOM     79  C   UNL A   1      36.639  32.378  30.632  1.00  0.00     0.023 A 
ATOM     80  C   UNL A   1      35.961  33.254  31.521  1.00  0.00     0.031 A 
ATOM     81  C   UNL A   1      36.122  32.315  29.318  1.00  0.00     0.131 A 
ATOM     82  C   UNL A   1      34.841  34.008  31.080  1.00  0.00     0.055 A 
ATOM     83  C   UNL A   1      35.019  33.062  28.890  1.00  0.00     0.041 A 
ATOM     84  F   UNL A   1      36.719  31.588  28.363  1.00  0.00    -0.206 F 
ATOM     85  C   UNL A   1      34.381  33.920  29.766  1.00  0.00     0.022 A 
BRANCH  82  86
ATOM     86  S   UNL A   1      34.015  35.217  32.176  1.00  0.00     0.124 S 
ATOM     87  O   UNL A   1      33.578  36.238  31.232  1.00  0.00    -0.237 OA
ATOM     88  O   UNL A   1      32.968  34.418  32.802  1.00  0.00    -0.237 OA
ATOM     89  O   UNL A   1      35.084  35.637  33.084  1.00  0.00    -0.744 OA
ENDBRANCH  82  86
ENDBRANCH  55  79
BRANCH  67  90
ATOM     90  C   UNL A   1      42.091  30.902  33.690  1.00  0.00     0.023 A 
ATOM     91  C   UNL A   1      41.830  29.520  33.825  1.00  0.00     0.031 A 
ATOM     92  C   UNL A   1      42.400  31.629  34.855  1.00  0.00     0.131 A 
ATOM     93  C   UNL A   1      41.899  28.918  35.100  1.00  0.00     0.055 A 
ATOM     94  C   UNL A   1      42.488  31.026  36.106  1.00  0.00     0.041 A 
ATOM     95  F   UNL A   1      42.686  32.940  34.782  1.00  0.00    -0.206 F 
ATOM     96  C   UNL A   1      42.240  29.665  36.234  1.00  0.00     0.022 A 
BRANCH  93  97
ATOM     97  S   UNL A   1      41.592  27.131  35.305  1.00  0.00     0.124 S 
ATOM     98  O   UNL A   1      40.624  26.839  34.254  1.00  0.00    -0.237 OA
ATOM     99  O   UNL A   1      42.922  26.554  35.133  1.00  0.00    -0.237 OA
ATOM    100  O   UNL A   1      41.061  27.027  36.665  1.00  0.00    -0.744 OA
ENDBRANCH  93  97
ENDBRANCH  67  90
ENDBRANCH  41  42
ENDBRANCH  34  36
ENDBRANCH  33  34
ENDBRANCH  32  33
ENDBRANCH  31  32
ENDBRANCH   1  31
TORSDOF 20
ENDMDL
MODEL 3
REMARK VINA RESULT:     -11.5      3.603      9.385
REMARK SMILES Cn1c(=O)c2c(nc(Nc3cccc(Cl)c3Cl)n2CC(=O)OCCOCCOC(=O)c2ccc(-c3c4nc(c(-c5cc(S(=O)(=O)[O-])ccc5F)c5ccc([nH]5)c(-c5cc(S(=O)(=O)[O-])ccc5F)c5nc(c(-c6cc(S(=O)(=O)[O-])ccc6F)c6ccc3[nH]6)C=C5)C=C4)cc2)n(C)c1=O
REMARK SMILES IDX 25 1 24 2 23 3 22 4 20 5 21 6 19 7 18 8 1 9 2 10 3 11 96 12
REMARK SMILES IDX 4 13 5 14 94 15 97 16 6 17 95 18 7 19 8 20 9 21 10 23 11 24
REMARK SMILES IDX 16 25 12 26 14 27 17 28 13 29 15 30 26 31 27 32 28 33 29 34
REMARK SMILES IDX 30 35 31 36 32 37 93 38 33 39 92 40 34 41 35 42 36 43 86 44
REMARK SMILES IDX 37 45 91 46 85 47 87 48 38 49 90 50 84 51 83 52 39 54 71 55
REMARK SMILES IDX 51 56 70 57 52 58 55 59 69 60 88 61 53 62 54 63 68 65 89 66
REMARK SMILES IDX 56 67 40 68 41 69 49 70 42 71 48 72 50 73 47 74 43 75 44 76
REMARK SMILES IDX 45 77 46 78 72 79 73 80 81 81 74 82 80 83 82 84 79 85 75 86
REMARK SMILES IDX 76 87 77 88 78 89 57 90 58 91 66 92 59 93 65 94 67 95 64 96
REMARK SMILES IDX 60 97 61 98 62 99 63 100
REMARK H PARENT 9 22 87 53 55 64
REMARK Flexibility Score: inf
ROOT
ATOM      1  O   UNL A   1      37.819  23.146  25.322  1.00  0.00    -0.374 OA
ENDROOT
BRANCH   1   2
ATOM      2  C   UNL A   1      36.570  23.644  25.792  1.00  0.00     0.202 C 
BRANCH   2   3
ATOM      3  C   UNL A   1      35.301  22.925  25.308  1.00  0.00     0.261 C 
BRANCH   3   4
ATOM      4  O   UNL A   1      34.072  23.583  25.702  1.00  0.00    -0.462 OA
BRANCH   4   5
ATOM      5  C   UNL A   1      33.284  22.884  26.562  1.00  0.00     0.326 C 
ATOM      6  O   UNL A   1      33.525  22.758  27.762  1.00  0.00    -0.250 OA
BRANCH   5   7
ATOM      7  C   UNL A   1      31.960  22.440  25.995  1.00  0.00     0.248 C 
BRANCH   7   8
ATOM      8  N   UNL A   1      31.915  21.789  24.696  1.00  0.00    -0.293 N 
ATOM      9  C   UNL A   1      33.369  17.122  25.521  1.00  0.00     0.159 C 
ATOM     10  N   UNL A   1      33.029  18.255  24.679  1.00  0.00    -0.261 N 
ATOM     11  C   UNL A   1      32.997  19.519  25.272  1.00  0.00     0.282 A 
ATOM     12  C   UNL A   1      32.830  18.001  23.311  1.00  0.00     0.332 A 
ATOM     13  O   UNL A   1      33.426  19.749  26.400  1.00  0.00    -0.267 OA
ATOM     14  C   UNL A   1      32.388  20.511  24.447  1.00  0.00     0.154 A 
ATOM     15  N   UNL A   1      32.383  19.068  22.530  1.00  0.00    -0.279 N 
ATOM     16  O   UNL A   1      33.066  16.892  22.830  1.00  0.00    -0.247 OA
ATOM     17  C   UNL A   1      32.135  20.281  23.130  1.00  0.00     0.170 A 
ATOM     18  C   UNL A   1      32.167  18.883  21.105  1.00  0.00     0.157 C 
ATOM     19  N   UNL A   1      31.632  21.378  22.524  1.00  0.00    -0.194 NA
ATOM     20  C   UNL A   1      31.568  22.311  23.455  1.00  0.00     0.210 A 
BRANCH  20  21
ATOM     21  N   UNL A   1      31.149  23.553  23.144  1.00  0.00    -0.324 N 
ATOM     22  H   UNL A   1      30.171  23.618  23.044  1.00  0.00     0.170 HD
BRANCH  21  23
ATOM     23  C   UNL A   1      31.807  24.774  22.933  1.00  0.00     0.061 A 
ATOM     24  C   UNL A   1      33.187  24.694  22.680  1.00  0.00     0.028 A 
ATOM     25  C   UNL A   1      31.214  26.049  23.027  1.00  0.00     0.083 A 
ATOM     26  C   UNL A   1      33.941  25.832  22.405  1.00  0.00     0.004 A 
ATOM     27  C   UNL A   1      31.963  27.189  22.685  1.00  0.00     0.061 A 
ATOM     28  Cl  UNL A   1      29.597  26.219  23.651  1.00  0.00    -0.080 Cl
ATOM     29  C   UNL A   1      33.320  27.074  22.367  1.00  0.00     0.022 A 
ATOM     30  Cl  UNL A   1      31.268  28.773  22.621  1.00  0.00    -0.083 Cl
ENDBRANCH  21  23
ENDBRANCH  20  21
ENDBRANCH   7   8
ENDBRANCH   5   7
ENDBRANCH   4   5
ENDBRANCH   3   4
ENDBRANCH   2   3
ENDBRANCH   1   2
BRANCH   1  31
ATOM     31  C   UNL A   1      38.183  21.821  25.683  1.00  0.00     0.202 C 
BRANCH  31  32
ATOM     32  C   UNL A   1      39.597  21.577  26.197  1.00  0.00     0.261 C 
BRANCH  32  33
ATOM     33  O   UNL A   1      39.940  22.192  27.434  1.00  0.00    -0.460 OA
BRANCH  33  34
ATOM     34  C   UNL A   1      41.132  22.842  27.373  1.00  0.00     0.338 C 
ATOM     35  O   UNL A   1      42.186  22.363  27.008  1.00  0.00    -0.246 OA
BRANCH  34  36
ATOM     36  C   UNL A   1      41.013  24.173  27.994  1.00  0.00     0.060 A 
ATOM     37  C   UNL A   1      39.786  24.816  27.833  1.00  0.00     0.016 A 
ATOM     38  C   UNL A   1      42.117  24.847  28.534  1.00  0.00     0.016 A 
ATOM     39  C   UNL A   1      39.709  26.173  28.076  1.00  0.00     0.010 A 
ATOM     40  C   UNL A   1      42.032  26.208  28.784  1.00  0.00     0.010 A 
ATOM     41  C   UNL A   1      40.848  26.876  28.498  1.00  0.00    -0.014 A 
BRANCH  41  42
ATOM     42  C   UNL A   1      40.673  28.279  28.838  1.00  0.00     0.031 A 
ATOM     43  C   UNL A   1      41.741  29.120  28.252  1.00  0.00     0.074 A 
ATOM     44  C   UNL A   1      39.690  28.814  29.588  1.00  0.00     0.049 A 
ATOM     45  N   UNL A   1      42.774  29.568  28.881  1.00  0.00    -0.248 NA
ATOM     46  C   UNL A   1      41.806  29.289  26.795  1.00  0.00     0.031 C 
ATOM     47  C   UNL A   1      38.476  28.191  30.106  1.00  0.00     0.029 A 
ATOM     48  N   UNL A   1      39.574  30.105  30.015  1.00  0.00    -0.354 N 
ATOM     49  C   UNL A   1      43.503  30.290  27.951  1.00  0.00     0.074 A 
ATOM     50  C   UNL A   1      42.974  29.922  26.663  1.00  0.00     0.031 C 
ATOM     51  C   UNL A   1      37.653  29.152  30.593  1.00  0.00     0.029 A 
ATOM     52  C   UNL A   1      38.327  30.441  30.535  1.00  0.00     0.049 A 
ATOM     53  H   UNL A   1      40.315  30.751  29.959  1.00  0.00     0.167 HD
ATOM     54  C   UNL A   1      44.302  31.312  28.355  1.00  0.00     0.034 A 
ATOM     55  C   UNL A   1      37.886  31.688  30.874  1.00  0.00     0.034 A 
ATOM     56  C   UNL A   1      44.583  31.225  29.773  1.00  0.00     0.049 A 
ATOM     57  C   UNL A   1      39.103  32.469  31.228  1.00  0.00     0.074 A 
ATOM     58  C   UNL A   1      45.141  30.260  30.591  1.00  0.00     0.029 A 
ATOM     59  N   UNL A   1      43.911  32.079  30.622  1.00  0.00    -0.354 N 
ATOM     60  N   UNL A   1      39.850  32.185  32.263  1.00  0.00    -0.248 NA
ATOM     61  C   UNL A   1      39.768  33.213  30.166  1.00  0.00     0.031 C 
ATOM     62  C   UNL A   1      44.352  30.284  31.778  1.00  0.00     0.029 A 
ATOM     63  C   UNL A   1      43.421  31.318  31.654  1.00  0.00     0.049 A 
ATOM     64  H   UNL A   1      43.804  33.051  30.510  1.00  0.00     0.167 HD
ATOM     65  C   UNL A   1      41.154  32.312  31.805  1.00  0.00     0.074 A 
ATOM     66  C   UNL A   1      41.040  33.015  30.527  1.00  0.00     0.031 C 
ATOM     67  C   UNL A   1      42.181  31.596  32.350  1.00  0.00     0.034 A 
BRANCH  54  68
ATOM     68  C   UNL A   1      44.470  32.600  27.587  1.00  0.00     0.023 A 
ATOM     69  C   UNL A   1      43.767  33.718  28.072  1.00  0.00     0.031 A 
ATOM     70  C   UNL A   1      44.978  32.707  26.274  1.00  0.00     0.131 A 
ATOM     71  C   UNL A   1      43.472  34.798  27.228  1.00  0.00     0.055 A 
ATOM     72  C   UNL A   1      44.738  33.816  25.460  1.00  0.00     0.041 A 
ATOM     73  F   UNL A   1      45.648  31.721  25.668  1.00  0.00    -0.206 F 
ATOM     74  C   UNL A   1      43.946  34.853  25.920  1.00  0.00     0.022 A 
BRANCH  71  75
ATOM     75  S   UNL A   1      42.300  36.042  27.822  1.00  0.00     0.124 S 
ATOM     76  O   UNL A   1      42.683  37.203  27.026  1.00  0.00    -0.237 OA
ATOM     77  O   UNL A   1      41.018  35.427  27.491  1.00  0.00    -0.237 OA
ATOM     78  O   UNL A   1      42.598  36.131  29.249  1.00  0.00    -0.744 OA
ENDBRANCH  71  75
ENDBRANCH  54  68
BRANCH  55  79
ATOM     79  C   UNL A   1      36.562  32.309  30.533  1.00  0.00     0.023 A 
ATOM     80  C   UNL A   1      35.783  33.036  31.471  1.00  0.00     0.031 A 
ATOM     81  C   UNL A   1      36.148  32.405  29.185  1.00  0.00     0.131 A 
ATOM     82  C   UNL A   1      34.667  33.805  31.044  1.00  0.00     0.055 A 
ATOM     83  C   UNL A   1      35.048  33.164  28.771  1.00  0.00     0.041 A 
ATOM     84  F   UNL A   1      36.846  31.831  28.195  1.00  0.00    -0.206 F 
ATOM     85  C   UNL A   1      34.311  33.877  29.698  1.00  0.00     0.022 A 
BRANCH  82  86
ATOM     86  S   UNL A   1      33.711  34.830  32.218  1.00  0.00     0.124 S 
ATOM     87  O   UNL A   1      32.670  35.386  31.363  1.00  0.00    -0.237 OA
ATOM     88  O   UNL A   1      33.282  33.857  33.217  1.00  0.00    -0.237 OA
ATOM     89  O   UNL A   1      34.695  35.802  32.700  1.00  0.00    -0.744 OA
ENDBRANCH  82  86
ENDBRANCH  55  79
BRANCH  67  90
ATOM     90  C   UNL A   1      41.984  30.876  33.665  1.00  0.00     0.023 A 
ATOM     91  C   UNL A   1      41.799  29.483  33.812  1.00  0.00     0.031 A 
ATOM     92  C   UNL A   1      42.201  31.637  34.830  1.00  0.00     0.131 A 
ATOM     93  C   UNL A   1      41.848  28.905  35.099  1.00  0.00     0.055 A 
ATOM     94  C   UNL A   1      42.269  31.058  36.093  1.00  0.00     0.041 A 
ATOM     95  F   UNL A   1      42.412  32.961  34.746  1.00  0.00    -0.206 F 
ATOM     96  C   UNL A   1      42.096  29.687  36.233  1.00  0.00     0.022 A 
BRANCH  93  97
ATOM     97  S   UNL A   1      41.639  27.106  35.321  1.00  0.00     0.124 S 
ATOM     98  O   UNL A   1      40.602  26.772  34.350  1.00  0.00    -0.237 OA
ATOM     99  O   UNL A   1      42.974  26.588  35.041  1.00  0.00    -0.237 OA
ATOM    100  O   UNL A   1      41.224  26.978  36.719  1.00  0.00    -0.744 OA
ENDBRANCH  93  97
ENDBRANCH  67  90
ENDBRANCH  41  42
ENDBRANCH  34  36
ENDBRANCH  33  34
ENDBRANCH  32  33
ENDBRANCH  31  32
ENDBRANCH   1  31
TORSDOF 20
ENDMDL
