MODEL 1
REMARK VINA RESULT:     -10.2      0.000      0.000
REMARK SMILES CC[N@H+](CC(C)(C)C(=O)OCCOCCOC(=O)c1ccc(-c2c3nc(c(-c4cc(S(=O)(=O)[O-])ccc4F)c4ccc([nH]4)c(-c4cc(S(=O)(=O)[O-])ccc4F)c4nc(c(-c5cc(S(=O)(=O)[O-])ccc5F)c5ccc2[nH]5)C=C4)C=C3)cc1)[C@H]1CC[NH2+]C1
REMARK SMILES IDX 13 1 12 2 11 3 10 4 8 5 9 6 5 7 6 8 7 9 4 10 3 11 2 13 1 14
REMARK SMILES IDX 82 15 83 16 86 17 84 18 85 19 14 22 15 23 16 24 17 25 18 26
REMARK SMILES IDX 19 27 20 28 81 29 21 30 80 31 22 32 23 33 24 34 74 35 25 36
REMARK SMILES IDX 79 37 73 38 75 39 26 40 78 41 72 42 71 43 27 45 59 46 39 47
REMARK SMILES IDX 58 48 40 49 43 50 57 51 76 52 41 53 42 54 56 56 77 57 44 58
REMARK SMILES IDX 28 59 29 60 37 61 30 62 36 63 38 64 35 65 31 66 32 67 33 68
REMARK SMILES IDX 34 69 60 70 61 71 69 72 62 73 68 74 70 75 67 76 63 77 64 78
REMARK SMILES IDX 65 79 66 80 45 81 46 82 54 83 47 84 53 85 55 86 52 87 48 88
REMARK SMILES IDX 49 89 50 90 51 91
REMARK H PARENT 3 12 85 20 85 21 75 44 43 55
REMARK Flexibility Score: inf
ROOT
ATOM      1  O   UNL A   1      35.317  22.926  26.210  1.00  0.00    -0.374 OA
ENDROOT
BRANCH   1   2
ATOM      2  C   UNL A   1      34.060  23.576  26.353  1.00  0.00     0.202 C 
BRANCH   2   3
ATOM      3  C   UNL A   1      33.493  24.412  25.190  1.00  0.00     0.261 C 
BRANCH   3   4
ATOM      4  O   UNL A   1      34.020  25.743  25.121  1.00  0.00    -0.463 OA
BRANCH   4   5
ATOM      5  C   UNL A   1      33.686  26.394  23.973  1.00  0.00     0.317 C 
ATOM      6  O   UNL A   1      33.713  25.830  22.888  1.00  0.00    -0.251 OA
BRANCH   5   7
ATOM      7  C   UNL A   1      33.328  27.883  24.181  1.00  0.00     0.111 C 
ATOM      8  C   UNL A   1      34.117  28.676  23.132  1.00  0.00     0.029 C 
ATOM      9  C   UNL A   1      33.812  28.381  25.576  1.00  0.00     0.029 C 
BRANCH   7  10
ATOM     10  C   UNL A   1      31.776  28.186  24.115  1.00  0.00     0.280 C 
BRANCH  10  11
ATOM     11  N   UNL A   1      30.820  27.510  23.188  1.00  0.00    -0.327 N 
ATOM     12  H   UNL A   1      31.395  26.980  22.534  1.00  0.00     0.348 HD
BRANCH  11  13
ATOM     13  C   UNL A   1      29.947  26.565  23.912  1.00  0.00     0.259 C 
ATOM     14  C   UNL A   1      30.132  25.057  23.753  1.00  0.00     0.071 C 
ENDBRANCH  11  13
BRANCH  11  15
ATOM     15  C   UNL A   1      30.029  28.453  22.359  1.00  0.00     0.245 C 
ATOM     16  C   UNL A   1      28.666  28.902  22.894  1.00  0.00     0.132 C 
ATOM     17  C   UNL A   1      30.655  29.796  21.911  1.00  0.00     0.326 C 
ATOM     18  C   UNL A   1      28.304  30.005  21.919  1.00  0.00     0.267 C 
ATOM     19  N   UNL A   1      29.546  30.769  21.755  1.00  0.00    -0.341 N 
ATOM     20  H   UNL A   1      29.609  31.496  22.469  1.00  0.00     0.346 HD
ATOM     21  H   UNL A   1      29.580  31.232  20.847  1.00  0.00     0.346 HD
ENDBRANCH  11  15
ENDBRANCH  10  11
ENDBRANCH   7  10
ENDBRANCH   5   7
ENDBRANCH   4   5
ENDBRANCH   3   4
ENDBRANCH   2   3
ENDBRANCH   1   2
BRANCH   1  22
ATOM     22  C   UNL A   1      35.356  21.515  26.016  1.00  0.00     0.202 C 
BRANCH  22  23
ATOM     23  C   UNL A   1      36.401  20.881  25.093  1.00  0.00     0.261 C 
BRANCH  23  24
ATOM     24  O   UNL A   1      37.593  21.671  24.968  1.00  0.00    -0.460 OA
BRANCH  24  25
ATOM     25  C   UNL A   1      38.636  21.238  25.723  1.00  0.00     0.338 C 
ATOM     26  O   UNL A   1      39.139  20.131  25.715  1.00  0.00    -0.246 OA
BRANCH  25  27
ATOM     27  C   UNL A   1      39.240  22.389  26.413  1.00  0.00     0.060 A 
ATOM     28  C   UNL A   1      38.761  23.669  26.099  1.00  0.00     0.016 A 
ATOM     29  C   UNL A   1      40.301  22.219  27.302  1.00  0.00     0.016 A 
ATOM     30  C   UNL A   1      39.360  24.793  26.660  1.00  0.00     0.010 A 
ATOM     31  C   UNL A   1      40.917  23.348  27.841  1.00  0.00     0.010 A 
ATOM     32  C   UNL A   1      40.468  24.638  27.498  1.00  0.00    -0.014 A 
BRANCH  32  33
ATOM     33  C   UNL A   1      41.282  25.819  27.865  1.00  0.00     0.031 A 
ATOM     34  C   UNL A   1      40.614  26.931  28.622  1.00  0.00     0.074 A 
ATOM     35  C   UNL A   1      42.581  25.893  27.532  1.00  0.00     0.049 A 
ATOM     36  N   UNL A   1      41.071  28.113  28.936  1.00  0.00    -0.248 NA
ATOM     37  C   UNL A   1      39.239  26.672  29.077  1.00  0.00     0.031 C 
ATOM     38  C   UNL A   1      43.342  24.840  26.862  1.00  0.00     0.029 A 
ATOM     39  N   UNL A   1      43.485  26.910  27.698  1.00  0.00    -0.354 N 
ATOM     40  C   UNL A   1      40.034  28.749  29.611  1.00  0.00     0.074 A 
ATOM     41  C   UNL A   1      38.916  27.830  29.631  1.00  0.00     0.031 C 
ATOM     42  C   UNL A   1      44.596  25.276  26.655  1.00  0.00     0.029 A 
ATOM     43  C   UNL A   1      44.709  26.655  27.127  1.00  0.00     0.049 A 
ATOM     44  H   UNL A   1      43.278  27.742  28.182  1.00  0.00     0.167 HD
ATOM     45  C   UNL A   1      40.023  29.986  30.162  1.00  0.00     0.034 A 
ATOM     46  C   UNL A   1      45.778  27.461  26.966  1.00  0.00     0.034 A 
ATOM     47  C   UNL A   1      41.149  30.886  30.115  1.00  0.00     0.049 A 
ATOM     48  C   UNL A   1      45.705  28.876  27.492  1.00  0.00     0.074 A 
ATOM     49  C   UNL A   1      41.257  32.159  30.646  1.00  0.00     0.029 A 
ATOM     50  N   UNL A   1      42.359  30.611  29.489  1.00  0.00    -0.354 N 
ATOM     51  N   UNL A   1      44.719  29.478  28.120  1.00  0.00    -0.248 NA
ATOM     52  C   UNL A   1      46.890  29.721  27.290  1.00  0.00     0.031 C 
ATOM     53  C   UNL A   1      42.496  32.685  30.267  1.00  0.00     0.029 A 
ATOM     54  C   UNL A   1      43.203  31.707  29.585  1.00  0.00     0.049 A 
ATOM     55  H   UNL A   1      42.584  29.763  29.042  1.00  0.00     0.167 HD
ATOM     56  C   UNL A   1      45.182  30.756  28.421  1.00  0.00     0.074 A 
ATOM     57  C   UNL A   1      46.535  30.838  27.912  1.00  0.00     0.031 C 
ATOM     58  C   UNL A   1      44.552  31.769  29.068  1.00  0.00     0.034 A 
BRANCH  45  59
ATOM     59  C   UNL A   1      38.737  30.453  30.799  1.00  0.00     0.023 A 
ATOM     60  C   UNL A   1      37.815  31.259  30.109  1.00  0.00     0.031 A 
ATOM     61  C   UNL A   1      38.442  30.111  32.131  1.00  0.00     0.131 A 
ATOM     62  C   UNL A   1      36.682  31.754  30.774  1.00  0.00     0.055 A 
ATOM     63  C   UNL A   1      37.271  30.535  32.759  1.00  0.00     0.041 A 
ATOM     64  F   UNL A   1      39.298  29.369  32.851  1.00  0.00    -0.206 F 
ATOM     65  C   UNL A   1      36.389  31.375  32.086  1.00  0.00     0.022 A 
BRANCH  62  66
ATOM     66  S   UNL A   1      35.679  33.022  29.951  1.00  0.00     0.124 S 
ATOM     67  O   UNL A   1      36.529  33.379  28.817  1.00  0.00    -0.237 OA
ATOM     68  O   UNL A   1      34.456  32.297  29.629  1.00  0.00    -0.237 OA
ATOM     69  O   UNL A   1      35.541  34.063  30.967  1.00  0.00    -0.744 OA
ENDBRANCH  62  66
ENDBRANCH  45  59
BRANCH  46  70
ATOM     70  C   UNL A   1      46.985  26.979  26.236  1.00  0.00     0.023 A 
ATOM     71  C   UNL A   1      48.031  26.333  26.912  1.00  0.00     0.031 A 
ATOM     72  C   UNL A   1      47.137  27.208  24.856  1.00  0.00     0.131 A 
ATOM     73  C   UNL A   1      49.201  25.983  26.221  1.00  0.00     0.055 A 
ATOM     74  C   UNL A   1      48.277  26.803  24.160  1.00  0.00     0.041 A 
ATOM     75  F   UNL A   1      46.170  27.828  24.159  1.00  0.00    -0.206 F 
ATOM     76  C   UNL A   1      49.324  26.198  24.847  1.00  0.00     0.022 A 
BRANCH  73  77
ATOM     77  S   UNL A   1      50.605  25.334  27.168  1.00  0.00     0.124 S 
ATOM     78  O   UNL A   1      51.533  24.967  26.105  1.00  0.00    -0.237 OA
ATOM     79  O   UNL A   1      50.981  26.487  27.979  1.00  0.00    -0.237 OA
ATOM     80  O   UNL A   1      50.028  24.214  27.908  1.00  0.00    -0.744 OA
ENDBRANCH  73  77
ENDBRANCH  46  70
BRANCH  58  81
ATOM     81  C   UNL A   1      45.342  33.032  29.321  1.00  0.00     0.023 A 
ATOM     82  C   UNL A   1      45.383  34.085  28.392  1.00  0.00     0.031 A 
ATOM     83  C   UNL A   1      46.048  33.186  30.528  1.00  0.00     0.131 A 
ATOM     84  C   UNL A   1      46.153  35.226  28.665  1.00  0.00     0.055 A 
ATOM     85  C   UNL A   1      46.759  34.350  30.822  1.00  0.00     0.041 A 
ATOM     86  F   UNL A   1      46.046  32.210  31.451  1.00  0.00    -0.206 F 
ATOM     87  C   UNL A   1      46.823  35.374  29.883  1.00  0.00     0.022 A 
BRANCH  84  88
ATOM     88  S   UNL A   1      46.338  36.485  27.372  1.00  0.00     0.124 S 
ATOM     89  O   UNL A   1      47.786  36.660  27.325  1.00  0.00    -0.237 OA
ATOM     90  O   UNL A   1      45.736  35.834  26.213  1.00  0.00    -0.237 OA
ATOM     91  O   UNL A   1      45.592  37.628  27.896  1.00  0.00    -0.744 OA
ENDBRANCH  84  88
ENDBRANCH  58  81
ENDBRANCH  32  33
ENDBRANCH  25  27
ENDBRANCH  24  25
ENDBRANCH  23  24
ENDBRANCH  22  23
ENDBRANCH   1  22
TORSDOF 21
ENDMDL
MODEL 2
REMARK VINA RESULT:     -10.1      1.749      2.631
REMARK SMILES CC[N@H+](CC(C)(C)C(=O)OCCOCCOC(=O)c1ccc(-c2c3nc(c(-c4cc(S(=O)(=O)[O-])ccc4F)c4ccc([nH]4)c(-c4cc(S(=O)(=O)[O-])ccc4F)c4nc(c(-c5cc(S(=O)(=O)[O-])ccc5F)c5ccc2[nH]5)C=C4)C=C3)cc1)[C@H]1CC[NH2+]C1
REMARK SMILES IDX 13 1 12 2 11 3 10 4 8 5 9 6 5 7 6 8 7 9 4 10 3 11 2 13 1 14
REMARK SMILES IDX 82 15 83 16 86 17 84 18 85 19 14 22 15 23 16 24 17 25 18 26
REMARK SMILES IDX 19 27 20 28 81 29 21 30 80 31 22 32 23 33 24 34 74 35 25 36
REMARK SMILES IDX 79 37 73 38 75 39 26 40 78 41 72 42 71 43 27 45 59 46 39 47
REMARK SMILES IDX 58 48 40 49 43 50 57 51 76 52 41 53 42 54 56 56 77 57 44 58
REMARK SMILES IDX 28 59 29 60 37 61 30 62 36 63 38 64 35 65 31 66 32 67 33 68
REMARK SMILES IDX 34 69 60 70 61 71 69 72 62 73 68 74 70 75 67 76 63 77 64 78
REMARK SMILES IDX 65 79 66 80 45 81 46 82 54 83 47 84 53 85 55 86 52 87 48 88
REMARK SMILES IDX 49 89 50 90 51 91
REMARK H PARENT 3 12 85 20 85 21 75 44 43 55
REMARK Flexibility Score: inf
ROOT
ATOM      1  O   UNL A   1      35.753  22.117  25.376  1.00  0.00    -0.374 OA
ENDROOT
BRANCH   1   2
ATOM      2  C   UNL A   1      35.670  23.079  24.332  1.00  0.00     0.202 C 
BRANCH   2   3
ATOM      3  C   UNL A   1      34.338  23.293  23.591  1.00  0.00     0.261 C 
BRANCH   3   4
ATOM      4  O   UNL A   1      33.880  24.651  23.599  1.00  0.00    -0.463 OA
BRANCH   4   5
ATOM      5  C   UNL A   1      32.722  24.823  24.295  1.00  0.00     0.317 C 
ATOM      6  O   UNL A   1      32.634  24.515  25.475  1.00  0.00    -0.251 OA
BRANCH   5   7
ATOM      7  C   UNL A   1      31.560  25.386  23.444  1.00  0.00     0.111 C 
ATOM      8  C   UNL A   1      30.468  24.310  23.424  1.00  0.00     0.029 C 
ATOM      9  C   UNL A   1      32.007  25.599  21.966  1.00  0.00     0.029 C 
BRANCH   7  10
ATOM     10  C   UNL A   1      31.014  26.782  23.949  1.00  0.00     0.280 C 
BRANCH  10  11
ATOM     11  N   UNL A   1      31.860  27.993  24.171  1.00  0.00    -0.327 N 
ATOM     12  H   UNL A   1      32.663  27.888  23.553  1.00  0.00     0.348 HD
BRANCH  11  13
ATOM     13  C   UNL A   1      31.141  29.227  23.796  1.00  0.00     0.259 C 
ATOM     14  C   UNL A   1      29.701  29.165  23.291  1.00  0.00     0.071 C 
ENDBRANCH  11  13
BRANCH  11  15
ATOM     15  C   UNL A   1      32.416  28.086  25.543  1.00  0.00     0.245 C 
ATOM     16  C   UNL A   1      33.877  28.524  25.692  1.00  0.00     0.132 C 
ATOM     17  C   UNL A   1      31.709  28.965  26.604  1.00  0.00     0.326 C 
ATOM     18  C   UNL A   1      33.982  28.727  27.191  1.00  0.00     0.267 C 
ATOM     19  N   UNL A   1      32.749  29.434  27.552  1.00  0.00    -0.341 N 
ATOM     20  H   UNL A   1      32.881  30.442  27.462  1.00  0.00     0.346 HD
ATOM     21  H   UNL A   1      32.483  29.248  28.519  1.00  0.00     0.346 HD
ENDBRANCH  11  15
ENDBRANCH  10  11
ENDBRANCH   7  10
ENDBRANCH   5   7
ENDBRANCH   4   5
ENDBRANCH   3   4
ENDBRANCH   2   3
ENDBRANCH   1   2
BRANCH   1  22
ATOM     22  C   UNL A   1      36.089  20.769  25.061  1.00  0.00     0.202 C 
BRANCH  22  23
ATOM     23  C   UNL A   1      37.552  20.317  25.017  1.00  0.00     0.261 C 
BRANCH  23  24
ATOM     24  O   UNL A   1      38.478  21.392  25.240  1.00  0.00    -0.460 OA
BRANCH  24  25
ATOM     25  C   UNL A   1      39.461  21.109  26.135  1.00  0.00     0.338 C 
ATOM     26  O   UNL A   1      40.040  20.051  26.280  1.00  0.00    -0.246 OA
BRANCH  25  27
ATOM     27  C   UNL A   1      39.902  22.360  26.775  1.00  0.00     0.060 A 
ATOM     28  C   UNL A   1      39.336  23.562  26.327  1.00  0.00     0.016 A 
ATOM     29  C   UNL A   1      40.899  22.356  27.749  1.00  0.00     0.016 A 
ATOM     30  C   UNL A   1      39.784  24.775  26.840  1.00  0.00     0.010 A 
ATOM     31  C   UNL A   1      41.365  23.575  28.242  1.00  0.00     0.010 A 
ATOM     32  C   UNL A   1      40.830  24.788  27.767  1.00  0.00    -0.014 A 
BRANCH  32  33
ATOM     33  C   UNL A   1      41.502  26.064  28.098  1.00  0.00     0.031 A 
ATOM     34  C   UNL A   1      40.701  27.125  28.795  1.00  0.00     0.074 A 
ATOM     35  C   UNL A   1      42.793  26.267  27.786  1.00  0.00     0.049 A 
ATOM     36  N   UNL A   1      41.019  28.363  29.068  1.00  0.00    -0.248 NA
ATOM     37  C   UNL A   1      39.352  26.735  29.237  1.00  0.00     0.031 C 
ATOM     38  C   UNL A   1      43.679  25.278  27.174  1.00  0.00     0.029 A 
ATOM     39  N   UNL A   1      43.577  27.383  27.926  1.00  0.00    -0.354 N 
ATOM     40  C   UNL A   1      39.904  28.907  29.697  1.00  0.00     0.074 A 
ATOM     41  C   UNL A   1      38.893  27.873  29.735  1.00  0.00     0.031 C 
ATOM     42  C   UNL A   1      44.883  25.841  26.972  1.00  0.00     0.029 A 
ATOM     43  C   UNL A   1      44.834  27.241  27.388  1.00  0.00     0.049 A 
ATOM     44  H   UNL A   1      43.270  28.206  28.370  1.00  0.00     0.167 HD
ATOM     45  C   UNL A   1      39.746  30.156  30.195  1.00  0.00     0.034 A 
ATOM     46  C   UNL A   1      45.812  28.152  27.213  1.00  0.00     0.034 A 
ATOM     47  C   UNL A   1      40.769  31.172  30.132  1.00  0.00     0.049 A 
ATOM     48  C   UNL A   1      45.574  29.571  27.677  1.00  0.00     0.074 A 
ATOM     49  C   UNL A   1      40.726  32.468  30.610  1.00  0.00     0.029 A 
ATOM     50  N   UNL A   1      42.015  31.007  29.539  1.00  0.00    -0.354 N 
ATOM     51  N   UNL A   1      44.515  30.085  28.261  1.00  0.00    -0.248 NA
ATOM     52  C   UNL A   1      46.664  30.532  27.461  1.00  0.00     0.031 C 
ATOM     53  C   UNL A   1      41.908  33.112  30.232  1.00  0.00     0.029 A 
ATOM     54  C   UNL A   1      42.732  32.191  29.604  1.00  0.00     0.049 A 
ATOM     55  H   UNL A   1      42.341  30.171  29.132  1.00  0.00     0.167 HD
ATOM     56  C   UNL A   1      44.829  31.417  28.517  1.00  0.00     0.074 A 
ATOM     57  C   UNL A   1      46.176  31.627  28.029  1.00  0.00     0.031 C 
ATOM     58  C   UNL A   1      44.078  32.380  29.110  1.00  0.00     0.034 A 
BRANCH  45  59
ATOM     59  C   UNL A   1      38.403  30.505  30.789  1.00  0.00     0.023 A 
ATOM     60  C   UNL A   1      37.414  31.175  30.049  1.00  0.00     0.031 A 
ATOM     61  C   UNL A   1      38.118  30.187  32.130  1.00  0.00     0.131 A 
ATOM     62  C   UNL A   1      36.220  31.569  30.672  1.00  0.00     0.055 A 
ATOM     63  C   UNL A   1      36.894  30.505  32.718  1.00  0.00     0.041 A 
ATOM     64  F   UNL A   1      39.034  29.573  32.896  1.00  0.00    -0.206 F 
ATOM     65  C   UNL A   1      35.941  31.213  31.994  1.00  0.00     0.022 A 
BRANCH  62  66
ATOM     66  S   UNL A   1      35.103  32.683  29.778  1.00  0.00     0.124 S 
ATOM     67  O   UNL A   1      34.247  33.171  30.856  1.00  0.00    -0.237 OA
ATOM     68  O   UNL A   1      36.022  33.656  29.201  1.00  0.00    -0.237 OA
ATOM     69  O   UNL A   1      34.439  31.804  28.817  1.00  0.00    -0.744 OA
ENDBRANCH  62  66
ENDBRANCH  45  59
BRANCH  46  70
ATOM     70  C   UNL A   1      47.080  27.778  26.525  1.00  0.00     0.023 A 
ATOM     71  C   UNL A   1      47.229  27.943  25.139  1.00  0.00     0.031 A 
ATOM     72  C   UNL A   1      48.146  27.195  27.235  1.00  0.00     0.131 A 
ATOM     73  C   UNL A   1      48.392  27.486  24.501  1.00  0.00     0.055 A 
ATOM     74  C   UNL A   1      49.327  26.798  26.605  1.00  0.00     0.041 A 
ATOM     75  F   UNL A   1      48.057  27.007  28.562  1.00  0.00    -0.206 F 
ATOM     76  C   UNL A   1      49.449  26.930  25.226  1.00  0.00     0.022 A 
BRANCH  73  77
ATOM     77  S   UNL A   1      48.462  27.535  22.689  1.00  0.00     0.124 S 
ATOM     78  O   UNL A   1      48.476  26.115  22.356  1.00  0.00    -0.237 OA
ATOM     79  O   UNL A   1      47.239  28.260  22.359  1.00  0.00    -0.237 OA
ATOM     80  O   UNL A   1      49.704  28.254  22.415  1.00  0.00    -0.744 OA
ENDBRANCH  73  77
ENDBRANCH  46  70
BRANCH  58  81
ATOM     81  C   UNL A   1      44.720  33.731  29.324  1.00  0.00     0.023 A 
ATOM     82  C   UNL A   1      44.526  34.800  28.432  1.00  0.00     0.031 A 
ATOM     83  C   UNL A   1      45.524  33.952  30.456  1.00  0.00     0.131 A 
ATOM     84  C   UNL A   1      45.166  36.026  28.663  1.00  0.00     0.055 A 
ATOM     85  C   UNL A   1      46.105  35.194  30.716  1.00  0.00     0.041 A 
ATOM     86  F   UNL A   1      45.746  32.966  31.341  1.00  0.00    -0.206 F 
ATOM     87  C   UNL A   1      45.936  36.236  29.811  1.00  0.00     0.022 A 
BRANCH  84  88
ATOM     88  S   UNL A   1      45.047  37.325  27.403  1.00  0.00     0.124 S 
ATOM     89  O   UNL A   1      43.684  37.147  26.912  1.00  0.00    -0.237 OA
ATOM     90  O   UNL A   1      45.292  38.537  28.178  1.00  0.00    -0.237 OA
ATOM     91  O   UNL A   1      46.100  36.977  26.450  1.00  0.00    -0.744 OA
ENDBRANCH  84  88
ENDBRANCH  58  81
ENDBRANCH  32  33
ENDBRANCH  25  27
ENDBRANCH  24  25
ENDBRANCH  23  24
ENDBRANCH  22  23
ENDBRANCH   1  22
TORSDOF 21
ENDMDL
MODEL 3
REMARK VINA RESULT:     -10.0      2.067      2.667
REMARK SMILES CC[N@H+](CC(C)(C)C(=O)OCCOCCOC(=O)c1ccc(-c2c3nc(c(-c4cc(S(=O)(=O)[O-])ccc4F)c4ccc([nH]4)c(-c4cc(S(=O)(=O)[O-])ccc4F)c4nc(c(-c5cc(S(=O)(=O)[O-])ccc5F)c5ccc2[nH]5)C=C4)C=C3)cc1)[C@H]1CC[NH2+]C1
REMARK SMILES IDX 13 1 12 2 11 3 10 4 8 5 9 6 5 7 6 8 7 9 4 10 3 11 2 13 1 14
REMARK SMILES IDX 82 15 83 16 86 17 84 18 85 19 14 22 15 23 16 24 17 25 18 26
REMARK SMILES IDX 19 27 20 28 81 29 21 30 80 31 22 32 23 33 24 34 74 35 25 36
REMARK SMILES IDX 79 37 73 38 75 39 26 40 78 41 72 42 71 43 27 45 59 46 39 47
REMARK SMILES IDX 58 48 40 49 43 50 57 51 76 52 41 53 42 54 56 56 77 57 44 58
REMARK SMILES IDX 28 59 29 60 37 61 30 62 36 63 38 64 35 65 31 66 32 67 33 68
REMARK SMILES IDX 34 69 60 70 61 71 69 72 62 73 68 74 70 75 67 76 63 77 64 78
REMARK SMILES IDX 65 79 66 80 45 81 46 82 54 83 47 84 53 85 55 86 52 87 48 88
REMARK SMILES IDX 49 89 50 90 51 91
REMARK H PARENT 3 12 85 20 85 21 75 44 43 55
REMARK Flexibility Score: inf
ROOT
ATOM      1  O   UNL A   1      35.318  22.699  25.267  1.00  0.00    -0.374 OA
ENDROOT
BRANCH   1   2
ATOM      2  C   UNL A   1      34.027  23.289  25.180  1.00  0.00     0.202 C 
BRANCH   2   3
ATOM      3  C   UNL A   1      33.661  24.469  26.098  1.00  0.00     0.261 C 
BRANCH   3   4
ATOM      4  O   UNL A   1      32.742  25.398  25.511  1.00  0.00    -0.463 OA
BRANCH   4   5
ATOM      5  C   UNL A   1      32.916  26.677  25.947  1.00  0.00     0.317 C 
ATOM      6  O   UNL A   1      34.032  27.138  26.141  1.00  0.00    -0.251 OA
BRANCH   5   7
ATOM      7  C   UNL A   1      31.594  27.434  26.207  1.00  0.00     0.111 C 
ATOM      8  C   UNL A   1      31.624  27.881  27.674  1.00  0.00     0.029 C 
ATOM      9  C   UNL A   1      30.369  26.483  26.053  1.00  0.00     0.029 C 
BRANCH   7  10
ATOM     10  C   UNL A   1      31.344  28.645  25.220  1.00  0.00     0.280 C 
BRANCH  10  11
ATOM     11  N   UNL A   1      30.804  28.509  23.834  1.00  0.00    -0.327 N 
ATOM     12  H   UNL A   1      30.228  27.668  23.840  1.00  0.00     0.348 HD
BRANCH  11  13
ATOM     13  C   UNL A   1      29.946  29.657  23.477  1.00  0.00     0.259 C 
ATOM     14  C   UNL A   1      29.674  29.999  22.013  1.00  0.00     0.071 C 
ENDBRANCH  11  13
BRANCH  11  15
ATOM     15  C   UNL A   1      31.849  28.275  22.808  1.00  0.00     0.245 C 
ATOM     16  C   UNL A   1      33.249  28.839  23.075  1.00  0.00     0.132 C 
ATOM     17  C   UNL A   1      32.169  26.831  22.349  1.00  0.00     0.326 C 
ATOM     18  C   UNL A   1      34.053  28.199  21.960  1.00  0.00     0.267 C 
ATOM     19  N   UNL A   1      33.593  26.806  21.931  1.00  0.00    -0.341 N 
ATOM     20  H   UNL A   1      34.142  26.240  22.578  1.00  0.00     0.346 HD
ATOM     21  H   UNL A   1      33.702  26.398  21.003  1.00  0.00     0.346 HD
ENDBRANCH  11  15
ENDBRANCH  10  11
ENDBRANCH   7  10
ENDBRANCH   5   7
ENDBRANCH   4   5
ENDBRANCH   3   4
ENDBRANCH   2   3
ENDBRANCH   1   2
BRANCH   1  22
ATOM     22  C   UNL A   1      35.445  21.281  25.215  1.00  0.00     0.202 C 
BRANCH  22  23
ATOM     23  C   UNL A   1      36.818  20.623  25.051  1.00  0.00     0.261 C 
BRANCH  23  24
ATOM     24  O   UNL A   1      37.898  21.568  25.072  1.00  0.00    -0.460 OA
BRANCH  24  25
ATOM     25  C   UNL A   1      38.946  21.205  25.857  1.00  0.00     0.338 C 
ATOM     26  O   UNL A   1      39.504  20.126  25.885  1.00  0.00    -0.246 OA
BRANCH  25  27
ATOM     27  C   UNL A   1      39.479  22.401  26.530  1.00  0.00     0.060 A 
ATOM     28  C   UNL A   1      38.973  23.652  26.145  1.00  0.00     0.016 A 
ATOM     29  C   UNL A   1      40.500  22.301  27.473  1.00  0.00     0.016 A 
ATOM     30  C   UNL A   1      39.507  24.815  26.690  1.00  0.00     0.010 A 
ATOM     31  C   UNL A   1      41.052  23.470  27.997  1.00  0.00     0.010 A 
ATOM     32  C   UNL A   1      40.577  24.730  27.584  1.00  0.00    -0.014 A 
BRANCH  32  33
ATOM     33  C   UNL A   1      41.333  25.951  27.943  1.00  0.00     0.031 A 
ATOM     34  C   UNL A   1      40.612  27.035  28.691  1.00  0.00     0.074 A 
ATOM     35  C   UNL A   1      42.628  26.084  27.613  1.00  0.00     0.049 A 
ATOM     36  N   UNL A   1      41.011  28.241  28.997  1.00  0.00    -0.248 NA
ATOM     37  C   UNL A   1      39.250  26.715  29.146  1.00  0.00     0.031 C 
ATOM     38  C   UNL A   1      43.440  25.064  26.952  1.00  0.00     0.029 A 
ATOM     39  N   UNL A   1      43.483  27.145  27.773  1.00  0.00    -0.354 N 
ATOM     40  C   UNL A   1      39.943  28.831  29.665  1.00  0.00     0.074 A 
ATOM     41  C   UNL A   1      38.871  27.861  29.690  1.00  0.00     0.031 C 
ATOM     42  C   UNL A   1      44.672  25.558  26.744  1.00  0.00     0.029 A 
ATOM     43  C   UNL A   1      44.718  26.944  27.206  1.00  0.00     0.049 A 
ATOM     44  H   UNL A   1      43.235  27.970  28.249  1.00  0.00     0.167 HD
ATOM     45  C   UNL A   1      39.872  30.071  30.207  1.00  0.00     0.034 A 
ATOM     46  C   UNL A   1      45.748  27.799  27.041  1.00  0.00     0.034 A 
ATOM     47  C   UNL A   1      40.954  31.023  30.155  1.00  0.00     0.049 A 
ATOM     48  C   UNL A   1      45.607  29.213  27.555  1.00  0.00     0.074 A 
ATOM     49  C   UNL A   1      41.001  32.303  30.676  1.00  0.00     0.029 A 
ATOM     50  N   UNL A   1      42.177  30.802  29.533  1.00  0.00    -0.354 N 
ATOM     51  N   UNL A   1      44.592  29.771  28.177  1.00  0.00    -0.248 NA
ATOM     52  C   UNL A   1      46.750  30.112  27.349  1.00  0.00     0.031 C 
ATOM     53  C   UNL A   1      42.214  32.885  30.296  1.00  0.00     0.029 A 
ATOM     54  C   UNL A   1      42.967  31.937  29.622  1.00  0.00     0.049 A 
ATOM     55  H   UNL A   1      42.443  29.962  29.093  1.00  0.00     0.167 HD
ATOM     56  C   UNL A   1      44.993  31.073  28.469  1.00  0.00     0.074 A 
ATOM     57  C   UNL A   1      46.341  31.215  27.962  1.00  0.00     0.031 C 
ATOM     58  C   UNL A   1      44.313  32.060  29.108  1.00  0.00     0.034 A 
BRANCH  45  59
ATOM     59  C   UNL A   1      38.564  30.481  30.837  1.00  0.00     0.023 A 
ATOM     60  C   UNL A   1      37.547  31.109  30.099  1.00  0.00     0.031 A 
ATOM     61  C   UNL A   1      38.343  30.267  32.210  1.00  0.00     0.131 A 
ATOM     62  C   UNL A   1      36.389  31.565  30.749  1.00  0.00     0.055 A 
ATOM     63  C   UNL A   1      37.153  30.644  32.833  1.00  0.00     0.041 A 
ATOM     64  F   UNL A   1      39.289  29.698  32.974  1.00  0.00    -0.206 F 
ATOM     65  C   UNL A   1      36.173  31.311  32.105  1.00  0.00     0.022 A 
BRANCH  62  66
ATOM     66  S   UNL A   1      35.241  32.627  29.830  1.00  0.00     0.124 S 
ATOM     67  O   UNL A   1      36.136  33.669  29.334  1.00  0.00    -0.237 OA
ATOM     68  O   UNL A   1      34.702  31.716  28.827  1.00  0.00    -0.237 OA
ATOM     69  O   UNL A   1      34.291  33.067  30.850  1.00  0.00    -0.744 OA
ENDBRANCH  62  66
ENDBRANCH  45  59
BRANCH  46  70
ATOM     70  C   UNL A   1      46.978  27.370  26.316  1.00  0.00     0.023 A 
ATOM     71  C   UNL A   1      47.202  27.748  24.984  1.00  0.00     0.031 A 
ATOM     72  C   UNL A   1      47.923  26.527  26.928  1.00  0.00     0.131 A 
ATOM     73  C   UNL A   1      48.315  27.246  24.291  1.00  0.00     0.055 A 
ATOM     74  C   UNL A   1      49.062  26.080  26.255  1.00  0.00     0.041 A 
ATOM     75  F   UNL A   1      47.757  26.129  28.200  1.00  0.00    -0.206 F 
ATOM     76  C   UNL A   1      49.255  26.429  24.922  1.00  0.00     0.022 A 
BRANCH  73  77
ATOM     77  S   UNL A   1      48.462  27.596  22.518  1.00  0.00     0.124 S 
ATOM     78  O   UNL A   1      48.534  26.252  21.957  1.00  0.00    -0.237 OA
ATOM     79  O   UNL A   1      47.233  28.338  22.253  1.00  0.00    -0.237 OA
ATOM     80  O   UNL A   1      49.693  28.379  22.426  1.00  0.00    -0.744 OA
ENDBRANCH  73  77
ENDBRANCH  46  70
BRANCH  58  81
ATOM     81  C   UNL A   1      45.041  33.360  29.352  1.00  0.00     0.023 A 
ATOM     82  C   UNL A   1      45.821  33.575  30.502  1.00  0.00     0.031 A 
ATOM     83  C   UNL A   1      44.967  34.394  28.402  1.00  0.00     0.131 A 
ATOM     84  C   UNL A   1      46.456  34.810  30.693  1.00  0.00     0.055 A 
ATOM     85  C   UNL A   1      45.654  35.597  28.566  1.00  0.00     0.041 A 
ATOM     86  F   UNL A   1      44.234  34.245  27.286  1.00  0.00    -0.206 F 
ATOM     87  C   UNL A   1      46.396  35.814  29.722  1.00  0.00     0.022 A 
BRANCH  84  88
ATOM     88  S   UNL A   1      47.300  35.125  32.268  1.00  0.00     0.124 S 
ATOM     89  O   UNL A   1      47.560  33.771  32.747  1.00  0.00    -0.237 OA
ATOM     90  O   UNL A   1      48.472  35.888  31.848  1.00  0.00    -0.237 OA
ATOM     91  O   UNL A   1      46.315  35.878  33.041  1.00  0.00    -0.744 OA
ENDBRANCH  84  88
ENDBRANCH  58  81
ENDBRANCH  32  33
ENDBRANCH  25  27
ENDBRANCH  24  25
ENDBRANCH  23  24
ENDBRANCH  22  23
ENDBRANCH   1  22
TORSDOF 21
ENDMDL
