MODEL 1
REMARK VINA RESULT:     -11.3      0.000      0.000
REMARK SMILES C[C@@H]1[C@@H](C(=O)OCCOCCOC(=O)c2ccc(-c3c4nc(c(-c5cc(S(=O)(=O)[O-])ccc5F)c5ccc([nH]5)c(-c5cc(S(=O)(=O)[O-])ccc5F)c5nc(c(-c6cc(S(=O)(=O)[O-])ccc6F)c6ccc3[nH]6)C=C5)C=C4)cc2)CCN1C(=O)[C@@H]1CCCN(C(N)=O)C1
REMARK SMILES IDX 9 1 8 2 7 3 6 4 4 5 5 6 3 7 1 8 2 9 80 10 78 11 79 12 81 13
REMARK SMILES IDX 82 14 83 15 84 16 91 17 85 18 87 19 86 20 88 21 89 22 90 23
REMARK SMILES IDX 10 26 11 27 12 28 13 29 14 30 15 31 16 32 77 33 17 34 76 35
REMARK SMILES IDX 18 36 19 37 20 38 70 39 21 40 75 41 69 42 71 43 22 44 74 45
REMARK SMILES IDX 68 46 67 47 23 49 55 50 35 51 54 52 36 53 39 54 53 55 72 56
REMARK SMILES IDX 37 57 38 58 52 60 73 61 40 62 24 63 25 64 33 65 26 66 32 67
REMARK SMILES IDX 34 68 31 69 27 70 28 71 29 72 30 73 56 74 57 75 65 76 58 77
REMARK SMILES IDX 64 78 66 79 63 80 59 81 60 82 61 83 62 84 41 85 42 86 50 87
REMARK SMILES IDX 43 88 49 89 51 90 48 91 44 92 45 93 46 94 47 95
REMARK H PARENT 89 24 89 25 71 48 39 59
REMARK Flexibility Score: inf
ROOT
ATOM      1  O   UNL A   1      36.770  21.180  24.263  1.00  0.00    -0.374 OA
ENDROOT
BRANCH   1   2
ATOM      2  C   UNL A   1      35.581  21.865  24.632  1.00  0.00     0.202 C 
BRANCH   2   3
ATOM      3  C   UNL A   1      34.265  21.084  24.684  1.00  0.00     0.261 C 
BRANCH   3   4
ATOM      4  O   UNL A   1      33.111  21.895  24.431  1.00  0.00    -0.463 OA
BRANCH   4   5
ATOM      5  C   UNL A   1      32.356  22.170  25.531  1.00  0.00     0.311 C 
ATOM      6  O   UNL A   1      32.581  21.750  26.659  1.00  0.00    -0.252 OA
BRANCH   5   7
ATOM      7  C   UNL A   1      31.193  23.075  25.162  1.00  0.00     0.123 C 
ATOM      8  C   UNL A   1      30.423  24.777  23.464  1.00  0.00     0.032 C 
ATOM      9  C   UNL A   1      31.641  24.159  24.167  1.00  0.00     0.096 C 
ATOM     10  N   UNL A   1      32.313  25.136  25.027  1.00  0.00    -0.339 N 
ATOM     11  C   UNL A   1      30.776  23.893  26.378  1.00  0.00     0.039 C 
ATOM     12  C   UNL A   1      31.805  25.022  26.396  1.00  0.00     0.121 C 
BRANCH  10  13
ATOM     13  C   UNL A   1      33.469  25.863  24.830  1.00  0.00     0.227 C 
ATOM     14  O   UNL A   1      34.519  25.251  24.578  1.00  0.00    -0.275 OA
BRANCH  13  15
ATOM     15  C   UNL A   1      33.569  27.398  24.893  1.00  0.00     0.098 C 
ATOM     16  C   UNL A   1      33.100  28.088  26.170  1.00  0.00     0.017 C 
ATOM     17  C   UNL A   1      33.193  28.148  23.619  1.00  0.00     0.134 C 
ATOM     18  C   UNL A   1      31.717  28.718  26.097  1.00  0.00     0.022 C 
ATOM     19  N   UNL A   1      31.822  28.649  23.603  1.00  0.00    -0.324 N 
ATOM     20  C   UNL A   1      31.388  29.399  24.775  1.00  0.00     0.121 C 
BRANCH  19  21
ATOM     21  C   UNL A   1      31.050  28.751  22.466  1.00  0.00     0.314 C 
ATOM     22  N   UNL A   1      31.020  29.951  21.851  1.00  0.00    -0.351 N 
ATOM     23  O   UNL A   1      30.419  27.811  21.991  1.00  0.00    -0.249 OA
ATOM     24  H   UNL A   1      31.525  30.709  22.227  1.00  0.00     0.161 HD
ATOM     25  H   UNL A   1      30.494  30.070  21.028  1.00  0.00     0.161 HD
ENDBRANCH  19  21
ENDBRANCH  13  15
ENDBRANCH  10  13
ENDBRANCH   5   7
ENDBRANCH   4   5
ENDBRANCH   3   4
ENDBRANCH   2   3
ENDBRANCH   1   2
BRANCH   1  26
ATOM     26  C   UNL A   1      37.046  19.900  24.832  1.00  0.00     0.202 C 
BRANCH  26  27
ATOM     27  C   UNL A   1      38.417  19.591  25.451  1.00  0.00     0.261 C 
BRANCH  27  28
ATOM     28  O   UNL A   1      39.301  20.715  25.534  1.00  0.00    -0.460 OA
BRANCH  28  29
ATOM     29  C   UNL A   1      40.195  20.647  26.552  1.00  0.00     0.338 C 
ATOM     30  O   UNL A   1      40.832  19.666  26.914  1.00  0.00    -0.246 OA
BRANCH  29  31
ATOM     31  C   UNL A   1      40.464  22.000  27.057  1.00  0.00     0.060 A 
ATOM     32  C   UNL A   1      39.784  23.070  26.460  1.00  0.00     0.016 A 
ATOM     33  C   UNL A   1      41.416  22.218  28.053  1.00  0.00     0.016 A 
ATOM     34  C   UNL A   1      40.072  24.374  26.845  1.00  0.00     0.010 A 
ATOM     35  C   UNL A   1      41.716  23.530  28.424  1.00  0.00     0.010 A 
ATOM     36  C   UNL A   1      41.066  24.610  27.800  1.00  0.00    -0.014 A 
BRANCH  36  37
ATOM     37  C   UNL A   1      41.541  25.995  28.020  1.00  0.00     0.031 A 
ATOM     38  C   UNL A   1      42.898  26.377  27.502  1.00  0.00     0.074 A 
ATOM     39  C   UNL A   1      40.756  26.894  28.637  1.00  0.00     0.049 A 
ATOM     40  N   UNL A   1      43.544  27.506  27.620  1.00  0.00    -0.248 NA
ATOM     41  C   UNL A   1      43.626  25.339  26.754  1.00  0.00     0.031 C 
ATOM     42  C   UNL A   1      39.400  26.636  29.122  1.00  0.00     0.029 A 
ATOM     43  N   UNL A   1      40.987  28.205  28.961  1.00  0.00    -0.354 N 
ATOM     44  C   UNL A   1      44.758  27.316  26.967  1.00  0.00     0.074 A 
ATOM     45  C   UNL A   1      44.771  25.949  26.493  1.00  0.00     0.031 C 
ATOM     46  C   UNL A   1      38.923  27.756  29.692  1.00  0.00     0.029 A 
ATOM     47  C   UNL A   1      39.952  28.792  29.651  1.00  0.00     0.049 A 
ATOM     48  H   UNL A   1      41.815  28.682  28.723  1.00  0.00     0.167 HD
ATOM     49  C   UNL A   1      45.761  28.207  26.777  1.00  0.00     0.034 A 
ATOM     50  C   UNL A   1      39.866  30.015  30.212  1.00  0.00     0.034 A 
ATOM     51  C   UNL A   1      45.724  29.560  27.275  1.00  0.00     0.049 A 
ATOM     52  C   UNL A   1      41.036  30.958  30.071  1.00  0.00     0.074 A 
ATOM     53  C   UNL A   1      46.677  30.555  27.140  1.00  0.00     0.029 A 
ATOM     54  N   UNL A   1      44.683  30.107  28.016  1.00  0.00    -0.354 N 
ATOM     55  N   UNL A   1      42.181  30.770  29.452  1.00  0.00    -0.248 NA
ATOM     56  C   UNL A   1      40.901  32.279  30.696  1.00  0.00     0.031 C 
ATOM     57  C   UNL A   1      46.250  31.671  27.868  1.00  0.00     0.029 A 
ATOM     58  C   UNL A   1      44.987  31.409  28.377  1.00  0.00     0.049 A 
ATOM     59  H   UNL A   1      43.849  29.637  28.250  1.00  0.00     0.167 HD
ATOM     60  C   UNL A   1      42.885  31.964  29.585  1.00  0.00     0.074 A 
ATOM     61  C   UNL A   1      42.030  32.867  30.329  1.00  0.00     0.031 C 
ATOM     62  C   UNL A   1      44.122  32.291  29.129  1.00  0.00     0.034 A 
BRANCH  49  63
ATOM     63  C   UNL A   1      46.996  27.722  26.057  1.00  0.00     0.023 A 
ATOM     64  C   UNL A   1      47.216  27.989  24.694  1.00  0.00     0.031 A 
ATOM     65  C   UNL A   1      47.954  26.950  26.738  1.00  0.00     0.131 A 
ATOM     66  C   UNL A   1      48.327  27.433  24.041  1.00  0.00     0.055 A 
ATOM     67  C   UNL A   1      49.101  26.469  26.102  1.00  0.00     0.041 A 
ATOM     68  F   UNL A   1      47.786  26.636  28.032  1.00  0.00    -0.206 F 
ATOM     69  C   UNL A   1      49.285  26.697  24.742  1.00  0.00     0.022 A 
BRANCH  66  70
ATOM     70  S   UNL A   1      48.421  27.554  22.234  1.00  0.00     0.124 S 
ATOM     71  O   UNL A   1      48.563  26.152  21.851  1.00  0.00    -0.237 OA
ATOM     72  O   UNL A   1      47.151  28.184  21.894  1.00  0.00    -0.237 OA
ATOM     73  O   UNL A   1      49.607  28.377  22.006  1.00  0.00    -0.744 OA
ENDBRANCH  66  70
ENDBRANCH  49  63
BRANCH  50  74
ATOM     74  C   UNL A   1      38.654  30.408  30.988  1.00  0.00     0.023 A 
ATOM     75  C   UNL A   1      37.592  31.095  30.379  1.00  0.00     0.031 A 
ATOM     76  C   UNL A   1      38.565  30.152  32.368  1.00  0.00     0.131 A 
ATOM     77  C   UNL A   1      36.514  31.546  31.156  1.00  0.00     0.055 A 
ATOM     78  C   UNL A   1      37.461  30.549  33.125  1.00  0.00     0.041 A 
ATOM     79  F   UNL A   1      39.553  29.501  33.005  1.00  0.00    -0.206 F 
ATOM     80  C   UNL A   1      36.433  31.265  32.520  1.00  0.00     0.022 A 
BRANCH  77  81
ATOM     81  S   UNL A   1      35.262  32.599  30.371  1.00  0.00     0.124 S 
ATOM     82  O   UNL A   1      34.866  31.785  29.227  1.00  0.00    -0.237 OA
ATOM     83  O   UNL A   1      34.273  32.737  31.435  1.00  0.00    -0.237 OA
ATOM     84  O   UNL A   1      36.000  33.818  30.045  1.00  0.00    -0.744 OA
ENDBRANCH  77  81
ENDBRANCH  50  74
BRANCH  62  85
ATOM     85  C   UNL A   1      44.598  33.703  29.380  1.00  0.00     0.023 A 
ATOM     86  C   UNL A   1      44.401  34.733  28.444  1.00  0.00     0.031 A 
ATOM     87  C   UNL A   1      45.269  34.019  30.576  1.00  0.00     0.131 A 
ATOM     88  C   UNL A   1      44.923  36.011  28.691  1.00  0.00     0.055 A 
ATOM     89  C   UNL A   1      45.722  35.309  30.849  1.00  0.00     0.041 A 
ATOM     90  F   UNL A   1      45.489  33.074  31.506  1.00  0.00    -0.206 F 
ATOM     91  C   UNL A   1      45.563  36.311  29.895  1.00  0.00     0.022 A 
BRANCH  88  92
ATOM     92  S   UNL A   1      44.849  37.251  27.370  1.00  0.00     0.124 S 
ATOM     93  O   UNL A   1      43.475  37.108  26.898  1.00  0.00    -0.237 OA
ATOM     94  O   UNL A   1      45.152  38.487  28.084  1.00  0.00    -0.237 OA
ATOM     95  O   UNL A   1      45.877  36.812  26.428  1.00  0.00    -0.744 OA
ENDBRANCH  88  92
ENDBRANCH  62  85
ENDBRANCH  36  37
ENDBRANCH  29  31
ENDBRANCH  28  29
ENDBRANCH  27  28
ENDBRANCH  26  27
ENDBRANCH   1  26
TORSDOF 20
ENDMDL
MODEL 2
REMARK VINA RESULT:     -11.3      4.849      8.131
REMARK SMILES C[C@@H]1[C@@H](C(=O)OCCOCCOC(=O)c2ccc(-c3c4nc(c(-c5cc(S(=O)(=O)[O-])ccc5F)c5ccc([nH]5)c(-c5cc(S(=O)(=O)[O-])ccc5F)c5nc(c(-c6cc(S(=O)(=O)[O-])ccc6F)c6ccc3[nH]6)C=C5)C=C4)cc2)CCN1C(=O)[C@@H]1CCCN(C(N)=O)C1
REMARK SMILES IDX 9 1 8 2 7 3 6 4 4 5 5 6 3 7 1 8 2 9 80 10 78 11 79 12 81 13
REMARK SMILES IDX 82 14 83 15 84 16 91 17 85 18 87 19 86 20 88 21 89 22 90 23
REMARK SMILES IDX 10 26 11 27 12 28 13 29 14 30 15 31 16 32 77 33 17 34 76 35
REMARK SMILES IDX 18 36 19 37 20 38 70 39 21 40 75 41 69 42 71 43 22 44 74 45
REMARK SMILES IDX 68 46 67 47 23 49 55 50 35 51 54 52 36 53 39 54 53 55 72 56
REMARK SMILES IDX 37 57 38 58 52 60 73 61 40 62 24 63 25 64 33 65 26 66 32 67
REMARK SMILES IDX 34 68 31 69 27 70 28 71 29 72 30 73 56 74 57 75 65 76 58 77
REMARK SMILES IDX 64 78 66 79 63 80 59 81 60 82 61 83 62 84 41 85 42 86 50 87
REMARK SMILES IDX 43 88 49 89 51 90 48 91 44 92 45 93 46 94 47 95
REMARK H PARENT 89 24 89 25 71 48 39 59
REMARK Flexibility Score: inf
ROOT
ATOM      1  O   UNL A   1      33.241  29.625  23.978  1.00  0.00    -0.374 OA
ENDROOT
BRANCH   1   2
ATOM      2  C   UNL A   1      32.807  28.924  22.821  1.00  0.00     0.202 C 
BRANCH   2   3
ATOM      3  C   UNL A   1      33.354  27.518  22.561  1.00  0.00     0.261 C 
BRANCH   3   4
ATOM      4  O   UNL A   1      32.338  26.507  22.531  1.00  0.00    -0.463 OA
BRANCH   4   5
ATOM      5  C   UNL A   1      32.630  25.428  21.754  1.00  0.00     0.311 C 
ATOM      6  O   UNL A   1      33.280  25.465  20.717  1.00  0.00    -0.252 OA
BRANCH   5   7
ATOM      7  C   UNL A   1      32.037  24.166  22.357  1.00  0.00     0.123 C 
ATOM      8  C   UNL A   1      31.216  23.158  24.521  1.00  0.00     0.032 C 
ATOM      9  C   UNL A   1      32.178  24.175  23.888  1.00  0.00     0.096 C 
ATOM     10  N   UNL A   1      33.576  23.784  24.091  1.00  0.00    -0.339 N 
ATOM     11  C   UNL A   1      32.879  22.961  21.953  1.00  0.00     0.039 C 
ATOM     12  C   UNL A   1      34.049  23.022  22.933  1.00  0.00     0.121 C 
BRANCH  10  13
ATOM     13  C   UNL A   1      34.520  24.251  24.981  1.00  0.00     0.227 C 
ATOM     14  O   UNL A   1      34.628  25.477  25.143  1.00  0.00    -0.275 OA
BRANCH  13  15
ATOM     15  C   UNL A   1      35.467  23.364  25.811  1.00  0.00     0.098 C 
ATOM     16  C   UNL A   1      36.944  23.356  25.433  1.00  0.00     0.017 C 
ATOM     17  C   UNL A   1      34.929  21.993  26.205  1.00  0.00     0.134 C 
ATOM     18  C   UNL A   1      37.400  22.153  24.621  1.00  0.00     0.022 C 
ATOM     19  N   UNL A   1      35.352  20.909  25.324  1.00  0.00    -0.324 N 
ATOM     20  C   UNL A   1      36.778  20.826  25.032  1.00  0.00     0.121 C 
BRANCH  19  21
ATOM     21  C   UNL A   1      34.582  19.804  25.032  1.00  0.00     0.314 C 
ATOM     22  N   UNL A   1      35.231  18.694  24.626  1.00  0.00    -0.351 N 
ATOM     23  O   UNL A   1      33.359  19.785  25.142  1.00  0.00    -0.249 OA
ATOM     24  H   UNL A   1      36.212  18.703  24.536  1.00  0.00     0.161 HD
ATOM     25  H   UNL A   1      34.726  17.876  24.419  1.00  0.00     0.161 HD
ENDBRANCH  19  21
ENDBRANCH  13  15
ENDBRANCH  10  13
ENDBRANCH   5   7
ENDBRANCH   4   5
ENDBRANCH   3   4
ENDBRANCH   2   3
ENDBRANCH   1   2
BRANCH   1  26
ATOM     26  C   UNL A   1      32.574  29.406  25.220  1.00  0.00     0.202 C 
BRANCH  26  27
ATOM     27  C   UNL A   1      31.808  30.542  25.916  1.00  0.00     0.261 C 
BRANCH  27  28
ATOM     28  O   UNL A   1      32.254  30.834  27.246  1.00  0.00    -0.460 OA
BRANCH  28  29
ATOM     29  C   UNL A   1      33.062  31.920  27.336  1.00  0.00     0.338 C 
ATOM     30  O   UNL A   1      32.745  33.094  27.195  1.00  0.00    -0.246 OA
BRANCH  29  31
ATOM     31  C   UNL A   1      34.378  31.507  27.843  1.00  0.00     0.060 A 
ATOM     32  C   UNL A   1      34.543  30.170  28.228  1.00  0.00     0.016 A 
ATOM     33  C   UNL A   1      35.410  32.433  27.999  1.00  0.00     0.016 A 
ATOM     34  C   UNL A   1      35.742  29.756  28.795  1.00  0.00     0.010 A 
ATOM     35  C   UNL A   1      36.606  32.018  28.586  1.00  0.00     0.010 A 
ATOM     36  C   UNL A   1      36.764  30.687  29.012  1.00  0.00    -0.014 A 
BRANCH  36  37
ATOM     37  C   UNL A   1      37.930  30.300  29.837  1.00  0.00     0.031 A 
ATOM     38  C   UNL A   1      38.919  29.325  29.265  1.00  0.00     0.074 A 
ATOM     39  C   UNL A   1      38.112  30.841  31.054  1.00  0.00     0.049 A 
ATOM     40  N   UNL A   1      39.982  28.802  29.817  1.00  0.00    -0.248 NA
ATOM     41  C   UNL A   1      38.671  28.879  27.885  1.00  0.00     0.031 C 
ATOM     42  C   UNL A   1      37.240  31.840  31.671  1.00  0.00     0.029 A 
ATOM     43  N   UNL A   1      39.091  30.624  31.988  1.00  0.00    -0.354 N 
ATOM     44  C   UNL A   1      40.527  27.957  28.855  1.00  0.00     0.074 A 
ATOM     45  C   UNL A   1      39.654  28.010  27.703  1.00  0.00     0.031 C 
ATOM     46  C   UNL A   1      37.721  32.142  32.889  1.00  0.00     0.029 A 
ATOM     47  C   UNL A   1      38.905  31.329  33.154  1.00  0.00     0.049 A 
ATOM     48  H   UNL A   1      39.855  30.020  31.839  1.00  0.00     0.167 HD
ATOM     49  C   UNL A   1      41.659  27.215  28.930  1.00  0.00     0.034 A 
ATOM     50  C   UNL A   1      39.597  31.292  34.310  1.00  0.00     0.034 A 
ATOM     51  C   UNL A   1      42.503  27.173  30.098  1.00  0.00     0.049 A 
ATOM     52  C   UNL A   1      40.799  30.384  34.404  1.00  0.00     0.074 A 
ATOM     53  C   UNL A   1      43.676  26.464  30.289  1.00  0.00     0.029 A 
ATOM     54  N   UNL A   1      42.258  27.859  31.283  1.00  0.00    -0.354 N 
ATOM     55  N   UNL A   1      41.308  29.588  33.490  1.00  0.00    -0.248 NA
ATOM     56  C   UNL A   1      41.523  30.373  35.680  1.00  0.00     0.031 C 
ATOM     57  C   UNL A   1      44.092  26.655  31.612  1.00  0.00     0.029 A 
ATOM     58  C   UNL A   1      43.234  27.559  32.218  1.00  0.00     0.049 A 
ATOM     59  H   UNL A   1      41.500  28.470  31.434  1.00  0.00     0.167 HD
ATOM     60  C   UNL A   1      42.434  29.012  34.072  1.00  0.00     0.074 A 
ATOM     61  C   UNL A   1      42.535  29.562  35.409  1.00  0.00     0.031 C 
ATOM     62  C   UNL A   1      43.312  28.114  33.551  1.00  0.00     0.034 A 
BRANCH  49  63
ATOM     63  C   UNL A   1      42.005  26.351  27.741  1.00  0.00     0.023 A 
ATOM     64  C   UNL A   1      41.596  25.008  27.655  1.00  0.00     0.031 A 
ATOM     65  C   UNL A   1      42.784  26.869  26.692  1.00  0.00     0.131 A 
ATOM     66  C   UNL A   1      42.026  24.213  26.580  1.00  0.00     0.055 A 
ATOM     67  C   UNL A   1      43.138  26.096  25.584  1.00  0.00     0.041 A 
ATOM     68  F   UNL A   1      43.229  28.135  26.731  1.00  0.00    -0.206 F 
ATOM     69  C   UNL A   1      42.771  24.756  25.531  1.00  0.00     0.022 A 
BRANCH  66  70
ATOM     70  S   UNL A   1      41.728  22.425  26.650  1.00  0.00     0.124 S 
ATOM     71  O   UNL A   1      42.274  21.985  25.369  1.00  0.00    -0.237 OA
ATOM     72  O   UNL A   1      42.478  22.027  27.835  1.00  0.00    -0.237 OA
ATOM     73  O   UNL A   1      40.274  22.324  26.768  1.00  0.00    -0.744 OA
ENDBRANCH  66  70
ENDBRANCH  49  63
BRANCH  50  74
ATOM     74  C   UNL A   1      39.156  32.103  35.482  1.00  0.00     0.023 A 
ATOM     75  C   UNL A   1      39.593  33.426  35.656  1.00  0.00     0.031 A 
ATOM     76  C   UNL A   1      38.335  31.546  36.479  1.00  0.00     0.131 A 
ATOM     77  C   UNL A   1      39.249  34.128  36.821  1.00  0.00     0.055 A 
ATOM     78  C   UNL A   1      37.944  32.270  37.607  1.00  0.00     0.041 A 
ATOM     79  F   UNL A   1      37.890  30.283  36.367  1.00  0.00    -0.206 F 
ATOM     80  C   UNL A   1      38.415  33.566  37.790  1.00  0.00     0.022 A 
BRANCH  77  81
ATOM     81  S   UNL A   1      39.993  35.759  37.101  1.00  0.00     0.124 S 
ATOM     82  O   UNL A   1      39.289  36.204  38.298  1.00  0.00    -0.237 OA
ATOM     83  O   UNL A   1      41.403  35.422  37.272  1.00  0.00    -0.237 OA
ATOM     84  O   UNL A   1      39.673  36.492  35.878  1.00  0.00    -0.744 OA
ENDBRANCH  77  81
ENDBRANCH  50  74
BRANCH  62  85
ATOM     85  C   UNL A   1      44.485  27.716  34.416  1.00  0.00     0.023 A 
ATOM     86  C   UNL A   1      44.444  26.585  35.250  1.00  0.00     0.031 A 
ATOM     87  C   UNL A   1      45.660  28.489  34.410  1.00  0.00     0.131 A 
ATOM     88  C   UNL A   1      45.531  26.296  36.088  1.00  0.00     0.055 A 
ATOM     89  C   UNL A   1      46.766  28.155  35.191  1.00  0.00     0.041 A 
ATOM     90  F   UNL A   1      45.754  29.584  33.636  1.00  0.00    -0.206 F 
ATOM     91  C   UNL A   1      46.699  27.060  36.048  1.00  0.00     0.022 A 
BRANCH  88  92
ATOM     92  S   UNL A   1      45.359  24.967  37.309  1.00  0.00     0.124 S 
ATOM     93  O   UNL A   1      46.743  24.543  37.493  1.00  0.00    -0.237 OA
ATOM     94  O   UNL A   1      44.749  25.659  38.440  1.00  0.00    -0.237 OA
ATOM     95  O   UNL A   1      44.496  23.994  36.640  1.00  0.00    -0.744 OA
ENDBRANCH  88  92
ENDBRANCH  62  85
ENDBRANCH  36  37
ENDBRANCH  29  31
ENDBRANCH  28  29
ENDBRANCH  27  28
ENDBRANCH  26  27
ENDBRANCH   1  26
TORSDOF 20
ENDMDL
MODEL 3
REMARK VINA RESULT:     -11.2      4.722     10.591
REMARK SMILES C[C@@H]1[C@@H](C(=O)OCCOCCOC(=O)c2ccc(-c3c4nc(c(-c5cc(S(=O)(=O)[O-])ccc5F)c5ccc([nH]5)c(-c5cc(S(=O)(=O)[O-])ccc5F)c5nc(c(-c6cc(S(=O)(=O)[O-])ccc6F)c6ccc3[nH]6)C=C5)C=C4)cc2)CCN1C(=O)[C@@H]1CCCN(C(N)=O)C1
REMARK SMILES IDX 9 1 8 2 7 3 6 4 4 5 5 6 3 7 1 8 2 9 80 10 78 11 79 12 81 13
REMARK SMILES IDX 82 14 83 15 84 16 91 17 85 18 87 19 86 20 88 21 89 22 90 23
REMARK SMILES IDX 10 26 11 27 12 28 13 29 14 30 15 31 16 32 77 33 17 34 76 35
REMARK SMILES IDX 18 36 19 37 20 38 70 39 21 40 75 41 69 42 71 43 22 44 74 45
REMARK SMILES IDX 68 46 67 47 23 49 55 50 35 51 54 52 36 53 39 54 53 55 72 56
REMARK SMILES IDX 37 57 38 58 52 60 73 61 40 62 24 63 25 64 33 65 26 66 32 67
REMARK SMILES IDX 34 68 31 69 27 70 28 71 29 72 30 73 56 74 57 75 65 76 58 77
REMARK SMILES IDX 64 78 66 79 63 80 59 81 60 82 61 83 62 84 41 85 42 86 50 87
REMARK SMILES IDX 43 88 49 89 51 90 48 91 44 92 45 93 46 94 47 95
REMARK H PARENT 89 24 89 25 71 48 39 59
REMARK Flexibility Score: inf
ROOT
ATOM      1  O   UNL A   1      31.937  30.516  26.812  1.00  0.00    -0.374 OA
ENDROOT
BRANCH   1   2
ATOM      2  C   UNL A   1      32.192  29.562  25.790  1.00  0.00     0.202 C 
BRANCH   2   3
ATOM      3  C   UNL A   1      31.088  29.254  24.776  1.00  0.00     0.261 C 
BRANCH   3   4
ATOM      4  O   UNL A   1      31.069  27.885  24.353  1.00  0.00    -0.463 OA
BRANCH   4   5
ATOM      5  C   UNL A   1      31.539  27.671  23.092  1.00  0.00     0.311 C 
ATOM      6  O   UNL A   1      32.030  28.531  22.372  1.00  0.00    -0.252 OA
BRANCH   5   7
ATOM      7  C   UNL A   1      31.370  26.212  22.705  1.00  0.00     0.123 C 
ATOM      8  C   UNL A   1      30.923  23.913  23.649  1.00  0.00     0.032 C 
ATOM      9  C   UNL A   1      31.518  25.301  23.935  1.00  0.00     0.096 C 
ATOM     10  N   UNL A   1      32.969  25.231  24.120  1.00  0.00    -0.339 N 
ATOM     11  C   UNL A   1      32.538  25.777  21.828  1.00  0.00     0.039 C 
ATOM     12  C   UNL A   1      33.643  25.503  22.848  1.00  0.00     0.121 C 
BRANCH  10  13
ATOM     13  C   UNL A   1      33.732  25.258  25.268  1.00  0.00     0.227 C 
ATOM     14  O   UNL A   1      33.581  26.202  26.060  1.00  0.00    -0.275 OA
BRANCH  13  15
ATOM     15  C   UNL A   1      34.774  24.194  25.662  1.00  0.00     0.098 C 
ATOM     16  C   UNL A   1      35.878  23.877  24.660  1.00  0.00     0.017 C 
ATOM     17  C   UNL A   1      34.237  22.966  26.390  1.00  0.00     0.134 C 
ATOM     18  C   UNL A   1      35.675  22.603  23.852  1.00  0.00     0.022 C 
ATOM     19  N   UNL A   1      33.996  21.816  25.524  1.00  0.00    -0.324 N 
ATOM     20  C   UNL A   1      35.081  21.436  24.628  1.00  0.00     0.121 C 
BRANCH  19  21
ATOM     21  C   UNL A   1      32.989  20.896  25.723  1.00  0.00     0.314 C 
ATOM     22  N   UNL A   1      33.151  20.019  26.734  1.00  0.00    -0.351 N 
ATOM     23  O   UNL A   1      31.967  20.857  25.045  1.00  0.00    -0.249 OA
ATOM     24  H   UNL A   1      33.969  20.046  27.282  1.00  0.00     0.161 HD
ATOM     25  H   UNL A   1      32.454  19.352  26.924  1.00  0.00     0.161 HD
ENDBRANCH  19  21
ENDBRANCH  13  15
ENDBRANCH  10  13
ENDBRANCH   5   7
ENDBRANCH   4   5
ENDBRANCH   3   4
ENDBRANCH   2   3
ENDBRANCH   1   2
BRANCH   1  26
ATOM     26  C   UNL A   1      31.382  31.785  26.462  1.00  0.00     0.202 C 
BRANCH  26  27
ATOM     27  C   UNL A   1      32.057  33.091  26.907  1.00  0.00     0.261 C 
BRANCH  27  28
ATOM     28  O   UNL A   1      32.954  32.950  28.016  1.00  0.00    -0.460 OA
BRANCH  28  29
ATOM     29  C   UNL A   1      34.048  33.750  27.952  1.00  0.00     0.338 C 
ATOM     30  O   UNL A   1      34.069  34.965  27.805  1.00  0.00    -0.246 OA
BRANCH  29  31
ATOM     31  C   UNL A   1      35.244  32.970  28.297  1.00  0.00     0.060 A 
ATOM     32  C   UNL A   1      35.077  31.611  28.595  1.00  0.00     0.016 A 
ATOM     33  C   UNL A   1      36.496  33.579  28.392  1.00  0.00     0.016 A 
ATOM     34  C   UNL A   1      36.165  30.855  29.012  1.00  0.00     0.010 A 
ATOM     35  C   UNL A   1      37.583  32.821  28.829  1.00  0.00     0.010 A 
ATOM     36  C   UNL A   1      37.414  31.467  29.168  1.00  0.00    -0.014 A 
BRANCH  36  37
ATOM     37  C   UNL A   1      38.501  30.726  29.847  1.00  0.00     0.031 A 
ATOM     38  C   UNL A   1      38.793  31.043  31.285  1.00  0.00     0.074 A 
ATOM     39  C   UNL A   1      39.181  29.767  29.196  1.00  0.00     0.049 A 
ATOM     40  N   UNL A   1      39.724  30.566  32.068  1.00  0.00    -0.248 NA
ATOM     41  C   UNL A   1      37.917  32.037  31.924  1.00  0.00     0.031 C 
ATOM     42  C   UNL A   1      38.932  29.345  27.817  1.00  0.00     0.029 A 
ATOM     43  N   UNL A   1      40.222  28.976  29.608  1.00  0.00    -0.354 N 
ATOM     44  C   UNL A   1      39.552  31.206  33.291  1.00  0.00     0.074 A 
ATOM     45  C   UNL A   1      38.454  32.134  33.131  1.00  0.00     0.031 C 
ATOM     46  C   UNL A   1      39.806  28.376  27.496  1.00  0.00     0.029 A 
ATOM     47  C   UNL A   1      40.701  28.141  28.626  1.00  0.00     0.049 A 
ATOM     48  H   UNL A   1      40.592  29.003  30.520  1.00  0.00     0.167 HD
ATOM     49  C   UNL A   1      40.246  31.025  34.441  1.00  0.00     0.034 A 
ATOM     50  C   UNL A   1      41.761  27.308  28.636  1.00  0.00     0.034 A 
ATOM     51  C   UNL A   1      41.346  30.101  34.567  1.00  0.00     0.049 A 
ATOM     52  C   UNL A   1      42.579  27.195  29.899  1.00  0.00     0.074 A 
ATOM     53  C   UNL A   1      42.120  29.828  35.681  1.00  0.00     0.029 A 
ATOM     54  N   UNL A   1      41.840  29.308  33.538  1.00  0.00    -0.354 N 
ATOM     55  N   UNL A   1      42.410  27.805  31.052  1.00  0.00    -0.248 NA
ATOM     56  C   UNL A   1      43.725  26.279  29.867  1.00  0.00     0.031 C 
ATOM     57  C   UNL A   1      43.129  28.936  35.304  1.00  0.00     0.029 A 
ATOM     58  C   UNL A   1      42.929  28.576  33.980  1.00  0.00     0.049 A 
ATOM     59  H   UNL A   1      41.468  29.271  32.626  1.00  0.00     0.167 HD
ATOM     60  C   UNL A   1      43.408  27.315  31.891  1.00  0.00     0.074 A 
ATOM     61  C   UNL A   1      44.163  26.352  31.115  1.00  0.00     0.031 C 
ATOM     62  C   UNL A   1      43.675  27.625  33.186  1.00  0.00     0.034 A 
BRANCH  49  63
ATOM     63  C   UNL A   1      39.870  31.886  35.624  1.00  0.00     0.023 A 
ATOM     64  C   UNL A   1      38.961  31.448  36.604  1.00  0.00     0.031 A 
ATOM     65  C   UNL A   1      40.404  33.180  35.755  1.00  0.00     0.131 A 
ATOM     66  C   UNL A   1      38.563  32.320  37.629  1.00  0.00     0.055 A 
ATOM     67  C   UNL A   1      40.068  34.012  36.825  1.00  0.00     0.041 A 
ATOM     68  F   UNL A   1      41.254  33.666  34.836  1.00  0.00    -0.206 F 
ATOM     69  C   UNL A   1      39.131  33.589  37.762  1.00  0.00     0.022 A 
BRANCH  66  70
ATOM     70  S   UNL A   1      37.181  31.830  38.697  1.00  0.00     0.124 S 
ATOM     71  O   UNL A   1      36.946  30.455  38.262  1.00  0.00    -0.237 OA
ATOM     72  O   UNL A   1      37.743  31.990  40.032  1.00  0.00    -0.237 OA
ATOM     73  O   UNL A   1      36.124  32.776  38.346  1.00  0.00    -0.744 OA
ENDBRANCH  66  70
ENDBRANCH  49  63
BRANCH  50  74
ATOM     74  C   UNL A   1      42.138  26.548  27.408  1.00  0.00     0.023 A 
ATOM     75  C   UNL A   1      41.867  25.176  27.292  1.00  0.00     0.031 A 
ATOM     76  C   UNL A   1      42.828  27.173  26.354  1.00  0.00     0.131 A 
ATOM     77  C   UNL A   1      42.328  24.464  26.174  1.00  0.00     0.055 A 
ATOM     78  C   UNL A   1      43.229  26.473  25.215  1.00  0.00     0.041 A 
ATOM     79  F   UNL A   1      43.117  28.484  26.413  1.00  0.00    -0.206 F 
ATOM     80  C   UNL A   1      42.993  25.106  25.128  1.00  0.00     0.022 A 
BRANCH  77  81
ATOM     81  S   UNL A   1      42.132  22.661  26.154  1.00  0.00     0.124 S 
ATOM     82  O   UNL A   1      40.681  22.520  26.197  1.00  0.00    -0.237 OA
ATOM     83  O   UNL A   1      42.776  22.300  24.895  1.00  0.00    -0.237 OA
ATOM     84  O   UNL A   1      42.838  22.230  27.360  1.00  0.00    -0.744 OA
ENDBRANCH  77  81
ENDBRANCH  50  74
BRANCH  62  85
ATOM     85  C   UNL A   1      44.801  26.873  33.857  1.00  0.00     0.023 A 
ATOM     86  C   UNL A   1      44.577  25.690  34.583  1.00  0.00     0.031 A 
ATOM     87  C   UNL A   1      46.120  27.356  33.773  1.00  0.00     0.131 A 
ATOM     88  C   UNL A   1      45.643  25.066  35.247  1.00  0.00     0.055 A 
ATOM     89  C   UNL A   1      47.188  26.691  34.374  1.00  0.00     0.041 A 
ATOM     90  F   UNL A   1      46.393  28.484  33.095  1.00  0.00    -0.206 F 
ATOM     91  C   UNL A   1      46.950  25.547  35.130  1.00  0.00     0.022 A 
BRANCH  88  92
ATOM     92  S   UNL A   1      45.284  23.677  36.355  1.00  0.00     0.124 S 
ATOM     93  O   UNL A   1      44.223  22.981  35.634  1.00  0.00    -0.237 OA
ATOM     94  O   UNL A   1      46.569  22.987  36.419  1.00  0.00    -0.237 OA
ATOM     95  O   UNL A   1      44.867  24.325  37.597  1.00  0.00    -0.744 OA
ENDBRANCH  88  92
ENDBRANCH  62  85
ENDBRANCH  36  37
ENDBRANCH  29  31
ENDBRANCH  28  29
ENDBRANCH  27  28
ENDBRANCH  26  27
ENDBRANCH   1  26
TORSDOF 20
ENDMDL
