MODEL 1
REMARK VINA RESULT:     -11.4      0.000      0.000
REMARK SMILES O=C(OCCOCCOC(=O)c1cc(=O)[nH]c2ccc(C(F)(F)F)cc12)c1ccc(-c2c3nc(c(-c4cc(S(=O)(=O)[O-])ccc4F)c4ccc([nH]4)c(-c4cc(S(=O)(=O)[O-])ccc4F)c4nc(c(-c5cc(S(=O)(=O)[O-])ccc5F)c5ccc2[nH]5)C=C4)C=C3)cc1
REMARK SMILES IDX 5 1 4 2 3 3 2 4 1 5 27 6 28 7 89 8 29 9 88 10 30 11 31 12
REMARK SMILES IDX 32 13 82 14 33 15 87 16 81 17 83 18 34 19 86 20 80 21 79 22
REMARK SMILES IDX 35 24 67 25 47 26 66 27 48 28 51 29 65 30 84 31 49 32 50 33
REMARK SMILES IDX 64 35 85 36 52 37 36 38 37 39 45 40 38 41 44 42 46 43 43 44
REMARK SMILES IDX 39 45 40 46 41 47 42 48 68 49 69 50 77 51 70 52 76 53 78 54
REMARK SMILES IDX 75 55 71 56 72 57 73 58 74 59 53 60 54 61 62 62 55 63 61 64
REMARK SMILES IDX 63 65 60 66 56 67 57 68 58 69 59 70 6 71 7 72 8 73 9 74
REMARK SMILES IDX 10 75 11 76 12 77 13 78 26 79 14 80 17 81 25 82 15 83 16 84
REMARK SMILES IDX 18 85 20 86 19 88 21 89 22 90 23 91 24 92
REMARK H PARENT 83 23 51 34 16 87
REMARK Flexibility Score: inf
ROOT
ATOM      1  C   UNL A   1      31.553  32.030  26.790  1.00  0.00     0.202 C 
ENDROOT
BRANCH   1   2
ATOM      2  C   UNL A   1      32.809  32.807  27.181  1.00  0.00     0.261 C 
BRANCH   2   3
ATOM      3  O   UNL A   1      32.454  33.994  27.908  1.00  0.00    -0.460 OA
BRANCH   3   4
ATOM      4  C   UNL A   1      33.222  34.630  28.828  1.00  0.00     0.338 C 
ATOM      5  O   UNL A   1      32.989  35.807  29.091  1.00  0.00    -0.246 OA
BRANCH   4   6
ATOM      6  C   UNL A   1      34.348  33.952  29.529  1.00  0.00     0.060 A 
ATOM      7  C   UNL A   1      34.175  32.861  30.382  1.00  0.00     0.016 A 
ATOM      8  C   UNL A   1      35.654  34.366  29.234  1.00  0.00     0.016 A 
ATOM      9  C   UNL A   1      35.249  32.243  30.997  1.00  0.00     0.010 A 
ATOM     10  C   UNL A   1      36.751  33.699  29.792  1.00  0.00     0.010 A 
ATOM     11  C   UNL A   1      36.546  32.634  30.680  1.00  0.00    -0.014 A 
BRANCH  11  12
ATOM     12  C   UNL A   1      37.659  31.921  31.334  1.00  0.00     0.031 A 
ATOM     13  C   UNL A   1      37.973  32.233  32.762  1.00  0.00     0.074 A 
ATOM     14  C   UNL A   1      38.278  30.925  30.672  1.00  0.00     0.049 A 
ATOM     15  N   UNL A   1      38.949  31.798  33.509  1.00  0.00    -0.248 NA
ATOM     16  C   UNL A   1      37.053  33.159  33.442  1.00  0.00     0.031 C 
ATOM     17  C   UNL A   1      37.933  30.474  29.320  1.00  0.00     0.029 A 
ATOM     18  N   UNL A   1      39.296  30.090  31.047  1.00  0.00    -0.354 N 
ATOM     19  C   UNL A   1      38.785  32.422  34.740  1.00  0.00     0.074 A 
ATOM     20  C   UNL A   1      37.616  33.271  34.634  1.00  0.00     0.031 C 
ATOM     21  C   UNL A   1      38.701  29.424  28.996  1.00  0.00     0.029 A 
ATOM     22  C   UNL A   1      39.656  29.188  30.071  1.00  0.00     0.049 A 
ATOM     23  H   UNL A   1      39.728  30.130  31.930  1.00  0.00     0.167 HD
ATOM     24  C   UNL A   1      39.557  32.297  35.846  1.00  0.00     0.034 A 
ATOM     25  C   UNL A   1      40.676  28.310  30.039  1.00  0.00     0.034 A 
ATOM     26  C   UNL A   1      40.721  31.446  35.889  1.00  0.00     0.049 A 
ATOM     27  C   UNL A   1      41.585  28.268  31.241  1.00  0.00     0.074 A 
ATOM     28  C   UNL A   1      41.649  31.290  36.900  1.00  0.00     0.029 A 
ATOM     29  N   UNL A   1      41.112  30.598  34.856  1.00  0.00    -0.354 N 
ATOM     30  N   UNL A   1      41.493  28.942  32.367  1.00  0.00    -0.248 NA
ATOM     31  C   UNL A   1      42.739  27.369  31.167  1.00  0.00     0.031 C 
ATOM     32  C   UNL A   1      42.631  30.395  36.455  1.00  0.00     0.029 A 
ATOM     33  C   UNL A   1      42.278  29.934  35.194  1.00  0.00     0.049 A 
ATOM     34  H   UNL A   1      40.627  30.487  34.005  1.00  0.00     0.167 HD
ATOM     35  C   UNL A   1      42.574  28.539  33.141  1.00  0.00     0.074 A 
ATOM     36  C   UNL A   1      43.285  27.542  32.362  1.00  0.00     0.031 C 
ATOM     37  C   UNL A   1      42.956  28.952  34.377  1.00  0.00     0.034 A 
BRANCH  24  38
ATOM     38  C   UNL A   1      39.216  33.188  37.016  1.00  0.00     0.023 A 
ATOM     39  C   UNL A   1      39.806  34.454  37.187  1.00  0.00     0.031 A 
ATOM     40  C   UNL A   1      38.374  32.713  38.037  1.00  0.00     0.131 A 
ATOM     41  C   UNL A   1      39.620  35.156  38.389  1.00  0.00     0.055 A 
ATOM     42  C   UNL A   1      38.126  33.454  39.193  1.00  0.00     0.041 A 
ATOM     43  F   UNL A   1      37.809  31.500  37.946  1.00  0.00    -0.206 F 
ATOM     44  C   UNL A   1      38.766  34.675  39.384  1.00  0.00     0.022 A 
BRANCH  41  45
ATOM     45  S   UNL A   1      40.646  36.619  38.711  1.00  0.00     0.124 S 
ATOM     46  O   UNL A   1      39.633  37.663  38.854  1.00  0.00    -0.237 OA
ATOM     47  O   UNL A   1      41.356  36.247  39.928  1.00  0.00    -0.237 OA
ATOM     48  O   UNL A   1      41.476  36.728  37.513  1.00  0.00    -0.744 OA
ENDBRANCH  41  45
ENDBRANCH  24  38
BRANCH  25  49
ATOM     49  C   UNL A   1      40.944  27.487  28.821  1.00  0.00     0.023 A 
ATOM     50  C   UNL A   1      41.963  27.823  27.915  1.00  0.00     0.031 A 
ATOM     51  C   UNL A   1      40.149  26.363  28.520  1.00  0.00     0.131 A 
ATOM     52  C   UNL A   1      42.135  27.071  26.740  1.00  0.00     0.055 A 
ATOM     53  C   UNL A   1      40.361  25.584  27.382  1.00  0.00     0.041 A 
ATOM     54  F   UNL A   1      39.152  25.996  29.341  1.00  0.00    -0.206 F 
ATOM     55  C   UNL A   1      41.352  25.944  26.476  1.00  0.00     0.022 A 
BRANCH  52  56
ATOM     56  S   UNL A   1      43.338  27.639  25.506  1.00  0.00     0.124 S 
ATOM     57  O   UNL A   1      42.467  28.114  24.437  1.00  0.00    -0.237 OA
ATOM     58  O   UNL A   1      44.068  28.664  26.244  1.00  0.00    -0.237 OA
ATOM     59  O   UNL A   1      44.104  26.433  25.197  1.00  0.00    -0.744 OA
ENDBRANCH  52  56
ENDBRANCH  25  49
BRANCH  37  60
ATOM     60  C   UNL A   1      44.177  28.287  34.955  1.00  0.00     0.023 A 
ATOM     61  C   UNL A   1      44.078  27.122  35.733  1.00  0.00     0.031 A 
ATOM     62  C   UNL A   1      45.451  28.837  34.731  1.00  0.00     0.131 A 
ATOM     63  C   UNL A   1      45.232  26.572  36.307  1.00  0.00     0.055 A 
ATOM     64  C   UNL A   1      46.601  28.250  35.255  1.00  0.00     0.041 A 
ATOM     65  F   UNL A   1      45.594  29.951  33.995  1.00  0.00    -0.206 F 
ATOM     66  C   UNL A   1      46.495  27.118  36.058  1.00  0.00     0.022 A 
BRANCH  63  67
ATOM     67  S   UNL A   1      45.051  25.180  37.455  1.00  0.00     0.124 S 
ATOM     68  O   UNL A   1      43.888  25.584  38.238  1.00  0.00    -0.237 OA
ATOM     69  O   UNL A   1      44.852  24.053  36.551  1.00  0.00    -0.237 OA
ATOM     70  O   UNL A   1      46.318  25.172  38.184  1.00  0.00    -0.744 OA
ENDBRANCH  63  67
ENDBRANCH  37  60
ENDBRANCH  11  12
ENDBRANCH   4   6
ENDBRANCH   3   4
ENDBRANCH   2   3
ENDBRANCH   1   2
BRANCH   1  71
ATOM     71  O   UNL A   1      31.785  30.739  26.237  1.00  0.00    -0.374 OA
BRANCH  71  72
ATOM     72  C   UNL A   1      32.212  29.730  27.156  1.00  0.00     0.202 C 
BRANCH  72  73
ATOM     73  C   UNL A   1      33.636  29.312  26.781  1.00  0.00     0.261 C 
BRANCH  73  74
ATOM     74  O   UNL A   1      33.641  27.888  26.571  1.00  0.00    -0.460 OA
BRANCH  74  75
ATOM     75  C   UNL A   1      33.309  27.472  25.315  1.00  0.00     0.339 C 
ATOM     76  O   UNL A   1      33.985  27.588  24.305  1.00  0.00    -0.246 OA
BRANCH  75  77
ATOM     77  C   UNL A   1      32.034  26.711  25.389  1.00  0.00     0.074 A 
ATOM     78  C   UNL A   1      32.085  25.535  26.038  1.00  0.00     0.088 A 
ATOM     79  C   UNL A   1      30.783  27.135  24.722  1.00  0.00     0.013 A 
ATOM     80  C   UNL A   1      30.926  24.628  26.082  1.00  0.00     0.249 A 
ATOM     81  C   UNL A   1      29.697  26.244  24.734  1.00  0.00     0.049 A 
ATOM     82  C   UNL A   1      30.643  28.331  24.000  1.00  0.00     0.024 A 
ATOM     83  O   UNL A   1      30.994  23.551  26.664  1.00  0.00    -0.270 OA
ATOM     84  N   UNL A   1      29.803  25.031  25.423  1.00  0.00    -0.322 N 
ATOM     85  C   UNL A   1      28.519  26.521  24.040  1.00  0.00     0.027 A 
ATOM     86  C   UNL A   1      29.484  28.595  23.239  1.00  0.00     0.056 A 
ATOM     87  H   UNL A   1      29.020  24.434  25.433  1.00  0.00     0.170 HD
ATOM     88  C   UNL A   1      28.421  27.683  23.278  1.00  0.00     0.015 A 
BRANCH  86  89
ATOM     89  C   UNL A   1      29.438  29.785  22.302  1.00  0.00     0.416 C 
ATOM     90  F   UNL A   1      29.352  30.976  22.947  1.00  0.00    -0.166 F 
ATOM     91  F   UNL A   1      30.559  29.845  21.528  1.00  0.00    -0.166 F 
ATOM     92  F   UNL A   1      28.388  29.739  21.436  1.00  0.00    -0.166 F 
ENDBRANCH  86  89
ENDBRANCH  75  77
ENDBRANCH  74  75
ENDBRANCH  73  74
ENDBRANCH  72  73
ENDBRANCH  71  72
ENDBRANCH   1  71
TORSDOF 18
ENDMDL
MODEL 2
REMARK VINA RESULT:     -11.3      2.892      8.456
REMARK SMILES O=C(OCCOCCOC(=O)c1cc(=O)[nH]c2ccc(C(F)(F)F)cc12)c1ccc(-c2c3nc(c(-c4cc(S(=O)(=O)[O-])ccc4F)c4ccc([nH]4)c(-c4cc(S(=O)(=O)[O-])ccc4F)c4nc(c(-c5cc(S(=O)(=O)[O-])ccc5F)c5ccc2[nH]5)C=C4)C=C3)cc1
REMARK SMILES IDX 5 1 4 2 3 3 2 4 1 5 27 6 28 7 89 8 29 9 88 10 30 11 31 12
REMARK SMILES IDX 32 13 82 14 33 15 87 16 81 17 83 18 34 19 86 20 80 21 79 22
REMARK SMILES IDX 35 24 67 25 47 26 66 27 48 28 51 29 65 30 84 31 49 32 50 33
REMARK SMILES IDX 64 35 85 36 52 37 36 38 37 39 45 40 38 41 44 42 46 43 43 44
REMARK SMILES IDX 39 45 40 46 41 47 42 48 68 49 69 50 77 51 70 52 76 53 78 54
REMARK SMILES IDX 75 55 71 56 72 57 73 58 74 59 53 60 54 61 62 62 55 63 61 64
REMARK SMILES IDX 63 65 60 66 56 67 57 68 58 69 59 70 6 71 7 72 8 73 9 74
REMARK SMILES IDX 10 75 11 76 12 77 13 78 26 79 14 80 17 81 25 82 15 83 16 84
REMARK SMILES IDX 18 85 20 86 19 88 21 89 22 90 23 91 24 92
REMARK H PARENT 83 23 51 34 16 87
REMARK Flexibility Score: inf
ROOT
ATOM      1  C   UNL A   1      30.958  29.962  24.589  1.00  0.00     0.202 C 
ENDROOT
BRANCH   1   2
ATOM      2  C   UNL A   1      31.767  29.700  25.857  1.00  0.00     0.261 C 
BRANCH   2   3
ATOM      3  O   UNL A   1      32.958  30.503  25.864  1.00  0.00    -0.460 OA
BRANCH   3   4
ATOM      4  C   UNL A   1      33.390  31.287  26.882  1.00  0.00     0.338 C 
ATOM      5  O   UNL A   1      32.743  32.286  27.185  1.00  0.00    -0.246 OA
BRANCH   4   6
ATOM      6  C   UNL A   1      34.631  30.983  27.649  1.00  0.00     0.060 A 
ATOM      7  C   UNL A   1      35.581  31.948  27.986  1.00  0.00     0.016 A 
ATOM      8  C   UNL A   1      34.799  29.683  28.144  1.00  0.00     0.016 A 
ATOM      9  C   UNL A   1      36.710  31.630  28.719  1.00  0.00     0.010 A 
ATOM     10  C   UNL A   1      35.899  29.369  28.951  1.00  0.00     0.010 A 
ATOM     11  C   UNL A   1      36.860  30.348  29.236  1.00  0.00    -0.014 A 
BRANCH  11  12
ATOM     12  C   UNL A   1      38.063  30.067  30.043  1.00  0.00     0.031 A 
ATOM     13  C   UNL A   1      39.134  29.202  29.459  1.00  0.00     0.074 A 
ATOM     14  C   UNL A   1      38.221  30.693  31.224  1.00  0.00     0.049 A 
ATOM     15  N   UNL A   1      40.228  28.755  30.010  1.00  0.00    -0.248 NA
ATOM     16  C   UNL A   1      38.946  28.791  28.059  1.00  0.00     0.031 C 
ATOM     17  C   UNL A   1      37.276  31.658  31.796  1.00  0.00     0.029 A 
ATOM     18  N   UNL A   1      39.237  30.648  32.140  1.00  0.00    -0.354 N 
ATOM     19  C   UNL A   1      40.847  27.979  29.036  1.00  0.00     0.074 A 
ATOM     20  C   UNL A   1      40.000  28.015  27.863  1.00  0.00     0.031 C 
ATOM     21  C   UNL A   1      37.775  32.137  32.945  1.00  0.00     0.029 A 
ATOM     22  C   UNL A   1      39.023  31.446  33.240  1.00  0.00     0.049 A 
ATOM     23  H   UNL A   1      40.044  30.097  32.022  1.00  0.00     0.167 HD
ATOM     24  C   UNL A   1      42.012  27.295  29.134  1.00  0.00     0.034 A 
ATOM     25  C   UNL A   1      39.735  31.560  34.378  1.00  0.00     0.034 A 
ATOM     26  C   UNL A   1      42.808  27.285  30.336  1.00  0.00     0.049 A 
ATOM     27  C   UNL A   1      40.970  30.705  34.504  1.00  0.00     0.074 A 
ATOM     28  C   UNL A   1      43.956  26.567  30.615  1.00  0.00     0.029 A 
ATOM     29  N   UNL A   1      42.528  28.043  31.470  1.00  0.00    -0.354 N 
ATOM     30  N   UNL A   1      41.498  29.884  33.622  1.00  0.00    -0.248 NA
ATOM     31  C   UNL A   1      41.696  30.774  35.775  1.00  0.00     0.031 C 
ATOM     32  C   UNL A   1      44.333  26.845  31.935  1.00  0.00     0.029 A 
ATOM     33  C   UNL A   1      43.465  27.794  32.459  1.00  0.00     0.049 A 
ATOM     34  H   UNL A   1      41.771  28.667  31.557  1.00  0.00     0.167 HD
ATOM     35  C   UNL A   1      42.625  29.346  34.229  1.00  0.00     0.074 A 
ATOM     36  C   UNL A   1      42.715  29.959  35.542  1.00  0.00     0.031 C 
ATOM     37  C   UNL A   1      43.507  28.425  33.759  1.00  0.00     0.034 A 
BRANCH  24  38
ATOM     38  C   UNL A   1      42.393  26.433  27.954  1.00  0.00     0.023 A 
ATOM     39  C   UNL A   1      42.019  25.079  27.868  1.00  0.00     0.031 A 
ATOM     40  C   UNL A   1      43.243  26.945  26.957  1.00  0.00     0.131 A 
ATOM     41  C   UNL A   1      42.568  24.266  26.863  1.00  0.00     0.055 A 
ATOM     42  C   UNL A   1      43.717  26.150  25.913  1.00  0.00     0.041 A 
ATOM     43  F   UNL A   1      43.660  28.220  27.004  1.00  0.00    -0.206 F 
ATOM     44  C   UNL A   1      43.396  24.797  25.872  1.00  0.00     0.022 A 
BRANCH  41  45
ATOM     45  S   UNL A   1      42.328  22.469  26.971  1.00  0.00     0.124 S 
ATOM     46  O   UNL A   1      42.169  22.279  28.412  1.00  0.00    -0.237 OA
ATOM     47  O   UNL A   1      41.133  22.260  26.163  1.00  0.00    -0.237 OA
ATOM     48  O   UNL A   1      43.563  21.923  26.412  1.00  0.00    -0.744 OA
ENDBRANCH  41  45
ENDBRANCH  24  38
BRANCH  25  49
ATOM     49  C   UNL A   1      39.260  32.426  35.499  1.00  0.00     0.023 A 
ATOM     50  C   UNL A   1      39.718  33.744  35.655  1.00  0.00     0.031 A 
ATOM     51  C   UNL A   1      38.365  31.928  36.467  1.00  0.00     0.131 A 
ATOM     52  C   UNL A   1      39.311  34.503  36.766  1.00  0.00     0.055 A 
ATOM     53  C   UNL A   1      37.916  32.705  37.536  1.00  0.00     0.041 A 
ATOM     54  F   UNL A   1      37.899  30.672  36.380  1.00  0.00    -0.206 F 
ATOM     55  C   UNL A   1      38.400  33.998  37.698  1.00  0.00     0.022 A 
BRANCH  52  56
ATOM     56  S   UNL A   1      40.060  36.133  37.034  1.00  0.00     0.124 S 
ATOM     57  O   UNL A   1      39.782  36.801  35.767  1.00  0.00    -0.237 OA
ATOM     58  O   UNL A   1      39.321  36.620  38.194  1.00  0.00    -0.237 OA
ATOM     59  O   UNL A   1      41.468  35.825  37.279  1.00  0.00    -0.744 OA
ENDBRANCH  52  56
ENDBRANCH  25  49
BRANCH  37  60
ATOM     60  C   UNL A   1      44.652  28.072  34.670  1.00  0.00     0.023 A 
ATOM     61  C   UNL A   1      44.497  27.151  35.719  1.00  0.00     0.031 A 
ATOM     62  C   UNL A   1      45.908  28.674  34.487  1.00  0.00     0.131 A 
ATOM     63  C   UNL A   1      45.570  26.899  36.584  1.00  0.00     0.055 A 
ATOM     64  C   UNL A   1      46.988  28.373  35.314  1.00  0.00     0.041 A 
ATOM     65  F   UNL A   1      46.103  29.561  33.498  1.00  0.00    -0.206 F 
ATOM     66  C   UNL A   1      46.820  27.491  36.378  1.00  0.00     0.022 A 
BRANCH  63  67
ATOM     67  S   UNL A   1      45.287  25.852  38.037  1.00  0.00     0.124 S 
ATOM     68  O   UNL A   1      44.583  24.713  37.456  1.00  0.00    -0.237 OA
ATOM     69  O   UNL A   1      46.644  25.592  38.505  1.00  0.00    -0.237 OA
ATOM     70  O   UNL A   1      44.481  26.698  38.916  1.00  0.00    -0.744 OA
ENDBRANCH  63  67
ENDBRANCH  37  60
ENDBRANCH  11  12
ENDBRANCH   4   6
ENDBRANCH   3   4
ENDBRANCH   2   3
ENDBRANCH   1   2
BRANCH   1  71
ATOM     71  O   UNL A   1      30.959  28.902  23.637  1.00  0.00    -0.374 OA
BRANCH  71  72
ATOM     72  C   UNL A   1      32.243  28.459  23.191  1.00  0.00     0.202 C 
BRANCH  72  73
ATOM     73  C   UNL A   1      32.268  26.930  23.246  1.00  0.00     0.261 C 
BRANCH  73  74
ATOM     74  O   UNL A   1      31.811  26.524  24.550  1.00  0.00    -0.460 OA
BRANCH  74  75
ATOM     75  C   UNL A   1      32.762  26.008  25.378  1.00  0.00     0.339 C 
ATOM     76  O   UNL A   1      33.694  26.611  25.886  1.00  0.00    -0.246 OA
BRANCH  75  77
ATOM     77  C   UNL A   1      32.405  24.599  25.691  1.00  0.00     0.074 A 
ATOM     78  C   UNL A   1      31.276  24.420  26.399  1.00  0.00     0.088 A 
ATOM     79  C   UNL A   1      33.256  23.438  25.349  1.00  0.00     0.013 A 
ATOM     80  C   UNL A   1      30.869  23.088  26.878  1.00  0.00     0.249 A 
ATOM     81  C   UNL A   1      32.881  22.179  25.846  1.00  0.00     0.049 A 
ATOM     82  C   UNL A   1      34.462  23.530  24.637  1.00  0.00     0.024 A 
ATOM     83  O   UNL A   1      29.845  22.944  27.538  1.00  0.00    -0.270 OA
ATOM     84  N   UNL A   1      31.696  22.047  26.580  1.00  0.00    -0.322 N 
ATOM     85  C   UNL A   1      33.683  21.053  25.659  1.00  0.00     0.027 A 
ATOM     86  C   UNL A   1      35.316  22.415  24.496  1.00  0.00     0.056 A 
ATOM     87  H   UNL A   1      31.447  21.150  26.899  1.00  0.00     0.170 HD
ATOM     88  C   UNL A   1      34.906  21.175  25.004  1.00  0.00     0.015 A 
BRANCH  86  89
ATOM     89  C   UNL A   1      36.704  22.583  23.913  1.00  0.00     0.416 C 
ATOM     90  F   UNL A   1      37.329  23.713  24.328  1.00  0.00    -0.166 F 
ATOM     91  F   UNL A   1      37.513  21.543  24.262  1.00  0.00    -0.166 F 
ATOM     92  F   UNL A   1      36.709  22.619  22.552  1.00  0.00    -0.166 F 
ENDBRANCH  86  89
ENDBRANCH  75  77
ENDBRANCH  74  75
ENDBRANCH  73  74
ENDBRANCH  72  73
ENDBRANCH  71  72
ENDBRANCH   1  71
TORSDOF 18
ENDMDL
MODEL 3
REMARK VINA RESULT:     -11.3      1.924      2.244
REMARK SMILES O=C(OCCOCCOC(=O)c1cc(=O)[nH]c2ccc(C(F)(F)F)cc12)c1ccc(-c2c3nc(c(-c4cc(S(=O)(=O)[O-])ccc4F)c4ccc([nH]4)c(-c4cc(S(=O)(=O)[O-])ccc4F)c4nc(c(-c5cc(S(=O)(=O)[O-])ccc5F)c5ccc2[nH]5)C=C4)C=C3)cc1
REMARK SMILES IDX 5 1 4 2 3 3 2 4 1 5 27 6 28 7 89 8 29 9 88 10 30 11 31 12
REMARK SMILES IDX 32 13 82 14 33 15 87 16 81 17 83 18 34 19 86 20 80 21 79 22
REMARK SMILES IDX 35 24 67 25 47 26 66 27 48 28 51 29 65 30 84 31 49 32 50 33
REMARK SMILES IDX 64 35 85 36 52 37 36 38 37 39 45 40 38 41 44 42 46 43 43 44
REMARK SMILES IDX 39 45 40 46 41 47 42 48 68 49 69 50 77 51 70 52 76 53 78 54
REMARK SMILES IDX 75 55 71 56 72 57 73 58 74 59 53 60 54 61 62 62 55 63 61 64
REMARK SMILES IDX 63 65 60 66 56 67 57 68 58 69 59 70 6 71 7 72 8 73 9 74
REMARK SMILES IDX 10 75 11 76 12 77 13 78 26 79 14 80 17 81 25 82 15 83 16 84
REMARK SMILES IDX 18 85 20 86 19 88 21 89 22 90 23 91 24 92
REMARK H PARENT 83 23 51 34 16 87
REMARK Flexibility Score: inf
ROOT
ATOM      1  C   UNL A   1      31.723  31.846  27.096  1.00  0.00     0.202 C 
ENDROOT
BRANCH   1   2
ATOM      2  C   UNL A   1      32.340  33.215  26.820  1.00  0.00     0.261 C 
BRANCH   2   3
ATOM      3  O   UNL A   1      32.285  34.033  28.000  1.00  0.00    -0.460 OA
BRANCH   3   4
ATOM      4  C   UNL A   1      33.338  34.630  28.611  1.00  0.00     0.338 C 
ATOM      5  O   UNL A   1      33.351  35.853  28.723  1.00  0.00    -0.246 OA
BRANCH   4   6
ATOM      6  C   UNL A   1      34.491  33.853  29.149  1.00  0.00     0.060 A 
ATOM      7  C   UNL A   1      35.821  34.242  28.987  1.00  0.00     0.016 A 
ATOM      8  C   UNL A   1      34.217  32.735  29.947  1.00  0.00     0.016 A 
ATOM      9  C   UNL A   1      36.863  33.505  29.522  1.00  0.00     0.010 A 
ATOM     10  C   UNL A   1      35.260  32.027  30.556  1.00  0.00     0.010 A 
ATOM     11  C   UNL A   1      36.589  32.414  30.339  1.00  0.00    -0.014 A 
BRANCH  11  12
ATOM     12  C   UNL A   1      37.733  31.682  30.916  1.00  0.00     0.031 A 
ATOM     13  C   UNL A   1      38.103  31.937  32.342  1.00  0.00     0.074 A 
ATOM     14  C   UNL A   1      38.329  30.719  30.188  1.00  0.00     0.049 A 
ATOM     15  N   UNL A   1      39.111  31.477  33.029  1.00  0.00    -0.248 NA
ATOM     16  C   UNL A   1      37.207  32.827  33.097  1.00  0.00     0.031 C 
ATOM     17  C   UNL A   1      37.931  30.322  28.833  1.00  0.00     0.029 A 
ATOM     18  N   UNL A   1      39.365  29.876  30.485  1.00  0.00    -0.354 N 
ATOM     19  C   UNL A   1      38.995  32.049  34.291  1.00  0.00     0.074 A 
ATOM     20  C   UNL A   1      37.818  32.893  34.269  1.00  0.00     0.031 C 
ATOM     21  C   UNL A   1      38.691  29.291  28.434  1.00  0.00     0.029 A 
ATOM     22  C   UNL A   1      39.690  29.018  29.459  1.00  0.00     0.049 A 
ATOM     23  H   UNL A   1      39.834  29.882  31.351  1.00  0.00     0.167 HD
ATOM     24  C   UNL A   1      39.812  31.884  35.358  1.00  0.00     0.034 A 
ATOM     25  C   UNL A   1      40.712  28.150  29.349  1.00  0.00     0.034 A 
ATOM     26  C   UNL A   1      40.981  31.040  35.318  1.00  0.00     0.049 A 
ATOM     27  C   UNL A   1      41.670  28.064  30.510  1.00  0.00     0.074 A 
ATOM     28  C   UNL A   1      41.951  30.848  36.283  1.00  0.00     0.029 A 
ATOM     29  N   UNL A   1      41.334  30.238  34.235  1.00  0.00    -0.354 N 
ATOM     30  N   UNL A   1      41.622  28.690  31.666  1.00  0.00    -0.248 NA
ATOM     31  C   UNL A   1      42.826  27.176  30.351  1.00  0.00     0.031 C 
ATOM     32  C   UNL A   1      42.919  29.979  35.761  1.00  0.00     0.029 A 
ATOM     33  C   UNL A   1      42.517  29.569  34.497  1.00  0.00     0.049 A 
ATOM     34  H   UNL A   1      40.816  30.159  33.401  1.00  0.00     0.167 HD
ATOM     35  C   UNL A   1      42.735  28.262  32.377  1.00  0.00     0.074 A 
ATOM     36  C   UNL A   1      43.419  27.304  31.529  1.00  0.00     0.031 C 
ATOM     37  C   UNL A   1      43.166  28.627  33.613  1.00  0.00     0.034 A 
BRANCH  24  38
ATOM     38  C   UNL A   1      39.515  32.723  36.578  1.00  0.00     0.023 A 
ATOM     39  C   UNL A   1      38.717  32.247  37.634  1.00  0.00     0.031 A 
ATOM     40  C   UNL A   1      39.942  34.062  36.629  1.00  0.00     0.131 A 
ATOM     41  C   UNL A   1      38.296  33.128  38.644  1.00  0.00     0.055 A 
ATOM     42  C   UNL A   1      39.589  34.909  37.680  1.00  0.00     0.041 A 
ATOM     43  F   UNL A   1      40.678  34.582  35.635  1.00  0.00    -0.206 F 
ATOM     44  C   UNL A   1      38.746  34.449  38.686  1.00  0.00     0.022 A 
BRANCH  41  45
ATOM     45  S   UNL A   1      37.013  32.574  39.803  1.00  0.00     0.124 S 
ATOM     46  O   UNL A   1      35.812  32.655  38.974  1.00  0.00    -0.237 OA
ATOM     47  O   UNL A   1      37.459  31.231  40.151  1.00  0.00    -0.237 OA
ATOM     48  O   UNL A   1      37.080  33.554  40.885  1.00  0.00    -0.744 OA
ENDBRANCH  41  45
ENDBRANCH  24  38
BRANCH  25  49
ATOM     49  C   UNL A   1      40.935  27.379  28.088  1.00  0.00     0.023 A 
ATOM     50  C   UNL A   1      40.695  25.997  28.018  1.00  0.00     0.031 A 
ATOM     51  C   UNL A   1      41.437  28.012  26.934  1.00  0.00     0.131 A 
ATOM     52  C   UNL A   1      40.990  25.291  26.839  1.00  0.00     0.055 A 
ATOM     53  C   UNL A   1      41.673  27.318  25.746  1.00  0.00     0.041 A 
ATOM     54  F   UNL A   1      41.697  29.329  26.939  1.00  0.00    -0.206 F 
ATOM     55  C   UNL A   1      41.462  25.945  25.698  1.00  0.00     0.022 A 
BRANCH  52  56
ATOM     56  S   UNL A   1      40.840  23.483  26.842  1.00  0.00     0.124 S 
ATOM     57  O   UNL A   1      39.424  23.301  26.542  1.00  0.00    -0.237 OA
ATOM     58  O   UNL A   1      41.775  23.099  25.789  1.00  0.00    -0.237 OA
ATOM     59  O   UNL A   1      41.243  23.109  28.196  1.00  0.00    -0.744 OA
ENDBRANCH  52  56
ENDBRANCH  25  49
BRANCH  37  60
ATOM     60  C   UNL A   1      44.413  27.947  34.112  1.00  0.00     0.023 A 
ATOM     61  C   UNL A   1      44.354  26.738  34.825  1.00  0.00     0.031 A 
ATOM     62  C   UNL A   1      45.672  28.525  33.879  1.00  0.00     0.131 A 
ATOM     63  C   UNL A   1      45.532  26.172  35.329  1.00  0.00     0.055 A 
ATOM     64  C   UNL A   1      46.846  27.926  34.331  1.00  0.00     0.041 A 
ATOM     65  F   UNL A   1      45.778  29.682  33.204  1.00  0.00    -0.206 F 
ATOM     66  C   UNL A   1      46.780  26.749  35.071  1.00  0.00     0.022 A 
BRANCH  63  67
ATOM     67  S   UNL A   1      45.406  24.715  36.401  1.00  0.00     0.124 S 
ATOM     68  O   UNL A   1      44.675  25.246  37.547  1.00  0.00    -0.237 OA
ATOM     69  O   UNL A   1      44.677  23.771  35.561  1.00  0.00    -0.237 OA
ATOM     70  O   UNL A   1      46.800  24.361  36.663  1.00  0.00    -0.744 OA
ENDBRANCH  63  67
ENDBRANCH  37  60
ENDBRANCH  11  12
ENDBRANCH   4   6
ENDBRANCH   3   4
ENDBRANCH   2   3
ENDBRANCH   1   2
BRANCH   1  71
ATOM     71  O   UNL A   1      32.495  30.731  26.661  1.00  0.00    -0.374 OA
BRANCH  71  72
ATOM     72  C   UNL A   1      33.817  30.635  27.199  1.00  0.00     0.202 C 
BRANCH  72  73
ATOM     73  C   UNL A   1      34.316  29.203  26.990  1.00  0.00     0.261 C 
BRANCH  73  74
ATOM     74  O   UNL A   1      33.167  28.350  26.838  1.00  0.00    -0.460 OA
BRANCH  74  75
ATOM     75  C   UNL A   1      33.240  27.428  25.835  1.00  0.00     0.339 C 
ATOM     76  O   UNL A   1      34.213  27.179  25.142  1.00  0.00    -0.246 OA
BRANCH  75  77
ATOM     77  C   UNL A   1      31.969  26.657  25.807  1.00  0.00     0.074 A 
ATOM     78  C   UNL A   1      31.968  25.496  26.485  1.00  0.00     0.088 A 
ATOM     79  C   UNL A   1      30.783  27.053  25.015  1.00  0.00     0.013 A 
ATOM     80  C   UNL A   1      30.817  24.579  26.442  1.00  0.00     0.249 A 
ATOM     81  C   UNL A   1      29.708  26.151  24.947  1.00  0.00     0.049 A 
ATOM     82  C   UNL A   1      30.702  28.230  24.256  1.00  0.00     0.024 A 
ATOM     83  O   UNL A   1      30.839  23.516  27.053  1.00  0.00    -0.270 OA
ATOM     84  N   UNL A   1      29.758  24.955  25.671  1.00  0.00    -0.322 N 
ATOM     85  C   UNL A   1      28.598  26.401  24.139  1.00  0.00     0.027 A 
ATOM     86  C   UNL A   1      29.618  28.466  23.384  1.00  0.00     0.056 A 
ATOM     87  H   UNL A   1      28.982  24.351  25.621  1.00  0.00     0.170 HD
ATOM     88  C   UNL A   1      28.563  27.544  23.345  1.00  0.00     0.015 A 
BRANCH  86  89
ATOM     89  C   UNL A   1      29.651  29.633  22.418  1.00  0.00     0.416 C 
ATOM     90  F   UNL A   1      30.808  29.716  21.714  1.00  0.00    -0.166 F 
ATOM     91  F   UNL A   1      28.646  29.542  21.502  1.00  0.00    -0.166 F 
ATOM     92  F   UNL A   1      29.489  30.837  23.033  1.00  0.00    -0.166 F 
ENDBRANCH  86  89
ENDBRANCH  75  77
ENDBRANCH  74  75
ENDBRANCH  73  74
ENDBRANCH  72  73
ENDBRANCH  71  72
ENDBRANCH   1  71
TORSDOF 18
ENDMDL
