MODEL 1
REMARK VINA RESULT:     -12.9      0.000      0.000
REMARK SMILES Cc1ccccc1[C@@H]1[NH2+][C@@H](C(=O)OCCOCCOC(=O)c2ccc(-c3c4nc(c(-c5cc(S(=O)(=O)[O-])ccc5F)c5ccc([nH]5)c(-c5cc(S(=O)(=O)[O-])ccc5F)c5nc(c(-c6cc(S(=O)(=O)[O-])ccc6F)c6ccc3[nH]6)C=C5)C=C4)cc2)CC2=c3ccccc3=N[C@@H]21
REMARK SMILES IDX 17 1 16 2 15 3 14 4 13 5 11 6 12 7 10 8 8 9 9 10 94 11 86 14
REMARK SMILES IDX 93 15 85 16 87 17 92 18 88 19 91 20 89 21 90 22 7 23 1 24
REMARK SMILES IDX 2 25 3 26 4 27 6 28 5 29 18 30 19 31 20 32 21 33 22 34 23 35
REMARK SMILES IDX 84 36 24 37 83 38 25 39 26 40 27 41 77 42 28 43 82 44 76 45
REMARK SMILES IDX 78 46 29 47 81 48 75 49 74 50 30 52 62 53 42 54 61 55 43 56
REMARK SMILES IDX 46 57 60 58 79 59 44 60 45 61 59 63 80 64 47 65 31 66 32 67
REMARK SMILES IDX 40 68 33 69 39 70 41 71 38 72 34 73 35 74 36 75 37 76 63 77
REMARK SMILES IDX 64 78 72 79 65 80 71 81 73 82 70 83 66 84 67 85 68 86 69 87
REMARK SMILES IDX 48 88 49 89 57 90 50 91 56 92 58 93 55 94 51 95 52 96 53 97
REMARK SMILES IDX 54 98
REMARK H PARENT 9 12 9 13 78 51 46 62
REMARK Flexibility Score: inf
ROOT
ATOM      1  C   UNL A   1      43.258  32.777  36.104  1.00  0.00     0.202 C 
ENDROOT
BRANCH   1   2
ATOM      2  O   UNL A   1      42.409  33.942  36.119  1.00  0.00    -0.374 OA
BRANCH   2   3
ATOM      3  C   UNL A   1      41.206  33.859  35.448  1.00  0.00     0.202 C 
BRANCH   3   4
ATOM      4  C   UNL A   1      40.164  32.815  35.730  1.00  0.00     0.261 C 
BRANCH   4   5
ATOM      5  O   UNL A   1      38.849  33.212  36.015  1.00  0.00    -0.459 OA
BRANCH   5   6
ATOM      6  C   UNL A   1      37.850  32.430  35.557  1.00  0.00     0.365 C 
ATOM      7  O   UNL A   1      37.707  31.308  36.030  1.00  0.00    -0.245 OA
BRANCH   6   8
ATOM      8  C   UNL A   1      37.195  32.935  34.256  1.00  0.00     0.298 C 
ATOM      9  C   UNL A   1      37.766  32.100  31.817  1.00  0.00     0.243 C 
ATOM     10  N   UNL A   1      37.104  31.922  33.108  1.00  0.00    -0.326 N 
ATOM     11  C   UNL A   1      37.128  33.609  31.238  1.00  0.00     0.196 C 
ATOM     12  H   UNL A   1      37.459  31.044  33.485  1.00  0.00     0.347 HD
ATOM     13  H   UNL A   1      36.123  32.014  32.842  1.00  0.00     0.347 HD
ATOM     14  C   UNL A   1      36.466  34.593  32.808  1.00  0.00    -0.024 C 
ATOM     15  N   UNL A   1      35.584  34.017  29.900  1.00  0.00    -0.270 NA
ATOM     16  C   UNL A   1      37.419  34.405  33.940  1.00  0.00     0.111 C 
ATOM     17  C   UNL A   1      35.193  35.325  32.541  1.00  0.00     0.002 A 
ATOM     18  C   UNL A   1      34.496  34.926  30.753  1.00  0.00     0.066 A 
ATOM     19  C   UNL A   1      34.293  36.075  33.364  1.00  0.00     0.010 A 
ATOM     20  C   UNL A   1      33.101  35.337  30.551  1.00  0.00     0.028 A 
ATOM     21  C   UNL A   1      33.038  36.282  32.925  1.00  0.00     0.001 A 
ATOM     22  C   UNL A   1      32.485  35.912  31.606  1.00  0.00     0.002 A 
BRANCH   9  23
ATOM     23  C   UNL A   1      38.262  30.498  31.338  1.00  0.00     0.015 A 
ATOM     24  C   UNL A   1      41.108  29.402  32.563  1.00  0.00     0.045 C 
ATOM     25  C   UNL A   1      39.643  29.285  31.912  1.00  0.00    -0.042 A 
ATOM     26  C   UNL A   1      40.079  27.892  30.792  1.00  0.00     0.004 A 
ATOM     27  C   UNL A   1      39.308  27.673  29.246  1.00  0.00     0.000 A 
ATOM     28  C   UNL A   1      37.644  30.230  29.616  1.00  0.00     0.010 A 
ATOM     29  C   UNL A   1      38.160  28.831  28.636  1.00  0.00     0.001 A 
ENDBRANCH   9  23
ENDBRANCH   6   8
ENDBRANCH   5   6
ENDBRANCH   4   5
ENDBRANCH   3   4
ENDBRANCH   2   3
ENDBRANCH   1   2
BRANCH   1  30
ATOM     30  C   UNL A   1      43.313  31.240  36.868  1.00  0.00     0.261 C 
BRANCH  30  31
ATOM     31  O   UNL A   1      42.317  29.808  36.958  1.00  0.00    -0.460 OA
BRANCH  31  32
ATOM     32  C   UNL A   1      41.922  28.326  36.149  1.00  0.00     0.338 C 
ATOM     33  O   UNL A   1      40.791  28.111  36.651  1.00  0.00    -0.246 OA
BRANCH  32  34
ATOM     34  C   UNL A   1      43.228  27.337  34.746  1.00  0.00     0.060 A 
ATOM     35  C   UNL A   1      44.574  27.710  34.088  1.00  0.00     0.016 A 
ATOM     36  C   UNL A   1      43.013  26.127  33.966  1.00  0.00     0.016 A 
ATOM     37  C   UNL A   1      45.048  27.443  32.723  1.00  0.00     0.010 A 
ATOM     38  C   UNL A   1      43.376  25.958  32.611  1.00  0.00     0.010 A 
ATOM     39  C   UNL A   1      44.243  26.743  31.874  1.00  0.00    -0.014 A 
BRANCH  39  40
ATOM     40  C   UNL A   1      44.155  26.689  30.351  1.00  0.00     0.031 A 
ATOM     41  C   UNL A   1      44.398  25.309  29.772  1.00  0.00     0.074 A 
ATOM     42  C   UNL A   1      43.621  27.738  29.609  1.00  0.00     0.049 A 
ATOM     43  N   UNL A   1      45.210  25.037  28.798  1.00  0.00    -0.248 NA
ATOM     44  C   UNL A   1      43.910  24.026  30.363  1.00  0.00     0.031 C 
ATOM     45  C   UNL A   1      42.999  27.888  28.259  1.00  0.00     0.029 A 
ATOM     46  N   UNL A   1      43.374  29.042  30.063  1.00  0.00    -0.354 N 
ATOM     47  C   UNL A   1      44.813  23.771  28.386  1.00  0.00     0.074 A 
ATOM     48  C   UNL A   1      44.447  23.100  29.574  1.00  0.00     0.031 C 
ATOM     49  C   UNL A   1      42.905  29.187  27.876  1.00  0.00     0.029 A 
ATOM     50  C   UNL A   1      43.358  29.970  28.987  1.00  0.00     0.049 A 
ATOM     51  H   UNL A   1      43.230  29.282  31.008  1.00  0.00     0.167 HD
ATOM     52  C   UNL A   1      44.198  23.606  27.176  1.00  0.00     0.034 A 
ATOM     53  C   UNL A   1      44.213  31.021  28.991  1.00  0.00     0.034 A 
ATOM     54  C   UNL A   1      44.130  24.882  26.453  1.00  0.00     0.049 A 
ATOM     55  C   UNL A   1      45.406  30.484  28.200  1.00  0.00     0.074 A 
ATOM     56  C   UNL A   1      43.142  25.629  25.841  1.00  0.00     0.029 A 
ATOM     57  N   UNL A   1      45.239  25.713  26.505  1.00  0.00    -0.354 N 
ATOM     58  N   UNL A   1      45.514  29.204  27.922  1.00  0.00    -0.248 NA
ATOM     59  C   UNL A   1      46.313  31.293  27.392  1.00  0.00     0.031 C 
ATOM     60  C   UNL A   1      43.713  26.916  25.519  1.00  0.00     0.029 A 
ATOM     61  C   UNL A   1      45.008  26.975  26.027  1.00  0.00     0.049 A 
ATOM     62  H   UNL A   1      46.112  25.421  26.854  1.00  0.00     0.167 HD
ATOM     63  C   UNL A   1      46.162  29.049  26.737  1.00  0.00     0.074 A 
ATOM     64  C   UNL A   1      46.722  30.379  26.491  1.00  0.00     0.031 C 
ATOM     65  C   UNL A   1      46.143  27.897  25.990  1.00  0.00     0.034 A 
BRANCH  52  66
ATOM     66  C   UNL A   1      43.538  22.327  26.676  1.00  0.00     0.023 A 
ATOM     67  C   UNL A   1      44.361  21.489  25.907  1.00  0.00     0.031 A 
ATOM     68  C   UNL A   1      42.238  21.816  26.918  1.00  0.00     0.131 A 
ATOM     69  C   UNL A   1      43.940  20.219  25.475  1.00  0.00     0.055 A 
ATOM     70  C   UNL A   1      41.825  20.534  26.512  1.00  0.00     0.041 A 
ATOM     71  F   UNL A   1      41.274  22.520  27.523  1.00  0.00    -0.206 F 
ATOM     72  C   UNL A   1      42.685  19.719  25.797  1.00  0.00     0.022 A 
BRANCH  69  73
ATOM     73  S   UNL A   1      45.104  19.233  24.510  1.00  0.00     0.124 S 
ATOM     74  O   UNL A   1      44.444  19.177  23.209  1.00  0.00    -0.237 OA
ATOM     75  O   UNL A   1      46.319  20.037  24.586  1.00  0.00    -0.237 OA
ATOM     76  O   UNL A   1      45.155  17.965  25.234  1.00  0.00    -0.744 OA
ENDBRANCH  69  73
ENDBRANCH  52  66
BRANCH  53  77
ATOM     77  C   UNL A   1      44.018  31.562  30.380  1.00  0.00     0.023 A 
ATOM     78  C   UNL A   1      45.272  31.603  31.245  1.00  0.00     0.031 A 
ATOM     79  C   UNL A   1      43.002  32.477  30.587  1.00  0.00     0.131 A 
ATOM     80  C   UNL A   1      45.681  32.615  32.332  1.00  0.00     0.055 A 
ATOM     81  C   UNL A   1      43.209  33.453  31.524  1.00  0.00     0.041 A 
ATOM     82  F   UNL A   1      41.941  32.571  29.773  1.00  0.00    -0.206 F 
ATOM     83  C   UNL A   1      44.385  33.472  32.339  1.00  0.00     0.022 A 
BRANCH  80  84
ATOM     84  S   UNL A   1      47.298  32.544  34.422  1.00  0.00     0.124 S 
ATOM     85  O   UNL A   1      46.695  31.817  35.575  1.00  0.00    -0.237 OA
ATOM     86  O   UNL A   1      48.620  31.925  34.123  1.00  0.00    -0.237 OA
ATOM     87  O   UNL A   1      47.629  33.948  34.854  1.00  0.00    -0.744 OA
ENDBRANCH  80  84
ENDBRANCH  53  77
BRANCH  65  88
ATOM     88  C   UNL A   1      47.340  27.492  25.173  1.00  0.00     0.023 A 
ATOM     89  C   UNL A   1      47.492  27.961  23.876  1.00  0.00     0.031 A 
ATOM     90  C   UNL A   1      48.435  26.753  25.681  1.00  0.00     0.131 A 
ATOM     91  C   UNL A   1      48.539  27.549  23.065  1.00  0.00     0.055 A 
ATOM     92  C   UNL A   1      49.571  26.476  24.920  1.00  0.00     0.041 A 
ATOM     93  F   UNL A   1      48.488  26.299  26.940  1.00  0.00    -0.206 F 
ATOM     94  C   UNL A   1      49.605  26.828  23.580  1.00  0.00     0.022 A 
BRANCH  91  95
ATOM     95  S   UNL A   1      48.343  27.923  21.318  1.00  0.00     0.124 S 
ATOM     96  O   UNL A   1      49.329  28.988  21.133  1.00  0.00    -0.237 OA
ATOM     97  O   UNL A   1      48.679  26.650  20.686  1.00  0.00    -0.237 OA
ATOM     98  O   UNL A   1      46.948  28.333  21.211  1.00  0.00    -0.744 OA
ENDBRANCH  91  95
ENDBRANCH  65  88
ENDBRANCH  39  40
ENDBRANCH  32  34
ENDBRANCH  31  32
ENDBRANCH  30  31
ENDBRANCH   1  30
TORSDOF 18
ENDMDL
MODEL 2
REMARK VINA RESULT:     -12.5      0.983      3.530
REMARK SMILES Cc1ccccc1[C@@H]1[NH2+][C@@H](C(=O)OCCOCCOC(=O)c2ccc(-c3c4nc(c(-c5cc(S(=O)(=O)[O-])ccc5F)c5ccc([nH]5)c(-c5cc(S(=O)(=O)[O-])ccc5F)c5nc(c(-c6cc(S(=O)(=O)[O-])ccc6F)c6ccc3[nH]6)C=C5)C=C4)cc2)CC2=c3ccccc3=N[C@@H]21
REMARK SMILES IDX 17 1 16 2 15 3 14 4 13 5 11 6 12 7 10 8 8 9 9 10 94 11 86 14
REMARK SMILES IDX 93 15 85 16 87 17 92 18 88 19 91 20 89 21 90 22 7 23 1 24
REMARK SMILES IDX 2 25 3 26 4 27 6 28 5 29 18 30 19 31 20 32 21 33 22 34 23 35
REMARK SMILES IDX 84 36 24 37 83 38 25 39 26 40 27 41 77 42 28 43 82 44 76 45
REMARK SMILES IDX 78 46 29 47 81 48 75 49 74 50 30 52 62 53 42 54 61 55 43 56
REMARK SMILES IDX 46 57 60 58 79 59 44 60 45 61 59 63 80 64 47 65 31 66 32 67
REMARK SMILES IDX 40 68 33 69 39 70 41 71 38 72 34 73 35 74 36 75 37 76 63 77
REMARK SMILES IDX 64 78 72 79 65 80 71 81 73 82 70 83 66 84 67 85 68 86 69 87
REMARK SMILES IDX 48 88 49 89 57 90 50 91 56 92 58 93 55 94 51 95 52 96 53 97
REMARK SMILES IDX 54 98
REMARK H PARENT 9 12 9 13 78 51 46 62
REMARK Flexibility Score: inf
ROOT
ATOM      1  C   UNL A   1      42.688  34.424  36.045  1.00  0.00     0.202 C 
ENDROOT
BRANCH   1   2
ATOM      2  O   UNL A   1      41.319  34.871  36.009  1.00  0.00    -0.374 OA
BRANCH   2   3
ATOM      3  C   UNL A   1      40.393  34.138  36.723  1.00  0.00     0.202 C 
BRANCH   3   4
ATOM      4  C   UNL A   1      39.638  32.970  36.157  1.00  0.00     0.261 C 
BRANCH   4   5
ATOM      5  O   UNL A   1      38.343  33.165  35.652  1.00  0.00    -0.459 OA
BRANCH   5   6
ATOM      6  C   UNL A   1      38.230  33.683  34.412  1.00  0.00     0.365 C 
ATOM      7  O   UNL A   1      38.171  34.901  34.278  1.00  0.00    -0.245 OA
BRANCH   6   8
ATOM      8  C   UNL A   1      37.869  32.652  33.324  1.00  0.00     0.298 C 
ATOM      9  C   UNL A   1      35.821  32.813  31.666  1.00  0.00     0.243 C 
ATOM     10  N   UNL A   1      37.168  33.204  32.077  1.00  0.00    -0.326 N 
ATOM     11  C   UNL A   1      35.936  31.088  31.485  1.00  0.00     0.196 C 
ATOM     12  H   UNL A   1      37.139  34.216  32.199  1.00  0.00     0.347 HD
ATOM     13  H   UNL A   1      37.730  32.787  31.334  1.00  0.00     0.347 HD
ATOM     14  C   UNL A   1      37.481  30.501  32.552  1.00  0.00    -0.024 C 
ATOM     15  N   UNL A   1      36.218  29.907  29.792  1.00  0.00    -0.270 NA
ATOM     16  C   UNL A   1      37.510  31.266  33.832  1.00  0.00     0.111 C 
ATOM     17  C   UNL A   1      38.270  29.422  31.887  1.00  0.00     0.002 A 
ATOM     18  C   UNL A   1      37.608  29.059  30.079  1.00  0.00     0.066 A 
ATOM     19  C   UNL A   1      39.498  28.758  32.204  1.00  0.00     0.010 A 
ATOM     20  C   UNL A   1      38.528  28.262  29.255  1.00  0.00     0.028 A 
ATOM     21  C   UNL A   1      40.153  28.112  31.222  1.00  0.00     0.001 A 
ATOM     22  C   UNL A   1      39.694  27.903  29.834  1.00  0.00     0.002 A 
BRANCH   9  23
ATOM     23  C   UNL A   1      35.113  34.260  30.998  1.00  0.00     0.015 A 
ATOM     24  C   UNL A   1      32.537  35.523  32.602  1.00  0.00     0.045 C 
ATOM     25  C   UNL A   1      33.807  35.533  31.617  1.00  0.00    -0.042 A 
ATOM     26  C   UNL A   1      33.030  36.640  30.370  1.00  0.00     0.004 A 
ATOM     27  C   UNL A   1      33.420  36.538  28.676  1.00  0.00     0.000 A 
ATOM     28  C   UNL A   1      35.310  34.165  29.162  1.00  0.00     0.010 A 
ATOM     29  C   UNL A   1      34.487  35.306  28.065  1.00  0.00     0.001 A 
ENDBRANCH   9  23
ENDBRANCH   6   8
ENDBRANCH   5   6
ENDBRANCH   4   5
ENDBRANCH   3   4
ENDBRANCH   2   3
ENDBRANCH   1   2
BRANCH   1  30
ATOM     30  C   UNL A   1      43.547  32.954  35.819  1.00  0.00     0.261 C 
BRANCH  30  31
ATOM     31  O   UNL A   1      43.188  31.307  35.361  1.00  0.00    -0.460 OA
BRANCH  31  32
ATOM     32  C   UNL A   1      43.266  29.658  35.893  1.00  0.00     0.338 C 
ATOM     33  O   UNL A   1      43.034  29.824  37.116  1.00  0.00    -0.246 OA
BRANCH  32  34
ATOM     34  C   UNL A   1      43.698  27.995  34.591  1.00  0.00     0.060 A 
ATOM     35  C   UNL A   1      44.998  27.401  34.005  1.00  0.00     0.016 A 
ATOM     36  C   UNL A   1      42.792  27.150  33.826  1.00  0.00     0.016 A 
ATOM     37  C   UNL A   1      45.239  26.823  32.676  1.00  0.00     0.010 A 
ATOM     38  C   UNL A   1      43.010  26.718  32.498  1.00  0.00     0.010 A 
ATOM     39  C   UNL A   1      44.201  26.742  31.796  1.00  0.00    -0.014 A 
BRANCH  39  40
ATOM     40  C   UNL A   1      44.146  26.673  30.273  1.00  0.00     0.031 A 
ATOM     41  C   UNL A   1      44.392  25.286  29.712  1.00  0.00     0.074 A 
ATOM     42  C   UNL A   1      43.637  27.719  29.508  1.00  0.00     0.049 A 
ATOM     43  N   UNL A   1      45.224  25.000  28.759  1.00  0.00    -0.248 NA
ATOM     44  C   UNL A   1      43.882  24.012  30.303  1.00  0.00     0.031 C 
ATOM     45  C   UNL A   1      43.046  27.861  28.144  1.00  0.00     0.029 A 
ATOM     46  N   UNL A   1      43.389  29.029  29.946  1.00  0.00    -0.354 N 
ATOM     47  C   UNL A   1      44.826  23.732  28.349  1.00  0.00     0.074 A 
ATOM     48  C   UNL A   1      44.430  23.075  29.536  1.00  0.00     0.031 C 
ATOM     49  C   UNL A   1      42.970  29.157  27.747  1.00  0.00     0.029 A 
ATOM     50  C   UNL A   1      43.403  29.947  28.860  1.00  0.00     0.049 A 
ATOM     51  H   UNL A   1      43.226  29.279  30.884  1.00  0.00     0.167 HD
ATOM     52  C   UNL A   1      44.237  23.561  27.128  1.00  0.00     0.034 A 
ATOM     53  C   UNL A   1      44.266  30.992  28.874  1.00  0.00     0.034 A 
ATOM     54  C   UNL A   1      44.195  24.830  26.391  1.00  0.00     0.049 A 
ATOM     55  C   UNL A   1      45.472  30.439  28.115  1.00  0.00     0.074 A 
ATOM     56  C   UNL A   1      43.226  25.578  25.751  1.00  0.00     0.029 A 
ATOM     57  N   UNL A   1      45.308  25.654  26.460  1.00  0.00    -0.354 N 
ATOM     58  N   UNL A   1      45.577  29.156  27.851  1.00  0.00    -0.248 NA
ATOM     59  C   UNL A   1      46.403  31.234  27.319  1.00  0.00     0.031 C 
ATOM     60  C   UNL A   1      43.814  26.858  25.430  1.00  0.00     0.029 A 
ATOM     61  C   UNL A   1      45.097  26.913  25.966  1.00  0.00     0.049 A 
ATOM     62  H   UNL A   1      46.171  25.359  26.832  1.00  0.00     0.167 HD
ATOM     63  C   UNL A   1      46.250  28.985  26.682  1.00  0.00     0.074 A 
ATOM     64  C   UNL A   1      46.825  30.309  26.436  1.00  0.00     0.031 C 
ATOM     65  C   UNL A   1      46.239  27.826  25.946  1.00  0.00     0.034 A 
BRANCH  52  66
ATOM     66  C   UNL A   1      43.579  22.281  26.625  1.00  0.00     0.023 A 
ATOM     67  C   UNL A   1      44.410  21.434  25.874  1.00  0.00     0.031 A 
ATOM     68  C   UNL A   1      42.273  21.778  26.849  1.00  0.00     0.131 A 
ATOM     69  C   UNL A   1      43.991  20.165  25.443  1.00  0.00     0.055 A 
ATOM     70  C   UNL A   1      41.861  20.495  26.445  1.00  0.00     0.041 A 
ATOM     71  F   UNL A   1      41.304  22.490  27.435  1.00  0.00    -0.206 F 
ATOM     72  C   UNL A   1      42.728  19.672  25.749  1.00  0.00     0.022 A 
BRANCH  69  73
ATOM     73  S   UNL A   1      45.166  19.167  24.504  1.00  0.00     0.124 S 
ATOM     74  O   UNL A   1      45.410  18.054  25.416  1.00  0.00    -0.237 OA
ATOM     75  O   UNL A   1      44.406  18.861  23.296  1.00  0.00    -0.237 OA
ATOM     76  O   UNL A   1      46.298  20.070  24.310  1.00  0.00    -0.744 OA
ENDBRANCH  69  73
ENDBRANCH  52  66
BRANCH  53  77
ATOM     77  C   UNL A   1      44.044  31.548  30.253  1.00  0.00     0.023 A 
ATOM     78  C   UNL A   1      45.224  31.411  31.208  1.00  0.00     0.031 A 
ATOM     79  C   UNL A   1      43.150  32.593  30.400  1.00  0.00     0.131 A 
ATOM     80  C   UNL A   1      45.685  32.352  32.337  1.00  0.00     0.055 A 
ATOM     81  C   UNL A   1      43.419  33.526  31.363  1.00  0.00     0.041 A 
ATOM     82  F   UNL A   1      42.176  32.836  29.511  1.00  0.00    -0.206 F 
ATOM     83  C   UNL A   1      44.523  33.379  32.262  1.00  0.00     0.022 A 
BRANCH  80  84
ATOM     84  S   UNL A   1      47.117  32.047  34.539  1.00  0.00     0.124 S 
ATOM     85  O   UNL A   1      46.545  31.009  35.441  1.00  0.00    -0.237 OA
ATOM     86  O   UNL A   1      48.541  31.698  34.272  1.00  0.00    -0.237 OA
ATOM     87  O   UNL A   1      47.184  33.354  35.284  1.00  0.00    -0.744 OA
ENDBRANCH  80  84
ENDBRANCH  53  77
BRANCH  65  88
ATOM     88  C   UNL A   1      47.452  27.405  25.160  1.00  0.00     0.023 A 
ATOM     89  C   UNL A   1      47.644  27.874  23.868  1.00  0.00     0.031 A 
ATOM     90  C   UNL A   1      48.521  26.649  25.694  1.00  0.00     0.131 A 
ATOM     91  C   UNL A   1      48.706  27.448  23.084  1.00  0.00     0.055 A 
ATOM     92  C   UNL A   1      49.672  26.356  24.963  1.00  0.00     0.041 A 
ATOM     93  F   UNL A   1      48.534  26.191  26.952  1.00  0.00    -0.206 F 
ATOM     94  C   UNL A   1      49.748  26.710  23.625  1.00  0.00     0.022 A 
BRANCH  91  95
ATOM     95  S   UNL A   1      48.562  27.830  21.333  1.00  0.00     0.124 S 
ATOM     96  O   UNL A   1      49.046  26.592  20.721  1.00  0.00    -0.237 OA
ATOM     97  O   UNL A   1      47.131  28.078  21.183  1.00  0.00    -0.237 OA
ATOM     98  O   UNL A   1      49.425  28.993  21.165  1.00  0.00    -0.744 OA
ENDBRANCH  91  95
ENDBRANCH  65  88
ENDBRANCH  39  40
ENDBRANCH  32  34
ENDBRANCH  31  32
ENDBRANCH  30  31
ENDBRANCH   1  30
TORSDOF 18
ENDMDL
MODEL 3
REMARK VINA RESULT:     -12.4      5.433     10.806
REMARK SMILES Cc1ccccc1[C@@H]1[NH2+][C@@H](C(=O)OCCOCCOC(=O)c2ccc(-c3c4nc(c(-c5cc(S(=O)(=O)[O-])ccc5F)c5ccc([nH]5)c(-c5cc(S(=O)(=O)[O-])ccc5F)c5nc(c(-c6cc(S(=O)(=O)[O-])ccc6F)c6ccc3[nH]6)C=C5)C=C4)cc2)CC2=c3ccccc3=N[C@@H]21
REMARK SMILES IDX 17 1 16 2 15 3 14 4 13 5 11 6 12 7 10 8 8 9 9 10 94 11 86 14
REMARK SMILES IDX 93 15 85 16 87 17 92 18 88 19 91 20 89 21 90 22 7 23 1 24
REMARK SMILES IDX 2 25 3 26 4 27 6 28 5 29 18 30 19 31 20 32 21 33 22 34 23 35
REMARK SMILES IDX 84 36 24 37 83 38 25 39 26 40 27 41 77 42 28 43 82 44 76 45
REMARK SMILES IDX 78 46 29 47 81 48 75 49 74 50 30 52 62 53 42 54 61 55 43 56
REMARK SMILES IDX 46 57 60 58 79 59 44 60 45 61 59 63 80 64 47 65 31 66 32 67
REMARK SMILES IDX 40 68 33 69 39 70 41 71 38 72 34 73 35 74 36 75 37 76 63 77
REMARK SMILES IDX 64 78 72 79 65 80 71 81 73 82 70 83 66 84 67 85 68 86 69 87
REMARK SMILES IDX 48 88 49 89 57 90 50 91 56 92 58 93 55 94 51 95 52 96 53 97
REMARK SMILES IDX 54 98
REMARK H PARENT 9 12 9 13 78 51 46 62
REMARK Flexibility Score: inf
ROOT
ATOM      1  C   UNL A   1      33.671  28.305  24.390  1.00  0.00     0.202 C 
ENDROOT
BRANCH   1   2
ATOM      2  O   UNL A   1      33.106  27.109  23.819  1.00  0.00    -0.374 OA
BRANCH   2   3
ATOM      3  C   UNL A   1      33.617  25.900  24.246  1.00  0.00     0.202 C 
BRANCH   3   4
ATOM      4  C   UNL A   1      33.932  25.587  25.680  1.00  0.00     0.261 C 
BRANCH   4   5
ATOM      5  O   UNL A   1      34.561  24.374  26.000  1.00  0.00    -0.459 OA
BRANCH   5   6
ATOM      6  C   UNL A   1      33.772  23.332  26.333  1.00  0.00     0.365 C 
ATOM      7  O   UNL A   1      32.861  23.507  27.135  1.00  0.00    -0.245 OA
BRANCH   6   8
ATOM      8  C   UNL A   1      34.317  21.958  25.895  1.00  0.00     0.298 C 
ATOM      9  C   UNL A   1      36.812  21.437  25.207  1.00  0.00     0.243 C 
ATOM     10  N   UNL A   1      35.789  21.680  26.222  1.00  0.00    -0.326 N 
ATOM     11  C   UNL A   1      36.200  20.066  24.333  1.00  0.00     0.196 C 
ATOM     12  H   UNL A   1      36.112  22.486  26.756  1.00  0.00     0.347 HD
ATOM     13  H   UNL A   1      35.723  20.761  26.660  1.00  0.00     0.347 HD
ATOM     14  C   UNL A   1      34.258  20.006  24.647  1.00  0.00    -0.024 C 
ATOM     15  N   UNL A   1      36.638  18.036  24.494  1.00  0.00    -0.270 NA
ATOM     16  C   UNL A   1      33.716  21.394  24.618  1.00  0.00     0.111 C 
ATOM     17  C   UNL A   1      33.740  18.616  24.819  1.00  0.00     0.002 A 
ATOM     18  C   UNL A   1      35.197  17.305  24.851  1.00  0.00     0.066 A 
ATOM     19  C   UNL A   1      32.460  18.074  25.160  1.00  0.00     0.010 A 
ATOM     20  C   UNL A   1      34.798  15.981  25.346  1.00  0.00     0.028 A 
ATOM     21  C   UNL A   1      32.397  16.811  25.621  1.00  0.00     0.001 A 
ATOM     22  C   UNL A   1      33.508  15.844  25.722  1.00  0.00     0.002 A 
BRANCH   9  23
ATOM     23  C   UNL A   1      38.259  22.182  25.834  1.00  0.00     0.015 A 
ATOM     24  C   UNL A   1      40.559  20.167  27.039  1.00  0.00     0.045 C 
ATOM     25  C   UNL A   1      39.976  21.525  26.407  1.00  0.00    -0.042 A 
ATOM     26  C   UNL A   1      41.021  22.638  27.434  1.00  0.00     0.004 A 
ATOM     27  C   UNL A   1      40.485  24.224  27.914  1.00  0.00     0.000 A 
ATOM     28  C   UNL A   1      37.765  23.816  26.545  1.00  0.00     0.010 A 
ATOM     29  C   UNL A   1      38.884  24.792  27.535  1.00  0.00     0.001 A 
ENDBRANCH   9  23
ENDBRANCH   6   8
ENDBRANCH   5   6
ENDBRANCH   4   5
ENDBRANCH   3   4
ENDBRANCH   2   3
ENDBRANCH   1   2
BRANCH   1  30
ATOM     30  C   UNL A   1      33.463  29.252  25.809  1.00  0.00     0.261 C 
BRANCH  30  31
ATOM     31  O   UNL A   1      34.466  30.165  26.908  1.00  0.00    -0.460 OA
BRANCH  31  32
ATOM     32  C   UNL A   1      34.488  31.531  27.976  1.00  0.00     0.338 C 
ATOM     33  O   UNL A   1      33.379  32.041  27.682  1.00  0.00    -0.246 OA
BRANCH  32  34
ATOM     34  C   UNL A   1      36.124  31.993  29.304  1.00  0.00     0.060 A 
ATOM     35  C   UNL A   1      37.346  32.933  29.213  1.00  0.00     0.016 A 
ATOM     36  C   UNL A   1      36.520  31.355  30.551  1.00  0.00     0.016 A 
ATOM     37  C   UNL A   1      38.715  32.728  29.705  1.00  0.00     0.010 A 
ATOM     38  C   UNL A   1      37.851  31.064  30.928  1.00  0.00     0.010 A 
ATOM     39  C   UNL A   1      39.008  31.575  30.371  1.00  0.00    -0.014 A 
BRANCH  39  40
ATOM     40  C   UNL A   1      40.314  30.816  30.588  1.00  0.00     0.031 A 
ATOM     41  C   UNL A   1      40.424  29.540  29.777  1.00  0.00     0.074 A 
ATOM     42  C   UNL A   1      41.399  31.395  31.241  1.00  0.00     0.049 A 
ATOM     43  N   UNL A   1      40.764  28.380  30.248  1.00  0.00    -0.248 NA
ATOM     44  C   UNL A   1      39.958  29.369  28.368  1.00  0.00     0.031 C 
ATOM     45  C   UNL A   1      42.876  31.175  31.265  1.00  0.00     0.029 A 
ATOM     46  N   UNL A   1      41.382  32.564  32.015  1.00  0.00    -0.354 N 
ATOM     47  C   UNL A   1      41.090  27.650  29.110  1.00  0.00     0.074 A 
ATOM     48  C   UNL A   1      40.170  28.078  28.128  1.00  0.00     0.031 C 
ATOM     49  C   UNL A   1      43.477  31.818  32.299  1.00  0.00     0.029 A 
ATOM     50  C   UNL A   1      42.453  32.581  32.949  1.00  0.00     0.049 A 
ATOM     51  H   UNL A   1      40.712  33.280  31.923  1.00  0.00     0.167 HD
ATOM     52  C   UNL A   1      42.390  27.308  28.866  1.00  0.00     0.034 A 
ATOM     53  C   UNL A   1      42.190  32.692  34.273  1.00  0.00     0.034 A 
ATOM     54  C   UNL A   1      43.257  27.747  29.967  1.00  0.00     0.049 A 
ATOM     55  C   UNL A   1      42.131  31.233  34.725  1.00  0.00     0.074 A 
ATOM     56  C   UNL A   1      44.415  28.488  30.088  1.00  0.00     0.029 A 
ATOM     57  N   UNL A   1      42.782  27.594  31.261  1.00  0.00    -0.354 N 
ATOM     58  N   UNL A   1      42.079  30.253  33.851  1.00  0.00    -0.248 NA
ATOM     59  C   UNL A   1      42.476  30.750  36.060  1.00  0.00     0.031 C 
ATOM     60  C   UNL A   1      44.615  28.748  31.494  1.00  0.00     0.029 A 
ATOM     61  C   UNL A   1      43.526  28.251  32.204  1.00  0.00     0.049 A 
ATOM     62  H   UNL A   1      41.983  27.063  31.481  1.00  0.00     0.167 HD
ATOM     63  C   UNL A   1      42.701  29.157  34.358  1.00  0.00     0.074 A 
ATOM     64  C   UNL A   1      42.851  29.488  35.776  1.00  0.00     0.031 C 
ATOM     65  C   UNL A   1      43.129  28.092  33.602  1.00  0.00     0.034 A 
BRANCH  52  66
ATOM     66  C   UNL A   1      42.924  26.686  27.581  1.00  0.00     0.023 A 
ATOM     67  C   UNL A   1      43.679  25.514  27.750  1.00  0.00     0.031 A 
ATOM     68  C   UNL A   1      42.726  27.070  26.231  1.00  0.00     0.131 A 
ATOM     69  C   UNL A   1      44.137  24.755  26.660  1.00  0.00     0.055 A 
ATOM     70  C   UNL A   1      43.158  26.296  25.138  1.00  0.00     0.041 A 
ATOM     71  F   UNL A   1      42.141  28.219  25.873  1.00  0.00    -0.206 F 
ATOM     72  C   UNL A   1      43.857  25.121  25.349  1.00  0.00     0.022 A 
BRANCH  69  73
ATOM     73  S   UNL A   1      45.079  23.257  27.017  1.00  0.00     0.124 S 
ATOM     74  O   UNL A   1      44.925  23.144  28.464  1.00  0.00    -0.237 OA
ATOM     75  O   UNL A   1      44.380  22.261  26.211  1.00  0.00    -0.237 OA
ATOM     76  O   UNL A   1      46.427  23.587  26.560  1.00  0.00    -0.744 OA
ENDBRANCH  69  73
ENDBRANCH  52  66
BRANCH  53  77
ATOM     77  C   UNL A   1      41.230  33.849  34.294  1.00  0.00     0.023 A 
ATOM     78  C   UNL A   1      39.783  33.500  33.967  1.00  0.00     0.031 A 
ATOM     79  C   UNL A   1      41.516  34.919  35.122  1.00  0.00     0.131 A 
ATOM     80  C   UNL A   1      38.480  34.119  34.506  1.00  0.00     0.055 A 
ATOM     81  C   UNL A   1      40.461  35.579  35.691  1.00  0.00     0.041 A 
ATOM     82  F   UNL A   1      42.759  35.187  35.548  1.00  0.00    -0.206 F 
ATOM     83  C   UNL A   1      39.107  35.251  35.364  1.00  0.00     0.022 A 
BRANCH  80  84
ATOM     84  S   UNL A   1      35.994  34.276  33.621  1.00  0.00     0.124 S 
ATOM     85  O   UNL A   1      35.176  33.099  34.029  1.00  0.00    -0.237 OA
ATOM     86  O   UNL A   1      35.286  35.509  34.067  1.00  0.00    -0.237 OA
ATOM     87  O   UNL A   1      35.997  34.366  32.117  1.00  0.00    -0.744 OA
ENDBRANCH  80  84
ENDBRANCH  53  77
BRANCH  65  88
ATOM     88  C   UNL A   1      43.112  26.696  34.166  1.00  0.00     0.023 A 
ATOM     89  C   UNL A   1      44.288  25.965  34.254  1.00  0.00     0.031 A 
ATOM     90  C   UNL A   1      41.979  26.093  34.759  1.00  0.00     0.131 A 
ATOM     91  C   UNL A   1      44.302  24.649  34.693  1.00  0.00     0.055 A 
ATOM     92  C   UNL A   1      42.025  24.832  35.355  1.00  0.00     0.041 A 
ATOM     93  F   UNL A   1      40.786  26.697  34.835  1.00  0.00    -0.206 F 
ATOM     94  C   UNL A   1      43.183  24.075  35.275  1.00  0.00     0.022 A 
BRANCH  91  95
ATOM     95  S   UNL A   1      45.818  23.746  34.349  1.00  0.00     0.124 S 
ATOM     96  O   UNL A   1      46.523  24.678  33.468  1.00  0.00    -0.237 OA
ATOM     97  O   UNL A   1      46.398  23.591  35.680  1.00  0.00    -0.237 OA
ATOM     98  O   UNL A   1      45.349  22.519  33.717  1.00  0.00    -0.744 OA
ENDBRANCH  91  95
ENDBRANCH  65  88
ENDBRANCH  39  40
ENDBRANCH  32  34
ENDBRANCH  31  32
ENDBRANCH  30  31
ENDBRANCH   1  30
TORSDOF 18
ENDMDL
