MODEL 1
REMARK VINA RESULT:     -10.7      0.000      0.000
REMARK SMILES O=C(OCCOCCOC(=O)[C@H](CCSc1ccccc1)Cc1ccccc1Br)c1ccc(-c2c3nc(c(-c4cc(S(=O)(=O)[O-])ccc4F)c4ccc([nH]4)c(-c4cc(S(=O)(=O)[O-])ccc4F)c4nc(c(-c5cc(S(=O)(=O)[O-])ccc5F)c5ccc2[nH]5)C=C4)C=C3)cc1
REMARK SMILES IDX 7 1 6 2 5 3 4 4 3 5 2 6 1 7 30 8 31 9 92 10 32 11 91 12
REMARK SMILES IDX 33 13 34 14 35 15 85 16 36 17 90 18 84 19 86 20 37 21 89 22
REMARK SMILES IDX 83 23 82 24 38 26 70 27 50 28 69 29 51 30 54 31 68 32 87 33
REMARK SMILES IDX 52 34 53 35 67 37 88 38 55 39 39 40 40 41 48 42 41 43 47 44
REMARK SMILES IDX 49 45 46 46 42 47 43 48 44 49 45 50 71 51 72 52 80 53 73 54
REMARK SMILES IDX 79 55 81 56 78 57 74 58 75 59 76 60 77 61 56 62 57 63 65 64
REMARK SMILES IDX 58 65 64 66 66 67 63 68 59 69 60 70 61 71 62 72 8 73 9 74
REMARK SMILES IDX 10 75 11 76 12 77 22 78 23 79 24 80 28 81 25 82 27 83 29 84
REMARK SMILES IDX 26 85 13 86 14 87 15 88 16 89 17 90 21 91 18 92 20 93 19 94
REMARK H PARENT 86 25 54 36
REMARK Flexibility Score: inf
ROOT
ATOM      1  C   UNL A   1      35.440  23.511  26.257  1.00  0.00     0.202 C 
ENDROOT
BRANCH   1   2
ATOM      2  O   UNL A   1      35.349  23.387  24.843  1.00  0.00    -0.374 OA
BRANCH   2   3
ATOM      3  C   UNL A   1      35.972  22.224  24.330  1.00  0.00     0.202 C 
BRANCH   3   4
ATOM      4  C   UNL A   1      36.757  21.337  25.289  1.00  0.00     0.261 C 
BRANCH   4   5
ATOM      5  O   UNL A   1      38.178  21.467  25.068  1.00  0.00    -0.460 OA
BRANCH   5   6
ATOM      6  C   UNL A   1      39.099  21.406  26.069  1.00  0.00     0.338 C 
ATOM      7  O   UNL A   1      39.451  20.341  26.564  1.00  0.00    -0.246 OA
BRANCH   6   8
ATOM      8  C   UNL A   1      39.684  22.682  26.511  1.00  0.00     0.060 A 
ATOM      9  C   UNL A   1      40.669  22.648  27.486  1.00  0.00     0.016 A 
ATOM     10  C   UNL A   1      39.211  23.906  26.051  1.00  0.00     0.016 A 
ATOM     11  C   UNL A   1      40.962  23.770  28.221  1.00  0.00     0.010 A 
ATOM     12  C   UNL A   1      39.755  25.074  26.592  1.00  0.00     0.010 A 
ATOM     13  C   UNL A   1      40.641  25.008  27.687  1.00  0.00    -0.014 A 
BRANCH  13  14
ATOM     14  C   UNL A   1      41.360  26.195  28.205  1.00  0.00     0.031 A 
ATOM     15  C   UNL A   1      40.611  27.224  28.987  1.00  0.00     0.074 A 
ATOM     16  C   UNL A   1      42.678  26.332  27.929  1.00  0.00     0.049 A 
ATOM     17  N   UNL A   1      40.939  28.460  29.238  1.00  0.00    -0.248 NA
ATOM     18  C   UNL A   1      39.305  26.820  29.534  1.00  0.00     0.031 C 
ATOM     19  C   UNL A   1      43.521  25.334  27.249  1.00  0.00     0.029 A 
ATOM     20  N   UNL A   1      43.555  27.356  28.180  1.00  0.00    -0.354 N 
ATOM     21  C   UNL A   1      39.848  29.010  29.898  1.00  0.00     0.074 A 
ATOM     22  C   UNL A   1      38.857  27.965  30.029  1.00  0.00     0.031 C 
ATOM     23  C   UNL A   1      44.784  25.767  27.190  1.00  0.00     0.029 A 
ATOM     24  C   UNL A   1      44.809  27.141  27.647  1.00  0.00     0.049 A 
ATOM     25  H   UNL A   1      43.313  28.163  28.689  1.00  0.00     0.167 HD
ATOM     26  C   UNL A   1      39.702  30.290  30.314  1.00  0.00     0.034 A 
ATOM     27  C   UNL A   1      45.833  27.987  27.440  1.00  0.00     0.034 A 
ATOM     28  C   UNL A   1      40.748  31.273  30.172  1.00  0.00     0.049 A 
ATOM     29  C   UNL A   1      45.613  29.418  27.840  1.00  0.00     0.074 A 
ATOM     30  C   UNL A   1      40.743  32.603  30.547  1.00  0.00     0.029 A 
ATOM     31  N   UNL A   1      41.993  31.023  29.599  1.00  0.00    -0.354 N 
ATOM     32  N   UNL A   1      44.556  29.956  28.407  1.00  0.00    -0.248 NA
ATOM     33  C   UNL A   1      46.698  30.359  27.555  1.00  0.00     0.031 C 
ATOM     34  C   UNL A   1      41.952  33.173  30.134  1.00  0.00     0.029 A 
ATOM     35  C   UNL A   1      42.747  32.183  29.574  1.00  0.00     0.049 A 
ATOM     36  H   UNL A   1      42.293  30.148  29.262  1.00  0.00     0.167 HD
ATOM     37  C   UNL A   1      44.854  31.302  28.556  1.00  0.00     0.074 A 
ATOM     38  C   UNL A   1      46.202  31.484  28.047  1.00  0.00     0.031 C 
ATOM     39  C   UNL A   1      44.090  32.305  29.055  1.00  0.00     0.034 A 
BRANCH  26  40
ATOM     40  C   UNL A   1      38.352  30.705  30.841  1.00  0.00     0.023 A 
ATOM     41  C   UNL A   1      37.349  31.243  30.017  1.00  0.00     0.031 A 
ATOM     42  C   UNL A   1      38.086  30.606  32.220  1.00  0.00     0.131 A 
ATOM     43  C   UNL A   1      36.158  31.722  30.588  1.00  0.00     0.055 A 
ATOM     44  C   UNL A   1      36.870  31.012  32.770  1.00  0.00     0.041 A 
ATOM     45  F   UNL A   1      39.018  30.130  33.062  1.00  0.00    -0.206 F 
ATOM     46  C   UNL A   1      35.902  31.586  31.954  1.00  0.00     0.022 A 
BRANCH  43  47
ATOM     47  S   UNL A   1      35.003  32.650  29.541  1.00  0.00     0.124 S 
ATOM     48  O   UNL A   1      34.143  33.281  30.539  1.00  0.00    -0.237 OA
ATOM     49  O   UNL A   1      35.889  33.543  28.804  1.00  0.00    -0.237 OA
ATOM     50  O   UNL A   1      34.357  31.612  28.739  1.00  0.00    -0.744 OA
ENDBRANCH  43  47
ENDBRANCH  26  40
BRANCH  27  51
ATOM     51  C   UNL A   1      47.068  27.549  26.719  1.00  0.00     0.023 A 
ATOM     52  C   UNL A   1      47.252  27.843  25.361  1.00  0.00     0.031 A 
ATOM     53  C   UNL A   1      48.063  26.781  27.358  1.00  0.00     0.131 A 
ATOM     54  C   UNL A   1      48.366  27.330  24.675  1.00  0.00     0.055 A 
ATOM     55  C   UNL A   1      49.208  26.339  26.693  1.00  0.00     0.041 A 
ATOM     56  F   UNL A   1      47.946  26.455  28.656  1.00  0.00    -0.206 F 
ATOM     57  C   UNL A   1      49.355  26.597  25.335  1.00  0.00     0.022 A 
BRANCH  54  58
ATOM     58  S   UNL A   1      48.434  27.522  22.873  1.00  0.00     0.124 S 
ATOM     59  O   UNL A   1      48.479  26.133  22.429  1.00  0.00    -0.237 OA
ATOM     60  O   UNL A   1      47.196  28.243  22.599  1.00  0.00    -0.237 OA
ATOM     61  O   UNL A   1      49.661  28.286  22.659  1.00  0.00    -0.744 OA
ENDBRANCH  54  58
ENDBRANCH  27  51
BRANCH  39  62
ATOM     62  C   UNL A   1      44.726  33.665  29.102  1.00  0.00     0.023 A 
ATOM     63  C   UNL A   1      45.476  34.082  30.213  1.00  0.00     0.031 A 
ATOM     64  C   UNL A   1      44.584  34.544  28.016  1.00  0.00     0.131 A 
ATOM     65  C   UNL A   1      46.027  35.369  30.229  1.00  0.00     0.055 A 
ATOM     66  C   UNL A   1      45.191  35.798  28.012  1.00  0.00     0.041 A 
ATOM     67  F   UNL A   1      43.869  34.188  26.937  1.00  0.00    -0.206 F 
ATOM     68  C   UNL A   1      45.910  36.220  29.126  1.00  0.00     0.022 A 
BRANCH  65  69
ATOM     69  S   UNL A   1      46.844  35.942  31.743  1.00  0.00     0.124 S 
ATOM     70  O   UNL A   1      48.254  35.781  31.403  1.00  0.00    -0.237 OA
ATOM     71  O   UNL A   1      46.368  37.316  31.856  1.00  0.00    -0.237 OA
ATOM     72  O   UNL A   1      46.343  35.027  32.766  1.00  0.00    -0.744 OA
ENDBRANCH  65  69
ENDBRANCH  39  62
ENDBRANCH  13  14
ENDBRANCH   6   8
ENDBRANCH   5   6
ENDBRANCH   4   5
ENDBRANCH   3   4
ENDBRANCH   2   3
ENDBRANCH   1   2
BRANCH   1  73
ATOM     73  C   UNL A   1      34.052  23.696  26.870  1.00  0.00     0.261 C 
BRANCH  73  74
ATOM     74  O   UNL A   1      33.179  24.410  25.958  1.00  0.00    -0.463 OA
BRANCH  74  75
ATOM     75  C   UNL A   1      31.836  24.290  26.195  1.00  0.00     0.309 C 
ATOM     76  O   UNL A   1      31.364  24.065  27.300  1.00  0.00    -0.252 OA
BRANCH  75  77
ATOM     77  C   UNL A   1      31.017  24.344  24.896  1.00  0.00     0.104 C 
BRANCH  77  78
ATOM     78  C   UNL A   1      30.641  25.793  24.572  1.00  0.00     0.052 C 
BRANCH  78  79
ATOM     79  C   UNL A   1      31.748  26.716  24.116  1.00  0.00    -0.033 A 
ATOM     80  C   UNL A   1      32.241  26.590  22.805  1.00  0.00     0.005 A 
ATOM     81  C   UNL A   1      32.368  27.659  24.940  1.00  0.00     0.021 A 
ATOM     82  C   UNL A   1      33.291  27.358  22.314  1.00  0.00     0.000 A 
ATOM     83  C   UNL A   1      33.448  28.415  24.463  1.00  0.00     0.016 A 
ATOM     84  Br  UNL A   1      31.818  27.956  26.732  1.00  0.00    -0.051 Br
ATOM     85  C   UNL A   1      33.908  28.266  23.154  1.00  0.00     0.001 A 
ENDBRANCH  78  79
ENDBRANCH  77  78
BRANCH  77  86
ATOM     86  C   UNL A   1      31.570  23.515  23.719  1.00  0.00     0.027 C 
BRANCH  86  87
ATOM     87  C   UNL A   1      32.042  22.030  23.718  1.00  0.00     0.076 C 
BRANCH  87  88
ATOM     88  S   UNL A   1      32.538  20.807  25.029  1.00  0.00    -0.126 SA
BRANCH  88  89
ATOM     89  C   UNL A   1      32.996  19.282  24.251  1.00  0.00     0.007 A 
ATOM     90  C   UNL A   1      32.376  18.812  23.086  1.00  0.00     0.015 A 
ATOM     91  C   UNL A   1      33.962  18.476  24.857  1.00  0.00     0.015 A 
ATOM     92  C   UNL A   1      32.860  17.673  22.430  1.00  0.00     0.001 A 
ATOM     93  C   UNL A   1      34.419  17.315  24.227  1.00  0.00     0.001 A 
ATOM     94  C   UNL A   1      33.903  16.939  22.991  1.00  0.00     0.000 A 
ENDBRANCH  88  89
ENDBRANCH  87  88
ENDBRANCH  86  87
ENDBRANCH  77  86
ENDBRANCH  75  77
ENDBRANCH  74  75
ENDBRANCH  73  74
ENDBRANCH   1  73
TORSDOF 23
ENDMDL
MODEL 2
REMARK VINA RESULT:     -10.3      2.079      8.443
REMARK SMILES O=C(OCCOCCOC(=O)[C@H](CCSc1ccccc1)Cc1ccccc1Br)c1ccc(-c2c3nc(c(-c4cc(S(=O)(=O)[O-])ccc4F)c4ccc([nH]4)c(-c4cc(S(=O)(=O)[O-])ccc4F)c4nc(c(-c5cc(S(=O)(=O)[O-])ccc5F)c5ccc2[nH]5)C=C4)C=C3)cc1
REMARK SMILES IDX 7 1 6 2 5 3 4 4 3 5 2 6 1 7 30 8 31 9 92 10 32 11 91 12
REMARK SMILES IDX 33 13 34 14 35 15 85 16 36 17 90 18 84 19 86 20 37 21 89 22
REMARK SMILES IDX 83 23 82 24 38 26 70 27 50 28 69 29 51 30 54 31 68 32 87 33
REMARK SMILES IDX 52 34 53 35 67 37 88 38 55 39 39 40 40 41 48 42 41 43 47 44
REMARK SMILES IDX 49 45 46 46 42 47 43 48 44 49 45 50 71 51 72 52 80 53 73 54
REMARK SMILES IDX 79 55 81 56 78 57 74 58 75 59 76 60 77 61 56 62 57 63 65 64
REMARK SMILES IDX 58 65 64 66 66 67 63 68 59 69 60 70 61 71 62 72 8 73 9 74
REMARK SMILES IDX 10 75 11 76 12 77 22 78 23 79 24 80 28 81 25 82 27 83 29 84
REMARK SMILES IDX 26 85 13 86 14 87 15 88 16 89 17 90 21 91 18 92 20 93 19 94
REMARK H PARENT 86 25 54 36
REMARK Flexibility Score: inf
ROOT
ATOM      1  C   UNL A   1      35.274  21.467  25.676  1.00  0.00     0.202 C 
ENDROOT
BRANCH   1   2
ATOM      2  O   UNL A   1      36.476  21.562  24.920  1.00  0.00    -0.374 OA
BRANCH   2   3
ATOM      3  C   UNL A   1      37.178  20.337  24.807  1.00  0.00     0.202 C 
BRANCH   3   4
ATOM      4  C   UNL A   1      38.645  20.299  25.219  1.00  0.00     0.261 C 
BRANCH   4   5
ATOM      5  O   UNL A   1      38.838  20.936  26.500  1.00  0.00    -0.460 OA
BRANCH   5   6
ATOM      6  C   UNL A   1      40.062  21.284  26.984  1.00  0.00     0.338 C 
ATOM      7  O   UNL A   1      40.889  20.446  27.325  1.00  0.00    -0.246 OA
BRANCH   6   8
ATOM      8  C   UNL A   1      40.365  22.724  27.050  1.00  0.00     0.060 A 
ATOM      9  C   UNL A   1      41.345  23.146  27.934  1.00  0.00     0.016 A 
ATOM     10  C   UNL A   1      39.636  23.662  26.329  1.00  0.00     0.016 A 
ATOM     11  C   UNL A   1      41.399  24.457  28.342  1.00  0.00     0.010 A 
ATOM     12  C   UNL A   1      39.922  25.017  26.521  1.00  0.00     0.010 A 
ATOM     13  C   UNL A   1      40.813  25.420  27.536  1.00  0.00    -0.014 A 
BRANCH  13  14
ATOM     14  C   UNL A   1      41.267  26.822  27.688  1.00  0.00     0.031 A 
ATOM     15  C   UNL A   1      42.643  27.201  27.248  1.00  0.00     0.074 A 
ATOM     16  C   UNL A   1      40.428  27.722  28.252  1.00  0.00     0.049 A 
ATOM     17  N   UNL A   1      43.351  28.243  27.581  1.00  0.00    -0.248 NA
ATOM     18  C   UNL A   1      43.327  26.268  26.338  1.00  0.00     0.031 C 
ATOM     19  C   UNL A   1      39.027  27.470  28.632  1.00  0.00     0.029 A 
ATOM     20  N   UNL A   1      40.613  29.033  28.610  1.00  0.00    -0.354 N 
ATOM     21  C   UNL A   1      44.594  28.055  26.991  1.00  0.00     0.074 A 
ATOM     22  C   UNL A   1      44.536  26.808  26.260  1.00  0.00     0.031 C 
ATOM     23  C   UNL A   1      38.475  28.590  29.109  1.00  0.00     0.029 A 
ATOM     24  C   UNL A   1      39.521  29.581  29.251  1.00  0.00     0.049 A 
ATOM     25  H   UNL A   1      41.441  29.532  28.427  1.00  0.00     0.167 HD
ATOM     26  C   UNL A   1      45.682  28.854  27.099  1.00  0.00     0.034 A 
ATOM     27  C   UNL A   1      39.401  30.706  29.978  1.00  0.00     0.034 A 
ATOM     28  C   UNL A   1      45.656  30.100  27.826  1.00  0.00     0.049 A 
ATOM     29  C   UNL A   1      40.644  31.533  30.144  1.00  0.00     0.074 A 
ATOM     30  C   UNL A   1      46.678  31.011  28.018  1.00  0.00     0.029 A 
ATOM     31  N   UNL A   1      44.539  30.605  28.487  1.00  0.00    -0.354 N 
ATOM     32  N   UNL A   1      41.841  31.324  29.641  1.00  0.00    -0.248 NA
ATOM     33  C   UNL A   1      40.539  32.723  30.991  1.00  0.00     0.031 C 
ATOM     34  C   UNL A   1      46.200  32.025  28.855  1.00  0.00     0.029 A 
ATOM     35  C   UNL A   1      44.858  31.792  29.121  1.00  0.00     0.049 A 
ATOM     36  H   UNL A   1      43.652  30.179  28.500  1.00  0.00     0.167 HD
ATOM     37  C   UNL A   1      42.630  32.365  30.103  1.00  0.00     0.074 A 
ATOM     38  C   UNL A   1      41.764  33.217  30.899  1.00  0.00     0.031 C 
ATOM     39  C   UNL A   1      43.951  32.602  29.902  1.00  0.00     0.034 A 
BRANCH  26  40
ATOM     40  C   UNL A   1      46.980  28.350  26.523  1.00  0.00     0.023 A 
ATOM     41  C   UNL A   1      47.234  28.314  25.142  1.00  0.00     0.031 A 
ATOM     42  C   UNL A   1      47.970  27.844  27.386  1.00  0.00     0.131 A 
ATOM     43  C   UNL A   1      48.415  27.722  24.663  1.00  0.00     0.055 A 
ATOM     44  C   UNL A   1      49.175  27.327  26.908  1.00  0.00     0.041 A 
ATOM     45  F   UNL A   1      47.771  27.822  28.715  1.00  0.00    -0.206 F 
ATOM     46  C   UNL A   1      49.397  27.251  25.538  1.00  0.00     0.022 A 
BRANCH  43  47
ATOM     47  S   UNL A   1      48.589  27.448  22.878  1.00  0.00     0.124 S 
ATOM     48  O   UNL A   1      49.946  27.934  22.637  1.00  0.00    -0.237 OA
ATOM     49  O   UNL A   1      48.396  26.008  22.757  1.00  0.00    -0.237 OA
ATOM     50  O   UNL A   1      47.529  28.271  22.299  1.00  0.00    -0.744 OA
ENDBRANCH  43  47
ENDBRANCH  26  40
BRANCH  27  51
ATOM     51  C   UNL A   1      38.131  31.035  30.695  1.00  0.00     0.023 A 
ATOM     52  C   UNL A   1      37.124  31.784  30.071  1.00  0.00     0.031 A 
ATOM     53  C   UNL A   1      37.922  30.654  32.037  1.00  0.00     0.131 A 
ATOM     54  C   UNL A   1      35.987  32.176  30.798  1.00  0.00     0.055 A 
ATOM     55  C   UNL A   1      36.755  30.978  32.731  1.00  0.00     0.041 A 
ATOM     56  F   UNL A   1      38.850  29.942  32.698  1.00  0.00    -0.206 F 
ATOM     57  C   UNL A   1      35.786  31.761  32.117  1.00  0.00     0.022 A 
BRANCH  54  58
ATOM     58  S   UNL A   1      34.835  33.349  30.033  1.00  0.00     0.124 S 
ATOM     59  O   UNL A   1      34.050  32.472  29.170  1.00  0.00    -0.237 OA
ATOM     60  O   UNL A   1      34.143  33.894  31.195  1.00  0.00    -0.237 OA
ATOM     61  O   UNL A   1      35.716  34.285  29.337  1.00  0.00    -0.744 OA
ENDBRANCH  54  58
ENDBRANCH  27  51
BRANCH  39  62
ATOM     62  C   UNL A   1      44.505  33.850  30.528  1.00  0.00     0.023 A 
ATOM     63  C   UNL A   1      44.498  35.075  29.843  1.00  0.00     0.031 A 
ATOM     64  C   UNL A   1      45.035  33.807  31.828  1.00  0.00     0.131 A 
ATOM     65  C   UNL A   1      45.052  36.208  30.451  1.00  0.00     0.055 A 
ATOM     66  C   UNL A   1      45.524  34.953  32.452  1.00  0.00     0.041 A 
ATOM     67  F   UNL A   1      45.068  32.655  32.516  1.00  0.00    -0.206 F 
ATOM     68  C   UNL A   1      45.542  36.160  31.759  1.00  0.00     0.022 A 
BRANCH  65  69
ATOM     69  S   UNL A   1      45.185  37.733  29.481  1.00  0.00     0.124 S 
ATOM     70  O   UNL A   1      46.233  38.454  30.196  1.00  0.00    -0.237 OA
ATOM     71  O   UNL A   1      45.543  37.235  28.157  1.00  0.00    -0.237 OA
ATOM     72  O   UNL A   1      43.849  38.318  29.581  1.00  0.00    -0.744 OA
ENDBRANCH  65  69
ENDBRANCH  39  62
ENDBRANCH  13  14
ENDBRANCH   6   8
ENDBRANCH   5   6
ENDBRANCH   4   5
ENDBRANCH   3   4
ENDBRANCH   2   3
ENDBRANCH   1   2
BRANCH   1  73
ATOM     73  C   UNL A   1      34.230  22.451  25.149  1.00  0.00     0.261 C 
BRANCH  73  74
ATOM     74  O   UNL A   1      34.837  23.736  24.857  1.00  0.00    -0.463 OA
BRANCH  74  75
ATOM     75  C   UNL A   1      34.321  24.413  23.785  1.00  0.00     0.309 C 
ATOM     76  O   UNL A   1      34.562  24.121  22.623  1.00  0.00    -0.252 OA
BRANCH  75  77
ATOM     77  C   UNL A   1      33.518  25.649  24.221  1.00  0.00     0.104 C 
BRANCH  77  78
ATOM     78  C   UNL A   1      33.913  26.056  25.643  1.00  0.00     0.052 C 
BRANCH  78  79
ATOM     79  C   UNL A   1      33.378  27.370  26.167  1.00  0.00    -0.033 A 
ATOM     80  C   UNL A   1      34.267  28.445  26.341  1.00  0.00     0.005 A 
ATOM     81  C   UNL A   1      32.051  27.573  26.556  1.00  0.00     0.021 A 
ATOM     82  C   UNL A   1      33.878  29.672  26.866  1.00  0.00     0.000 A 
ATOM     83  C   UNL A   1      31.657  28.796  27.117  1.00  0.00     0.016 A 
ATOM     84  Br  UNL A   1      30.726  26.226  26.381  1.00  0.00    -0.051 Br
ATOM     85  C   UNL A   1      32.566  29.843  27.270  1.00  0.00     0.001 A 
ENDBRANCH  78  79
ENDBRANCH  77  78
BRANCH  77  86
ATOM     86  C   UNL A   1      33.439  26.794  23.191  1.00  0.00     0.027 C 
BRANCH  86  87
ATOM     87  C   UNL A   1      32.178  27.550  22.676  1.00  0.00     0.076 C 
BRANCH  87  88
ATOM     88  S   UNL A   1      30.341  27.292  22.823  1.00  0.00    -0.126 SA
BRANCH  88  89
ATOM     89  C   UNL A   1      29.558  28.863  23.071  1.00  0.00     0.007 A 
ATOM     90  C   UNL A   1      30.085  29.845  23.919  1.00  0.00     0.015 A 
ATOM     91  C   UNL A   1      28.328  29.111  22.456  1.00  0.00     0.015 A 
ATOM     92  C   UNL A   1      29.507  31.120  23.981  1.00  0.00     0.001 A 
ATOM     93  C   UNL A   1      27.726  30.369  22.548  1.00  0.00     0.001 A 
ATOM     94  C   UNL A   1      28.339  31.387  23.271  1.00  0.00     0.000 A 
ENDBRANCH  88  89
ENDBRANCH  87  88
ENDBRANCH  86  87
ENDBRANCH  77  86
ENDBRANCH  75  77
ENDBRANCH  74  75
ENDBRANCH  73  74
ENDBRANCH   1  73
TORSDOF 23
ENDMDL
MODEL 3
REMARK VINA RESULT:     -10.3      4.911      8.701
REMARK SMILES O=C(OCCOCCOC(=O)[C@H](CCSc1ccccc1)Cc1ccccc1Br)c1ccc(-c2c3nc(c(-c4cc(S(=O)(=O)[O-])ccc4F)c4ccc([nH]4)c(-c4cc(S(=O)(=O)[O-])ccc4F)c4nc(c(-c5cc(S(=O)(=O)[O-])ccc5F)c5ccc2[nH]5)C=C4)C=C3)cc1
REMARK SMILES IDX 7 1 6 2 5 3 4 4 3 5 2 6 1 7 30 8 31 9 92 10 32 11 91 12
REMARK SMILES IDX 33 13 34 14 35 15 85 16 36 17 90 18 84 19 86 20 37 21 89 22
REMARK SMILES IDX 83 23 82 24 38 26 70 27 50 28 69 29 51 30 54 31 68 32 87 33
REMARK SMILES IDX 52 34 53 35 67 37 88 38 55 39 39 40 40 41 48 42 41 43 47 44
REMARK SMILES IDX 49 45 46 46 42 47 43 48 44 49 45 50 71 51 72 52 80 53 73 54
REMARK SMILES IDX 79 55 81 56 78 57 74 58 75 59 76 60 77 61 56 62 57 63 65 64
REMARK SMILES IDX 58 65 64 66 66 67 63 68 59 69 60 70 61 71 62 72 8 73 9 74
REMARK SMILES IDX 10 75 11 76 12 77 22 78 23 79 24 80 28 81 25 82 27 83 29 84
REMARK SMILES IDX 26 85 13 86 14 87 15 88 16 89 17 90 21 91 18 92 20 93 19 94
REMARK H PARENT 86 25 54 36
REMARK Flexibility Score: inf
ROOT
ATOM      1  C   UNL A   1      39.053  19.693  25.539  1.00  0.00     0.202 C 
ENDROOT
BRANCH   1   2
ATOM      2  O   UNL A   1      40.457  19.473  25.597  1.00  0.00    -0.374 OA
BRANCH   2   3
ATOM      3  C   UNL A   1      41.123  20.282  26.551  1.00  0.00     0.202 C 
BRANCH   3   4
ATOM      4  C   UNL A   1      42.347  21.073  26.105  1.00  0.00     0.261 C 
BRANCH   4   5
ATOM      5  O   UNL A   1      41.960  22.238  25.345  1.00  0.00    -0.460 OA
BRANCH   5   6
ATOM      6  C   UNL A   1      42.662  23.405  25.356  1.00  0.00     0.338 C 
ATOM      7  O   UNL A   1      43.519  23.656  24.516  1.00  0.00    -0.246 OA
BRANCH   6   8
ATOM      8  C   UNL A   1      42.321  24.374  26.410  1.00  0.00     0.060 A 
ATOM      9  C   UNL A   1      42.787  25.673  26.280  1.00  0.00     0.016 A 
ATOM     10  C   UNL A   1      41.636  23.999  27.559  1.00  0.00     0.016 A 
ATOM     11  C   UNL A   1      42.862  26.500  27.374  1.00  0.00     0.010 A 
ATOM     12  C   UNL A   1      41.435  24.958  28.557  1.00  0.00     0.010 A 
ATOM     13  C   UNL A   1      42.052  26.222  28.465  1.00  0.00    -0.014 A 
BRANCH  13  14
ATOM     14  C   UNL A   1      41.759  27.323  29.410  1.00  0.00     0.031 A 
ATOM     15  C   UNL A   1      42.602  27.487  30.632  1.00  0.00     0.074 A 
ATOM     16  C   UNL A   1      40.710  28.141  29.156  1.00  0.00     0.049 A 
ATOM     17  N   UNL A   1      42.337  28.139  31.729  1.00  0.00    -0.248 NA
ATOM     18  C   UNL A   1      43.905  26.801  30.634  1.00  0.00     0.031 C 
ATOM     19  C   UNL A   1      39.879  28.119  27.939  1.00  0.00     0.029 A 
ATOM     20  N   UNL A   1      40.150  29.153  29.893  1.00  0.00    -0.354 N 
ATOM     21  C   UNL A   1      43.397  27.875  32.587  1.00  0.00     0.074 A 
ATOM     22  C   UNL A   1      44.322  27.023  31.873  1.00  0.00     0.031 C 
ATOM     23  C   UNL A   1      38.968  29.095  27.991  1.00  0.00     0.029 A 
ATOM     24  C   UNL A   1      39.017  29.686  29.313  1.00  0.00     0.049 A 
ATOM     25  H   UNL A   1      40.520  29.467  30.749  1.00  0.00     0.167 HD
ATOM     26  C   UNL A   1      43.539  28.294  33.866  1.00  0.00     0.034 A 
ATOM     27  C   UNL A   1      38.055  30.473  29.824  1.00  0.00     0.034 A 
ATOM     28  C   UNL A   1      42.584  29.168  34.504  1.00  0.00     0.049 A 
ATOM     29  C   UNL A   1      38.200  30.858  31.269  1.00  0.00     0.074 A 
ATOM     30  C   UNL A   1      42.598  29.674  35.790  1.00  0.00     0.029 A 
ATOM     31  N   UNL A   1      41.434  29.661  33.892  1.00  0.00    -0.354 N 
ATOM     32  N   UNL A   1      39.171  30.557  32.103  1.00  0.00    -0.248 NA
ATOM     33  C   UNL A   1      37.121  31.658  31.851  1.00  0.00     0.031 C 
ATOM     34  C   UNL A   1      41.423  30.409  35.978  1.00  0.00     0.029 A 
ATOM     35  C   UNL A   1      40.712  30.431  34.786  1.00  0.00     0.049 A 
ATOM     36  H   UNL A   1      41.174  29.487  32.958  1.00  0.00     0.167 HD
ATOM     37  C   UNL A   1      38.822  31.142  33.311  1.00  0.00     0.074 A 
ATOM     38  C   UNL A   1      37.569  31.839  33.085  1.00  0.00     0.031 C 
ATOM     39  C   UNL A   1      39.466  31.106  34.505  1.00  0.00     0.034 A 
BRANCH  26  40
ATOM     40  C   UNL A   1      44.685  27.728  34.665  1.00  0.00     0.023 A 
ATOM     41  C   UNL A   1      44.653  26.440  35.226  1.00  0.00     0.031 A 
ATOM     42  C   UNL A   1      45.818  28.525  34.912  1.00  0.00     0.131 A 
ATOM     43  C   UNL A   1      45.702  26.016  36.060  1.00  0.00     0.055 A 
ATOM     44  C   UNL A   1      46.891  28.069  35.678  1.00  0.00     0.041 A 
ATOM     45  F   UNL A   1      45.891  29.776  34.429  1.00  0.00    -0.206 F 
ATOM     46  C   UNL A   1      46.831  26.812  36.269  1.00  0.00     0.022 A 
BRANCH  43  47
ATOM     47  S   UNL A   1      45.508  24.466  36.982  1.00  0.00     0.124 S 
ATOM     48  O   UNL A   1      44.351  23.870  36.317  1.00  0.00    -0.237 OA
ATOM     49  O   UNL A   1      46.785  23.800  36.758  1.00  0.00    -0.237 OA
ATOM     50  O   UNL A   1      45.268  24.909  38.354  1.00  0.00    -0.744 OA
ENDBRANCH  43  47
ENDBRANCH  26  40
BRANCH  27  51
ATOM     51  C   UNL A   1      36.837  30.825  29.031  1.00  0.00     0.023 A 
ATOM     52  C   UNL A   1      35.971  29.828  28.560  1.00  0.00     0.031 A 
ATOM     53  C   UNL A   1      36.543  32.160  28.682  1.00  0.00     0.131 A 
ATOM     54  C   UNL A   1      34.894  30.170  27.725  1.00  0.00     0.055 A 
ATOM     55  C   UNL A   1      35.427  32.503  27.918  1.00  0.00     0.041 A 
ATOM     56  F   UNL A   1      37.336  33.163  29.093  1.00  0.00    -0.206 F 
ATOM     57  C   UNL A   1      34.604  31.502  27.417  1.00  0.00     0.022 A 
BRANCH  54  58
ATOM     58  S   UNL A   1      33.954  28.834  26.937  1.00  0.00     0.124 S 
ATOM     59  O   UNL A   1      33.041  28.446  28.007  1.00  0.00    -0.237 OA
ATOM     60  O   UNL A   1      33.353  29.519  25.798  1.00  0.00    -0.237 OA
ATOM     61  O   UNL A   1      34.979  27.849  26.603  1.00  0.00    -0.744 OA
ENDBRANCH  54  58
ENDBRANCH  27  51
BRANCH  39  62
ATOM     62  C   UNL A   1      38.830  31.876  35.626  1.00  0.00     0.023 A 
ATOM     63  C   UNL A   1      38.238  31.222  36.718  1.00  0.00     0.031 A 
ATOM     64  C   UNL A   1      38.827  33.281  35.598  1.00  0.00     0.131 A 
ATOM     65  C   UNL A   1      37.629  31.978  37.727  1.00  0.00     0.055 A 
ATOM     66  C   UNL A   1      38.277  34.027  36.638  1.00  0.00     0.041 A 
ATOM     67  F   UNL A   1      39.375  33.947  34.569  1.00  0.00    -0.206 F 
ATOM     68  C   UNL A   1      37.665  33.376  37.706  1.00  0.00     0.022 A 
BRANCH  65  69
ATOM     69  S   UNL A   1      36.726  31.107  39.035  1.00  0.00     0.124 S 
ATOM     70  O   UNL A   1      35.556  31.961  39.213  1.00  0.00    -0.237 OA
ATOM     71  O   UNL A   1      36.477  29.803  38.431  1.00  0.00    -0.237 OA
ATOM     72  O   UNL A   1      37.667  31.103  40.152  1.00  0.00    -0.744 OA
ENDBRANCH  65  69
ENDBRANCH  39  62
ENDBRANCH  13  14
ENDBRANCH   6   8
ENDBRANCH   5   6
ENDBRANCH   4   5
ENDBRANCH   3   4
ENDBRANCH   2   3
ENDBRANCH   1   2
BRANCH   1  73
ATOM     73  C   UNL A   1      38.733  21.175  25.734  1.00  0.00     0.261 C 
BRANCH  73  74
ATOM     74  O   UNL A   1      37.343  21.446  25.418  1.00  0.00    -0.463 OA
BRANCH  74  75
ATOM     75  C   UNL A   1      36.978  22.765  25.402  1.00  0.00     0.309 C 
ATOM     76  O   UNL A   1      37.751  23.682  25.636  1.00  0.00    -0.252 OA
BRANCH  75  77
ATOM     77  C   UNL A   1      35.466  22.939  25.185  1.00  0.00     0.104 C 
BRANCH  77  78
ATOM     78  C   UNL A   1      35.058  24.386  25.474  1.00  0.00     0.052 C 
BRANCH  78  79
ATOM     79  C   UNL A   1      33.584  24.677  25.643  1.00  0.00    -0.033 A 
ATOM     80  C   UNL A   1      32.868  23.996  26.644  1.00  0.00     0.005 A 
ATOM     81  C   UNL A   1      32.860  25.542  24.820  1.00  0.00     0.021 A 
ATOM     82  C   UNL A   1      31.501  24.159  26.840  1.00  0.00     0.000 A 
ATOM     83  C   UNL A   1      31.475  25.688  24.989  1.00  0.00     0.016 A 
ATOM     84  Br  UNL A   1      33.677  26.539  23.428  1.00  0.00    -0.051 Br
ATOM     85  C   UNL A   1      30.797  24.999  25.996  1.00  0.00     0.001 A 
ENDBRANCH  78  79
ENDBRANCH  77  78
BRANCH  77  86
ATOM     86  C   UNL A   1      34.900  22.327  23.888  1.00  0.00     0.027 C 
BRANCH  86  87
ATOM     87  C   UNL A   1      33.419  21.983  23.545  1.00  0.00     0.076 C 
BRANCH  87  88
ATOM     88  S   UNL A   1      32.074  20.997  24.369  1.00  0.00    -0.126 SA
BRANCH  88  89
ATOM     89  C   UNL A   1      32.562  19.293  24.425  1.00  0.00     0.007 A 
ATOM     90  C   UNL A   1      32.804  18.615  25.626  1.00  0.00     0.015 A 
ATOM     91  C   UNL A   1      32.787  18.614  23.225  1.00  0.00     0.015 A 
ATOM     92  C   UNL A   1      33.054  17.237  25.629  1.00  0.00     0.001 A 
ATOM     93  C   UNL A   1      33.077  17.247  23.224  1.00  0.00     0.001 A 
ATOM     94  C   UNL A   1      33.164  16.549  24.424  1.00  0.00     0.000 A 
ENDBRANCH  88  89
ENDBRANCH  87  88
ENDBRANCH  86  87
ENDBRANCH  77  86
ENDBRANCH  75  77
ENDBRANCH  74  75
ENDBRANCH  73  74
ENDBRANCH   1  73
TORSDOF 23
ENDMDL
