MODEL 1
REMARK VINA RESULT:     -11.5      0.000      0.000
REMARK SMILES O=C(C[C@H]1C[C@H]2CC[C@@H](C1)N2C(=O)c1c[nH]c(=O)[nH]1)OCCOCCOC(=O)c1ccc(-c2c3nc(c(-c4cc(S(=O)(=O)[O-])ccc4F)c4ccc([nH]4)c(-c4cc(S(=O)(=O)[O-])ccc4F)c4nc(c(-c5cc(S(=O)(=O)[O-])ccc5F)c5ccc2[nH]5)C=C4)C=C3)cc1
REMARK SMILES IDX 23 1 22 2 21 3 20 4 2 5 1 6 3 7 4 8 5 9 10 10 6 11 9 12 7 13
REMARK SMILES IDX 11 14 8 15 12 16 13 17 14 18 15 19 19 20 16 21 17 22 18 25
REMARK SMILES IDX 24 26 25 27 26 28 27 29 28 30 29 31 30 32 91 33 31 34 90 35
REMARK SMILES IDX 32 36 33 37 34 38 84 39 35 40 89 41 83 42 85 43 36 44 88 45
REMARK SMILES IDX 82 46 81 47 37 49 69 50 49 51 68 52 50 53 53 54 67 55 86 56
REMARK SMILES IDX 51 57 52 58 66 60 87 61 54 62 38 63 39 64 47 65 40 66 46 67
REMARK SMILES IDX 48 68 45 69 41 70 42 71 43 72 44 73 70 74 71 75 79 76 72 77
REMARK SMILES IDX 78 78 80 79 77 80 73 81 74 82 75 83 76 84 55 85 56 86 64 87
REMARK SMILES IDX 57 88 63 89 65 90 62 91 58 92 59 93 60 94 61 95
REMARK H PARENT 19 23 16 24 85 48 53 59
REMARK Flexibility Score: inf
ROOT
ATOM      1  O   UNL A   1      37.515  21.177  25.106  1.00  0.00    -0.374 OA
ENDROOT
BRANCH   1   2
ATOM      2  C   UNL A   1      36.267  21.350  25.774  1.00  0.00     0.202 C 
BRANCH   2   3
ATOM      3  C   UNL A   1      35.024  20.803  25.085  1.00  0.00     0.261 C 
BRANCH   3   4
ATOM      4  O   UNL A   1      33.818  20.973  25.846  1.00  0.00    -0.463 OA
BRANCH   4   5
ATOM      5  C   UNL A   1      32.583  20.912  25.303  1.00  0.00     0.306 C 
ATOM      6  O   UNL A   1      32.181  19.885  24.761  1.00  0.00    -0.252 OA
BRANCH   5   7
ATOM      7  C   UNL A   1      31.744  22.163  25.288  1.00  0.00     0.126 C 
BRANCH   7   8
ATOM      8  C   UNL A   1      31.795  22.962  23.985  1.00  0.00     0.004 C 
ATOM      9  C   UNL A   1      31.065  24.331  24.143  1.00  0.00     0.029 C 
ATOM     10  C   UNL A   1      33.238  23.088  23.451  1.00  0.00     0.029 C 
ATOM     11  C   UNL A   1      32.005  25.488  24.519  1.00  0.00     0.086 C 
ATOM     12  C   UNL A   1      33.948  24.379  23.881  1.00  0.00     0.086 C 
ATOM     13  C   UNL A   1      32.759  25.229  25.828  1.00  0.00     0.027 C 
ATOM     14  N   UNL A   1      33.069  25.484  23.539  1.00  0.00    -0.331 N 
ATOM     15  C   UNL A   1      34.068  24.538  25.398  1.00  0.00     0.027 C 
BRANCH  14  16
ATOM     16  C   UNL A   1      33.069  26.271  22.414  1.00  0.00     0.272 C 
ATOM     17  O   UNL A   1      33.658  25.993  21.376  1.00  0.00    -0.267 OA
BRANCH  16  18
ATOM     18  C   UNL A   1      32.249  27.492  22.515  1.00  0.00     0.125 A 
ATOM     19  C   UNL A   1      32.497  28.581  23.255  1.00  0.00     0.119 A 
ATOM     20  N   UNL A   1      31.010  27.615  21.936  1.00  0.00    -0.302 N 
ATOM     21  N   UNL A   1      31.407  29.411  23.172  1.00  0.00    -0.312 N 
ATOM     22  C   UNL A   1      30.439  28.825  22.341  1.00  0.00     0.323 A 
ATOM     23  H   UNL A   1      30.592  26.958  21.334  1.00  0.00     0.172 HD
ATOM     24  H   UNL A   1      31.317  30.281  23.624  1.00  0.00     0.171 HD
ATOM     25  O   UNL A   1      29.341  29.258  22.056  1.00  0.00    -0.248 OA
ENDBRANCH  16  18
ENDBRANCH  14  16
ENDBRANCH   7   8
ENDBRANCH   5   7
ENDBRANCH   4   5
ENDBRANCH   3   4
ENDBRANCH   2   3
ENDBRANCH   1   2
BRANCH   1  26
ATOM     26  C   UNL A   1      37.903  19.817  24.869  1.00  0.00     0.202 C 
BRANCH  26  27
ATOM     27  C   UNL A   1      39.005  19.288  25.794  1.00  0.00     0.261 C 
BRANCH  27  28
ATOM     28  O   UNL A   1      40.120  20.192  25.837  1.00  0.00    -0.460 OA
BRANCH  28  29
ATOM     29  C   UNL A   1      40.710  20.340  27.050  1.00  0.00     0.338 C 
ATOM     30  O   UNL A   1      41.190  19.459  27.744  1.00  0.00    -0.246 OA
BRANCH  29  31
ATOM     31  C   UNL A   1      40.946  21.785  27.268  1.00  0.00     0.060 A 
ATOM     32  C   UNL A   1      40.286  22.693  26.423  1.00  0.00     0.016 A 
ATOM     33  C   UNL A   1      41.721  22.245  28.334  1.00  0.00     0.016 A 
ATOM     34  C   UNL A   1      40.410  24.064  26.634  1.00  0.00     0.010 A 
ATOM     35  C   UNL A   1      41.868  23.618  28.527  1.00  0.00     0.010 A 
ATOM     36  C   UNL A   1      41.230  24.530  27.667  1.00  0.00    -0.014 A 
BRANCH  36  37
ATOM     37  C   UNL A   1      41.585  25.964  27.752  1.00  0.00     0.031 A 
ATOM     38  C   UNL A   1      42.907  26.386  27.177  1.00  0.00     0.074 A 
ATOM     39  C   UNL A   1      40.777  26.843  28.370  1.00  0.00     0.049 A 
ATOM     40  N   UNL A   1      43.523  27.532  27.273  1.00  0.00    -0.248 NA
ATOM     41  C   UNL A   1      43.636  25.370  26.399  1.00  0.00     0.031 C 
ATOM     42  C   UNL A   1      39.455  26.536  28.916  1.00  0.00     0.029 A 
ATOM     43  N   UNL A   1      40.966  28.168  28.670  1.00  0.00    -0.354 N 
ATOM     44  C   UNL A   1      44.725  27.369  26.593  1.00  0.00     0.074 A 
ATOM     45  C   UNL A   1      44.753  26.013  26.093  1.00  0.00     0.031 C 
ATOM     46  C   UNL A   1      38.969  27.635  29.522  1.00  0.00     0.029 A 
ATOM     47  C   UNL A   1      39.966  28.702  29.452  1.00  0.00     0.049 A 
ATOM     48  H   UNL A   1      41.742  28.687  28.358  1.00  0.00     0.167 HD
ATOM     49  C   UNL A   1      45.715  28.274  26.415  1.00  0.00     0.034 A 
ATOM     50  C   UNL A   1      39.898  29.893  30.080  1.00  0.00     0.034 A 
ATOM     51  C   UNL A   1      45.660  29.618  26.927  1.00  0.00     0.049 A 
ATOM     52  C   UNL A   1      41.056  30.855  29.931  1.00  0.00     0.074 A 
ATOM     53  C   UNL A   1      46.577  30.639  26.759  1.00  0.00     0.029 A 
ATOM     54  N   UNL A   1      44.642  30.119  27.727  1.00  0.00    -0.354 N 
ATOM     55  N   UNL A   1      42.170  30.709  29.247  1.00  0.00    -0.248 NA
ATOM     56  C   UNL A   1      40.955  32.138  30.641  1.00  0.00     0.031 C 
ATOM     57  C   UNL A   1      46.157  31.728  27.526  1.00  0.00     0.029 A 
ATOM     58  C   UNL A   1      44.936  31.419  28.105  1.00  0.00     0.049 A 
ATOM     59  H   UNL A   1      43.833  29.624  27.987  1.00  0.00     0.167 HD
ATOM     60  C   UNL A   1      42.884  31.891  29.425  1.00  0.00     0.074 A 
ATOM     61  C   UNL A   1      42.068  32.746  30.261  1.00  0.00     0.031 C 
ATOM     62  C   UNL A   1      44.104  32.245  28.946  1.00  0.00     0.034 A 
BRANCH  49  63
ATOM     63  C   UNL A   1      46.961  27.824  25.697  1.00  0.00     0.023 A 
ATOM     64  C   UNL A   1      47.139  28.015  24.316  1.00  0.00     0.031 A 
ATOM     65  C   UNL A   1      47.997  27.206  26.420  1.00  0.00     0.131 A 
ATOM     66  C   UNL A   1      48.311  27.559  23.695  1.00  0.00     0.055 A 
ATOM     67  C   UNL A   1      49.187  26.813  25.808  1.00  0.00     0.041 A 
ATOM     68  F   UNL A   1      47.866  26.972  27.734  1.00  0.00    -0.206 F 
ATOM     69  C   UNL A   1      49.347  26.983  24.436  1.00  0.00     0.022 A 
BRANCH  66  70
ATOM     70  S   UNL A   1      48.429  27.644  21.888  1.00  0.00     0.124 S 
ATOM     71  O   UNL A   1      47.118  28.181  21.531  1.00  0.00    -0.237 OA
ATOM     72  O   UNL A   1      49.562  28.540  21.686  1.00  0.00    -0.237 OA
ATOM     73  O   UNL A   1      48.654  26.255  21.493  1.00  0.00    -0.744 OA
ENDBRANCH  66  70
ENDBRANCH  49  63
BRANCH  50  74
ATOM     74  C   UNL A   1      38.747  30.228  30.973  1.00  0.00     0.023 A 
ATOM     75  C   UNL A   1      37.644  30.954  30.496  1.00  0.00     0.031 A 
ATOM     76  C   UNL A   1      38.778  29.909  32.343  1.00  0.00     0.131 A 
ATOM     77  C   UNL A   1      36.654  31.394  31.389  1.00  0.00     0.055 A 
ATOM     78  C   UNL A   1      37.756  30.291  33.216  1.00  0.00     0.041 A 
ATOM     79  F   UNL A   1      39.811  29.225  32.860  1.00  0.00    -0.206 F 
ATOM     80  C   UNL A   1      36.695  31.055  32.743  1.00  0.00     0.022 A 
BRANCH  77  81
ATOM     81  S   UNL A   1      35.377  32.527  30.777  1.00  0.00     0.124 S 
ATOM     82  O   UNL A   1      34.417  32.512  31.874  1.00  0.00    -0.237 OA
ATOM     83  O   UNL A   1      36.131  33.764  30.601  1.00  0.00    -0.237 OA
ATOM     84  O   UNL A   1      34.923  31.893  29.541  1.00  0.00    -0.744 OA
ENDBRANCH  77  81
ENDBRANCH  50  74
BRANCH  62  85
ATOM     85  C   UNL A   1      44.606  33.626  29.289  1.00  0.00     0.023 A 
ATOM     86  C   UNL A   1      44.408  34.716  28.426  1.00  0.00     0.031 A 
ATOM     87  C   UNL A   1      45.276  33.853  30.504  1.00  0.00     0.131 A 
ATOM     88  C   UNL A   1      44.918  35.977  28.768  1.00  0.00     0.055 A 
ATOM     89  C   UNL A   1      45.726  35.123  30.867  1.00  0.00     0.041 A 
ATOM     90  F   UNL A   1      45.492  32.845  31.365  1.00  0.00    -0.206 F 
ATOM     91  C   UNL A   1      45.557  36.191  29.992  1.00  0.00     0.022 A 
BRANCH  88  92
ATOM     92  S   UNL A   1      44.799  37.320  27.557  1.00  0.00     0.124 S 
ATOM     93  O   UNL A   1      45.247  38.470  28.336  1.00  0.00    -0.237 OA
ATOM     94  O   UNL A   1      45.704  36.874  26.502  1.00  0.00    -0.237 OA
ATOM     95  O   UNL A   1      43.383  37.331  27.192  1.00  0.00    -0.744 OA
ENDBRANCH  88  92
ENDBRANCH  62  85
ENDBRANCH  36  37
ENDBRANCH  29  31
ENDBRANCH  28  29
ENDBRANCH  27  28
ENDBRANCH  26  27
ENDBRANCH   1  26
TORSDOF 20
ENDMDL
MODEL 2
REMARK VINA RESULT:     -11.5      2.056      7.846
REMARK SMILES O=C(C[C@H]1C[C@H]2CC[C@@H](C1)N2C(=O)c1c[nH]c(=O)[nH]1)OCCOCCOC(=O)c1ccc(-c2c3nc(c(-c4cc(S(=O)(=O)[O-])ccc4F)c4ccc([nH]4)c(-c4cc(S(=O)(=O)[O-])ccc4F)c4nc(c(-c5cc(S(=O)(=O)[O-])ccc5F)c5ccc2[nH]5)C=C4)C=C3)cc1
REMARK SMILES IDX 23 1 22 2 21 3 20 4 2 5 1 6 3 7 4 8 5 9 10 10 6 11 9 12 7 13
REMARK SMILES IDX 11 14 8 15 12 16 13 17 14 18 15 19 19 20 16 21 17 22 18 25
REMARK SMILES IDX 24 26 25 27 26 28 27 29 28 30 29 31 30 32 91 33 31 34 90 35
REMARK SMILES IDX 32 36 33 37 34 38 84 39 35 40 89 41 83 42 85 43 36 44 88 45
REMARK SMILES IDX 82 46 81 47 37 49 69 50 49 51 68 52 50 53 53 54 67 55 86 56
REMARK SMILES IDX 51 57 52 58 66 60 87 61 54 62 38 63 39 64 47 65 40 66 46 67
REMARK SMILES IDX 48 68 45 69 41 70 42 71 43 72 44 73 70 74 71 75 79 76 72 77
REMARK SMILES IDX 78 78 80 79 77 80 73 81 74 82 75 83 76 84 55 85 56 86 64 87
REMARK SMILES IDX 57 88 63 89 65 90 62 91 58 92 59 93 60 94 61 95
REMARK H PARENT 19 23 16 24 85 48 53 59
REMARK Flexibility Score: inf
ROOT
ATOM      1  O   UNL A   1      34.285  22.367  25.395  1.00  0.00    -0.374 OA
ENDROOT
BRANCH   1   2
ATOM      2  C   UNL A   1      34.083  22.090  26.779  1.00  0.00     0.202 C 
BRANCH   2   3
ATOM      3  C   UNL A   1      32.768  22.547  27.399  1.00  0.00     0.261 C 
BRANCH   3   4
ATOM      4  O   UNL A   1      31.666  22.558  26.477  1.00  0.00    -0.463 OA
BRANCH   4   5
ATOM      5  C   UNL A   1      30.781  23.574  26.392  1.00  0.00     0.306 C 
ATOM      6  O   UNL A   1      29.912  23.729  27.245  1.00  0.00    -0.252 OA
BRANCH   5   7
ATOM      7  C   UNL A   1      30.822  24.460  25.174  1.00  0.00     0.126 C 
BRANCH   7   8
ATOM      8  C   UNL A   1      30.248  25.863  25.373  1.00  0.00     0.004 C 
ATOM      9  C   UNL A   1      31.368  26.872  25.771  1.00  0.00     0.029 C 
ATOM     10  C   UNL A   1      29.413  26.314  24.154  1.00  0.00     0.029 C 
ATOM     11  C   UNL A   1      31.965  27.631  24.574  1.00  0.00     0.086 C 
ATOM     12  C   UNL A   1      30.204  27.144  23.134  1.00  0.00     0.086 C 
ATOM     13  C   UNL A   1      32.563  26.689  23.523  1.00  0.00     0.027 C 
ATOM     14  N   UNL A   1      30.848  28.220  23.868  1.00  0.00    -0.331 N 
ATOM     15  C   UNL A   1      31.407  26.408  22.543  1.00  0.00     0.027 C 
BRANCH  14  16
ATOM     16  C   UNL A   1      30.420  29.509  24.064  1.00  0.00     0.272 C 
ATOM     17  O   UNL A   1      30.864  30.262  24.924  1.00  0.00    -0.267 OA
BRANCH  16  18
ATOM     18  C   UNL A   1      29.391  29.970  23.114  1.00  0.00     0.125 A 
ATOM     19  C   UNL A   1      28.127  29.537  23.009  1.00  0.00     0.119 A 
ATOM     20  N   UNL A   1      29.653  30.847  22.091  1.00  0.00    -0.302 N 
ATOM     21  N   UNL A   1      27.567  30.122  21.900  1.00  0.00    -0.312 N 
ATOM     22  C   UNL A   1      28.513  30.961  21.290  1.00  0.00     0.323 A 
ATOM     23  H   UNL A   1      30.504  31.318  21.944  1.00  0.00     0.172 HD
ATOM     24  H   UNL A   1      26.647  29.975  21.582  1.00  0.00     0.171 HD
ATOM     25  O   UNL A   1      28.380  31.621  20.279  1.00  0.00    -0.248 OA
ENDBRANCH  16  18
ENDBRANCH  14  16
ENDBRANCH   7   8
ENDBRANCH   5   7
ENDBRANCH   4   5
ENDBRANCH   3   4
ENDBRANCH   2   3
ENDBRANCH   1   2
BRANCH   1  26
ATOM     26  C   UNL A   1      34.912  21.320  24.642  1.00  0.00     0.202 C 
BRANCH  26  27
ATOM     27  C   UNL A   1      36.165  20.719  25.288  1.00  0.00     0.261 C 
BRANCH  27  28
ATOM     28  O   UNL A   1      37.235  21.676  25.323  1.00  0.00    -0.460 OA
BRANCH  28  29
ATOM     29  C   UNL A   1      38.429  21.207  25.768  1.00  0.00     0.338 C 
ATOM     30  O   UNL A   1      38.921  20.116  25.535  1.00  0.00    -0.246 OA
BRANCH  29  31
ATOM     31  C   UNL A   1      39.180  22.347  26.342  1.00  0.00     0.060 A 
ATOM     32  C   UNL A   1      38.730  23.645  26.047  1.00  0.00     0.016 A 
ATOM     33  C   UNL A   1      40.244  22.149  27.223  1.00  0.00     0.016 A 
ATOM     34  C   UNL A   1      39.351  24.750  26.625  1.00  0.00     0.010 A 
ATOM     35  C   UNL A   1      40.884  23.258  27.778  1.00  0.00     0.010 A 
ATOM     36  C   UNL A   1      40.452  24.559  27.466  1.00  0.00    -0.014 A 
BRANCH  36  37
ATOM     37  C   UNL A   1      41.285  25.709  27.881  1.00  0.00     0.031 A 
ATOM     38  C   UNL A   1      40.603  26.834  28.604  1.00  0.00     0.074 A 
ATOM     39  C   UNL A   1      42.593  25.764  27.574  1.00  0.00     0.049 A 
ATOM     40  N   UNL A   1      41.062  28.014  28.920  1.00  0.00    -0.248 NA
ATOM     41  C   UNL A   1      39.208  26.598  29.014  1.00  0.00     0.031 C 
ATOM     42  C   UNL A   1      43.353  24.700  26.918  1.00  0.00     0.029 A 
ATOM     43  N   UNL A   1      43.507  26.774  27.747  1.00  0.00    -0.354 N 
ATOM     44  C   UNL A   1      40.006  28.673  29.540  1.00  0.00     0.074 A 
ATOM     45  C   UNL A   1      38.882  27.764  29.552  1.00  0.00     0.031 C 
ATOM     46  C   UNL A   1      44.610  25.131  26.705  1.00  0.00     0.029 A 
ATOM     47  C   UNL A   1      44.727  26.515  27.163  1.00  0.00     0.049 A 
ATOM     48  H   UNL A   1      43.309  27.602  28.239  1.00  0.00     0.167 HD
ATOM     49  C   UNL A   1      39.983  29.928  30.044  1.00  0.00     0.034 A 
ATOM     50  C   UNL A   1      45.788  27.326  26.974  1.00  0.00     0.034 A 
ATOM     51  C   UNL A   1      41.118  30.813  30.015  1.00  0.00     0.049 A 
ATOM     52  C   UNL A   1      45.705  28.751  27.474  1.00  0.00     0.074 A 
ATOM     53  C   UNL A   1      41.229  32.085  30.546  1.00  0.00     0.029 A 
ATOM     54  N   UNL A   1      42.331  30.526  29.403  1.00  0.00    -0.354 N 
ATOM     55  N   UNL A   1      44.717  29.352  28.101  1.00  0.00    -0.248 NA
ATOM     56  C   UNL A   1      46.873  29.611  27.238  1.00  0.00     0.031 C 
ATOM     57  C   UNL A   1      42.476  32.599  30.182  1.00  0.00     0.029 A 
ATOM     58  C   UNL A   1      43.177  31.618  29.496  1.00  0.00     0.049 A 
ATOM     59  H   UNL A   1      42.555  29.673  28.967  1.00  0.00     0.167 HD
ATOM     60  C   UNL A   1      45.159  30.648  28.354  1.00  0.00     0.074 A 
ATOM     61  C   UNL A   1      46.507  30.735  27.834  1.00  0.00     0.031 C 
ATOM     62  C   UNL A   1      44.515  31.678  28.961  1.00  0.00     0.034 A 
BRANCH  49  63
ATOM     63  C   UNL A   1      38.682  30.441  30.603  1.00  0.00     0.023 A 
ATOM     64  C   UNL A   1      37.778  31.189  29.831  1.00  0.00     0.031 A 
ATOM     65  C   UNL A   1      38.337  30.156  31.937  1.00  0.00     0.131 A 
ATOM     66  C   UNL A   1      36.589  31.658  30.410  1.00  0.00     0.055 A 
ATOM     67  C   UNL A   1      37.123  30.570  32.487  1.00  0.00     0.041 A 
ATOM     68  F   UNL A   1      39.177  29.471  32.728  1.00  0.00    -0.206 F 
ATOM     69  C   UNL A   1      36.243  31.332  31.724  1.00  0.00     0.022 A 
BRANCH  66  70
ATOM     70  S   UNL A   1      35.537  32.781  29.449  1.00  0.00     0.124 S 
ATOM     71  O   UNL A   1      36.026  34.088  29.883  1.00  0.00    -0.237 OA
ATOM     72  O   UNL A   1      35.848  32.407  28.074  1.00  0.00    -0.237 OA
ATOM     73  O   UNL A   1      34.185  32.450  29.895  1.00  0.00    -0.744 OA
ENDBRANCH  66  70
ENDBRANCH  49  63
BRANCH  50  74
ATOM     74  C   UNL A   1      46.987  26.859  26.213  1.00  0.00     0.023 A 
ATOM     75  C   UNL A   1      48.056  26.222  26.862  1.00  0.00     0.031 A 
ATOM     76  C   UNL A   1      47.124  27.132  24.840  1.00  0.00     0.131 A 
ATOM     77  C   UNL A   1      49.237  25.939  26.157  1.00  0.00     0.055 A 
ATOM     78  C   UNL A   1      48.274  26.787  24.127  1.00  0.00     0.041 A 
ATOM     79  F   UNL A   1      46.139  27.748  24.166  1.00  0.00    -0.206 F 
ATOM     80  C   UNL A   1      49.348  26.204  24.790  1.00  0.00     0.022 A 
BRANCH  77  81
ATOM     81  S   UNL A   1      50.676  25.337  27.083  1.00  0.00     0.124 S 
ATOM     82  O   UNL A   1      50.084  24.278  27.893  1.00  0.00    -0.237 OA
ATOM     83  O   UNL A   1      51.565  24.903  26.011  1.00  0.00    -0.237 OA
ATOM     84  O   UNL A   1      51.121  26.515  27.824  1.00  0.00    -0.744 OA
ENDBRANCH  77  81
ENDBRANCH  50  74
BRANCH  62  85
ATOM     85  C   UNL A   1      45.278  32.969  29.121  1.00  0.00     0.023 A 
ATOM     86  C   UNL A   1      45.331  33.925  28.092  1.00  0.00     0.031 A 
ATOM     87  C   UNL A   1      45.947  33.251  30.325  1.00  0.00     0.131 A 
ATOM     88  C   UNL A   1      46.078  35.098  28.270  1.00  0.00     0.055 A 
ATOM     89  C   UNL A   1      46.636  34.448  30.518  1.00  0.00     0.041 A 
ATOM     90  F   UNL A   1      45.929  32.371  31.339  1.00  0.00    -0.206 F 
ATOM     91  C   UNL A   1      46.714  35.374  29.483  1.00  0.00     0.022 A 
BRANCH  88  92
ATOM     92  S   UNL A   1      46.270  36.228  26.865  1.00  0.00     0.124 S 
ATOM     93  O   UNL A   1      45.371  37.318  27.228  1.00  0.00    -0.237 OA
ATOM     94  O   UNL A   1      47.696  36.537  26.903  1.00  0.00    -0.237 OA
ATOM     95  O   UNL A   1      45.842  35.427  25.719  1.00  0.00    -0.744 OA
ENDBRANCH  88  92
ENDBRANCH  62  85
ENDBRANCH  36  37
ENDBRANCH  29  31
ENDBRANCH  28  29
ENDBRANCH  27  28
ENDBRANCH  26  27
ENDBRANCH   1  26
TORSDOF 20
ENDMDL
MODEL 3
REMARK VINA RESULT:     -11.3      1.973      7.782
REMARK SMILES O=C(C[C@H]1C[C@H]2CC[C@@H](C1)N2C(=O)c1c[nH]c(=O)[nH]1)OCCOCCOC(=O)c1ccc(-c2c3nc(c(-c4cc(S(=O)(=O)[O-])ccc4F)c4ccc([nH]4)c(-c4cc(S(=O)(=O)[O-])ccc4F)c4nc(c(-c5cc(S(=O)(=O)[O-])ccc5F)c5ccc2[nH]5)C=C4)C=C3)cc1
REMARK SMILES IDX 23 1 22 2 21 3 20 4 2 5 1 6 3 7 4 8 5 9 10 10 6 11 9 12 7 13
REMARK SMILES IDX 11 14 8 15 12 16 13 17 14 18 15 19 19 20 16 21 17 22 18 25
REMARK SMILES IDX 24 26 25 27 26 28 27 29 28 30 29 31 30 32 91 33 31 34 90 35
REMARK SMILES IDX 32 36 33 37 34 38 84 39 35 40 89 41 83 42 85 43 36 44 88 45
REMARK SMILES IDX 82 46 81 47 37 49 69 50 49 51 68 52 50 53 53 54 67 55 86 56
REMARK SMILES IDX 51 57 52 58 66 60 87 61 54 62 38 63 39 64 47 65 40 66 46 67
REMARK SMILES IDX 48 68 45 69 41 70 42 71 43 72 44 73 70 74 71 75 79 76 72 77
REMARK SMILES IDX 78 78 80 79 77 80 73 81 74 82 75 83 76 84 55 85 56 86 64 87
REMARK SMILES IDX 57 88 63 89 65 90 62 91 58 92 59 93 60 94 61 95
REMARK H PARENT 19 23 16 24 85 48 53 59
REMARK Flexibility Score: inf
ROOT
ATOM      1  O   UNL A   1      35.157  21.616  26.038  1.00  0.00    -0.374 OA
ENDROOT
BRANCH   1   2
ATOM      2  C   UNL A   1      33.988  21.400  26.825  1.00  0.00     0.202 C 
BRANCH   2   3
ATOM      3  C   UNL A   1      33.667  22.433  27.899  1.00  0.00     0.261 C 
BRANCH   3   4
ATOM      4  O   UNL A   1      32.261  22.680  28.062  1.00  0.00    -0.463 OA
BRANCH   4   5
ATOM      5  C   UNL A   1      31.507  23.307  27.134  1.00  0.00     0.306 C 
ATOM      6  O   UNL A   1      30.290  23.408  27.271  1.00  0.00    -0.252 OA
BRANCH   5   7
ATOM      7  C   UNL A   1      32.177  23.795  25.876  1.00  0.00     0.126 C 
BRANCH   7   8
ATOM      8  C   UNL A   1      32.706  25.229  25.937  1.00  0.00     0.004 C 
ATOM      9  C   UNL A   1      34.050  25.359  25.158  1.00  0.00     0.029 C 
ATOM     10  C   UNL A   1      31.634  26.250  25.500  1.00  0.00     0.029 C 
ATOM     11  C   UNL A   1      33.873  25.825  23.703  1.00  0.00     0.086 C 
ATOM     12  C   UNL A   1      31.715  26.638  24.017  1.00  0.00     0.086 C 
ATOM     13  C   UNL A   1      32.974  24.884  22.892  1.00  0.00     0.027 C 
ATOM     14  N   UNL A   1      33.088  27.039  23.757  1.00  0.00    -0.331 N 
ATOM     15  C   UNL A   1      31.553  25.454  23.062  1.00  0.00     0.027 C 
BRANCH  14  16
ATOM     16  C   UNL A   1      33.634  28.298  23.757  1.00  0.00     0.272 C 
ATOM     17  O   UNL A   1      34.292  28.766  22.834  1.00  0.00    -0.267 OA
BRANCH  16  18
ATOM     18  C   UNL A   1      33.334  29.101  24.956  1.00  0.00     0.125 A 
ATOM     19  C   UNL A   1      33.882  28.985  26.174  1.00  0.00     0.119 A 
ATOM     20  N   UNL A   1      32.318  30.024  25.008  1.00  0.00    -0.302 N 
ATOM     21  N   UNL A   1      33.208  29.823  27.027  1.00  0.00    -0.312 N 
ATOM     22  C   UNL A   1      32.203  30.498  26.317  1.00  0.00     0.323 A 
ATOM     23  H   UNL A   1      31.761  30.304  24.246  1.00  0.00     0.172 HD
ATOM     24  H   UNL A   1      33.399  29.932  27.987  1.00  0.00     0.171 HD
ATOM     25  O   UNL A   1      31.397  31.298  26.747  1.00  0.00    -0.248 OA
ENDBRANCH  16  18
ENDBRANCH  14  16
ENDBRANCH   7   8
ENDBRANCH   5   7
ENDBRANCH   4   5
ENDBRANCH   3   4
ENDBRANCH   2   3
ENDBRANCH   1   2
BRANCH   1  26
ATOM     26  C   UNL A   1      35.540  20.523  25.192  1.00  0.00     0.202 C 
BRANCH  26  27
ATOM     27  C   UNL A   1      36.993  20.560  24.705  1.00  0.00     0.261 C 
BRANCH  27  28
ATOM     28  O   UNL A   1      37.740  21.576  25.392  1.00  0.00    -0.460 OA
BRANCH  28  29
ATOM     29  C   UNL A   1      38.889  21.161  25.984  1.00  0.00     0.338 C 
ATOM     30  O   UNL A   1      39.411  20.063  25.883  1.00  0.00    -0.246 OA
BRANCH  29  31
ATOM     31  C   UNL A   1      39.570  22.352  26.541  1.00  0.00     0.060 A 
ATOM     32  C   UNL A   1      39.129  23.617  26.119  1.00  0.00     0.016 A 
ATOM     33  C   UNL A   1      40.556  22.236  27.523  1.00  0.00     0.016 A 
ATOM     34  C   UNL A   1      39.681  24.771  26.671  1.00  0.00     0.010 A 
ATOM     35  C   UNL A   1      41.128  23.392  28.053  1.00  0.00     0.010 A 
ATOM     36  C   UNL A   1      40.707  24.660  27.614  1.00  0.00    -0.014 A 
BRANCH  36  37
ATOM     37  C   UNL A   1      41.484  25.852  28.020  1.00  0.00     0.031 A 
ATOM     38  C   UNL A   1      40.757  26.931  28.771  1.00  0.00     0.074 A 
ATOM     39  C   UNL A   1      42.778  25.985  27.680  1.00  0.00     0.049 A 
ATOM     40  N   UNL A   1      41.156  28.132  29.087  1.00  0.00    -0.248 NA
ATOM     41  C   UNL A   1      39.389  26.611  29.214  1.00  0.00     0.031 C 
ATOM     42  C   UNL A   1      43.580  24.972  26.994  1.00  0.00     0.029 A 
ATOM     43  N   UNL A   1      43.636  27.044  27.839  1.00  0.00    -0.354 N 
ATOM     44  C   UNL A   1      40.081  28.724  29.741  1.00  0.00     0.074 A 
ATOM     45  C   UNL A   1      39.011  27.752  29.772  1.00  0.00     0.031 C 
ATOM     46  C   UNL A   1      44.804  25.476  26.754  1.00  0.00     0.029 A 
ATOM     47  C   UNL A   1      44.853  26.860  27.222  1.00  0.00     0.049 A 
ATOM     48  H   UNL A   1      43.405  27.855  28.344  1.00  0.00     0.167 HD
ATOM     49  C   UNL A   1      39.999  29.972  30.257  1.00  0.00     0.034 A 
ATOM     50  C   UNL A   1      45.861  27.732  27.014  1.00  0.00     0.034 A 
ATOM     51  C   UNL A   1      41.081  30.920  30.208  1.00  0.00     0.049 A 
ATOM     52  C   UNL A   1      45.710  29.146  27.530  1.00  0.00     0.074 A 
ATOM     53  C   UNL A   1      41.133  32.192  30.749  1.00  0.00     0.029 A 
ATOM     54  N   UNL A   1      42.292  30.708  29.563  1.00  0.00    -0.354 N 
ATOM     55  N   UNL A   1      44.706  29.684  28.188  1.00  0.00    -0.248 NA
ATOM     56  C   UNL A   1      46.821  30.073  27.273  1.00  0.00     0.031 C 
ATOM     57  C   UNL A   1      42.339  32.780  30.357  1.00  0.00     0.029 A 
ATOM     58  C   UNL A   1      43.076  31.847  29.645  1.00  0.00     0.049 A 
ATOM     59  H   UNL A   1      42.553  29.873  29.112  1.00  0.00     0.167 HD
ATOM     60  C   UNL A   1      45.080  31.001  28.443  1.00  0.00     0.074 A 
ATOM     61  C   UNL A   1      46.407  31.170  27.889  1.00  0.00     0.031 C 
ATOM     62  C   UNL A   1      44.394  31.987  29.076  1.00  0.00     0.034 A 
BRANCH  49  63
ATOM     63  C   UNL A   1      38.686  30.404  30.855  1.00  0.00     0.023 A 
ATOM     64  C   UNL A   1      37.694  31.047  30.096  1.00  0.00     0.031 A 
ATOM     65  C   UNL A   1      38.421  30.150  32.213  1.00  0.00     0.131 A 
ATOM     66  C   UNL A   1      36.496  31.446  30.709  1.00  0.00     0.055 A 
ATOM     67  C   UNL A   1      37.203  30.491  32.801  1.00  0.00     0.041 A 
ATOM     68  F   UNL A   1      39.346  29.566  32.990  1.00  0.00    -0.206 F 
ATOM     69  C   UNL A   1      36.234  31.149  32.049  1.00  0.00     0.022 A 
BRANCH  66  70
ATOM     70  S   UNL A   1      35.319  32.442  29.755  1.00  0.00     0.124 S 
ATOM     71  O   UNL A   1      36.158  33.557  29.323  1.00  0.00    -0.237 OA
ATOM     72  O   UNL A   1      34.898  31.517  28.709  1.00  0.00    -0.237 OA
ATOM     73  O   UNL A   1      34.290  32.788  30.734  1.00  0.00    -0.744 OA
ENDBRANCH  66  70
ENDBRANCH  49  63
BRANCH  50  74
ATOM     74  C   UNL A   1      47.065  27.342  26.218  1.00  0.00     0.023 A 
ATOM     75  C   UNL A   1      48.219  26.845  26.843  1.00  0.00     0.031 A 
ATOM     76  C   UNL A   1      47.112  27.551  24.828  1.00  0.00     0.131 A 
ATOM     77  C   UNL A   1      49.389  26.638  26.095  1.00  0.00     0.055 A 
ATOM     78  C   UNL A   1      48.258  27.279  24.076  1.00  0.00     0.041 A 
ATOM     79  F   UNL A   1      46.042  28.033  24.175  1.00  0.00    -0.206 F 
ATOM     80  C   UNL A   1      49.412  26.838  24.713  1.00  0.00     0.022 A 
BRANCH  77  81
ATOM     81  S   UNL A   1      50.920  26.227  26.977  1.00  0.00     0.124 S 
ATOM     82  O   UNL A   1      50.798  27.046  28.178  1.00  0.00    -0.237 OA
ATOM     83  O   UNL A   1      50.782  24.787  27.165  1.00  0.00    -0.237 OA
ATOM     84  O   UNL A   1      51.969  26.636  26.046  1.00  0.00    -0.744 OA
ENDBRANCH  77  81
ENDBRANCH  50  74
BRANCH  62  85
ATOM     85  C   UNL A   1      45.087  33.319  29.229  1.00  0.00     0.023 A 
ATOM     86  C   UNL A   1      45.012  34.306  28.232  1.00  0.00     0.031 A 
ATOM     87  C   UNL A   1      45.817  33.606  30.395  1.00  0.00     0.131 A 
ATOM     88  C   UNL A   1      45.696  35.518  28.400  1.00  0.00     0.055 A 
ATOM     89  C   UNL A   1      46.444  34.838  30.583  1.00  0.00     0.041 A 
ATOM     90  F   UNL A   1      45.921  32.697  31.378  1.00  0.00    -0.206 F 
ATOM     91  C   UNL A   1      46.394  35.798  29.578  1.00  0.00     0.022 A 
BRANCH  88  92
ATOM     92  S   UNL A   1      45.724  36.699  27.024  1.00  0.00     0.124 S 
ATOM     93  O   UNL A   1      46.708  37.674  27.483  1.00  0.00    -0.237 OA
ATOM     94  O   UNL A   1      46.132  35.862  25.900  1.00  0.00    -0.237 OA
ATOM     95  O   UNL A   1      44.348  37.187  26.963  1.00  0.00    -0.744 OA
ENDBRANCH  88  92
ENDBRANCH  62  85
ENDBRANCH  36  37
ENDBRANCH  29  31
ENDBRANCH  28  29
ENDBRANCH  27  28
ENDBRANCH  26  27
ENDBRANCH   1  26
TORSDOF 20
ENDMDL
