MODEL 1
REMARK VINA RESULT:     -10.9      0.000      0.000
REMARK SMILES C[C@@H](c1ccccc1)[C@@H](CC(=O)Nc1ccccc1I)C(=O)OCCOCCOC(=O)c1ccc(-c2c3nc(c(-c4cc(S(=O)(=O)[O-])ccc4F)c4ccc([nH]4)c(-c4cc(S(=O)(=O)[O-])ccc4F)c4nc(c(-c5cc(S(=O)(=O)[O-])ccc5F)c5ccc2[nH]5)C=C4)C=C3)cc1
REMARK SMILES IDX 26 1 25 2 24 3 23 4 21 5 22 6 9 7 2 8 1 9 3 10 4 11 8 12
REMARK SMILES IDX 5 13 7 14 6 15 10 16 11 17 12 18 13 19 14 21 15 22 19 23
REMARK SMILES IDX 16 24 18 25 20 26 17 27 27 28 28 29 29 30 30 31 31 32 32 33
REMARK SMILES IDX 33 34 94 35 34 36 93 37 35 38 36 39 37 40 87 41 38 42 92 43
REMARK SMILES IDX 86 44 88 45 39 46 91 47 85 48 84 49 40 51 72 52 52 53 71 54
REMARK SMILES IDX 53 55 56 56 70 57 89 58 54 59 55 60 69 62 90 63 57 64 41 65
REMARK SMILES IDX 42 66 50 67 43 68 49 69 51 70 48 71 44 72 45 73 46 74 47 75
REMARK SMILES IDX 73 76 74 77 82 78 75 79 81 80 83 81 80 82 76 83 77 84 78 85
REMARK SMILES IDX 79 86 58 87 59 88 67 89 60 90 66 91 68 92 65 93 61 94 62 95
REMARK SMILES IDX 63 96 64 97
REMARK H PARENT 13 20 88 50 56 61
REMARK Flexibility Score: inf
ROOT
ATOM      1  O   UNL A   1      32.405  29.479  24.217  1.00  0.00    -0.374 OA
ENDROOT
BRANCH   1   2
ATOM      2  C   UNL A   1      31.567  29.071  23.135  1.00  0.00     0.202 C 
BRANCH   2   3
ATOM      3  C   UNL A   1      32.248  28.180  22.095  1.00  0.00     0.261 C 
BRANCH   3   4
ATOM      4  O   UNL A   1      31.848  26.791  22.149  1.00  0.00    -0.463 OA
BRANCH   4   5
ATOM      5  C   UNL A   1      32.866  25.910  22.325  1.00  0.00     0.310 C 
ATOM      6  O   UNL A   1      33.571  25.468  21.423  1.00  0.00    -0.252 OA
BRANCH   5   7
ATOM      7  C   UNL A   1      32.993  25.395  23.750  1.00  0.00     0.116 C 
BRANCH   7   8
ATOM      8  C   UNL A   1      34.361  25.506  24.446  1.00  0.00     0.031 C 
ATOM      9  C   UNL A   1      34.179  26.125  25.854  1.00  0.00     0.013 C 
BRANCH   8  10
ATOM     10  C   UNL A   1      35.256  24.281  24.613  1.00  0.00    -0.044 A 
ATOM     11  C   UNL A   1      35.550  23.504  23.478  1.00  0.00     0.004 A 
ATOM     12  C   UNL A   1      35.986  24.036  25.786  1.00  0.00     0.004 A 
ATOM     13  C   UNL A   1      36.591  22.572  23.491  1.00  0.00     0.000 A 
ATOM     14  C   UNL A   1      37.041  23.117  25.792  1.00  0.00     0.000 A 
ATOM     15  C   UNL A   1      37.352  22.396  24.641  1.00  0.00     0.000 A 
ENDBRANCH   8  10
ENDBRANCH   7   8
BRANCH   7  16
ATOM     16  C   UNL A   1      31.806  25.900  24.617  1.00  0.00     0.116 C 
BRANCH  16  17
ATOM     17  C   UNL A   1      30.615  24.987  24.880  1.00  0.00     0.225 C 
ATOM     18  O   UNL A   1      29.474  25.459  24.887  1.00  0.00    -0.275 OA
ATOM     19  N   UNL A   1      30.736  23.623  25.004  1.00  0.00    -0.325 N 
ATOM     20  H   UNL A   1      30.022  23.077  24.601  1.00  0.00     0.169 HD
BRANCH  19  21
ATOM     21  C   UNL A   1      31.777  22.927  25.648  1.00  0.00     0.054 A 
ATOM     22  C   UNL A   1      32.155  23.263  26.947  1.00  0.00     0.027 A 
ATOM     23  C   UNL A   1      32.515  21.954  24.951  1.00  0.00     0.037 A 
ATOM     24  C   UNL A   1      33.180  22.549  27.584  1.00  0.00     0.002 A 
ATOM     25  C   UNL A   1      33.495  21.202  25.606  1.00  0.00     0.017 A 
ATOM     26  I   UNL A   1      32.142  21.553  22.939  1.00  0.00    -0.042 I 
ATOM     27  C   UNL A   1      33.818  21.494  26.929  1.00  0.00     0.001 A 
ENDBRANCH  19  21
ENDBRANCH  16  17
ENDBRANCH   7  16
ENDBRANCH   5   7
ENDBRANCH   4   5
ENDBRANCH   3   4
ENDBRANCH   2   3
ENDBRANCH   1   2
BRANCH   1  28
ATOM     28  C   UNL A   1      31.799  29.470  25.511  1.00  0.00     0.202 C 
BRANCH  28  29
ATOM     29  C   UNL A   1      31.790  30.843  26.188  1.00  0.00     0.261 C 
BRANCH  29  30
ATOM     30  O   UNL A   1      32.568  30.803  27.399  1.00  0.00    -0.460 OA
BRANCH  30  31
ATOM     31  C   UNL A   1      33.348  31.889  27.585  1.00  0.00     0.338 C 
ATOM     32  O   UNL A   1      32.988  33.058  27.595  1.00  0.00    -0.246 OA
BRANCH  31  33
ATOM     33  C   UNL A   1      34.707  31.452  27.939  1.00  0.00     0.060 A 
ATOM     34  C   UNL A   1      34.945  30.083  28.103  1.00  0.00     0.016 A 
ATOM     35  C   UNL A   1      35.715  32.381  28.194  1.00  0.00     0.016 A 
ATOM     36  C   UNL A   1      36.183  29.645  28.579  1.00  0.00     0.010 A 
ATOM     37  C   UNL A   1      36.967  31.933  28.635  1.00  0.00     0.010 A 
ATOM     38  C   UNL A   1      37.197  30.566  28.882  1.00  0.00    -0.014 A 
BRANCH  38  39
ATOM     39  C   UNL A   1      38.409  30.118  29.629  1.00  0.00     0.031 A 
ATOM     40  C   UNL A   1      38.602  30.589  31.053  1.00  0.00     0.074 A 
ATOM     41  C   UNL A   1      39.299  29.261  29.090  1.00  0.00     0.049 A 
ATOM     42  N   UNL A   1      39.558  30.313  31.903  1.00  0.00    -0.248 NA
ATOM     43  C   UNL A   1      37.582  31.509  31.581  1.00  0.00     0.031 C 
ATOM     44  C   UNL A   1      39.235  28.716  27.735  1.00  0.00     0.029 A 
ATOM     45  N   UNL A   1      40.429  28.687  29.625  1.00  0.00    -0.354 N 
ATOM     46  C   UNL A   1      39.259  31.029  33.058  1.00  0.00     0.074 A 
ATOM     47  C   UNL A   1      38.071  31.804  32.773  1.00  0.00     0.031 C 
ATOM     48  C   UNL A   1      40.264  27.868  27.554  1.00  0.00     0.029 A 
ATOM     49  C   UNL A   1      41.080  27.831  28.767  1.00  0.00     0.049 A 
ATOM     50  H   UNL A   1      40.742  28.871  30.540  1.00  0.00     0.167 HD
ATOM     51  C   UNL A   1      39.890  31.023  34.259  1.00  0.00     0.034 A 
ATOM     52  C   UNL A   1      42.206  27.103  28.935  1.00  0.00     0.034 A 
ATOM     53  C   UNL A   1      41.063  30.237  34.548  1.00  0.00     0.049 A 
ATOM     54  C   UNL A   1      42.927  27.154  30.262  1.00  0.00     0.074 A 
ATOM     55  C   UNL A   1      41.763  30.139  35.738  1.00  0.00     0.029 A 
ATOM     56  N   UNL A   1      41.714  29.417  33.636  1.00  0.00    -0.354 N 
ATOM     57  N   UNL A   1      42.616  27.821  31.350  1.00  0.00    -0.248 NA
ATOM     58  C   UNL A   1      44.149  26.345  30.385  1.00  0.00     0.031 C 
ATOM     59  C   UNL A   1      42.872  29.311  35.529  1.00  0.00     0.029 A 
ATOM     60  C   UNL A   1      42.823  28.834  34.229  1.00  0.00     0.049 A 
ATOM     61  H   UNL A   1      41.429  29.270  32.706  1.00  0.00     0.167 HD
ATOM     62  C   UNL A   1      43.585  27.484  32.293  1.00  0.00     0.074 A 
ATOM     63  C   UNL A   1      44.482  26.548  31.652  1.00  0.00     0.031 C 
ATOM     64  C   UNL A   1      43.719  27.907  33.577  1.00  0.00     0.034 A 
BRANCH  51  65
ATOM     65  C   UNL A   1      39.333  31.927  35.334  1.00  0.00     0.023 A 
ATOM     66  C   UNL A   1      39.785  33.248  35.497  1.00  0.00     0.031 A 
ATOM     67  C   UNL A   1      38.372  31.444  36.240  1.00  0.00     0.131 A 
ATOM     68  C   UNL A   1      39.341  34.011  36.587  1.00  0.00     0.055 A 
ATOM     69  C   UNL A   1      37.871  32.237  37.273  1.00  0.00     0.041 A 
ATOM     70  F   UNL A   1      37.919  30.183  36.149  1.00  0.00    -0.206 F 
ATOM     71  C   UNL A   1      38.368  33.524  37.463  1.00  0.00     0.022 A 
BRANCH  68  72
ATOM     72  S   UNL A   1      40.170  35.586  36.937  1.00  0.00     0.124 S 
ATOM     73  O   UNL A   1      39.717  35.860  38.299  1.00  0.00    -0.237 OA
ATOM     74  O   UNL A   1      41.579  35.242  36.789  1.00  0.00    -0.237 OA
ATOM     75  O   UNL A   1      39.637  36.487  35.918  1.00  0.00    -0.744 OA
ENDBRANCH  68  72
ENDBRANCH  51  65
BRANCH  52  76
ATOM     76  C   UNL A   1      42.749  26.274  27.818  1.00  0.00     0.023 A 
ATOM     77  C   UNL A   1      42.236  24.995  27.542  1.00  0.00     0.031 A 
ATOM     78  C   UNL A   1      43.842  26.722  27.056  1.00  0.00     0.131 A 
ATOM     79  C   UNL A   1      42.844  24.193  26.561  1.00  0.00     0.055 A 
ATOM     80  C   UNL A   1      44.409  25.942  26.046  1.00  0.00     0.041 A 
ATOM     81  F   UNL A   1      44.375  27.934  27.281  1.00  0.00    -0.206 F 
ATOM     82  C   UNL A   1      43.918  24.664  25.804  1.00  0.00     0.022 A 
BRANCH  79  83
ATOM     83  S   UNL A   1      42.264  22.486  26.348  1.00  0.00     0.124 S 
ATOM     84  O   UNL A   1      40.827  22.634  26.554  1.00  0.00    -0.237 OA
ATOM     85  O   UNL A   1      42.691  22.189  24.985  1.00  0.00    -0.237 OA
ATOM     86  O   UNL A   1      42.972  21.753  27.395  1.00  0.00    -0.744 OA
ENDBRANCH  79  83
ENDBRANCH  52  76
BRANCH  64  87
ATOM     87  C   UNL A   1      44.852  27.322  34.384  1.00  0.00     0.023 A 
ATOM     88  C   UNL A   1      46.097  27.965  34.489  1.00  0.00     0.031 A 
ATOM     89  C   UNL A   1      44.679  26.100  35.061  1.00  0.00     0.131 A 
ATOM     90  C   UNL A   1      47.139  27.359  35.210  1.00  0.00     0.055 A 
ATOM     91  C   UNL A   1      45.700  25.530  35.821  1.00  0.00     0.041 A 
ATOM     92  F   UNL A   1      43.511  25.442  34.996  1.00  0.00    -0.206 F 
ATOM     93  C   UNL A   1      46.943  26.154  35.890  1.00  0.00     0.022 A 
BRANCH  90  94
ATOM     94  S   UNL A   1      48.781  28.129  35.185  1.00  0.00     0.124 S 
ATOM     95  O   UNL A   1      49.431  27.424  34.086  1.00  0.00    -0.237 OA
ATOM     96  O   UNL A   1      48.465  29.534  34.943  1.00  0.00    -0.237 OA
ATOM     97  O   UNL A   1      49.318  27.837  36.513  1.00  0.00    -0.744 OA
ENDBRANCH  90  94
ENDBRANCH  64  87
ENDBRANCH  38  39
ENDBRANCH  31  33
ENDBRANCH  30  31
ENDBRANCH  29  30
ENDBRANCH  28  29
ENDBRANCH   1  28
TORSDOF 22
ENDMDL
MODEL 2
REMARK VINA RESULT:     -10.7      1.985      2.668
REMARK SMILES C[C@@H](c1ccccc1)[C@@H](CC(=O)Nc1ccccc1I)C(=O)OCCOCCOC(=O)c1ccc(-c2c3nc(c(-c4cc(S(=O)(=O)[O-])ccc4F)c4ccc([nH]4)c(-c4cc(S(=O)(=O)[O-])ccc4F)c4nc(c(-c5cc(S(=O)(=O)[O-])ccc5F)c5ccc2[nH]5)C=C4)C=C3)cc1
REMARK SMILES IDX 26 1 25 2 24 3 23 4 21 5 22 6 9 7 2 8 1 9 3 10 4 11 8 12
REMARK SMILES IDX 5 13 7 14 6 15 10 16 11 17 12 18 13 19 14 21 15 22 19 23
REMARK SMILES IDX 16 24 18 25 20 26 17 27 27 28 28 29 29 30 30 31 31 32 32 33
REMARK SMILES IDX 33 34 94 35 34 36 93 37 35 38 36 39 37 40 87 41 38 42 92 43
REMARK SMILES IDX 86 44 88 45 39 46 91 47 85 48 84 49 40 51 72 52 52 53 71 54
REMARK SMILES IDX 53 55 56 56 70 57 89 58 54 59 55 60 69 62 90 63 57 64 41 65
REMARK SMILES IDX 42 66 50 67 43 68 49 69 51 70 48 71 44 72 45 73 46 74 47 75
REMARK SMILES IDX 73 76 74 77 82 78 75 79 81 80 83 81 80 82 76 83 77 84 78 85
REMARK SMILES IDX 79 86 58 87 59 88 67 89 60 90 66 91 68 92 65 93 61 94 62 95
REMARK SMILES IDX 63 96 64 97
REMARK H PARENT 13 20 88 50 56 61
REMARK Flexibility Score: inf
ROOT
ATOM      1  O   UNL A   1      31.450  29.905  26.609  1.00  0.00    -0.374 OA
ENDROOT
BRANCH   1   2
ATOM      2  C   UNL A   1      32.105  28.813  27.256  1.00  0.00     0.202 C 
BRANCH   2   3
ATOM      3  C   UNL A   1      32.905  27.902  26.324  1.00  0.00     0.261 C 
BRANCH   3   4
ATOM      4  O   UNL A   1      32.630  26.491  26.493  1.00  0.00    -0.463 OA
BRANCH   4   5
ATOM      5  C   UNL A   1      33.507  25.661  25.873  1.00  0.00     0.310 C 
ATOM      6  O   UNL A   1      34.397  26.027  25.110  1.00  0.00    -0.252 OA
BRANCH   5   7
ATOM      7  C   UNL A   1      33.219  24.185  26.097  1.00  0.00     0.116 C 
BRANCH   7   8
ATOM      8  C   UNL A   1      34.310  23.321  26.757  1.00  0.00     0.031 C 
ATOM      9  C   UNL A   1      33.663  22.375  27.797  1.00  0.00     0.013 C 
BRANCH   8  10
ATOM     10  C   UNL A   1      35.254  22.472  25.910  1.00  0.00    -0.044 A 
ATOM     11  C   UNL A   1      36.585  22.898  25.754  1.00  0.00     0.004 A 
ATOM     12  C   UNL A   1      34.924  21.176  25.485  1.00  0.00     0.004 A 
ATOM     13  C   UNL A   1      37.567  22.033  25.267  1.00  0.00     0.000 A 
ATOM     14  C   UNL A   1      35.912  20.305  25.016  1.00  0.00     0.000 A 
ATOM     15  C   UNL A   1      37.236  20.729  24.920  1.00  0.00     0.000 A 
ENDBRANCH   8  10
ENDBRANCH   7   8
BRANCH   7  16
ATOM     16  C   UNL A   1      31.808  23.996  26.721  1.00  0.00     0.116 C 
BRANCH  16  17
ATOM     17  C   UNL A   1      30.736  23.232  25.955  1.00  0.00     0.225 C 
ATOM     18  O   UNL A   1      30.065  22.374  26.537  1.00  0.00    -0.275 OA
ATOM     19  N   UNL A   1      30.395  23.526  24.656  1.00  0.00    -0.325 N 
ATOM     20  H   UNL A   1      29.439  23.473  24.426  1.00  0.00     0.169 HD
BRANCH  19  21
ATOM     21  C   UNL A   1      31.274  23.900  23.621  1.00  0.00     0.054 A 
ATOM     22  C   UNL A   1      32.271  23.025  23.190  1.00  0.00     0.027 A 
ATOM     23  C   UNL A   1      31.221  25.197  23.081  1.00  0.00     0.037 A 
ATOM     24  C   UNL A   1      33.126  23.401  22.144  1.00  0.00     0.002 A 
ATOM     25  C   UNL A   1      32.034  25.549  21.999  1.00  0.00     0.017 A 
ATOM     26  I   UNL A   1      29.897  26.624  23.827  1.00  0.00    -0.042 I 
ATOM     27  C   UNL A   1      32.980  24.643  21.523  1.00  0.00     0.001 A 
ENDBRANCH  19  21
ENDBRANCH  16  17
ENDBRANCH   7  16
ENDBRANCH   5   7
ENDBRANCH   4   5
ENDBRANCH   3   4
ENDBRANCH   2   3
ENDBRANCH   1   2
BRANCH   1  28
ATOM     28  C   UNL A   1      32.258  31.058  26.364  1.00  0.00     0.202 C 
BRANCH  28  29
ATOM     29  C   UNL A   1      31.688  32.342  26.973  1.00  0.00     0.261 C 
BRANCH  29  30
ATOM     30  O   UNL A   1      32.672  33.391  26.927  1.00  0.00    -0.460 OA
BRANCH  30  31
ATOM     31  C   UNL A   1      33.155  33.743  28.138  1.00  0.00     0.338 C 
ATOM     32  O   UNL A   1      32.605  34.450  28.970  1.00  0.00    -0.246 OA
BRANCH  31  33
ATOM     33  C   UNL A   1      34.407  33.012  28.389  1.00  0.00     0.060 A 
ATOM     34  C   UNL A   1      34.329  31.716  28.907  1.00  0.00     0.016 A 
ATOM     35  C   UNL A   1      35.645  33.625  28.199  1.00  0.00     0.016 A 
ATOM     36  C   UNL A   1      35.495  31.049  29.293  1.00  0.00     0.010 A 
ATOM     37  C   UNL A   1      36.814  32.936  28.551  1.00  0.00     0.010 A 
ATOM     38  C   UNL A   1      36.748  31.664  29.149  1.00  0.00    -0.014 A 
BRANCH  38  39
ATOM     39  C   UNL A   1      37.950  31.061  29.797  1.00  0.00     0.031 A 
ATOM     40  C   UNL A   1      38.250  31.406  31.239  1.00  0.00     0.074 A 
ATOM     41  C   UNL A   1      38.735  30.175  29.152  1.00  0.00     0.049 A 
ATOM     42  N   UNL A   1      39.217  30.987  32.015  1.00  0.00    -0.248 NA
ATOM     43  C   UNL A   1      37.340  32.365  31.884  1.00  0.00     0.031 C 
ATOM     44  C   UNL A   1      38.560  29.741  27.767  1.00  0.00     0.029 A 
ATOM     45  N   UNL A   1      39.834  29.470  29.584  1.00  0.00    -0.354 N 
ATOM     46  C   UNL A   1      39.036  31.637  33.232  1.00  0.00     0.074 A 
ATOM     47  C   UNL A   1      37.909  32.528  33.067  1.00  0.00     0.031 C 
ATOM     48  C   UNL A   1      39.500  28.826  27.472  1.00  0.00     0.029 A 
ATOM     49  C   UNL A   1      40.367  28.630  28.633  1.00  0.00     0.049 A 
ATOM     50  H   UNL A   1      40.205  29.558  30.492  1.00  0.00     0.167 HD
ATOM     51  C   UNL A   1      39.721  31.488  34.394  1.00  0.00     0.034 A 
ATOM     52  C   UNL A   1      41.431  27.800  28.689  1.00  0.00     0.034 A 
ATOM     53  C   UNL A   1      40.833  30.586  34.564  1.00  0.00     0.049 A 
ATOM     54  C   UNL A   1      42.216  27.690  29.976  1.00  0.00     0.074 A 
ATOM     55  C   UNL A   1      41.577  30.341  35.705  1.00  0.00     0.029 A 
ATOM     56  N   UNL A   1      41.366  29.785  33.562  1.00  0.00    -0.354 N 
ATOM     57  N   UNL A   1      42.016  28.296  31.124  1.00  0.00    -0.248 NA
ATOM     58  C   UNL A   1      43.366  26.774  29.976  1.00  0.00     0.031 C 
ATOM     59  C   UNL A   1      42.598  29.441  35.378  1.00  0.00     0.029 A 
ATOM     60  C   UNL A   1      42.446  29.069  34.052  1.00  0.00     0.049 A 
ATOM     61  H   UNL A   1      41.025  29.733  32.640  1.00  0.00     0.167 HD
ATOM     62  C   UNL A   1      42.995  27.810  31.987  1.00  0.00     0.074 A 
ATOM     63  C   UNL A   1      43.776  26.853  31.234  1.00  0.00     0.031 C 
ATOM     64  C   UNL A   1      43.226  28.122  33.289  1.00  0.00     0.034 A 
BRANCH  51  65
ATOM     65  C   UNL A   1      39.296  32.351  35.559  1.00  0.00     0.023 A 
ATOM     66  C   UNL A   1      39.680  33.700  35.658  1.00  0.00     0.031 A 
ATOM     67  C   UNL A   1      38.538  31.804  36.609  1.00  0.00     0.131 A 
ATOM     68  C   UNL A   1      39.380  34.431  36.817  1.00  0.00     0.055 A 
ATOM     69  C   UNL A   1      38.169  32.562  37.722  1.00  0.00     0.041 A 
ATOM     70  F   UNL A   1      38.162  30.516  36.582  1.00  0.00    -0.206 F 
ATOM     71  C   UNL A   1      38.604  33.879  37.839  1.00  0.00     0.022 A 
BRANCH  68  72
ATOM     72  S   UNL A   1      40.149  36.059  37.039  1.00  0.00     0.124 S 
ATOM     73  O   UNL A   1      39.345  36.617  38.124  1.00  0.00    -0.237 OA
ATOM     74  O   UNL A   1      41.525  35.714  37.375  1.00  0.00    -0.237 OA
ATOM     75  O   UNL A   1      39.965  36.704  35.741  1.00  0.00    -0.744 OA
ENDBRANCH  68  72
ENDBRANCH  51  65
BRANCH  52  76
ATOM     76  C   UNL A   1      41.847  27.014  27.489  1.00  0.00     0.023 A 
ATOM     77  C   UNL A   1      41.653  25.624  27.424  1.00  0.00     0.031 A 
ATOM     78  C   UNL A   1      42.511  27.636  26.417  1.00  0.00     0.131 A 
ATOM     79  C   UNL A   1      42.158  24.897  26.333  1.00  0.00     0.055 A 
ATOM     80  C   UNL A   1      42.964  26.916  25.310  1.00  0.00     0.041 A 
ATOM     81  F   UNL A   1      42.727  28.961  26.430  1.00  0.00    -0.206 F 
ATOM     82  C   UNL A   1      42.800  25.536  25.271  1.00  0.00     0.022 A 
BRANCH  79  83
ATOM     83  S   UNL A   1      42.041  23.085  26.363  1.00  0.00     0.124 S 
ATOM     84  O   UNL A   1      42.595  22.730  25.060  1.00  0.00    -0.237 OA
ATOM     85  O   UNL A   1      42.858  22.747  27.523  1.00  0.00    -0.237 OA
ATOM     86  O   UNL A   1      40.609  22.840  26.520  1.00  0.00    -0.744 OA
ENDBRANCH  79  83
ENDBRANCH  52  76
BRANCH  64  87
ATOM     87  C   UNL A   1      44.341  27.385  33.991  1.00  0.00     0.023 A 
ATOM     88  C   UNL A   1      44.131  26.142  34.612  1.00  0.00     0.031 A 
ATOM     89  C   UNL A   1      45.634  27.937  34.035  1.00  0.00     0.131 A 
ATOM     90  C   UNL A   1      45.185  25.515  35.296  1.00  0.00     0.055 A 
ATOM     91  C   UNL A   1      46.691  27.284  34.668  1.00  0.00     0.041 A 
ATOM     92  F   UNL A   1      45.891  29.121  33.457  1.00  0.00    -0.206 F 
ATOM     93  C   UNL A   1      46.468  26.071  35.314  1.00  0.00     0.022 A 
BRANCH  90  94
ATOM     94  S   UNL A   1      44.841  23.999  36.231  1.00  0.00     0.124 S 
ATOM     95  O   UNL A   1      44.586  24.519  37.570  1.00  0.00    -0.237 OA
ATOM     96  O   UNL A   1      43.685  23.453  35.528  1.00  0.00    -0.237 OA
ATOM     97  O   UNL A   1      46.072  23.223  36.091  1.00  0.00    -0.744 OA
ENDBRANCH  90  94
ENDBRANCH  64  87
ENDBRANCH  38  39
ENDBRANCH  31  33
ENDBRANCH  30  31
ENDBRANCH  29  30
ENDBRANCH  28  29
ENDBRANCH   1  28
TORSDOF 22
ENDMDL
MODEL 3
REMARK VINA RESULT:     -10.6      1.920      3.463
REMARK SMILES C[C@@H](c1ccccc1)[C@@H](CC(=O)Nc1ccccc1I)C(=O)OCCOCCOC(=O)c1ccc(-c2c3nc(c(-c4cc(S(=O)(=O)[O-])ccc4F)c4ccc([nH]4)c(-c4cc(S(=O)(=O)[O-])ccc4F)c4nc(c(-c5cc(S(=O)(=O)[O-])ccc5F)c5ccc2[nH]5)C=C4)C=C3)cc1
REMARK SMILES IDX 26 1 25 2 24 3 23 4 21 5 22 6 9 7 2 8 1 9 3 10 4 11 8 12
REMARK SMILES IDX 5 13 7 14 6 15 10 16 11 17 12 18 13 19 14 21 15 22 19 23
REMARK SMILES IDX 16 24 18 25 20 26 17 27 27 28 28 29 29 30 30 31 31 32 32 33
REMARK SMILES IDX 33 34 94 35 34 36 93 37 35 38 36 39 37 40 87 41 38 42 92 43
REMARK SMILES IDX 86 44 88 45 39 46 91 47 85 48 84 49 40 51 72 52 52 53 71 54
REMARK SMILES IDX 53 55 56 56 70 57 89 58 54 59 55 60 69 62 90 63 57 64 41 65
REMARK SMILES IDX 42 66 50 67 43 68 49 69 51 70 48 71 44 72 45 73 46 74 47 75
REMARK SMILES IDX 73 76 74 77 82 78 75 79 81 80 83 81 80 82 76 83 77 84 78 85
REMARK SMILES IDX 79 86 58 87 59 88 67 89 60 90 66 91 68 92 65 93 61 94 62 95
REMARK SMILES IDX 63 96 64 97
REMARK H PARENT 13 20 88 50 56 61
REMARK Flexibility Score: inf
ROOT
ATOM      1  O   UNL A   1      31.744  29.941  26.968  1.00  0.00    -0.374 OA
ENDROOT
BRANCH   1   2
ATOM      2  C   UNL A   1      32.876  29.130  26.655  1.00  0.00     0.202 C 
BRANCH   2   3
ATOM      3  C   UNL A   1      32.587  27.631  26.564  1.00  0.00     0.261 C 
BRANCH   3   4
ATOM      4  O   UNL A   1      31.180  27.298  26.527  1.00  0.00    -0.463 OA
BRANCH   4   5
ATOM      5  C   UNL A   1      30.887  26.122  25.916  1.00  0.00     0.310 C 
ATOM      6  O   UNL A   1      30.493  25.113  26.493  1.00  0.00    -0.252 OA
BRANCH   5   7
ATOM      7  C   UNL A   1      31.214  26.104  24.431  1.00  0.00     0.116 C 
BRANCH   7   8
ATOM      8  C   UNL A   1      31.439  27.449  23.716  1.00  0.00     0.031 C 
ATOM      9  C   UNL A   1      32.289  27.224  22.442  1.00  0.00     0.013 C 
BRANCH   8  10
ATOM     10  C   UNL A   1      30.257  28.326  23.313  1.00  0.00    -0.044 A 
ATOM     11  C   UNL A   1      30.503  29.466  22.528  1.00  0.00     0.004 A 
ATOM     12  C   UNL A   1      28.925  27.920  23.484  1.00  0.00     0.004 A 
ATOM     13  C   UNL A   1      29.464  30.129  21.871  1.00  0.00     0.000 A 
ATOM     14  C   UNL A   1      27.887  28.572  22.809  1.00  0.00     0.000 A 
ATOM     15  C   UNL A   1      28.158  29.668  21.992  1.00  0.00     0.000 A 
ENDBRANCH   8  10
ENDBRANCH   7   8
BRANCH   7  16
ATOM     16  C   UNL A   1      32.312  25.045  24.131  1.00  0.00     0.116 C 
BRANCH  16  17
ATOM     17  C   UNL A   1      31.917  23.674  23.594  1.00  0.00     0.225 C 
ATOM     18  O   UNL A   1      30.722  23.378  23.497  1.00  0.00    -0.275 OA
ATOM     19  N   UNL A   1      32.833  22.776  23.099  1.00  0.00    -0.325 N 
ATOM     20  H   UNL A   1      32.562  22.258  22.307  1.00  0.00     0.169 HD
BRANCH  19  21
ATOM     21  C   UNL A   1      34.120  22.523  23.610  1.00  0.00     0.054 A 
ATOM     22  C   UNL A   1      35.200  23.321  23.235  1.00  0.00     0.027 A 
ATOM     23  C   UNL A   1      34.350  21.400  24.426  1.00  0.00     0.037 A 
ATOM     24  C   UNL A   1      36.473  23.071  23.768  1.00  0.00     0.002 A 
ATOM     25  C   UNL A   1      35.606  21.188  25.003  1.00  0.00     0.017 A 
ATOM     26  I   UNL A   1      32.824  20.045  24.852  1.00  0.00    -0.042 I 
ATOM     27  C   UNL A   1      36.665  22.033  24.682  1.00  0.00     0.001 A 
ENDBRANCH  19  21
ENDBRANCH  16  17
ENDBRANCH   7  16
ENDBRANCH   5   7
ENDBRANCH   4   5
ENDBRANCH   3   4
ENDBRANCH   2   3
ENDBRANCH   1   2
BRANCH   1  28
ATOM     28  C   UNL A   1      31.566  31.103  26.154  1.00  0.00     0.202 C 
BRANCH  28  29
ATOM     29  C   UNL A   1      31.436  32.397  26.961  1.00  0.00     0.261 C 
BRANCH  29  30
ATOM     30  O   UNL A   1      32.632  33.186  26.827  1.00  0.00    -0.460 OA
BRANCH  30  31
ATOM     31  C   UNL A   1      33.136  33.621  28.001  1.00  0.00     0.338 C 
ATOM     32  O   UNL A   1      32.590  34.364  28.804  1.00  0.00    -0.246 OA
BRANCH  31  33
ATOM     33  C   UNL A   1      34.410  32.933  28.262  1.00  0.00     0.060 A 
ATOM     34  C   UNL A   1      34.375  31.593  28.660  1.00  0.00     0.016 A 
ATOM     35  C   UNL A   1      35.621  33.622  28.202  1.00  0.00     0.016 A 
ATOM     36  C   UNL A   1      35.552  30.953  29.056  1.00  0.00     0.010 A 
ATOM     37  C   UNL A   1      36.804  32.963  28.563  1.00  0.00     0.010 A 
ATOM     38  C   UNL A   1      36.775  31.641  29.043  1.00  0.00    -0.014 A 
BRANCH  38  39
ATOM     39  C   UNL A   1      37.971  31.042  29.707  1.00  0.00     0.031 A 
ATOM     40  C   UNL A   1      38.273  31.421  31.139  1.00  0.00     0.074 A 
ATOM     41  C   UNL A   1      38.747  30.132  29.085  1.00  0.00     0.049 A 
ATOM     42  N   UNL A   1      39.236  31.012  31.926  1.00  0.00    -0.248 NA
ATOM     43  C   UNL A   1      37.373  32.406  31.759  1.00  0.00     0.031 C 
ATOM     44  C   UNL A   1      38.568  29.665  27.711  1.00  0.00     0.029 A 
ATOM     45  N   UNL A   1      39.839  29.427  29.536  1.00  0.00    -0.354 N 
ATOM     46  C   UNL A   1      39.061  31.695  33.127  1.00  0.00     0.074 A 
ATOM     47  C   UNL A   1      37.943  32.593  32.938  1.00  0.00     0.031 C 
ATOM     48  C   UNL A   1      39.500  28.732  27.441  1.00  0.00     0.029 A 
ATOM     49  C   UNL A   1      40.363  28.557  28.608  1.00  0.00     0.049 A 
ATOM     50  H   UNL A   1      40.210  29.535  30.442  1.00  0.00     0.167 HD
ATOM     51  C   UNL A   1      39.743  31.569  34.292  1.00  0.00     0.034 A 
ATOM     52  C   UNL A   1      41.419  27.718  28.685  1.00  0.00     0.034 A 
ATOM     53  C   UNL A   1      40.846  30.660  34.486  1.00  0.00     0.049 A 
ATOM     54  C   UNL A   1      42.202  27.633  29.975  1.00  0.00     0.074 A 
ATOM     55  C   UNL A   1      41.587  30.436  35.634  1.00  0.00     0.029 A 
ATOM     56  N   UNL A   1      41.371  29.829  33.506  1.00  0.00    -0.354 N 
ATOM     57  N   UNL A   1      42.008  28.271  31.107  1.00  0.00    -0.248 NA
ATOM     58  C   UNL A   1      43.343  26.706  30.000  1.00  0.00     0.031 C 
ATOM     59  C   UNL A   1      42.599  29.518  35.331  1.00  0.00     0.029 A 
ATOM     60  C   UNL A   1      42.444  29.113  34.015  1.00  0.00     0.049 A 
ATOM     61  H   UNL A   1      41.031  29.756  32.586  1.00  0.00     0.167 HD
ATOM     62  C   UNL A   1      42.982  27.797  31.984  1.00  0.00     0.074 A 
ATOM     63  C   UNL A   1      43.753  26.813  31.256  1.00  0.00     0.031 C 
ATOM     64  C   UNL A   1      43.214  28.140  33.277  1.00  0.00     0.034 A 
BRANCH  51  65
ATOM     65  C   UNL A   1      39.327  32.466  35.434  1.00  0.00     0.023 A 
ATOM     66  C   UNL A   1      39.768  33.798  35.527  1.00  0.00     0.031 A 
ATOM     67  C   UNL A   1      38.517  31.967  36.471  1.00  0.00     0.131 A 
ATOM     68  C   UNL A   1      39.469  34.557  36.668  1.00  0.00     0.055 A 
ATOM     69  C   UNL A   1      38.153  32.756  37.563  1.00  0.00     0.041 A 
ATOM     70  F   UNL A   1      38.085  30.697  36.449  1.00  0.00    -0.206 F 
ATOM     71  C   UNL A   1      38.643  34.053  37.676  1.00  0.00     0.022 A 
BRANCH  68  72
ATOM     72  S   UNL A   1      40.305  36.152  36.891  1.00  0.00     0.124 S 
ATOM     73  O   UNL A   1      40.121  36.765  35.577  1.00  0.00    -0.237 OA
ATOM     74  O   UNL A   1      39.552  36.751  37.987  1.00  0.00    -0.237 OA
ATOM     75  O   UNL A   1      41.680  35.776  37.209  1.00  0.00    -0.744 OA
ENDBRANCH  68  72
ENDBRANCH  51  65
BRANCH  52  76
ATOM     76  C   UNL A   1      41.827  26.898  27.506  1.00  0.00     0.023 A 
ATOM     77  C   UNL A   1      41.518  25.529  27.427  1.00  0.00     0.031 A 
ATOM     78  C   UNL A   1      42.598  27.459  26.473  1.00  0.00     0.131 A 
ATOM     79  C   UNL A   1      42.014  24.760  26.361  1.00  0.00     0.055 A 
ATOM     80  C   UNL A   1      43.045  26.701  25.389  1.00  0.00     0.041 A 
ATOM     81  F   UNL A   1      42.927  28.760  26.501  1.00  0.00    -0.206 F 
ATOM     82  C   UNL A   1      42.764  25.339  25.336  1.00  0.00     0.022 A 
BRANCH  79  83
ATOM     83  S   UNL A   1      41.739  22.965  26.379  1.00  0.00     0.124 S 
ATOM     84  O   UNL A   1      42.142  22.617  27.737  1.00  0.00    -0.237 OA
ATOM     85  O   UNL A   1      40.312  22.875  26.089  1.00  0.00    -0.237 OA
ATOM     86  O   UNL A   1      42.620  22.475  25.321  1.00  0.00    -0.744 OA
ENDBRANCH  79  83
ENDBRANCH  52  76
BRANCH  64  87
ATOM     87  C   UNL A   1      44.321  27.409  33.999  1.00  0.00     0.023 A 
ATOM     88  C   UNL A   1      44.110  26.163  34.611  1.00  0.00     0.031 A 
ATOM     89  C   UNL A   1      45.608  27.973  34.072  1.00  0.00     0.131 A 
ATOM     90  C   UNL A   1      45.156  25.542  35.314  1.00  0.00     0.055 A 
ATOM     91  C   UNL A   1      46.658  27.326  34.724  1.00  0.00     0.041 A 
ATOM     92  F   UNL A   1      45.867  29.162  33.505  1.00  0.00    -0.206 F 
ATOM     93  C   UNL A   1      46.432  26.108  35.360  1.00  0.00     0.022 A 
BRANCH  90  94
ATOM     94  S   UNL A   1      44.806  24.019  36.234  1.00  0.00     0.124 S 
ATOM     95  O   UNL A   1      43.738  23.421  35.439  1.00  0.00    -0.237 OA
ATOM     96  O   UNL A   1      46.091  23.328  36.198  1.00  0.00    -0.237 OA
ATOM     97  O   UNL A   1      44.401  24.501  37.554  1.00  0.00    -0.744 OA
ENDBRANCH  90  94
ENDBRANCH  64  87
ENDBRANCH  38  39
ENDBRANCH  31  33
ENDBRANCH  30  31
ENDBRANCH  29  30
ENDBRANCH  28  29
ENDBRANCH   1  28
TORSDOF 22
ENDMDL
