MODEL 1
REMARK VINA RESULT:     -10.5      0.000      0.000
REMARK SMILES CCC[C@]1(C(=O)OCCOCCOC(=O)c2ccc(-c3c4nc(c(-c5cc(S(=O)(=O)[O-])ccc5F)c5ccc([nH]5)c(-c5cc(S(=O)(=O)[O-])ccc5F)c5nc(c(-c6cc(S(=O)(=O)[O-])ccc6F)c6ccc3[nH]6)C=C5)C=C4)cc2)CCN(c2cncc(C(=O)OC)n2)C1
REMARK SMILES IDX 10 1 9 2 8 3 7 4 5 5 6 6 4 7 79 8 92 9 80 10 81 11 3 12 2 13
REMARK SMILES IDX 1 14 82 15 83 16 91 17 84 18 86 19 85 20 87 21 88 22 89 23
REMARK SMILES IDX 90 24 11 25 12 26 13 27 14 28 15 29 16 30 17 31 78 32 18 33
REMARK SMILES IDX 77 34 19 35 20 36 21 37 71 38 22 39 76 40 70 41 72 42 23 43
REMARK SMILES IDX 75 44 69 45 68 46 24 48 56 49 36 50 55 51 37 52 40 53 54 54
REMARK SMILES IDX 73 55 38 56 39 57 53 59 74 60 41 61 25 62 26 63 34 64 27 65
REMARK SMILES IDX 33 66 35 67 32 68 28 69 29 70 30 71 31 72 57 73 58 74 66 75
REMARK SMILES IDX 59 76 65 77 67 78 64 79 60 80 61 81 62 82 63 83 42 84 43 85
REMARK SMILES IDX 51 86 44 87 50 88 52 89 49 90 45 91 46 92 47 93 48 94
REMARK H PARENT 72 47 40 58
REMARK Flexibility Score: inf
ROOT
ATOM      1  O   UNL A   1      33.940  22.752  24.578  1.00  0.00    -0.374 OA
ENDROOT
BRANCH   1   2
ATOM      2  C   UNL A   1      33.599  22.213  23.297  1.00  0.00     0.202 C 
BRANCH   2   3
ATOM      3  C   UNL A   1      33.374  23.217  22.162  1.00  0.00     0.261 C 
BRANCH   3   4
ATOM      4  O   UNL A   1      33.971  24.474  22.506  1.00  0.00    -0.463 OA
BRANCH   4   5
ATOM      5  C   UNL A   1      33.420  25.577  21.939  1.00  0.00     0.314 C 
ATOM      6  O   UNL A   1      33.059  25.643  20.770  1.00  0.00    -0.252 OA
BRANCH   5   7
ATOM      7  C   UNL A   1      33.198  26.689  22.964  1.00  0.00     0.087 C 
ATOM      8  C   UNL A   1      33.567  28.095  22.403  1.00  0.00     0.042 C 
ATOM      9  C   UNL A   1      31.667  26.779  23.205  1.00  0.00     0.137 C 
ATOM     10  C   UNL A   1      32.492  29.033  22.916  1.00  0.00     0.119 C 
ATOM     11  N   UNL A   1      31.340  28.173  22.943  1.00  0.00    -0.354 N 
BRANCH   7  12
ATOM     12  C   UNL A   1      33.972  26.436  24.292  1.00  0.00     0.020 C 
BRANCH  12  13
ATOM     13  C   UNL A   1      33.255  26.775  25.609  1.00  0.00    -0.002 C 
ATOM     14  C   UNL A   1      33.793  28.031  26.289  1.00  0.00     0.004 C 
ENDBRANCH  12  13
ENDBRANCH   7  12
BRANCH  11  15
ATOM     15  C   UNL A   1      30.048  28.581  22.799  1.00  0.00     0.148 A 
ATOM     16  C   UNL A   1      28.971  27.800  23.236  1.00  0.00     0.157 A 
ATOM     17  N   UNL A   1      29.820  29.798  22.263  1.00  0.00    -0.221 NA
ATOM     18  N   UNL A   1      27.671  28.183  23.168  1.00  0.00    -0.258 NA
ATOM     19  C   UNL A   1      28.519  30.181  22.156  1.00  0.00     0.169 A 
ATOM     20  C   UNL A   1      27.471  29.399  22.617  1.00  0.00     0.147 A 
BRANCH  19  21
ATOM     21  C   UNL A   1      28.198  31.446  21.452  1.00  0.00     0.358 C 
ATOM     22  O   UNL A   1      28.324  31.602  20.247  1.00  0.00    -0.244 OA
BRANCH  21  23
ATOM     23  O   UNL A   1      27.816  32.403  22.338  1.00  0.00    -0.464 OA
ATOM     24  C   UNL A   1      28.889  32.966  23.090  1.00  0.00     0.282 C 
ENDBRANCH  21  23
ENDBRANCH  19  21
ENDBRANCH  11  15
ENDBRANCH   5   7
ENDBRANCH   4   5
ENDBRANCH   3   4
ENDBRANCH   2   3
ENDBRANCH   1   2
BRANCH   1  25
ATOM     25  C   UNL A   1      35.237  22.475  25.102  1.00  0.00     0.202 C 
BRANCH  25  26
ATOM     26  C   UNL A   1      36.022  23.610  25.768  1.00  0.00     0.261 C 
BRANCH  26  27
ATOM     27  O   UNL A   1      37.342  23.774  25.233  1.00  0.00    -0.460 OA
BRANCH  27  28
ATOM     28  C   UNL A   1      38.304  23.183  25.986  1.00  0.00     0.338 C 
ATOM     29  O   UNL A   1      38.533  21.988  26.069  1.00  0.00    -0.246 OA
BRANCH  28  30
ATOM     30  C   UNL A   1      39.199  24.196  26.571  1.00  0.00     0.060 A 
ATOM     31  C   UNL A   1      39.150  24.348  27.961  1.00  0.00     0.016 A 
ATOM     32  C   UNL A   1      39.981  25.048  25.785  1.00  0.00     0.016 A 
ATOM     33  C   UNL A   1      39.810  25.408  28.568  1.00  0.00     0.010 A 
ATOM     34  C   UNL A   1      40.642  26.118  26.397  1.00  0.00     0.010 A 
ATOM     35  C   UNL A   1      40.507  26.334  27.781  1.00  0.00    -0.014 A 
BRANCH  35  36
ATOM     36  C   UNL A   1      40.877  27.629  28.400  1.00  0.00     0.031 A 
ATOM     37  C   UNL A   1      42.338  27.988  28.486  1.00  0.00     0.074 A 
ATOM     38  C   UNL A   1      39.930  28.507  28.772  1.00  0.00     0.049 A 
ATOM     39  N   UNL A   1      42.902  29.084  28.922  1.00  0.00    -0.248 NA
ATOM     40  C   UNL A   1      43.288  26.970  28.011  1.00  0.00     0.031 C 
ATOM     41  C   UNL A   1      38.488  28.281  28.680  1.00  0.00     0.029 A 
ATOM     42  N   UNL A   1      40.040  29.773  29.285  1.00  0.00    -0.354 N 
ATOM     43  C   UNL A   1      44.272  28.888  28.774  1.00  0.00     0.074 A 
ATOM     44  C   UNL A   1      44.452  27.550  28.253  1.00  0.00     0.031 C 
ATOM     45  C   UNL A   1      37.846  29.377  29.118  1.00  0.00     0.029 A 
ATOM     46  C   UNL A   1      38.830  30.370  29.546  1.00  0.00     0.049 A 
ATOM     47  H   UNL A   1      40.905  30.215  29.450  1.00  0.00     0.167 HD
ATOM     48  C   UNL A   1      45.285  29.752  29.032  1.00  0.00     0.034 A 
ATOM     49  C   UNL A   1      38.553  31.575  30.081  1.00  0.00     0.034 A 
ATOM     50  C   UNL A   1      45.083  31.079  29.561  1.00  0.00     0.049 A 
ATOM     51  C   UNL A   1      39.700  32.493  30.427  1.00  0.00     0.074 A 
ATOM     52  C   UNL A   1      46.028  32.039  29.871  1.00  0.00     0.029 A 
ATOM     53  N   UNL A   1      43.844  31.630  29.866  1.00  0.00    -0.354 N 
ATOM     54  N   UNL A   1      40.992  32.298  30.281  1.00  0.00    -0.248 NA
ATOM     55  C   UNL A   1      39.349  33.801  30.992  1.00  0.00     0.031 C 
ATOM     56  C   UNL A   1      45.369  33.141  30.427  1.00  0.00     0.029 A 
ATOM     57  C   UNL A   1      44.003  32.905  30.389  1.00  0.00     0.049 A 
ATOM     58  H   UNL A   1      42.978  31.181  29.732  1.00  0.00     0.167 HD
ATOM     59  C   UNL A   1      41.604  33.474  30.711  1.00  0.00     0.074 A 
ATOM     60  C   UNL A   1      40.537  34.376  31.094  1.00  0.00     0.031 C 
ATOM     61  C   UNL A   1      42.926  33.783  30.783  1.00  0.00     0.034 A 
BRANCH  48  62
ATOM     62  C   UNL A   1      46.694  29.255  28.801  1.00  0.00     0.023 A 
ATOM     63  C   UNL A   1      47.224  29.096  27.507  1.00  0.00     0.031 A 
ATOM     64  C   UNL A   1      47.502  28.886  29.891  1.00  0.00     0.131 A 
ATOM     65  C   UNL A   1      48.490  28.513  27.335  1.00  0.00     0.055 A 
ATOM     66  C   UNL A   1      48.794  28.385  29.716  1.00  0.00     0.041 A 
ATOM     67  F   UNL A   1      47.042  28.988  31.148  1.00  0.00    -0.206 F 
ATOM     68  C   UNL A   1      49.289  28.181  28.431  1.00  0.00     0.022 A 
BRANCH  65  69
ATOM     69  S   UNL A   1      49.016  28.054  25.660  1.00  0.00     0.124 S 
ATOM     70  O   UNL A   1      47.889  28.526  24.858  1.00  0.00    -0.237 OA
ATOM     71  O   UNL A   1      50.265  28.792  25.507  1.00  0.00    -0.237 OA
ATOM     72  O   UNL A   1      49.154  26.601  25.730  1.00  0.00    -0.744 OA
ENDBRANCH  65  69
ENDBRANCH  48  62
BRANCH  49  73
ATOM     73  C   UNL A   1      37.142  31.979  30.348  1.00  0.00     0.023 A 
ATOM     74  C   UNL A   1      36.316  32.473  29.327  1.00  0.00     0.031 A 
ATOM     75  C   UNL A   1      36.618  31.931  31.652  1.00  0.00     0.131 A 
ATOM     76  C   UNL A   1      35.029  32.943  29.633  1.00  0.00     0.055 A 
ATOM     77  C   UNL A   1      35.319  32.349  31.943  1.00  0.00     0.041 A 
ATOM     78  F   UNL A   1      37.366  31.469  32.669  1.00  0.00    -0.206 F 
ATOM     79  C   UNL A   1      34.520  32.872  30.931  1.00  0.00     0.022 A 
BRANCH  76  80
ATOM     80  S   UNL A   1      34.056  33.732  28.320  1.00  0.00     0.124 S 
ATOM     81  O   UNL A   1      35.101  34.254  27.448  1.00  0.00    -0.237 OA
ATOM     82  O   UNL A   1      33.285  32.609  27.799  1.00  0.00    -0.237 OA
ATOM     83  O   UNL A   1      33.277  34.741  29.034  1.00  0.00    -0.744 OA
ENDBRANCH  76  80
ENDBRANCH  49  73
BRANCH  61  84
ATOM     84  C   UNL A   1      43.272  35.174  31.260  1.00  0.00     0.023 A 
ATOM     85  C   UNL A   1      43.486  36.233  30.358  1.00  0.00     0.031 A 
ATOM     86  C   UNL A   1      43.432  35.435  32.632  1.00  0.00     0.131 A 
ATOM     87  C   UNL A   1      43.928  37.477  30.832  1.00  0.00     0.055 A 
ATOM     88  C   UNL A   1      43.800  36.696  33.104  1.00  0.00     0.041 A 
ATOM     89  F   UNL A   1      43.242  34.464  33.541  1.00  0.00    -0.206 F 
ATOM     90  C   UNL A   1      44.070  37.721  32.200  1.00  0.00     0.022 A 
BRANCH  87  91
ATOM     91  S   UNL A   1      44.447  38.730  29.627  1.00  0.00     0.124 S 
ATOM     92  O   UNL A   1      43.170  39.164  29.072  1.00  0.00    -0.237 OA
ATOM     93  O   UNL A   1      45.139  39.701  30.468  1.00  0.00    -0.237 OA
ATOM     94  O   UNL A   1      45.303  37.984  28.706  1.00  0.00    -0.744 OA
ENDBRANCH  87  91
ENDBRANCH  61  84
ENDBRANCH  35  36
ENDBRANCH  28  30
ENDBRANCH  27  28
ENDBRANCH  26  27
ENDBRANCH  25  26
ENDBRANCH   1  25
TORSDOF 22
ENDMDL
MODEL 2
REMARK VINA RESULT:     -10.2      2.554      3.590
REMARK SMILES CCC[C@]1(C(=O)OCCOCCOC(=O)c2ccc(-c3c4nc(c(-c5cc(S(=O)(=O)[O-])ccc5F)c5ccc([nH]5)c(-c5cc(S(=O)(=O)[O-])ccc5F)c5nc(c(-c6cc(S(=O)(=O)[O-])ccc6F)c6ccc3[nH]6)C=C5)C=C4)cc2)CCN(c2cncc(C(=O)OC)n2)C1
REMARK SMILES IDX 10 1 9 2 8 3 7 4 5 5 6 6 4 7 79 8 92 9 80 10 81 11 3 12 2 13
REMARK SMILES IDX 1 14 82 15 83 16 91 17 84 18 86 19 85 20 87 21 88 22 89 23
REMARK SMILES IDX 90 24 11 25 12 26 13 27 14 28 15 29 16 30 17 31 78 32 18 33
REMARK SMILES IDX 77 34 19 35 20 36 21 37 71 38 22 39 76 40 70 41 72 42 23 43
REMARK SMILES IDX 75 44 69 45 68 46 24 48 56 49 36 50 55 51 37 52 40 53 54 54
REMARK SMILES IDX 73 55 38 56 39 57 53 59 74 60 41 61 25 62 26 63 34 64 27 65
REMARK SMILES IDX 33 66 35 67 32 68 28 69 29 70 30 71 31 72 57 73 58 74 66 75
REMARK SMILES IDX 59 76 65 77 67 78 64 79 60 80 61 81 62 82 63 83 42 84 43 85
REMARK SMILES IDX 51 86 44 87 50 88 52 89 49 90 45 91 46 92 47 93 48 94
REMARK H PARENT 72 47 40 58
REMARK Flexibility Score: inf
ROOT
ATOM      1  O   UNL A   1      37.757  21.494  25.521  1.00  0.00    -0.374 OA
ENDROOT
BRANCH   1   2
ATOM      2  C   UNL A   1      36.496  22.138  25.319  1.00  0.00     0.202 C 
BRANCH   2   3
ATOM      3  C   UNL A   1      36.407  23.137  24.162  1.00  0.00     0.261 C 
BRANCH   3   4
ATOM      4  O   UNL A   1      35.250  23.967  24.329  1.00  0.00    -0.463 OA
BRANCH   4   5
ATOM      5  C   UNL A   1      34.226  23.754  23.464  1.00  0.00     0.314 C 
ATOM      6  O   UNL A   1      34.371  23.423  22.294  1.00  0.00    -0.252 OA
BRANCH   5   7
ATOM      7  C   UNL A   1      32.869  23.865  24.158  1.00  0.00     0.087 C 
ATOM      8  C   UNL A   1      33.005  24.174  25.679  1.00  0.00     0.042 C 
ATOM      9  C   UNL A   1      32.174  25.129  23.586  1.00  0.00     0.137 C 
ATOM     10  C   UNL A   1      31.914  25.180  25.989  1.00  0.00     0.119 C 
ATOM     11  N   UNL A   1      31.841  25.923  24.760  1.00  0.00    -0.354 N 
BRANCH   7  12
ATOM     12  C   UNL A   1      31.993  22.592  23.958  1.00  0.00     0.020 C 
BRANCH  12  13
ATOM     13  C   UNL A   1      32.720  21.250  23.773  1.00  0.00    -0.002 C 
ATOM     14  C   UNL A   1      33.078  20.565  25.089  1.00  0.00     0.004 C 
ENDBRANCH  12  13
ENDBRANCH   7  12
BRANCH  11  15
ATOM     15  C   UNL A   1      31.454  27.224  24.647  1.00  0.00     0.148 A 
ATOM     16  C   UNL A   1      31.836  28.195  25.581  1.00  0.00     0.157 A 
ATOM     17  N   UNL A   1      30.722  27.580  23.572  1.00  0.00    -0.221 NA
ATOM     18  N   UNL A   1      31.526  29.513  25.486  1.00  0.00    -0.258 NA
ATOM     19  C   UNL A   1      30.372  28.893  23.481  1.00  0.00     0.169 A 
ATOM     20  C   UNL A   1      30.783  29.840  24.407  1.00  0.00     0.147 A 
BRANCH  19  21
ATOM     21  C   UNL A   1      29.456  29.319  22.396  1.00  0.00     0.358 C 
ATOM     22  O   UNL A   1      29.829  29.864  21.368  1.00  0.00    -0.244 OA
BRANCH  21  23
ATOM     23  O   UNL A   1      28.163  29.079  22.740  1.00  0.00    -0.464 OA
ATOM     24  C   UNL A   1      27.435  30.242  23.127  1.00  0.00     0.282 C 
ENDBRANCH  21  23
ENDBRANCH  19  21
ENDBRANCH  11  15
ENDBRANCH   5   7
ENDBRANCH   4   5
ENDBRANCH   3   4
ENDBRANCH   2   3
ENDBRANCH   1   2
BRANCH   1  25
ATOM     25  C   UNL A   1      37.942  20.188  24.977  1.00  0.00     0.202 C 
BRANCH  25  26
ATOM     26  C   UNL A   1      39.191  19.394  25.374  1.00  0.00     0.261 C 
BRANCH  26  27
ATOM     27  O   UNL A   1      39.795  19.861  26.588  1.00  0.00    -0.460 OA
BRANCH  27  28
ATOM     28  C   UNL A   1      41.004  20.445  26.395  1.00  0.00     0.338 C 
ATOM     29  O   UNL A   1      41.894  20.054  25.658  1.00  0.00    -0.246 OA
BRANCH  28  30
ATOM     30  C   UNL A   1      41.055  21.762  27.055  1.00  0.00     0.060 A 
ATOM     31  C   UNL A   1      40.490  22.834  26.356  1.00  0.00     0.016 A 
ATOM     32  C   UNL A   1      41.726  21.968  28.264  1.00  0.00     0.016 A 
ATOM     33  C   UNL A   1      40.670  24.132  26.813  1.00  0.00     0.010 A 
ATOM     34  C   UNL A   1      41.911  23.277  28.721  1.00  0.00     0.010 A 
ATOM     35  C   UNL A   1      41.435  24.363  27.964  1.00  0.00    -0.014 A 
BRANCH  35  36
ATOM     36  C   UNL A   1      41.912  25.745  28.212  1.00  0.00     0.031 A 
ATOM     37  C   UNL A   1      43.256  26.146  27.660  1.00  0.00     0.074 A 
ATOM     38  C   UNL A   1      41.120  26.648  28.815  1.00  0.00     0.049 A 
ATOM     39  N   UNL A   1      43.857  27.306  27.689  1.00  0.00    -0.248 NA
ATOM     40  C   UNL A   1      44.023  25.089  26.980  1.00  0.00     0.031 C 
ATOM     41  C   UNL A   1      39.781  26.378  29.337  1.00  0.00     0.029 A 
ATOM     42  N   UNL A   1      41.321  27.978  29.074  1.00  0.00    -0.354 N 
ATOM     43  C   UNL A   1      45.070  27.122  27.032  1.00  0.00     0.074 A 
ATOM     44  C   UNL A   1      45.138  25.725  26.660  1.00  0.00     0.031 C 
ATOM     45  C   UNL A   1      39.276  27.513  29.850  1.00  0.00     0.029 A 
ATOM     46  C   UNL A   1      40.267  28.580  29.718  1.00  0.00     0.049 A 
ATOM     47  H   UNL A   1      42.143  28.459  28.821  1.00  0.00     0.167 HD
ATOM     48  C   UNL A   1      46.030  28.036  26.750  1.00  0.00     0.034 A 
ATOM     49  C   UNL A   1      40.126  29.846  30.158  1.00  0.00     0.034 A 
ATOM     50  C   UNL A   1      45.946  29.423  27.141  1.00  0.00     0.049 A 
ATOM     51  C   UNL A   1      41.239  30.831  29.896  1.00  0.00     0.074 A 
ATOM     52  C   UNL A   1      46.857  30.440  26.921  1.00  0.00     0.029 A 
ATOM     53  N   UNL A   1      44.886  29.986  27.842  1.00  0.00    -0.354 N 
ATOM     54  N   UNL A   1      42.382  30.645  29.272  1.00  0.00    -0.248 NA
ATOM     55  C   UNL A   1      41.034  32.200  30.380  1.00  0.00     0.031 C 
ATOM     56  C   UNL A   1      46.382  31.598  27.547  1.00  0.00     0.029 A 
ATOM     57  C   UNL A   1      45.135  31.328  28.088  1.00  0.00     0.049 A 
ATOM     58  H   UNL A   1      44.075  29.503  28.124  1.00  0.00     0.167 HD
ATOM     59  C   UNL A   1      43.017  31.885  29.266  1.00  0.00     0.074 A 
ATOM     60  C   UNL A   1      42.116  32.811  29.924  1.00  0.00     0.031 C 
ATOM     61  C   UNL A   1      44.231  32.232  28.763  1.00  0.00     0.034 A 
BRANCH  48  62
ATOM     62  C   UNL A   1      47.270  27.542  26.042  1.00  0.00     0.023 A 
ATOM     63  C   UNL A   1      48.369  27.015  26.744  1.00  0.00     0.031 A 
ATOM     64  C   UNL A   1      47.374  27.645  24.643  1.00  0.00     0.131 A 
ATOM     65  C   UNL A   1      49.548  26.685  26.057  1.00  0.00     0.055 A 
ATOM     66  C   UNL A   1      48.519  27.235  23.956  1.00  0.00     0.041 A 
ATOM     67  F   UNL A   1      46.370  28.164  23.919  1.00  0.00    -0.206 F 
ATOM     68  C   UNL A   1      49.621  26.767  24.665  1.00  0.00     0.022 A 
BRANCH  65  69
ATOM     69  S   UNL A   1      51.035  26.291  27.020  1.00  0.00     0.124 S 
ATOM     70  O   UNL A   1      50.744  26.947  28.292  1.00  0.00    -0.237 OA
ATOM     71  O   UNL A   1      51.026  24.833  27.033  1.00  0.00    -0.237 OA
ATOM     72  O   UNL A   1      52.115  26.901  26.247  1.00  0.00    -0.744 OA
ENDBRANCH  65  69
ENDBRANCH  48  62
BRANCH  49  73
ATOM     73  C   UNL A   1      38.905  30.254  30.912  1.00  0.00     0.023 A 
ATOM     74  C   UNL A   1      37.831  30.894  30.275  1.00  0.00     0.031 A 
ATOM     75  C   UNL A   1      38.824  30.059  32.303  1.00  0.00     0.131 A 
ATOM     76  C   UNL A   1      36.744  31.359  31.033  1.00  0.00     0.055 A 
ATOM     77  C   UNL A   1      37.717  30.475  33.044  1.00  0.00     0.041 A 
ATOM     78  F   UNL A   1      39.824  29.452  32.964  1.00  0.00    -0.206 F 
ATOM     79  C   UNL A   1      36.674  31.142  32.411  1.00  0.00     0.022 A 
BRANCH  76  80
ATOM     80  S   UNL A   1      35.458  32.333  30.203  1.00  0.00     0.124 S 
ATOM     81  O   UNL A   1      36.181  33.553  29.863  1.00  0.00    -0.237 OA
ATOM     82  O   UNL A   1      35.098  31.467  29.085  1.00  0.00    -0.237 OA
ATOM     83  O   UNL A   1      34.428  32.482  31.229  1.00  0.00    -0.744 OA
ENDBRANCH  76  80
ENDBRANCH  49  73
BRANCH  61  84
ATOM     84  C   UNL A   1      44.624  33.686  28.879  1.00  0.00     0.023 A 
ATOM     85  C   UNL A   1      45.312  34.179  30.002  1.00  0.00     0.031 A 
ATOM     86  C   UNL A   1      44.267  34.599  27.871  1.00  0.00     0.131 A 
ATOM     87  C   UNL A   1      45.547  35.556  30.130  1.00  0.00     0.055 A 
ATOM     88  C   UNL A   1      44.569  35.959  27.969  1.00  0.00     0.041 A 
ATOM     89  F   UNL A   1      43.608  34.188  26.775  1.00  0.00    -0.206 F 
ATOM     90  C   UNL A   1      45.195  36.447  29.113  1.00  0.00     0.022 A 
BRANCH  87  91
ATOM     91  S   UNL A   1      46.194  36.183  31.704  1.00  0.00     0.124 S 
ATOM     92  O   UNL A   1      45.092  35.905  32.618  1.00  0.00    -0.237 OA
ATOM     93  O   UNL A   1      47.395  35.374  31.890  1.00  0.00    -0.237 OA
ATOM     94  O   UNL A   1      46.436  37.599  31.434  1.00  0.00    -0.744 OA
ENDBRANCH  87  91
ENDBRANCH  61  84
ENDBRANCH  35  36
ENDBRANCH  28  30
ENDBRANCH  27  28
ENDBRANCH  26  27
ENDBRANCH  25  26
ENDBRANCH   1  25
TORSDOF 22
ENDMDL
MODEL 3
REMARK VINA RESULT:     -10.0      2.595      3.882
REMARK SMILES CCC[C@]1(C(=O)OCCOCCOC(=O)c2ccc(-c3c4nc(c(-c5cc(S(=O)(=O)[O-])ccc5F)c5ccc([nH]5)c(-c5cc(S(=O)(=O)[O-])ccc5F)c5nc(c(-c6cc(S(=O)(=O)[O-])ccc6F)c6ccc3[nH]6)C=C5)C=C4)cc2)CCN(c2cncc(C(=O)OC)n2)C1
REMARK SMILES IDX 10 1 9 2 8 3 7 4 5 5 6 6 4 7 79 8 92 9 80 10 81 11 3 12 2 13
REMARK SMILES IDX 1 14 82 15 83 16 91 17 84 18 86 19 85 20 87 21 88 22 89 23
REMARK SMILES IDX 90 24 11 25 12 26 13 27 14 28 15 29 16 30 17 31 78 32 18 33
REMARK SMILES IDX 77 34 19 35 20 36 21 37 71 38 22 39 76 40 70 41 72 42 23 43
REMARK SMILES IDX 75 44 69 45 68 46 24 48 56 49 36 50 55 51 37 52 40 53 54 54
REMARK SMILES IDX 73 55 38 56 39 57 53 59 74 60 41 61 25 62 26 63 34 64 27 65
REMARK SMILES IDX 33 66 35 67 32 68 28 69 29 70 30 71 31 72 57 73 58 74 66 75
REMARK SMILES IDX 59 76 65 77 67 78 64 79 60 80 61 81 62 82 63 83 42 84 43 85
REMARK SMILES IDX 51 86 44 87 50 88 52 89 49 90 45 91 46 92 47 93 48 94
REMARK H PARENT 72 47 40 58
REMARK Flexibility Score: inf
ROOT
ATOM      1  O   UNL A   1      38.213  22.036  25.692  1.00  0.00    -0.374 OA
ENDROOT
BRANCH   1   2
ATOM      2  C   UNL A   1      37.349  23.048  25.167  1.00  0.00     0.202 C 
BRANCH   2   3
ATOM      3  C   UNL A   1      36.438  22.645  24.004  1.00  0.00     0.261 C 
BRANCH   3   4
ATOM      4  O   UNL A   1      35.067  22.736  24.413  1.00  0.00    -0.463 OA
BRANCH   4   5
ATOM      5  C   UNL A   1      34.329  23.717  23.834  1.00  0.00     0.314 C 
ATOM      6  O   UNL A   1      34.675  24.343  22.839  1.00  0.00    -0.252 OA
BRANCH   5   7
ATOM      7  C   UNL A   1      32.965  23.869  24.506  1.00  0.00     0.087 C 
ATOM      8  C   UNL A   1      33.085  24.167  26.030  1.00  0.00     0.042 C 
ATOM      9  C   UNL A   1      32.321  25.158  23.929  1.00  0.00     0.137 C 
ATOM     10  C   UNL A   1      32.022  25.207  26.327  1.00  0.00     0.119 C 
ATOM     11  N   UNL A   1      31.994  25.957  25.101  1.00  0.00    -0.354 N 
BRANCH   7  12
ATOM     12  C   UNL A   1      32.052  22.626  24.285  1.00  0.00     0.020 C 
BRANCH  12  13
ATOM     13  C   UNL A   1      31.913  22.090  22.851  1.00  0.00    -0.002 C 
ATOM     14  C   UNL A   1      32.152  20.587  22.737  1.00  0.00     0.004 C 
ENDBRANCH  12  13
ENDBRANCH   7  12
BRANCH  11  15
ATOM     15  C   UNL A   1      31.651  27.271  24.988  1.00  0.00     0.148 A 
ATOM     16  C   UNL A   1      32.121  28.239  25.884  1.00  0.00     0.157 A 
ATOM     17  N   UNL A   1      30.875  27.639  23.948  1.00  0.00    -0.221 NA
ATOM     18  N   UNL A   1      31.856  29.567  25.784  1.00  0.00    -0.258 NA
ATOM     19  C   UNL A   1      30.572  28.963  23.855  1.00  0.00     0.169 A 
ATOM     20  C   UNL A   1      31.069  29.906  24.741  1.00  0.00     0.147 A 
BRANCH  19  21
ATOM     21  C   UNL A   1      29.614  29.409  22.814  1.00  0.00     0.358 C 
ATOM     22  O   UNL A   1      29.878  29.448  21.622  1.00  0.00    -0.244 OA
BRANCH  21  23
ATOM     23  O   UNL A   1      28.450  29.822  23.381  1.00  0.00    -0.464 OA
ATOM     24  C   UNL A   1      27.294  29.132  22.911  1.00  0.00     0.282 C 
ENDBRANCH  21  23
ENDBRANCH  19  21
ENDBRANCH  11  15
ENDBRANCH   5   7
ENDBRANCH   4   5
ENDBRANCH   3   4
ENDBRANCH   2   3
ENDBRANCH   1   2
BRANCH   1  25
ATOM     25  C   UNL A   1      38.026  20.693  25.250  1.00  0.00     0.202 C 
BRANCH  25  26
ATOM     26  C   UNL A   1      39.177  19.695  25.411  1.00  0.00     0.261 C 
BRANCH  26  27
ATOM     27  O   UNL A   1      40.041  20.003  26.515  1.00  0.00    -0.460 OA
BRANCH  27  28
ATOM     28  C   UNL A   1      41.355  19.810  26.238  1.00  0.00     0.338 C 
ATOM     29  O   UNL A   1      41.855  18.823  25.724  1.00  0.00    -0.246 OA
BRANCH  28  30
ATOM     30  C   UNL A   1      42.118  21.051  26.461  1.00  0.00     0.060 A 
ATOM     31  C   UNL A   1      42.463  21.344  27.785  1.00  0.00     0.016 A 
ATOM     32  C   UNL A   1      42.394  21.955  25.432  1.00  0.00     0.016 A 
ATOM     33  C   UNL A   1      43.005  22.581  28.103  1.00  0.00     0.010 A 
ATOM     34  C   UNL A   1      42.935  23.205  25.754  1.00  0.00     0.010 A 
ATOM     35  C   UNL A   1      43.185  23.540  27.098  1.00  0.00    -0.014 A 
BRANCH  35  36
ATOM     36  C   UNL A   1      43.407  24.945  27.514  1.00  0.00     0.031 A 
ATOM     37  C   UNL A   1      44.757  25.562  27.256  1.00  0.00     0.074 A 
ATOM     38  C   UNL A   1      42.397  25.684  28.005  1.00  0.00     0.049 A 
ATOM     39  N   UNL A   1      45.171  26.784  27.469  1.00  0.00    -0.248 NA
ATOM     40  C   UNL A   1      45.779  24.675  26.676  1.00  0.00     0.031 C 
ATOM     41  C   UNL A   1      41.038  25.200  28.241  1.00  0.00     0.029 A 
ATOM     42  N   UNL A   1      42.355  27.003  28.375  1.00  0.00    -0.354 N 
ATOM     43  C   UNL A   1      46.497  26.814  27.049  1.00  0.00     0.074 A 
ATOM     44  C   UNL A   1      46.831  25.474  26.615  1.00  0.00     0.031 C 
ATOM     45  C   UNL A   1      40.290  26.213  28.713  1.00  0.00     0.029 A 
ATOM     46  C   UNL A   1      41.125  27.407  28.838  1.00  0.00     0.049 A 
ATOM     47  H   UNL A   1      43.131  27.605  28.315  1.00  0.00     0.167 HD
ATOM     48  C   UNL A   1      47.352  27.866  27.012  1.00  0.00     0.034 A 
ATOM     49  C   UNL A   1      40.727  28.602  29.317  1.00  0.00     0.034 A 
ATOM     50  C   UNL A   1      47.000  29.191  27.460  1.00  0.00     0.049 A 
ATOM     51  C   UNL A   1      41.717  29.741  29.333  1.00  0.00     0.074 A 
ATOM     52  C   UNL A   1      47.781  30.332  27.480  1.00  0.00     0.029 A 
ATOM     53  N   UNL A   1      45.760  29.551  27.975  1.00  0.00    -0.354 N 
ATOM     54  N   UNL A   1      42.969  29.758  28.931  1.00  0.00    -0.248 NA
ATOM     55  C   UNL A   1      41.232  31.026  29.848  1.00  0.00     0.031 C 
ATOM     56  C   UNL A   1      47.039  31.362  28.070  1.00  0.00     0.029 A 
ATOM     57  C   UNL A   1      45.766  30.889  28.343  1.00  0.00     0.049 A 
ATOM     58  H   UNL A   1      44.990  28.945  28.066  1.00  0.00     0.167 HD
ATOM     59  C   UNL A   1      43.410  31.065  29.121  1.00  0.00     0.074 A 
ATOM     60  C   UNL A   1      42.282  31.808  29.646  1.00  0.00     0.031 C 
ATOM     61  C   UNL A   1      44.634  31.607  28.883  1.00  0.00     0.034 A 
BRANCH  48  62
ATOM     62  C   UNL A   1      48.758  27.597  26.528  1.00  0.00     0.023 A 
ATOM     63  C   UNL A   1      49.139  27.814  25.191  1.00  0.00     0.031 A 
ATOM     64  C   UNL A   1      49.720  27.068  27.407  1.00  0.00     0.131 A 
ATOM     65  C   UNL A   1      50.419  27.432  24.756  1.00  0.00     0.055 A 
ATOM     66  C   UNL A   1      51.019  26.769  26.988  1.00  0.00     0.041 A 
ATOM     67  F   UNL A   1      49.409  26.813  28.688  1.00  0.00    -0.206 F 
ATOM     68  C   UNL A   1      51.369  26.936  25.651  1.00  0.00     0.022 A 
BRANCH  65  69
ATOM     69  S   UNL A   1      50.775  27.452  22.977  1.00  0.00     0.124 S 
ATOM     70  O   UNL A   1      49.603  26.768  22.435  1.00  0.00    -0.237 OA
ATOM     71  O   UNL A   1      50.874  28.878  22.690  1.00  0.00    -0.237 OA
ATOM     72  O   UNL A   1      52.026  26.705  22.870  1.00  0.00    -0.744 OA
ENDBRANCH  65  69
ENDBRANCH  48  62
BRANCH  49  73
ATOM     73  C   UNL A   1      39.343  28.783  29.844  1.00  0.00     0.023 A 
ATOM     74  C   UNL A   1      38.328  29.349  29.057  1.00  0.00     0.031 A 
ATOM     75  C   UNL A   1      39.033  28.444  31.173  1.00  0.00     0.131 A 
ATOM     76  C   UNL A   1      37.066  29.602  29.618  1.00  0.00     0.055 A 
ATOM     77  C   UNL A   1      37.761  28.648  31.711  1.00  0.00     0.041 A 
ATOM     78  F   UNL A   1      39.967  27.900  31.971  1.00  0.00    -0.206 F 
ATOM     79  C   UNL A   1      36.773  29.244  30.935  1.00  0.00     0.022 A 
BRANCH  76  80
ATOM     80  S   UNL A   1      35.835  30.491  28.625  1.00  0.00     0.124 S 
ATOM     81  O   UNL A   1      35.223  31.364  29.620  1.00  0.00    -0.237 OA
ATOM     82  O   UNL A   1      36.670  31.145  27.623  1.00  0.00    -0.237 OA
ATOM     83  O   UNL A   1      34.975  29.425  28.116  1.00  0.00    -0.744 OA
ENDBRANCH  76  80
ENDBRANCH  49  73
BRANCH  61  84
ATOM     84  C   UNL A   1      44.787  33.085  29.158  1.00  0.00     0.023 A 
ATOM     85  C   UNL A   1      44.257  34.057  28.290  1.00  0.00     0.031 A 
ATOM     86  C   UNL A   1      45.509  33.528  30.280  1.00  0.00     0.131 A 
ATOM     87  C   UNL A   1      44.528  35.415  28.511  1.00  0.00     0.055 A 
ATOM     88  C   UNL A   1      45.713  34.884  30.537  1.00  0.00     0.041 A 
ATOM     89  F   UNL A   1      46.040  32.647  31.145  1.00  0.00    -0.206 F 
ATOM     90  C   UNL A   1      45.238  35.836  29.638  1.00  0.00     0.022 A 
BRANCH  87  91
ATOM     91  S   UNL A   1      44.057  36.613  27.233  1.00  0.00     0.124 S 
ATOM     92  O   UNL A   1      43.138  37.484  27.957  1.00  0.00    -0.237 OA
ATOM     93  O   UNL A   1      45.343  37.203  26.872  1.00  0.00    -0.237 OA
ATOM     94  O   UNL A   1      43.443  35.784  26.197  1.00  0.00    -0.744 OA
ENDBRANCH  87  91
ENDBRANCH  61  84
ENDBRANCH  35  36
ENDBRANCH  28  30
ENDBRANCH  27  28
ENDBRANCH  26  27
ENDBRANCH  25  26
ENDBRANCH   1  25
TORSDOF 22
ENDMDL
