MODEL 1
REMARK VINA RESULT:     -10.3      0.000      0.000
REMARK SMILES O=C(OCCOCCOC(=O)[C@@H](CCOC(F)(F)F)Cc1ccccc1Cl)c1ccc(-c2c3nc(c(-c4cc(S(=O)(=O)[O-])ccc4F)c4ccc([nH]4)c(-c4cc(S(=O)(=O)[O-])ccc4F)c4nc(c(-c5cc(S(=O)(=O)[O-])ccc5F)c5ccc2[nH]5)C=C4)C=C3)cc1
REMARK SMILES IDX 7 1 6 2 5 3 4 4 3 5 2 6 1 7 28 8 29 9 90 10 30 11 89 12
REMARK SMILES IDX 31 13 32 14 33 15 83 16 34 17 88 18 82 19 84 20 35 21 87 22
REMARK SMILES IDX 81 23 80 24 36 26 68 27 48 28 67 29 49 30 52 31 66 32 85 33
REMARK SMILES IDX 50 34 51 35 65 37 86 38 53 39 37 40 38 41 46 42 39 43 45 44
REMARK SMILES IDX 47 45 44 46 40 47 41 48 42 49 43 50 69 51 70 52 78 53 71 54
REMARK SMILES IDX 77 55 79 56 76 57 72 58 73 59 74 60 75 61 54 62 55 63 63 64
REMARK SMILES IDX 56 65 62 66 64 67 61 68 57 69 58 70 59 71 60 72 8 73 9 74
REMARK SMILES IDX 10 75 11 76 12 77 13 78 14 79 15 80 16 81 17 82 18 83 19 84
REMARK SMILES IDX 20 85 21 86 22 87 26 88 23 89 25 90 27 91 24 92
REMARK H PARENT 84 25 52 36
REMARK Flexibility Score: inf
ROOT
ATOM      1  C   UNL A   1      31.095  26.590  23.737  1.00  0.00     0.202 C 
ENDROOT
BRANCH   1   2
ATOM      2  O   UNL A   1      31.298  27.070  25.063  1.00  0.00    -0.374 OA
BRANCH   2   3
ATOM      3  C   UNL A   1      32.271  28.086  25.298  1.00  0.00     0.202 C 
BRANCH   3   4
ATOM      4  C   UNL A   1      31.769  29.336  26.025  1.00  0.00     0.261 C 
BRANCH   4   5
ATOM      5  O   UNL A   1      32.739  30.388  25.925  1.00  0.00    -0.460 OA
BRANCH   5   6
ATOM      6  C   UNL A   1      33.196  31.160  26.942  1.00  0.00     0.338 C 
ATOM      7  O   UNL A   1      32.542  32.145  27.278  1.00  0.00    -0.246 OA
BRANCH   6   8
ATOM      8  C   UNL A   1      34.459  30.864  27.681  1.00  0.00     0.060 A 
ATOM      9  C   UNL A   1      34.798  29.611  28.190  1.00  0.00     0.016 A 
ATOM     10  C   UNL A   1      35.402  31.894  27.803  1.00  0.00     0.016 A 
ATOM     11  C   UNL A   1      35.996  29.361  28.805  1.00  0.00     0.010 A 
ATOM     12  C   UNL A   1      36.633  31.657  28.422  1.00  0.00     0.010 A 
ATOM     13  C   UNL A   1      36.921  30.381  28.917  1.00  0.00    -0.014 A 
BRANCH  13  14
ATOM     14  C   UNL A   1      38.090  30.055  29.732  1.00  0.00     0.031 A 
ATOM     15  C   UNL A   1      39.185  29.288  29.072  1.00  0.00     0.074 A 
ATOM     16  C   UNL A   1      38.241  30.674  30.917  1.00  0.00     0.049 A 
ATOM     17  N   UNL A   1      40.298  28.841  29.574  1.00  0.00    -0.248 NA
ATOM     18  C   UNL A   1      39.008  29.004  27.636  1.00  0.00     0.031 C 
ATOM     19  C   UNL A   1      37.291  31.637  31.492  1.00  0.00     0.029 A 
ATOM     20  N   UNL A   1      39.263  30.638  31.819  1.00  0.00    -0.354 N 
ATOM     21  C   UNL A   1      40.936  28.185  28.529  1.00  0.00     0.074 A 
ATOM     22  C   UNL A   1      40.090  28.296  27.364  1.00  0.00     0.031 C 
ATOM     23  C   UNL A   1      37.790  32.108  32.645  1.00  0.00     0.029 A 
ATOM     24  C   UNL A   1      39.031  31.406  32.936  1.00  0.00     0.049 A 
ATOM     25  H   UNL A   1      40.085  30.114  31.684  1.00  0.00     0.167 HD
ATOM     26  C   UNL A   1      42.121  27.534  28.573  1.00  0.00     0.034 A 
ATOM     27  C   UNL A   1      39.728  31.469  34.085  1.00  0.00     0.034 A 
ATOM     28  C   UNL A   1      42.898  27.457  29.783  1.00  0.00     0.049 A 
ATOM     29  C   UNL A   1      40.959  30.600  34.168  1.00  0.00     0.074 A 
ATOM     30  C   UNL A   1      44.048  26.737  30.036  1.00  0.00     0.029 A 
ATOM     31  N   UNL A   1      42.583  28.139  30.958  1.00  0.00    -0.354 N 
ATOM     32  N   UNL A   1      41.498  29.845  33.234  1.00  0.00    -0.248 NA
ATOM     33  C   UNL A   1      41.664  30.573  35.450  1.00  0.00     0.031 C 
ATOM     34  C   UNL A   1      44.386  26.930  31.382  1.00  0.00     0.029 A 
ATOM     35  C   UNL A   1      43.500  27.838  31.946  1.00  0.00     0.049 A 
ATOM     36  H   UNL A   1      41.817  28.747  31.067  1.00  0.00     0.167 HD
ATOM     37  C   UNL A   1      42.621  29.267  33.810  1.00  0.00     0.074 A 
ATOM     38  C   UNL A   1      42.690  29.784  35.166  1.00  0.00     0.031 C 
ATOM     39  C   UNL A   1      43.514  28.388  33.284  1.00  0.00     0.034 A 
BRANCH  26  40
ATOM     40  C   UNL A   1      42.523  26.775  27.336  1.00  0.00     0.023 A 
ATOM     41  C   UNL A   1      42.166  25.429  27.133  1.00  0.00     0.031 A 
ATOM     42  C   UNL A   1      43.392  27.371  26.404  1.00  0.00     0.131 A 
ATOM     43  C   UNL A   1      42.749  24.702  26.083  1.00  0.00     0.055 A 
ATOM     44  C   UNL A   1      43.898  26.666  25.311  1.00  0.00     0.041 A 
ATOM     45  F   UNL A   1      43.803  28.638  26.568  1.00  0.00    -0.206 F 
ATOM     46  C   UNL A   1      43.593  25.318  25.156  1.00  0.00     0.022 A 
BRANCH  43  47
ATOM     47  S   UNL A   1      42.539  22.898  26.053  1.00  0.00     0.124 S 
ATOM     48  O   UNL A   1      43.005  22.570  24.709  1.00  0.00    -0.237 OA
ATOM     49  O   UNL A   1      43.395  22.461  27.151  1.00  0.00    -0.237 OA
ATOM     50  O   UNL A   1      41.105  22.716  26.270  1.00  0.00    -0.744 OA
ENDBRANCH  43  47
ENDBRANCH  26  40
BRANCH  27  51
ATOM     51  C   UNL A   1      39.235  32.262  35.249  1.00  0.00     0.023 A 
ATOM     52  C   UNL A   1      39.662  33.579  35.472  1.00  0.00     0.031 A 
ATOM     53  C   UNL A   1      38.366  31.689  36.200  1.00  0.00     0.131 A 
ATOM     54  C   UNL A   1      39.265  34.259  36.636  1.00  0.00     0.055 A 
ATOM     55  C   UNL A   1      37.923  32.391  37.322  1.00  0.00     0.041 A 
ATOM     56  F   UNL A   1      37.929  30.428  36.054  1.00  0.00    -0.206 F 
ATOM     57  C   UNL A   1      38.386  33.680  37.555  1.00  0.00     0.022 A 
BRANCH  54  58
ATOM     58  S   UNL A   1      40.008  35.876  36.993  1.00  0.00     0.124 S 
ATOM     59  O   UNL A   1      39.679  36.625  35.787  1.00  0.00    -0.237 OA
ATOM     60  O   UNL A   1      39.301  36.270  38.207  1.00  0.00    -0.237 OA
ATOM     61  O   UNL A   1      41.425  35.567  37.171  1.00  0.00    -0.744 OA
ENDBRANCH  54  58
ENDBRANCH  27  51
BRANCH  39  62
ATOM     62  C   UNL A   1      44.657  27.990  34.176  1.00  0.00     0.023 A 
ATOM     63  C   UNL A   1      44.554  26.911  35.069  1.00  0.00     0.031 A 
ATOM     64  C   UNL A   1      45.865  28.707  34.127  1.00  0.00     0.131 A 
ATOM     65  C   UNL A   1      45.622  26.617  35.924  1.00  0.00     0.055 A 
ATOM     66  C   UNL A   1      46.951  28.362  34.929  1.00  0.00     0.041 A 
ATOM     67  F   UNL A   1      46.010  29.748  33.291  1.00  0.00    -0.206 F 
ATOM     68  C   UNL A   1      46.828  27.321  35.845  1.00  0.00     0.022 A 
BRANCH  65  69
ATOM     69  S   UNL A   1      45.377  25.369  37.214  1.00  0.00     0.124 S 
ATOM     70  O   UNL A   1      45.291  24.140  36.432  1.00  0.00    -0.237 OA
ATOM     71  O   UNL A   1      46.579  25.523  38.029  1.00  0.00    -0.237 OA
ATOM     72  O   UNL A   1      44.133  25.784  37.859  1.00  0.00    -0.744 OA
ENDBRANCH  65  69
ENDBRANCH  39  62
ENDBRANCH  13  14
ENDBRANCH   6   8
ENDBRANCH   5   6
ENDBRANCH   4   5
ENDBRANCH   3   4
ENDBRANCH   2   3
ENDBRANCH   1   2
BRANCH   1  73
ATOM     73  C   UNL A   1      30.582  25.144  23.783  1.00  0.00     0.261 C 
BRANCH  73  74
ATOM     74  O   UNL A   1      31.689  24.245  23.967  1.00  0.00    -0.463 OA
BRANCH  74  75
ATOM     75  C   UNL A   1      31.512  23.323  24.945  1.00  0.00     0.309 C 
ATOM     76  O   UNL A   1      30.562  23.274  25.708  1.00  0.00    -0.252 OA
BRANCH  75  77
ATOM     77  C   UNL A   1      32.655  22.325  25.007  1.00  0.00     0.106 C 
BRANCH  77  78
ATOM     78  C   UNL A   1      32.298  20.808  25.040  1.00  0.00     0.044 C 
BRANCH  78  79
ATOM     79  C   UNL A   1      33.203  19.729  24.411  1.00  0.00     0.171 C 
BRANCH  79  80
ATOM     80  O   UNL A   1      32.666  18.418  24.435  1.00  0.00    -0.292 OA
BRANCH  80  81
ATOM     81  C   UNL A   1      33.284  17.527  23.534  1.00  0.00     0.522 C 
ATOM     82  F   UNL A   1      32.895  17.736  22.264  1.00  0.00    -0.144 F 
ATOM     83  F   UNL A   1      34.617  17.670  23.630  1.00  0.00    -0.144 F 
ATOM     84  F   UNL A   1      32.959  16.265  23.877  1.00  0.00    -0.144 F 
ENDBRANCH  80  81
ENDBRANCH  79  80
ENDBRANCH  78  79
ENDBRANCH  77  78
BRANCH  77  85
ATOM     85  C   UNL A   1      33.751  22.659  23.981  1.00  0.00     0.052 C 
BRANCH  85  86
ATOM     86  C   UNL A   1      35.169  22.814  24.503  1.00  0.00    -0.028 A 
ATOM     87  C   UNL A   1      36.136  21.816  24.274  1.00  0.00     0.005 A 
ATOM     88  C   UNL A   1      35.550  23.927  25.270  1.00  0.00     0.044 A 
ATOM     89  C   UNL A   1      37.370  21.845  24.925  1.00  0.00     0.000 A 
ATOM     90  C   UNL A   1      36.800  23.970  25.896  1.00  0.00     0.021 A 
ATOM     91  Cl  UNL A   1      34.514  25.296  25.491  1.00  0.00    -0.084 Cl
ATOM     92  C   UNL A   1      37.694  22.913  25.753  1.00  0.00     0.002 A 
ENDBRANCH  85  86
ENDBRANCH  77  85
ENDBRANCH  75  77
ENDBRANCH  74  75
ENDBRANCH  73  74
ENDBRANCH   1  73
TORSDOF 23
ENDMDL
MODEL 2
REMARK VINA RESULT:     -10.2      1.743      2.528
REMARK SMILES O=C(OCCOCCOC(=O)[C@@H](CCOC(F)(F)F)Cc1ccccc1Cl)c1ccc(-c2c3nc(c(-c4cc(S(=O)(=O)[O-])ccc4F)c4ccc([nH]4)c(-c4cc(S(=O)(=O)[O-])ccc4F)c4nc(c(-c5cc(S(=O)(=O)[O-])ccc5F)c5ccc2[nH]5)C=C4)C=C3)cc1
REMARK SMILES IDX 7 1 6 2 5 3 4 4 3 5 2 6 1 7 28 8 29 9 90 10 30 11 89 12
REMARK SMILES IDX 31 13 32 14 33 15 83 16 34 17 88 18 82 19 84 20 35 21 87 22
REMARK SMILES IDX 81 23 80 24 36 26 68 27 48 28 67 29 49 30 52 31 66 32 85 33
REMARK SMILES IDX 50 34 51 35 65 37 86 38 53 39 37 40 38 41 46 42 39 43 45 44
REMARK SMILES IDX 47 45 44 46 40 47 41 48 42 49 43 50 69 51 70 52 78 53 71 54
REMARK SMILES IDX 77 55 79 56 76 57 72 58 73 59 74 60 75 61 54 62 55 63 63 64
REMARK SMILES IDX 56 65 62 66 64 67 61 68 57 69 58 70 59 71 60 72 8 73 9 74
REMARK SMILES IDX 10 75 11 76 12 77 13 78 14 79 15 80 16 81 17 82 18 83 19 84
REMARK SMILES IDX 20 85 21 86 22 87 26 88 23 89 25 90 27 91 24 92
REMARK H PARENT 84 25 52 36
REMARK Flexibility Score: inf
ROOT
ATOM      1  C   UNL A   1      33.348  28.943  23.220  1.00  0.00     0.202 C 
ENDROOT
BRANCH   1   2
ATOM      2  O   UNL A   1      32.409  28.517  24.203  1.00  0.00    -0.374 OA
BRANCH   2   3
ATOM      3  C   UNL A   1      31.269  29.329  24.479  1.00  0.00     0.202 C 
BRANCH   3   4
ATOM      4  C   UNL A   1      31.409  30.298  25.654  1.00  0.00     0.261 C 
BRANCH   4   5
ATOM      5  O   UNL A   1      32.793  30.468  25.993  1.00  0.00    -0.460 OA
BRANCH   5   6
ATOM      6  C   UNL A   1      33.289  31.250  26.984  1.00  0.00     0.338 C 
ATOM      7  O   UNL A   1      32.696  32.288  27.271  1.00  0.00    -0.246 OA
BRANCH   6   8
ATOM      8  C   UNL A   1      34.522  30.904  27.751  1.00  0.00     0.060 A 
ATOM      9  C   UNL A   1      34.846  29.618  28.182  1.00  0.00     0.016 A 
ATOM     10  C   UNL A   1      35.454  31.925  27.984  1.00  0.00     0.016 A 
ATOM     11  C   UNL A   1      36.019  29.328  28.827  1.00  0.00     0.010 A 
ATOM     12  C   UNL A   1      36.660  31.647  28.635  1.00  0.00     0.010 A 
ATOM     13  C   UNL A   1      36.934  30.339  29.049  1.00  0.00    -0.014 A 
BRANCH  13  14
ATOM     14  C   UNL A   1      38.070  29.957  29.886  1.00  0.00     0.031 A 
ATOM     15  C   UNL A   1      39.140  29.140  29.245  1.00  0.00     0.074 A 
ATOM     16  C   UNL A   1      38.227  30.568  31.074  1.00  0.00     0.049 A 
ATOM     17  N   UNL A   1      40.221  28.641  29.767  1.00  0.00    -0.248 NA
ATOM     18  C   UNL A   1      38.977  28.866  27.805  1.00  0.00     0.031 C 
ATOM     19  C   UNL A   1      37.313  31.574  31.632  1.00  0.00     0.029 A 
ATOM     20  N   UNL A   1      39.229  30.484  31.996  1.00  0.00    -0.354 N 
ATOM     21  C   UNL A   1      40.848  27.957  28.734  1.00  0.00     0.074 A 
ATOM     22  C   UNL A   1      40.030  28.109  27.553  1.00  0.00     0.031 C 
ATOM     23  C   UNL A   1      37.811  32.021  32.796  1.00  0.00     0.029 A 
ATOM     24  C   UNL A   1      39.012  31.261  33.109  1.00  0.00     0.049 A 
ATOM     25  H   UNL A   1      40.028  29.921  31.876  1.00  0.00     0.167 HD
ATOM     26  C   UNL A   1      42.000  27.251  28.800  1.00  0.00     0.034 A 
ATOM     27  C   UNL A   1      39.689  31.289  34.272  1.00  0.00     0.034 A 
ATOM     28  C   UNL A   1      42.749  27.137  30.024  1.00  0.00     0.049 A 
ATOM     29  C   UNL A   1      40.875  30.364  34.376  1.00  0.00     0.074 A 
ATOM     30  C   UNL A   1      43.859  26.363  30.298  1.00  0.00     0.029 A 
ATOM     31  N   UNL A   1      42.444  27.832  31.194  1.00  0.00    -0.354 N 
ATOM     32  N   UNL A   1      41.397  29.585  33.451  1.00  0.00    -0.248 NA
ATOM     33  C   UNL A   1      41.553  30.303  35.672  1.00  0.00     0.031 C 
ATOM     34  C   UNL A   1      44.180  26.539  31.650  1.00  0.00     0.029 A 
ATOM     35  C   UNL A   1      43.326  27.487  32.199  1.00  0.00     0.049 A 
ATOM     36  H   UNL A   1      41.705  28.475  31.289  1.00  0.00     0.167 HD
ATOM     37  C   UNL A   1      42.480  28.955  34.048  1.00  0.00     0.074 A 
ATOM     38  C   UNL A   1      42.547  29.467  35.406  1.00  0.00     0.031 C 
ATOM     39  C   UNL A   1      43.341  28.035  33.538  1.00  0.00     0.034 A 
BRANCH  26  40
ATOM     40  C   UNL A   1      42.389  26.475  27.569  1.00  0.00     0.023 A 
ATOM     41  C   UNL A   1      41.981  25.144  27.362  1.00  0.00     0.031 A 
ATOM     42  C   UNL A   1      43.296  27.034  26.651  1.00  0.00     0.131 A 
ATOM     43  C   UNL A   1      42.550  24.392  26.322  1.00  0.00     0.055 A 
ATOM     44  C   UNL A   1      43.789  26.308  25.566  1.00  0.00     0.041 A 
ATOM     45  F   UNL A   1      43.756  28.283  26.820  1.00  0.00    -0.206 F 
ATOM     46  C   UNL A   1      43.432  24.973  25.407  1.00  0.00     0.022 A 
BRANCH  43  47
ATOM     47  S   UNL A   1      42.266  22.599  26.289  1.00  0.00     0.124 S 
ATOM     48  O   UNL A   1      43.033  22.159  27.452  1.00  0.00    -0.237 OA
ATOM     49  O   UNL A   1      40.816  22.505  26.408  1.00  0.00    -0.237 OA
ATOM     50  O   UNL A   1      42.814  22.188  24.998  1.00  0.00    -0.744 OA
ENDBRANCH  43  47
ENDBRANCH  26  40
BRANCH  27  51
ATOM     51  C   UNL A   1      39.211  32.105  35.427  1.00  0.00     0.023 A 
ATOM     52  C   UNL A   1      39.639  33.427  35.618  1.00  0.00     0.031 A 
ATOM     53  C   UNL A   1      38.358  31.549  36.402  1.00  0.00     0.131 A 
ATOM     54  C   UNL A   1      39.258  34.128  36.774  1.00  0.00     0.055 A 
ATOM     55  C   UNL A   1      37.930  32.272  37.517  1.00  0.00     0.041 A 
ATOM     56  F   UNL A   1      37.923  30.284  36.287  1.00  0.00    -0.206 F 
ATOM     57  C   UNL A   1      38.394  33.565  37.717  1.00  0.00     0.022 A 
BRANCH  54  58
ATOM     58  S   UNL A   1      40.001  35.753  37.089  1.00  0.00     0.124 S 
ATOM     59  O   UNL A   1      39.660  36.476  35.869  1.00  0.00    -0.237 OA
ATOM     60  O   UNL A   1      39.306  36.174  38.301  1.00  0.00    -0.237 OA
ATOM     61  O   UNL A   1      41.420  35.450  37.259  1.00  0.00    -0.744 OA
ENDBRANCH  54  58
ENDBRANCH  27  51
BRANCH  39  62
ATOM     62  C   UNL A   1      44.447  27.583  34.452  1.00  0.00     0.023 A 
ATOM     63  C   UNL A   1      44.322  26.432  35.245  1.00  0.00     0.031 A 
ATOM     64  C   UNL A   1      45.640  28.322  34.523  1.00  0.00     0.131 A 
ATOM     65  C   UNL A   1      45.353  26.085  36.126  1.00  0.00     0.055 A 
ATOM     66  C   UNL A   1      46.692  27.930  35.348  1.00  0.00     0.041 A 
ATOM     67  F   UNL A   1      45.804  29.431  33.784  1.00  0.00    -0.206 F 
ATOM     68  C   UNL A   1      46.546  26.814  36.167  1.00  0.00     0.022 A 
BRANCH  65  69
ATOM     69  S   UNL A   1      45.071  24.730  37.295  1.00  0.00     0.124 S 
ATOM     70  O   UNL A   1      44.099  25.320  38.212  1.00  0.00    -0.237 OA
ATOM     71  O   UNL A   1      44.566  23.670  36.428  1.00  0.00    -0.237 OA
ATOM     72  O   UNL A   1      46.395  24.488  37.864  1.00  0.00    -0.744 OA
ENDBRANCH  65  69
ENDBRANCH  39  62
ENDBRANCH  13  14
ENDBRANCH   6   8
ENDBRANCH   5   6
ENDBRANCH   4   5
ENDBRANCH   3   4
ENDBRANCH   2   3
ENDBRANCH   1   2
BRANCH   1  73
ATOM     73  C   UNL A   1      33.155  28.130  21.933  1.00  0.00     0.261 C 
BRANCH  73  74
ATOM     74  O   UNL A   1      33.940  26.926  22.000  1.00  0.00    -0.463 OA
BRANCH  74  75
ATOM     75  C   UNL A   1      33.220  25.779  21.942  1.00  0.00     0.309 C 
ATOM     76  O   UNL A   1      32.323  25.545  21.150  1.00  0.00    -0.252 OA
BRANCH  75  77
ATOM     77  C   UNL A   1      33.650  24.778  23.000  1.00  0.00     0.106 C 
BRANCH  77  78
ATOM     78  C   UNL A   1      32.947  24.838  24.390  1.00  0.00     0.044 C 
BRANCH  78  79
ATOM     79  C   UNL A   1      31.437  25.110  24.545  1.00  0.00     0.171 C 
BRANCH  79  80
ATOM     80  O   UNL A   1      30.647  23.955  24.767  1.00  0.00    -0.292 OA
BRANCH  80  81
ATOM     81  C   UNL A   1      30.689  23.475  26.091  1.00  0.00     0.522 C 
ATOM     82  F   UNL A   1      31.946  23.377  26.558  1.00  0.00    -0.144 F 
ATOM     83  F   UNL A   1      29.978  24.305  26.875  1.00  0.00    -0.144 F 
ATOM     84  F   UNL A   1      30.123  22.253  26.130  1.00  0.00    -0.144 F 
ENDBRANCH  80  81
ENDBRANCH  79  80
ENDBRANCH  78  79
ENDBRANCH  77  78
BRANCH  77  85
ATOM     85  C   UNL A   1      33.726  23.352  22.429  1.00  0.00     0.052 C 
BRANCH  85  86
ATOM     86  C   UNL A   1      33.687  22.202  23.420  1.00  0.00    -0.028 A 
ATOM     87  C   UNL A   1      32.526  21.420  23.575  1.00  0.00     0.005 A 
ATOM     88  C   UNL A   1      34.784  21.911  24.248  1.00  0.00     0.044 A 
ATOM     89  C   UNL A   1      32.407  20.507  24.624  1.00  0.00     0.000 A 
ATOM     90  C   UNL A   1      34.673  20.973  25.279  1.00  0.00     0.021 A 
ATOM     91  Cl  UNL A   1      36.321  22.685  24.053  1.00  0.00    -0.084 Cl
ATOM     92  C   UNL A   1      33.473  20.299  25.489  1.00  0.00     0.002 A 
ENDBRANCH  85  86
ENDBRANCH  77  85
ENDBRANCH  75  77
ENDBRANCH  74  75
ENDBRANCH  73  74
ENDBRANCH   1  73
TORSDOF 23
ENDMDL
MODEL 3
REMARK VINA RESULT:     -10.1      1.980      8.004
REMARK SMILES O=C(OCCOCCOC(=O)[C@@H](CCOC(F)(F)F)Cc1ccccc1Cl)c1ccc(-c2c3nc(c(-c4cc(S(=O)(=O)[O-])ccc4F)c4ccc([nH]4)c(-c4cc(S(=O)(=O)[O-])ccc4F)c4nc(c(-c5cc(S(=O)(=O)[O-])ccc5F)c5ccc2[nH]5)C=C4)C=C3)cc1
REMARK SMILES IDX 7 1 6 2 5 3 4 4 3 5 2 6 1 7 28 8 29 9 90 10 30 11 89 12
REMARK SMILES IDX 31 13 32 14 33 15 83 16 34 17 88 18 82 19 84 20 35 21 87 22
REMARK SMILES IDX 81 23 80 24 36 26 68 27 48 28 67 29 49 30 52 31 66 32 85 33
REMARK SMILES IDX 50 34 51 35 65 37 86 38 53 39 37 40 38 41 46 42 39 43 45 44
REMARK SMILES IDX 47 45 44 46 40 47 41 48 42 49 43 50 69 51 70 52 78 53 71 54
REMARK SMILES IDX 77 55 79 56 76 57 72 58 73 59 74 60 75 61 54 62 55 63 63 64
REMARK SMILES IDX 56 65 62 66 64 67 61 68 57 69 58 70 59 71 60 72 8 73 9 74
REMARK SMILES IDX 10 75 11 76 12 77 13 78 14 79 15 80 16 81 17 82 18 83 19 84
REMARK SMILES IDX 20 85 21 86 22 87 26 88 23 89 25 90 27 91 24 92
REMARK H PARENT 84 25 52 36
REMARK Flexibility Score: inf
ROOT
ATOM      1  C   UNL A   1      31.372  28.708  24.751  1.00  0.00     0.202 C 
ENDROOT
BRANCH   1   2
ATOM      2  O   UNL A   1      31.423  28.477  26.157  1.00  0.00    -0.374 OA
BRANCH   2   3
ATOM      3  C   UNL A   1      32.167  29.368  26.985  1.00  0.00     0.202 C 
BRANCH   3   4
ATOM      4  C   UNL A   1      32.637  30.663  26.319  1.00  0.00     0.261 C 
BRANCH   4   5
ATOM      5  O   UNL A   1      32.560  31.753  27.249  1.00  0.00    -0.460 OA
BRANCH   5   6
ATOM      6  C   UNL A   1      33.589  32.539  27.652  1.00  0.00     0.338 C 
ATOM      7  O   UNL A   1      33.478  33.759  27.550  1.00  0.00    -0.246 OA
BRANCH   6   8
ATOM      8  C   UNL A   1      34.854  31.990  28.225  1.00  0.00     0.060 A 
ATOM      9  C   UNL A   1      34.988  30.704  28.747  1.00  0.00     0.016 A 
ATOM     10  C   UNL A   1      36.002  32.792  28.163  1.00  0.00     0.016 A 
ATOM     11  C   UNL A   1      36.182  30.212  29.203  1.00  0.00     0.010 A 
ATOM     12  C   UNL A   1      37.231  32.305  28.618  1.00  0.00     0.010 A 
ATOM     13  C   UNL A   1      37.309  31.008  29.134  1.00  0.00    -0.014 A 
BRANCH  13  14
ATOM     14  C   UNL A   1      38.488  30.451  29.796  1.00  0.00     0.031 A 
ATOM     15  C   UNL A   1      38.711  30.836  31.220  1.00  0.00     0.074 A 
ATOM     16  C   UNL A   1      39.142  29.438  29.200  1.00  0.00     0.049 A 
ATOM     17  N   UNL A   1      39.688  30.519  32.016  1.00  0.00    -0.248 NA
ATOM     18  C   UNL A   1      37.672  31.681  31.837  1.00  0.00     0.031 C 
ATOM     19  C   UNL A   1      38.792  28.861  27.895  1.00  0.00     0.029 A 
ATOM     20  N   UNL A   1      40.189  28.677  29.628  1.00  0.00    -0.354 N 
ATOM     21  C   UNL A   1      39.408  31.159  33.217  1.00  0.00     0.074 A 
ATOM     22  C   UNL A   1      38.167  31.878  33.046  1.00  0.00     0.031 C 
ATOM     23  C   UNL A   1      39.607  27.826  27.641  1.00  0.00     0.029 A 
ATOM     24  C   UNL A   1      40.593  27.738  28.708  1.00  0.00     0.049 A 
ATOM     25  H   UNL A   1      40.615  28.789  30.509  1.00  0.00     0.167 HD
ATOM     26  C   UNL A   1      40.154  31.145  34.345  1.00  0.00     0.034 A 
ATOM     27  C   UNL A   1      41.683  26.949  28.720  1.00  0.00     0.034 A 
ATOM     28  C   UNL A   1      41.390  30.413  34.427  1.00  0.00     0.049 A 
ATOM     29  C   UNL A   1      42.589  27.080  29.919  1.00  0.00     0.074 A 
ATOM     30  C   UNL A   1      42.328  30.394  35.440  1.00  0.00     0.029 A 
ATOM     31  N   UNL A   1      41.860  29.559  33.428  1.00  0.00    -0.354 N 
ATOM     32  N   UNL A   1      42.418  27.803  31.006  1.00  0.00    -0.248 NA
ATOM     33  C   UNL A   1      43.834  26.310  29.893  1.00  0.00     0.031 C 
ATOM     34  C   UNL A   1      43.393  29.585  35.023  1.00  0.00     0.029 A 
ATOM     35  C   UNL A   1      43.083  29.029  33.789  1.00  0.00     0.049 A 
ATOM     36  H   UNL A   1      41.386  29.363  32.588  1.00  0.00     0.167 HD
ATOM     37  C   UNL A   1      43.526  27.561  31.805  1.00  0.00     0.074 A 
ATOM     38  C   UNL A   1      44.345  26.603  31.080  1.00  0.00     0.031 C 
ATOM     39  C   UNL A   1      43.853  28.076  33.020  1.00  0.00     0.034 A 
BRANCH  26  40
ATOM     40  C   UNL A   1      39.703  32.047  35.465  1.00  0.00     0.023 A 
ATOM     41  C   UNL A   1      39.011  31.557  36.588  1.00  0.00     0.031 A 
ATOM     42  C   UNL A   1      39.851  33.439  35.340  1.00  0.00     0.131 A 
ATOM     43  C   UNL A   1      38.416  32.456  37.488  1.00  0.00     0.055 A 
ATOM     44  C   UNL A   1      39.333  34.324  36.287  1.00  0.00     0.041 A 
ATOM     45  F   UNL A   1      40.463  33.968  34.269  1.00  0.00    -0.206 F 
ATOM     46  C   UNL A   1      38.594  33.835  37.359  1.00  0.00     0.022 A 
BRANCH  43  47
ATOM     47  S   UNL A   1      37.252  31.807  38.722  1.00  0.00     0.124 S 
ATOM     48  O   UNL A   1      37.025  30.451  38.228  1.00  0.00    -0.237 OA
ATOM     49  O   UNL A   1      38.013  31.915  39.962  1.00  0.00    -0.237 OA
ATOM     50  O   UNL A   1      36.103  32.703  38.615  1.00  0.00    -0.744 OA
ENDBRANCH  43  47
ENDBRANCH  26  40
BRANCH  27  51
ATOM     51  C   UNL A   1      42.029  26.088  27.551  1.00  0.00     0.023 A 
ATOM     52  C   UNL A   1      41.655  24.737  27.500  1.00  0.00     0.031 A 
ATOM     53  C   UNL A   1      42.800  26.592  26.483  1.00  0.00     0.131 A 
ATOM     54  C   UNL A   1      42.092  23.928  26.438  1.00  0.00     0.055 A 
ATOM     55  C   UNL A   1      43.177  25.799  25.398  1.00  0.00     0.041 A 
ATOM     56  F   UNL A   1      43.202  27.873  26.476  1.00  0.00    -0.206 F 
ATOM     57  C   UNL A   1      42.837  24.453  25.379  1.00  0.00     0.022 A 
BRANCH  54  58
ATOM     58  S   UNL A   1      41.769  22.144  26.516  1.00  0.00     0.124 S 
ATOM     59  O   UNL A   1      40.317  22.100  26.391  1.00  0.00    -0.237 OA
ATOM     60  O   UNL A   1      42.528  21.649  25.371  1.00  0.00    -0.237 OA
ATOM     61  O   UNL A   1      42.296  21.760  27.824  1.00  0.00    -0.744 OA
ENDBRANCH  54  58
ENDBRANCH  27  51
BRANCH  39  62
ATOM     62  C   UNL A   1      45.122  27.559  33.640  1.00  0.00     0.023 A 
ATOM     63  C   UNL A   1      45.132  26.414  34.452  1.00  0.00     0.031 A 
ATOM     64  C   UNL A   1      46.336  28.229  33.409  1.00  0.00     0.131 A 
ATOM     65  C   UNL A   1      46.326  26.007  35.058  1.00  0.00     0.055 A 
ATOM     66  C   UNL A   1      47.534  27.775  33.956  1.00  0.00     0.041 A 
ATOM     67  F   UNL A   1      46.375  29.330  32.641  1.00  0.00    -0.206 F 
ATOM     68  C   UNL A   1      47.531  26.667  34.798  1.00  0.00     0.022 A 
BRANCH  65  69
ATOM     69  S   UNL A   1      46.264  24.666  36.274  1.00  0.00     0.124 S 
ATOM     70  O   UNL A   1      45.524  23.637  35.550  1.00  0.00    -0.237 OA
ATOM     71  O   UNL A   1      47.678  24.390  36.507  1.00  0.00    -0.237 OA
ATOM     72  O   UNL A   1      45.554  25.262  37.404  1.00  0.00    -0.744 OA
ENDBRANCH  65  69
ENDBRANCH  39  62
ENDBRANCH  13  14
ENDBRANCH   6   8
ENDBRANCH   5   6
ENDBRANCH   4   5
ENDBRANCH   3   4
ENDBRANCH   2   3
ENDBRANCH   1   2
BRANCH   1  73
ATOM     73  C   UNL A   1      31.364  27.366  24.006  1.00  0.00     0.261 C 
BRANCH  73  74
ATOM     74  O   UNL A   1      32.042  26.372  24.794  1.00  0.00    -0.463 OA
BRANCH  74  75
ATOM     75  C   UNL A   1      33.332  26.153  24.439  1.00  0.00     0.309 C 
ATOM     76  O   UNL A   1      34.082  26.982  23.951  1.00  0.00    -0.252 OA
BRANCH  75  77
ATOM     77  C   UNL A   1      33.768  24.725  24.712  1.00  0.00     0.106 C 
BRANCH  77  78
ATOM     78  C   UNL A   1      34.984  24.502  25.662  1.00  0.00     0.044 C 
BRANCH  78  79
ATOM     79  C   UNL A   1      36.289  23.825  25.195  1.00  0.00     0.171 C 
BRANCH  79  80
ATOM     80  O   UNL A   1      36.530  22.550  25.763  1.00  0.00    -0.292 OA
BRANCH  80  81
ATOM     81  C   UNL A   1      36.524  21.493  24.830  1.00  0.00     0.522 C 
ATOM     82  F   UNL A   1      36.125  20.332  25.377  1.00  0.00    -0.144 F 
ATOM     83  F   UNL A   1      35.709  21.820  23.812  1.00  0.00    -0.144 F 
ATOM     84  F   UNL A   1      37.772  21.330  24.349  1.00  0.00    -0.144 F 
ENDBRANCH  80  81
ENDBRANCH  79  80
ENDBRANCH  78  79
ENDBRANCH  77  78
BRANCH  77  85
ATOM     85  C   UNL A   1      32.569  23.825  25.053  1.00  0.00     0.052 C 
BRANCH  85  86
ATOM     86  C   UNL A   1      32.682  22.352  24.701  1.00  0.00    -0.028 A 
ATOM     87  C   UNL A   1      32.446  21.904  23.387  1.00  0.00     0.005 A 
ATOM     88  C   UNL A   1      32.974  21.385  25.678  1.00  0.00     0.044 A 
ATOM     89  C   UNL A   1      32.337  20.542  23.099  1.00  0.00     0.000 A 
ATOM     90  C   UNL A   1      32.895  20.021  25.379  1.00  0.00     0.021 A 
ATOM     91  Cl  UNL A   1      33.440  21.811  27.290  1.00  0.00    -0.084 Cl
ATOM     92  C   UNL A   1      32.541  19.601  24.100  1.00  0.00     0.002 A 
ENDBRANCH  85  86
ENDBRANCH  77  85
ENDBRANCH  75  77
ENDBRANCH  74  75
ENDBRANCH  73  74
ENDBRANCH   1  73
TORSDOF 23
ENDMDL
