MODEL 1
REMARK VINA RESULT:     -11.7      0.000      0.000
REMARK SMILES CC(C)Cc1cc2c(cc1Cl)C=C(C(=O)OCCOCCOC(=O)c1ccc(-c3c4nc(c(-c5cc(S(=O)(=O)[O-])ccc5F)c5ccc([nH]5)c(-c5cc(S(=O)(=O)[O-])ccc5F)c5nc(c(-c6cc(S(=O)(=O)[O-])ccc6F)c6ccc3[nH]6)C=C5)C=C4)cc1)[C@H](C(F)(F)F)O2
REMARK SMILES IDX 20 1 19 2 18 3 17 4 16 5 14 6 15 7 13 8 5 9 6 10 10 11 7 12
REMARK SMILES IDX 9 13 11 14 8 15 93 16 12 17 88 18 4 19 2 20 1 21 3 22 89 23
REMARK SMILES IDX 90 24 91 25 92 26 21 27 22 28 23 29 24 30 25 31 26 32 87 33
REMARK SMILES IDX 27 34 86 35 28 36 29 37 30 38 80 39 31 40 85 41 79 42 81 43
REMARK SMILES IDX 32 44 84 45 78 46 77 47 33 49 65 50 45 51 64 52 46 53 49 54
REMARK SMILES IDX 63 55 82 56 47 57 48 58 62 60 83 61 50 62 34 63 35 64 43 65
REMARK SMILES IDX 36 66 42 67 44 68 41 69 37 70 38 71 39 72 40 73 66 74 67 75
REMARK SMILES IDX 75 76 68 77 74 78 76 79 73 80 69 81 70 82 71 83 72 84 51 85
REMARK SMILES IDX 52 86 60 87 53 88 59 89 61 90 58 91 54 92 55 93 56 94 57 95
REMARK H PARENT 81 48 49 59
REMARK Flexibility Score: inf
ROOT
ATOM      1  C   UNL A   1      32.706  28.756  25.073  1.00  0.00     0.202 C 
ENDROOT
BRANCH   1   2
ATOM      2  O   UNL A   1      32.793  28.538  23.662  1.00  0.00    -0.374 OA
BRANCH   2   3
ATOM      3  C   UNL A   1      31.558  28.326  22.972  1.00  0.00     0.202 C 
BRANCH   3   4
ATOM      4  C   UNL A   1      31.471  27.020  22.178  1.00  0.00     0.261 C 
BRANCH   4   5
ATOM      5  O   UNL A   1      32.044  25.941  22.937  1.00  0.00    -0.460 OA
BRANCH   5   6
ATOM      6  C   UNL A   1      31.155  25.222  23.648  1.00  0.00     0.338 C 
ATOM      7  O   UNL A   1      29.978  25.503  23.820  1.00  0.00    -0.246 OA
BRANCH   6   8
ATOM      8  C   UNL A   1      31.757  23.956  24.117  1.00  0.00     0.087 C 
ATOM      9  C   UNL A   1      32.692  19.027  24.446  1.00  0.00    -0.025 A 
ATOM     10  C   UNL A   1      32.670  20.090  25.374  1.00  0.00     0.052 A 
ATOM     11  C   UNL A   1      32.392  19.304  23.102  1.00  0.00     0.045 A 
ATOM     12  C   UNL A   1      32.374  21.392  24.967  1.00  0.00     0.128 A 
ATOM     13  C   UNL A   1      32.137  20.610  22.689  1.00  0.00     0.032 A 
ATOM     14  Cl  UNL A   1      32.251  18.066  21.903  1.00  0.00    -0.084 Cl
ATOM     15  C   UNL A   1      32.125  21.649  23.622  1.00  0.00     0.019 A 
ATOM     16  O   UNL A   1      32.261  22.348  25.943  1.00  0.00    -0.475 OA
ATOM     17  C   UNL A   1      31.729  22.976  23.205  1.00  0.00     0.027 C 
ATOM     18  C   UNL A   1      32.259  23.755  25.526  1.00  0.00     0.316 C 
BRANCH   9  19
ATOM     19  C   UNL A   1      33.023  17.632  24.931  1.00  0.00     0.040 C 
BRANCH  19  20
ATOM     20  C   UNL A   1      34.405  17.117  24.476  1.00  0.00    -0.013 C 
ATOM     21  C   UNL A   1      35.497  18.179  24.625  1.00  0.00     0.008 C 
ATOM     22  C   UNL A   1      34.778  15.862  25.267  1.00  0.00     0.008 C 
ENDBRANCH  19  20
ENDBRANCH   9  19
BRANCH  18  23
ATOM     23  C   UNL A   1      33.657  24.336  25.834  1.00  0.00     0.430 C 
ATOM     24  F   UNL A   1      33.657  25.670  26.031  1.00  0.00    -0.167 F 
ATOM     25  F   UNL A   1      34.166  23.780  26.962  1.00  0.00    -0.167 F 
ATOM     26  F   UNL A   1      34.537  24.087  24.834  1.00  0.00    -0.167 F 
ENDBRANCH  18  23
ENDBRANCH   6   8
ENDBRANCH   5   6
ENDBRANCH   4   5
ENDBRANCH   3   4
ENDBRANCH   2   3
ENDBRANCH   1   2
BRANCH   1  27
ATOM     27  C   UNL A   1      31.972  30.025  25.526  1.00  0.00     0.261 C 
BRANCH  27  28
ATOM     28  O   UNL A   1      32.219  30.315  26.911  1.00  0.00    -0.460 OA
BRANCH  28  29
ATOM     29  C   UNL A   1      32.871  31.479  27.155  1.00  0.00     0.338 C 
ATOM     30  O   UNL A   1      32.401  32.604  27.086  1.00  0.00    -0.246 OA
BRANCH  29  31
ATOM     31  C   UNL A   1      34.200  31.186  27.741  1.00  0.00     0.060 A 
ATOM     32  C   UNL A   1      35.141  32.189  27.988  1.00  0.00     0.016 A 
ATOM     33  C   UNL A   1      34.505  29.850  28.033  1.00  0.00     0.016 A 
ATOM     34  C   UNL A   1      36.376  31.850  28.553  1.00  0.00     0.010 A 
ATOM     35  C   UNL A   1      35.733  29.517  28.610  1.00  0.00     0.010 A 
ATOM     36  C   UNL A   1      36.674  30.516  28.891  1.00  0.00    -0.014 A 
BRANCH  36  37
ATOM     37  C   UNL A   1      37.909  30.199  29.657  1.00  0.00     0.031 A 
ATOM     38  C   UNL A   1      38.168  30.776  31.019  1.00  0.00     0.074 A 
ATOM     39  C   UNL A   1      38.820  29.383  29.092  1.00  0.00     0.049 A 
ATOM     40  N   UNL A   1      39.145  30.508  31.848  1.00  0.00    -0.248 NA
ATOM     41  C   UNL A   1      37.222  31.787  31.512  1.00  0.00     0.031 C 
ATOM     42  C   UNL A   1      38.704  28.817  27.747  1.00  0.00     0.029 A 
ATOM     43  N   UNL A   1      40.007  28.882  29.564  1.00  0.00    -0.354 N 
ATOM     44  C   UNL A   1      38.925  31.298  32.969  1.00  0.00     0.074 A 
ATOM     45  C   UNL A   1      37.753  32.101  32.688  1.00  0.00     0.031 C 
ATOM     46  C   UNL A   1      39.753  28.014  27.520  1.00  0.00     0.029 A 
ATOM     47  C   UNL A   1      40.636  28.032  28.684  1.00  0.00     0.049 A 
ATOM     48  H   UNL A   1      40.374  29.109  30.450  1.00  0.00     0.167 HD
ATOM     49  C   UNL A   1      39.623  31.329  34.130  1.00  0.00     0.034 A 
ATOM     50  C   UNL A   1      41.786  27.334  28.797  1.00  0.00     0.034 A 
ATOM     51  C   UNL A   1      40.800  30.531  34.384  1.00  0.00     0.049 A 
ATOM     52  C   UNL A   1      42.547  27.388  30.098  1.00  0.00     0.074 A 
ATOM     53  C   UNL A   1      41.548  30.461  35.546  1.00  0.00     0.029 A 
ATOM     54  N   UNL A   1      41.404  29.675  33.472  1.00  0.00    -0.354 N 
ATOM     55  N   UNL A   1      42.259  28.048  31.195  1.00  0.00    -0.248 NA
ATOM     56  C   UNL A   1      43.773  26.583  30.191  1.00  0.00     0.031 C 
ATOM     57  C   UNL A   1      42.645  29.631  35.313  1.00  0.00     0.029 A 
ATOM     58  C   UNL A   1      42.530  29.097  34.040  1.00  0.00     0.049 A 
ATOM     59  H   UNL A   1      41.082  29.504  32.558  1.00  0.00     0.167 HD
ATOM     60  C   UNL A   1      43.242  27.704  32.120  1.00  0.00     0.074 A 
ATOM     61  C   UNL A   1      44.121  26.764  31.459  1.00  0.00     0.031 C 
ATOM     62  C   UNL A   1      43.394  28.132  33.399  1.00  0.00     0.034 A 
BRANCH  49  63
ATOM     63  C   UNL A   1      39.139  32.221  35.251  1.00  0.00     0.023 A 
ATOM     64  C   UNL A   1      39.603  33.547  35.352  1.00  0.00     0.031 A 
ATOM     65  C   UNL A   1      38.361  31.709  36.305  1.00  0.00     0.131 A 
ATOM     66  C   UNL A   1      39.325  34.297  36.502  1.00  0.00     0.055 A 
ATOM     67  C   UNL A   1      38.045  32.478  37.426  1.00  0.00     0.041 A 
ATOM     68  F   UNL A   1      37.901  30.447  36.263  1.00  0.00    -0.206 F 
ATOM     69  C   UNL A   1      38.541  33.773  37.535  1.00  0.00     0.022 A 
BRANCH  66  70
ATOM     70  S   UNL A   1      40.038  35.948  36.743  1.00  0.00     0.124 S 
ATOM     71  O   UNL A   1      39.349  36.398  37.951  1.00  0.00    -0.237 OA
ATOM     72  O   UNL A   1      41.456  35.645  36.912  1.00  0.00    -0.237 OA
ATOM     73  O   UNL A   1      39.685  36.664  35.523  1.00  0.00    -0.744 OA
ENDBRANCH  66  70
ENDBRANCH  49  63
BRANCH  50  74
ATOM     74  C   UNL A   1      42.217  26.458  27.667  1.00  0.00     0.023 A 
ATOM     75  C   UNL A   1      41.772  25.128  27.574  1.00  0.00     0.031 A 
ATOM     76  C   UNL A   1      43.163  26.905  26.728  1.00  0.00     0.131 A 
ATOM     77  C   UNL A   1      42.323  24.274  26.611  1.00  0.00     0.055 A 
ATOM     78  C   UNL A   1      43.650  26.072  25.720  1.00  0.00     0.041 A 
ATOM     79  F   UNL A   1      43.634  28.161  26.786  1.00  0.00    -0.206 F 
ATOM     80  C   UNL A   1      43.244  24.742  25.669  1.00  0.00     0.022 A 
BRANCH  77  81
ATOM     81  S   UNL A   1      41.970  22.495  26.636  1.00  0.00     0.124 S 
ATOM     82  O   UNL A   1      42.530  22.054  25.362  1.00  0.00    -0.237 OA
ATOM     83  O   UNL A   1      42.697  22.064  27.828  1.00  0.00    -0.237 OA
ATOM     84  O   UNL A   1      40.516  22.433  26.741  1.00  0.00    -0.744 OA
ENDBRANCH  77  81
ENDBRANCH  50  74
BRANCH  62  85
ATOM     85  C   UNL A   1      44.529  27.575  34.231  1.00  0.00     0.023 A 
ATOM     86  C   UNL A   1      44.292  26.481  35.087  1.00  0.00     0.031 A 
ATOM     87  C   UNL A   1      45.781  28.211  34.305  1.00  0.00     0.131 A 
ATOM     88  C   UNL A   1      45.268  26.089  36.013  1.00  0.00     0.055 A 
ATOM     89  C   UNL A   1      46.773  27.778  35.187  1.00  0.00     0.041 A 
ATOM     90  F   UNL A   1      46.056  29.269  33.526  1.00  0.00    -0.206 F 
ATOM     91  C   UNL A   1      46.512  26.724  36.058  1.00  0.00     0.022 A 
BRANCH  88  92
ATOM     92  S   UNL A   1      44.918  24.819  37.260  1.00  0.00     0.124 S 
ATOM     93  O   UNL A   1      45.033  23.589  36.479  1.00  0.00    -0.237 OA
ATOM     94  O   UNL A   1      45.986  25.041  38.232  1.00  0.00    -0.237 OA
ATOM     95  O   UNL A   1      43.572  25.138  37.722  1.00  0.00    -0.744 OA
ENDBRANCH  88  92
ENDBRANCH  62  85
ENDBRANCH  36  37
ENDBRANCH  29  31
ENDBRANCH  28  29
ENDBRANCH  27  28
ENDBRANCH   1  27
TORSDOF 20
ENDMDL
MODEL 2
REMARK VINA RESULT:     -11.4      4.554     10.081
REMARK SMILES CC(C)Cc1cc2c(cc1Cl)C=C(C(=O)OCCOCCOC(=O)c1ccc(-c3c4nc(c(-c5cc(S(=O)(=O)[O-])ccc5F)c5ccc([nH]5)c(-c5cc(S(=O)(=O)[O-])ccc5F)c5nc(c(-c6cc(S(=O)(=O)[O-])ccc6F)c6ccc3[nH]6)C=C5)C=C4)cc1)[C@H](C(F)(F)F)O2
REMARK SMILES IDX 20 1 19 2 18 3 17 4 16 5 14 6 15 7 13 8 5 9 6 10 10 11 7 12
REMARK SMILES IDX 9 13 11 14 8 15 93 16 12 17 88 18 4 19 2 20 1 21 3 22 89 23
REMARK SMILES IDX 90 24 91 25 92 26 21 27 22 28 23 29 24 30 25 31 26 32 87 33
REMARK SMILES IDX 27 34 86 35 28 36 29 37 30 38 80 39 31 40 85 41 79 42 81 43
REMARK SMILES IDX 32 44 84 45 78 46 77 47 33 49 65 50 45 51 64 52 46 53 49 54
REMARK SMILES IDX 63 55 82 56 47 57 48 58 62 60 83 61 50 62 34 63 35 64 43 65
REMARK SMILES IDX 36 66 42 67 44 68 41 69 37 70 38 71 39 72 40 73 66 74 67 75
REMARK SMILES IDX 75 76 68 77 74 78 76 79 73 80 69 81 70 82 71 83 72 84 51 85
REMARK SMILES IDX 52 86 60 87 53 88 59 89 61 90 58 91 54 92 55 93 56 94 57 95
REMARK H PARENT 81 48 49 59
REMARK Flexibility Score: inf
ROOT
ATOM      1  C   UNL A   1      36.299  20.375  24.901  1.00  0.00     0.202 C 
ENDROOT
BRANCH   1   2
ATOM      2  O   UNL A   1      34.878  20.217  24.871  1.00  0.00    -0.374 OA
BRANCH   2   3
ATOM      3  C   UNL A   1      34.099  21.404  25.040  1.00  0.00     0.202 C 
BRANCH   3   4
ATOM      4  C   UNL A   1      33.195  21.766  23.859  1.00  0.00     0.261 C 
BRANCH   4   5
ATOM      5  O   UNL A   1      32.604  23.061  24.067  1.00  0.00    -0.460 OA
BRANCH   5   6
ATOM      6  C   UNL A   1      32.934  23.982  23.143  1.00  0.00     0.338 C 
ATOM      7  O   UNL A   1      33.451  23.758  22.058  1.00  0.00    -0.246 OA
BRANCH   6   8
ATOM      8  C   UNL A   1      32.483  25.327  23.556  1.00  0.00     0.087 C 
ATOM      9  C   UNL A   1      29.711  29.519  23.715  1.00  0.00    -0.025 A 
ATOM     10  C   UNL A   1      31.082  29.237  23.898  1.00  0.00     0.052 A 
ATOM     11  C   UNL A   1      28.842  28.459  23.409  1.00  0.00     0.045 A 
ATOM     12  C   UNL A   1      31.565  27.931  23.794  1.00  0.00     0.128 A 
ATOM     13  C   UNL A   1      29.319  27.150  23.346  1.00  0.00     0.032 A 
ATOM     14  Cl  UNL A   1      27.173  28.699  23.026  1.00  0.00    -0.084 Cl
ATOM     15  C   UNL A   1      30.678  26.890  23.535  1.00  0.00     0.019 A 
ATOM     16  O   UNL A   1      32.922  27.753  23.873  1.00  0.00    -0.475 OA
ATOM     17  C   UNL A   1      31.180  25.549  23.337  1.00  0.00     0.027 C 
ATOM     18  C   UNL A   1      33.422  26.389  24.076  1.00  0.00     0.316 C 
BRANCH   9  19
ATOM     19  C   UNL A   1      29.230  30.948  23.842  1.00  0.00     0.040 C 
BRANCH  19  20
ATOM     20  C   UNL A   1      28.581  31.513  22.561  1.00  0.00    -0.013 C 
ATOM     21  C   UNL A   1      28.560  33.043  22.549  1.00  0.00     0.008 C 
ATOM     22  C   UNL A   1      29.318  30.986  21.328  1.00  0.00     0.008 C 
ENDBRANCH  19  20
ENDBRANCH   9  19
BRANCH  18  23
ATOM     23  C   UNL A   1      33.834  26.257  25.559  1.00  0.00     0.430 C 
ATOM     24  F   UNL A   1      32.817  25.913  26.375  1.00  0.00    -0.167 F 
ATOM     25  F   UNL A   1      34.787  25.303  25.706  1.00  0.00    -0.167 F 
ATOM     26  F   UNL A   1      34.350  27.414  26.042  1.00  0.00    -0.167 F 
ENDBRANCH  18  23
ENDBRANCH   6   8
ENDBRANCH   5   6
ENDBRANCH   4   5
ENDBRANCH   3   4
ENDBRANCH   2   3
ENDBRANCH   1   2
BRANCH   1  27
ATOM     27  C   UNL A   1      36.844  21.489  25.805  1.00  0.00     0.261 C 
BRANCH  27  28
ATOM     28  O   UNL A   1      38.104  21.989  25.329  1.00  0.00    -0.460 OA
BRANCH  28  29
ATOM     29  C   UNL A   1      39.175  21.707  26.112  1.00  0.00     0.338 C 
ATOM     30  O   UNL A   1      39.759  20.637  26.188  1.00  0.00    -0.246 OA
BRANCH  29  31
ATOM     31  C   UNL A   1      39.690  22.960  26.714  1.00  0.00     0.060 A 
ATOM     32  C   UNL A   1      40.668  22.959  27.711  1.00  0.00     0.016 A 
ATOM     33  C   UNL A   1      39.150  24.171  26.262  1.00  0.00     0.016 A 
ATOM     34  C   UNL A   1      41.121  24.176  28.232  1.00  0.00     0.010 A 
ATOM     35  C   UNL A   1      39.614  25.386  26.774  1.00  0.00     0.010 A 
ATOM     36  C   UNL A   1      40.616  25.400  27.753  1.00  0.00    -0.014 A 
BRANCH  36  37
ATOM     37  C   UNL A   1      41.237  26.682  28.182  1.00  0.00     0.031 A 
ATOM     38  C   UNL A   1      42.674  27.004  27.893  1.00  0.00     0.074 A 
ATOM     39  C   UNL A   1      40.479  27.562  28.865  1.00  0.00     0.049 A 
ATOM     40  N   UNL A   1      43.322  28.120  28.110  1.00  0.00    -0.248 NA
ATOM     41  C   UNL A   1      43.494  25.940  27.294  1.00  0.00     0.031 C 
ATOM     42  C   UNL A   1      39.089  27.327  29.260  1.00  0.00     0.029 A 
ATOM     43  N   UNL A   1      40.753  28.820  29.340  1.00  0.00    -0.354 N 
ATOM     44  C   UNL A   1      44.618  27.906  27.658  1.00  0.00     0.074 A 
ATOM     45  C   UNL A   1      44.680  26.531  27.209  1.00  0.00     0.031 C 
ATOM     46  C   UNL A   1      38.620  28.420  29.877  1.00  0.00     0.029 A 
ATOM     47  C   UNL A   1      39.681  29.423  29.957  1.00  0.00     0.049 A 
ATOM     48  H   UNL A   1      41.634  29.251  29.247  1.00  0.00     0.167 HD
ATOM     49  C   UNL A   1      45.649  28.785  27.602  1.00  0.00     0.034 A 
ATOM     50  C   UNL A   1      39.554  30.645  30.515  1.00  0.00     0.034 A 
ATOM     51  C   UNL A   1      45.569  30.149  28.070  1.00  0.00     0.049 A 
ATOM     52  C   UNL A   1      40.716  31.604  30.444  1.00  0.00     0.074 A 
ATOM     53  C   UNL A   1      46.546  31.128  28.015  1.00  0.00     0.029 A 
ATOM     54  N   UNL A   1      44.465  30.728  28.683  1.00  0.00    -0.354 N 
ATOM     55  N   UNL A   1      41.899  31.427  29.904  1.00  0.00    -0.248 NA
ATOM     56  C   UNL A   1      40.522  32.937  31.031  1.00  0.00     0.031 C 
ATOM     57  C   UNL A   1      46.067  32.266  28.662  1.00  0.00     0.029 A 
ATOM     58  C   UNL A   1      44.751  32.040  29.032  1.00  0.00     0.049 A 
ATOM     59  H   UNL A   1      43.607  30.275  28.845  1.00  0.00     0.167 HD
ATOM     60  C   UNL A   1      42.573  32.638  30.047  1.00  0.00     0.074 A 
ATOM     61  C   UNL A   1      41.658  33.543  30.708  1.00  0.00     0.031 C 
ATOM     62  C   UNL A   1      43.833  32.961  29.662  1.00  0.00     0.034 A 
BRANCH  49  63
ATOM     63  C   UNL A   1      46.956  28.341  26.987  1.00  0.00     0.023 A 
ATOM     64  C   UNL A   1      47.099  28.288  25.587  1.00  0.00     0.031 A 
ATOM     65  C   UNL A   1      47.992  27.813  27.779  1.00  0.00     0.131 A 
ATOM     66  C   UNL A   1      48.226  27.676  25.024  1.00  0.00     0.055 A 
ATOM     67  C   UNL A   1      49.136  27.250  27.213  1.00  0.00     0.041 A 
ATOM     68  F   UNL A   1      47.903  27.831  29.120  1.00  0.00    -0.206 F 
ATOM     69  C   UNL A   1      49.249  27.165  25.829  1.00  0.00     0.022 A 
BRANCH  66  70
ATOM     70  S   UNL A   1      48.371  27.441  23.231  1.00  0.00     0.124 S 
ATOM     71  O   UNL A   1      47.200  28.165  22.739  1.00  0.00    -0.237 OA
ATOM     72  O   UNL A   1      49.657  28.069  22.944  1.00  0.00    -0.237 OA
ATOM     73  O   UNL A   1      48.322  25.994  23.061  1.00  0.00    -0.744 OA
ENDBRANCH  66  70
ENDBRANCH  49  63
BRANCH  50  74
ATOM     74  C   UNL A   1      38.239  31.042  31.101  1.00  0.00     0.023 A 
ATOM     75  C   UNL A   1      37.235  31.614  30.300  1.00  0.00     0.031 A 
ATOM     76  C   UNL A   1      38.010  30.956  32.484  1.00  0.00     0.131 A 
ATOM     77  C   UNL A   1      36.082  32.140  30.895  1.00  0.00     0.055 A 
ATOM     78  C   UNL A   1      36.824  31.409  33.065  1.00  0.00     0.041 A 
ATOM     79  F   UNL A   1      38.945  30.435  33.295  1.00  0.00    -0.206 F 
ATOM     80  C   UNL A   1      35.860  32.022  32.271  1.00  0.00     0.022 A 
BRANCH  77  81
ATOM     81  S   UNL A   1      34.900  33.117  29.928  1.00  0.00     0.124 S 
ATOM     82  O   UNL A   1      33.987  33.601  30.959  1.00  0.00    -0.237 OA
ATOM     83  O   UNL A   1      35.768  34.127  29.329  1.00  0.00    -0.237 OA
ATOM     84  O   UNL A   1      34.337  32.149  28.992  1.00  0.00    -0.744 OA
ENDBRANCH  77  81
ENDBRANCH  50  74
BRANCH  62  85
ATOM     85  C   UNL A   1      44.332  34.372  29.889  1.00  0.00     0.023 A 
ATOM     86  C   UNL A   1      44.905  34.715  31.130  1.00  0.00     0.031 A 
ATOM     87  C   UNL A   1      44.100  35.403  28.963  1.00  0.00     0.131 A 
ATOM     88  C   UNL A   1      45.178  36.056  31.431  1.00  0.00     0.055 A 
ATOM     89  C   UNL A   1      44.430  36.730  29.244  1.00  0.00     0.041 A 
ATOM     90  F   UNL A   1      43.540  35.138  27.771  1.00  0.00    -0.206 F 
ATOM     91  C   UNL A   1      44.955  37.064  30.489  1.00  0.00     0.022 A 
BRANCH  88  92
ATOM     92  S   UNL A   1      45.726  36.550  33.089  1.00  0.00     0.124 S 
ATOM     93  O   UNL A   1      46.353  37.844  32.825  1.00  0.00    -0.237 OA
ATOM     94  O   UNL A   1      44.465  36.608  33.824  1.00  0.00    -0.237 OA
ATOM     95  O   UNL A   1      46.640  35.487  33.491  1.00  0.00    -0.744 OA
ENDBRANCH  88  92
ENDBRANCH  62  85
ENDBRANCH  36  37
ENDBRANCH  29  31
ENDBRANCH  28  29
ENDBRANCH  27  28
ENDBRANCH   1  27
TORSDOF 20
ENDMDL
MODEL 3
REMARK VINA RESULT:     -11.4      4.897     10.442
REMARK SMILES CC(C)Cc1cc2c(cc1Cl)C=C(C(=O)OCCOCCOC(=O)c1ccc(-c3c4nc(c(-c5cc(S(=O)(=O)[O-])ccc5F)c5ccc([nH]5)c(-c5cc(S(=O)(=O)[O-])ccc5F)c5nc(c(-c6cc(S(=O)(=O)[O-])ccc6F)c6ccc3[nH]6)C=C5)C=C4)cc1)[C@H](C(F)(F)F)O2
REMARK SMILES IDX 20 1 19 2 18 3 17 4 16 5 14 6 15 7 13 8 5 9 6 10 10 11 7 12
REMARK SMILES IDX 9 13 11 14 8 15 93 16 12 17 88 18 4 19 2 20 1 21 3 22 89 23
REMARK SMILES IDX 90 24 91 25 92 26 21 27 22 28 23 29 24 30 25 31 26 32 87 33
REMARK SMILES IDX 27 34 86 35 28 36 29 37 30 38 80 39 31 40 85 41 79 42 81 43
REMARK SMILES IDX 32 44 84 45 78 46 77 47 33 49 65 50 45 51 64 52 46 53 49 54
REMARK SMILES IDX 63 55 82 56 47 57 48 58 62 60 83 61 50 62 34 63 35 64 43 65
REMARK SMILES IDX 36 66 42 67 44 68 41 69 37 70 38 71 39 72 40 73 66 74 67 75
REMARK SMILES IDX 75 76 68 77 74 78 76 79 73 80 69 81 70 82 71 83 72 84 51 85
REMARK SMILES IDX 52 86 60 87 53 88 59 89 61 90 58 91 54 92 55 93 56 94 57 95
REMARK H PARENT 81 48 49 59
REMARK Flexibility Score: inf
ROOT
ATOM      1  C   UNL A   1      36.875  21.125  24.731  1.00  0.00     0.202 C 
ENDROOT
BRANCH   1   2
ATOM      2  O   UNL A   1      35.643  20.908  25.426  1.00  0.00    -0.374 OA
BRANCH   2   3
ATOM      3  C   UNL A   1      34.447  21.287  24.740  1.00  0.00     0.202 C 
BRANCH   3   4
ATOM      4  C   UNL A   1      33.623  22.382  25.423  1.00  0.00     0.261 C 
BRANCH   4   5
ATOM      5  O   UNL A   1      32.744  23.005  24.470  1.00  0.00    -0.460 OA
BRANCH   5   6
ATOM      6  C   UNL A   1      31.645  23.569  25.006  1.00  0.00     0.338 C 
ATOM      7  O   UNL A   1      30.944  23.084  25.882  1.00  0.00    -0.246 OA
BRANCH   6   8
ATOM      8  C   UNL A   1      31.443  24.933  24.476  1.00  0.00     0.087 C 
ATOM      9  C   UNL A   1      29.106  28.892  22.439  1.00  0.00    -0.025 A 
ATOM     10  C   UNL A   1      30.424  28.391  22.385  1.00  0.00     0.052 A 
ATOM     11  C   UNL A   1      28.154  28.196  23.203  1.00  0.00     0.045 A 
ATOM     12  C   UNL A   1      30.783  27.238  23.086  1.00  0.00     0.128 A 
ATOM     13  C   UNL A   1      28.523  27.069  23.935  1.00  0.00     0.032 A 
ATOM     14  Cl  UNL A   1      26.481  28.633  23.233  1.00  0.00    -0.084 Cl
ATOM     15  C   UNL A   1      29.833  26.591  23.873  1.00  0.00     0.019 A 
ATOM     16  O   UNL A   1      32.050  26.751  22.894  1.00  0.00    -0.475 OA
ATOM     17  C   UNL A   1      30.170  25.348  24.530  1.00  0.00     0.027 C 
ATOM     18  C   UNL A   1      32.545  25.742  23.837  1.00  0.00     0.316 C 
BRANCH   9  19
ATOM     19  C   UNL A   1      28.764  30.148  21.668  1.00  0.00     0.040 C 
BRANCH  19  20
ATOM     20  C   UNL A   1      29.133  31.457  22.396  1.00  0.00    -0.013 C 
ATOM     21  C   UNL A   1      28.397  32.668  21.817  1.00  0.00     0.008 C 
ATOM     22  C   UNL A   1      28.836  31.324  23.890  1.00  0.00     0.008 C 
ENDBRANCH  19  20
ENDBRANCH   9  19
BRANCH  18  23
ATOM     23  C   UNL A   1      33.516  26.447  24.810  1.00  0.00     0.430 C 
ATOM     24  F   UNL A   1      34.493  25.643  25.277  1.00  0.00    -0.167 F 
ATOM     25  F   UNL A   1      34.133  27.488  24.197  1.00  0.00    -0.167 F 
ATOM     26  F   UNL A   1      32.869  26.947  25.892  1.00  0.00    -0.167 F 
ENDBRANCH  18  23
ENDBRANCH   6   8
ENDBRANCH   5   6
ENDBRANCH   4   5
ENDBRANCH   3   4
ENDBRANCH   2   3
ENDBRANCH   1   2
BRANCH   1  27
ATOM     27  C   UNL A   1      38.130  20.493  25.348  1.00  0.00     0.261 C 
BRANCH  27  28
ATOM     28  O   UNL A   1      39.173  21.462  25.537  1.00  0.00    -0.460 OA
BRANCH  28  29
ATOM     29  C   UNL A   1      39.933  21.289  26.648  1.00  0.00     0.338 C 
ATOM     30  O   UNL A   1      40.362  20.230  27.078  1.00  0.00    -0.246 OA
BRANCH  29  31
ATOM     31  C   UNL A   1      40.367  22.611  27.159  1.00  0.00     0.060 A 
ATOM     32  C   UNL A   1      41.342  22.742  28.150  1.00  0.00     0.016 A 
ATOM     33  C   UNL A   1      39.751  23.752  26.627  1.00  0.00     0.016 A 
ATOM     34  C   UNL A   1      41.717  24.018  28.584  1.00  0.00     0.010 A 
ATOM     35  C   UNL A   1      40.136  25.026  27.052  1.00  0.00     0.010 A 
ATOM     36  C   UNL A   1      41.135  25.172  28.024  1.00  0.00    -0.014 A 
BRANCH  36  37
ATOM     37  C   UNL A   1      41.672  26.517  28.360  1.00  0.00     0.031 A 
ATOM     38  C   UNL A   1      43.065  26.933  27.983  1.00  0.00     0.074 A 
ATOM     39  C   UNL A   1      40.881  27.370  29.040  1.00  0.00     0.049 A 
ATOM     40  N   UNL A   1      43.632  28.104  28.115  1.00  0.00    -0.248 NA
ATOM     41  C   UNL A   1      43.936  25.906  27.393  1.00  0.00     0.031 C 
ATOM     42  C   UNL A   1      39.534  27.050  29.516  1.00  0.00     0.029 A 
ATOM     43  N   UNL A   1      41.077  28.667  29.441  1.00  0.00    -0.354 N 
ATOM     44  C   UNL A   1      44.918  27.968  27.608  1.00  0.00     0.074 A 
ATOM     45  C   UNL A   1      45.067  26.581  27.221  1.00  0.00     0.031 C 
ATOM     46  C   UNL A   1      39.011  28.133  30.105  1.00  0.00     0.029 A 
ATOM     47  C   UNL A   1      39.992  29.217  30.084  1.00  0.00     0.049 A 
ATOM     48  H   UNL A   1      41.916  29.159  29.284  1.00  0.00     0.167 HD
ATOM     49  C   UNL A   1      45.873  28.920  27.459  1.00  0.00     0.034 A 
ATOM     50  C   UNL A   1      39.795  30.452  30.591  1.00  0.00     0.034 A 
ATOM     51  C   UNL A   1      45.708  30.295  27.866  1.00  0.00     0.049 A 
ATOM     52  C   UNL A   1      40.874  31.492  30.416  1.00  0.00     0.074 A 
ATOM     53  C   UNL A   1      46.601  31.341  27.715  1.00  0.00     0.029 A 
ATOM     54  N   UNL A   1      44.592  30.817  28.507  1.00  0.00    -0.354 N 
ATOM     55  N   UNL A   1      42.040  31.379  29.824  1.00  0.00    -0.248 NA
ATOM     56  C   UNL A   1      40.604  32.834  30.949  1.00  0.00     0.031 C 
ATOM     57  C   UNL A   1      46.065  32.471  28.333  1.00  0.00     0.029 A 
ATOM     58  C   UNL A   1      44.790  32.163  28.780  1.00  0.00     0.049 A 
ATOM     59  H   UNL A   1      43.781  30.309  28.734  1.00  0.00     0.167 HD
ATOM     60  C   UNL A   1      42.622  32.643  29.877  1.00  0.00     0.074 A 
ATOM     61  C   UNL A   1      41.671  33.508  30.541  1.00  0.00     0.031 C 
ATOM     62  C   UNL A   1      43.833  33.042  29.413  1.00  0.00     0.034 A 
BRANCH  49  63
ATOM     63  C   UNL A   1      47.180  28.546  26.799  1.00  0.00     0.023 A 
ATOM     64  C   UNL A   1      47.250  28.393  25.400  1.00  0.00     0.031 A 
ATOM     65  C   UNL A   1      48.303  28.179  27.562  1.00  0.00     0.131 A 
ATOM     66  C   UNL A   1      48.397  27.842  24.816  1.00  0.00     0.055 A 
ATOM     67  C   UNL A   1      49.463  27.677  26.970  1.00  0.00     0.041 A 
ATOM     68  F   UNL A   1      48.287  28.297  28.900  1.00  0.00    -0.206 F 
ATOM     69  C   UNL A   1      49.506  27.491  25.592  1.00  0.00     0.022 A 
BRANCH  66  70
ATOM     70  S   UNL A   1      48.465  27.477  23.040  1.00  0.00     0.124 S 
ATOM     71  O   UNL A   1      47.314  28.225  22.537  1.00  0.00    -0.237 OA
ATOM     72  O   UNL A   1      49.769  28.015  22.667  1.00  0.00    -0.237 OA
ATOM     73  O   UNL A   1      48.338  26.025  22.975  1.00  0.00    -0.744 OA
ENDBRANCH  66  70
ENDBRANCH  49  63
BRANCH  50  74
ATOM     74  C   UNL A   1      38.483  30.776  31.224  1.00  0.00     0.023 A 
ATOM     75  C   UNL A   1      37.445  31.359  30.475  1.00  0.00     0.031 A 
ATOM     76  C   UNL A   1      38.287  30.609  32.605  1.00  0.00     0.131 A 
ATOM     77  C   UNL A   1      36.290  31.816  31.122  1.00  0.00     0.055 A 
ATOM     78  C   UNL A   1      37.101  30.994  33.233  1.00  0.00     0.041 A 
ATOM     79  F   UNL A   1      39.255  30.076  33.367  1.00  0.00    -0.206 F 
ATOM     80  C   UNL A   1      36.102  31.618  32.494  1.00  0.00     0.022 A 
BRANCH  77  81
ATOM     81  S   UNL A   1      35.057  32.806  30.233  1.00  0.00     0.124 S 
ATOM     82  O   UNL A   1      34.653  31.900  29.163  1.00  0.00    -0.237 OA
ATOM     83  O   UNL A   1      34.059  33.040  31.273  1.00  0.00    -0.237 OA
ATOM     84  O   UNL A   1      35.803  33.987  29.812  1.00  0.00    -0.744 OA
ENDBRANCH  77  81
ENDBRANCH  50  74
BRANCH  62  85
ATOM     85  C   UNL A   1      44.230  34.497  29.549  1.00  0.00     0.023 A 
ATOM     86  C   UNL A   1      43.734  35.442  28.628  1.00  0.00     0.031 A 
ATOM     87  C   UNL A   1      45.208  34.920  30.466  1.00  0.00     0.131 A 
ATOM     88  C   UNL A   1      44.251  36.744  28.611  1.00  0.00     0.055 A 
ATOM     89  C   UNL A   1      45.677  36.235  30.484  1.00  0.00     0.041 A 
ATOM     90  F   UNL A   1      45.730  34.059  31.354  1.00  0.00    -0.206 F 
ATOM     91  C   UNL A   1      45.211  37.149  29.543  1.00  0.00     0.022 A 
BRANCH  88  92
ATOM     92  S   UNL A   1      43.780  37.921  27.313  1.00  0.00     0.124 S 
ATOM     93  O   UNL A   1      45.072  38.235  26.707  1.00  0.00    -0.237 OA
ATOM     94  O   UNL A   1      42.883  37.119  26.484  1.00  0.00    -0.237 OA
ATOM     95  O   UNL A   1      43.151  39.017  28.041  1.00  0.00    -0.744 OA
ENDBRANCH  88  92
ENDBRANCH  62  85
ENDBRANCH  36  37
ENDBRANCH  29  31
ENDBRANCH  28  29
ENDBRANCH  27  28
ENDBRANCH   1  27
TORSDOF 20
ENDMDL
