MODEL 1
REMARK VINA RESULT:     -11.6      0.000      0.000
REMARK SMILES Cc1c(Cl)cc2c(c1C)O[C@H](C(F)(F)F)C(C(=O)OCCOCCOC(=O)c1ccc(-c3c4nc(c(-c5cc(S(=O)(=O)[O-])ccc5F)c5ccc([nH]5)c(-c5cc(S(=O)(=O)[O-])ccc5F)c5nc(c(-c6cc(S(=O)(=O)[O-])ccc6F)c6ccc3[nH]6)C=C5)C=C4)cc1)=C2
REMARK SMILES IDX 23 1 22 2 21 3 20 4 19 5 17 6 18 7 16 8 1 9 2 10 3 11 8 12
REMARK SMILES IDX 4 13 5 14 7 15 9 16 6 17 10 18 91 19 11 20 12 21 13 22 14 23
REMARK SMILES IDX 15 24 24 25 25 26 26 27 27 28 28 29 29 30 90 31 30 32 89 33
REMARK SMILES IDX 31 34 32 35 33 36 83 37 34 38 88 39 82 40 84 41 35 42 87 43
REMARK SMILES IDX 81 44 80 45 36 47 68 48 48 49 67 50 49 51 52 52 66 53 85 54
REMARK SMILES IDX 50 55 51 56 65 58 86 59 53 60 37 61 38 62 46 63 39 64 45 65
REMARK SMILES IDX 47 66 44 67 40 68 41 69 42 70 43 71 69 72 70 73 78 74 71 75
REMARK SMILES IDX 77 76 79 77 76 78 72 79 73 80 74 81 75 82 54 83 55 84 63 85
REMARK SMILES IDX 56 86 62 87 64 88 61 89 57 90 58 91 59 92 60 93
REMARK H PARENT 84 46 52 57
REMARK Flexibility Score: inf
ROOT
ATOM      1  C   UNL A   1      37.185  20.555  24.636  1.00  0.00     0.202 C 
ENDROOT
BRANCH   1   2
ATOM      2  O   UNL A   1      36.000  20.164  25.330  1.00  0.00    -0.374 OA
BRANCH   2   3
ATOM      3  C   UNL A   1      34.883  21.052  25.290  1.00  0.00     0.202 C 
BRANCH   3   4
ATOM      4  C   UNL A   1      35.151  22.471  24.780  1.00  0.00     0.261 C 
BRANCH   4   5
ATOM      5  O   UNL A   1      34.979  23.448  25.819  1.00  0.00    -0.460 OA
BRANCH   5   6
ATOM      6  C   UNL A   1      33.695  23.656  26.189  1.00  0.00     0.338 C 
ATOM      7  O   UNL A   1      33.085  23.087  27.082  1.00  0.00    -0.246 OA
BRANCH   6   8
ATOM      8  C   UNL A   1      33.131  24.791  25.433  1.00  0.00     0.087 C 
ATOM      9  C   UNL A   1      30.109  30.331  23.886  1.00  0.00     0.046 C 
ATOM     10  C   UNL A   1      31.018  29.235  24.384  1.00  0.00    -0.026 A 
ATOM     11  C   UNL A   1      31.774  29.391  25.562  1.00  0.00     0.045 A 
ATOM     12  C   UNL A   1      31.078  27.991  23.698  1.00  0.00    -0.004 A 
ATOM     13  Cl  UNL A   1      31.780  30.858  26.480  1.00  0.00    -0.084 Cl
ATOM     14  C   UNL A   1      32.540  28.341  26.068  1.00  0.00     0.032 A 
ATOM     15  C   UNL A   1      31.870  26.945  24.218  1.00  0.00     0.131 A 
ATOM     16  C   UNL A   1      30.298  27.727  22.432  1.00  0.00     0.049 C 
ATOM     17  C   UNL A   1      32.565  27.110  25.414  1.00  0.00     0.019 A 
ATOM     18  O   UNL A   1      31.922  25.781  23.494  1.00  0.00    -0.475 OA
ATOM     19  C   UNL A   1      33.242  25.984  26.027  1.00  0.00     0.027 C 
ATOM     20  C   UNL A   1      32.453  24.574  24.112  1.00  0.00     0.316 C 
BRANCH  20  21
ATOM     21  C   UNL A   1      31.322  23.537  24.185  1.00  0.00     0.430 C 
ATOM     22  F   UNL A   1      30.623  23.658  25.339  1.00  0.00    -0.167 F 
ATOM     23  F   UNL A   1      30.438  23.680  23.173  1.00  0.00    -0.167 F 
ATOM     24  F   UNL A   1      31.799  22.271  24.133  1.00  0.00    -0.167 F 
ENDBRANCH  20  21
ENDBRANCH   6   8
ENDBRANCH   5   6
ENDBRANCH   4   5
ENDBRANCH   3   4
ENDBRANCH   2   3
ENDBRANCH   1   2
BRANCH   1  25
ATOM     25  C   UNL A   1      38.499  19.867  25.027  1.00  0.00     0.261 C 
BRANCH  25  26
ATOM     26  O   UNL A   1      38.949  20.247  26.340  1.00  0.00    -0.460 OA
BRANCH  26  27
ATOM     27  C   UNL A   1      40.284  20.461  26.437  1.00  0.00     0.338 C 
ATOM     28  O   UNL A   1      41.177  19.736  26.020  1.00  0.00    -0.246 OA
BRANCH  27  29
ATOM     29  C   UNL A   1      40.542  21.813  26.962  1.00  0.00     0.060 A 
ATOM     30  C   UNL A   1      39.923  22.891  26.315  1.00  0.00     0.016 A 
ATOM     31  C   UNL A   1      41.436  22.031  28.011  1.00  0.00     0.016 A 
ATOM     32  C   UNL A   1      40.230  24.197  26.689  1.00  0.00     0.010 A 
ATOM     33  C   UNL A   1      41.753  23.345  28.376  1.00  0.00     0.010 A 
ATOM     34  C   UNL A   1      41.175  24.432  27.695  1.00  0.00    -0.014 A 
BRANCH  34  35
ATOM     35  C   UNL A   1      41.665  25.812  27.926  1.00  0.00     0.031 A 
ATOM     36  C   UNL A   1      43.021  26.200  27.400  1.00  0.00     0.074 A 
ATOM     37  C   UNL A   1      40.891  26.723  28.542  1.00  0.00     0.049 A 
ATOM     38  N   UNL A   1      43.658  27.336  27.510  1.00  0.00    -0.248 NA
ATOM     39  C   UNL A   1      43.752  25.170  26.645  1.00  0.00     0.031 C 
ATOM     40  C   UNL A   1      39.534  26.481  29.031  1.00  0.00     0.029 A 
ATOM     41  N   UNL A   1      41.133  28.036  28.856  1.00  0.00    -0.354 N 
ATOM     42  C   UNL A   1      44.860  27.162  26.834  1.00  0.00     0.074 A 
ATOM     43  C   UNL A   1      44.880  25.800  26.349  1.00  0.00     0.031 C 
ATOM     44  C   UNL A   1      39.060  27.615  29.577  1.00  0.00     0.029 A 
ATOM     45  C   UNL A   1      40.092  28.648  29.512  1.00  0.00     0.049 A 
ATOM     46  H   UNL A   1      41.974  28.496  28.631  1.00  0.00     0.167 HD
ATOM     47  C   UNL A   1      45.852  28.062  26.630  1.00  0.00     0.034 A 
ATOM     48  C   UNL A   1      39.990  29.893  30.019  1.00  0.00     0.034 A 
ATOM     49  C   UNL A   1      45.827  29.414  27.125  1.00  0.00     0.049 A 
ATOM     50  C   UNL A   1      41.153  30.842  29.875  1.00  0.00     0.074 A 
ATOM     51  C   UNL A   1      46.787  30.401  26.982  1.00  0.00     0.029 A 
ATOM     52  N   UNL A   1      44.792  29.971  27.862  1.00  0.00    -0.354 N 
ATOM     53  N   UNL A   1      42.304  30.650  29.274  1.00  0.00    -0.248 NA
ATOM     54  C   UNL A   1      41.006  32.172  30.484  1.00  0.00     0.031 C 
ATOM     55  C   UNL A   1      46.360  31.532  27.684  1.00  0.00     0.029 A 
ATOM     56  C   UNL A   1      45.103  31.277  28.206  1.00  0.00     0.049 A 
ATOM     57  H   UNL A   1      43.959  29.506  28.106  1.00  0.00     0.167 HD
ATOM     58  C   UNL A   1      43.009  31.844  29.412  1.00  0.00     0.074 A 
ATOM     59  C   UNL A   1      42.154  32.749  30.151  1.00  0.00     0.031 C 
ATOM     60  C   UNL A   1      44.247  32.162  28.959  1.00  0.00     0.034 A 
BRANCH  47  61
ATOM     61  C   UNL A   1      47.065  27.599  25.867  1.00  0.00     0.023 A 
ATOM     62  C   UNL A   1      47.224  27.877  24.498  1.00  0.00     0.031 A 
ATOM     63  C   UNL A   1      48.082  26.882  26.521  1.00  0.00     0.131 A 
ATOM     64  C   UNL A   1      48.358  27.406  23.819  1.00  0.00     0.055 A 
ATOM     65  C   UNL A   1      49.236  26.470  25.853  1.00  0.00     0.041 A 
ATOM     66  F   UNL A   1      47.969  26.573  27.823  1.00  0.00    -0.206 F 
ATOM     67  C   UNL A   1      49.375  26.726  24.492  1.00  0.00     0.022 A 
BRANCH  64  68
ATOM     68  S   UNL A   1      48.450  27.627  22.022  1.00  0.00     0.124 S 
ATOM     69  O   UNL A   1      48.651  26.253  21.567  1.00  0.00    -0.237 OA
ATOM     70  O   UNL A   1      47.154  28.218  21.707  1.00  0.00    -0.237 OA
ATOM     71  O   UNL A   1      49.598  28.512  21.843  1.00  0.00    -0.744 OA
ENDBRANCH  64  68
ENDBRANCH  47  61
BRANCH  48  72
ATOM     72  C   UNL A   1      38.754  30.307  30.737  1.00  0.00     0.023 A 
ATOM     73  C   UNL A   1      37.741  31.023  30.081  1.00  0.00     0.031 A 
ATOM     74  C   UNL A   1      38.574  30.000  32.097  1.00  0.00     0.131 A 
ATOM     75  C   UNL A   1      36.599  31.425  30.791  1.00  0.00     0.055 A 
ATOM     76  C   UNL A   1      37.420  30.369  32.790  1.00  0.00     0.041 A 
ATOM     77  F   UNL A   1      39.515  29.315  32.768  1.00  0.00    -0.206 F 
ATOM     78  C   UNL A   1      36.427  31.092  32.137  1.00  0.00     0.022 A 
BRANCH  75  79
ATOM     79  S   UNL A   1      35.347  32.421  29.936  1.00  0.00     0.124 S 
ATOM     80  O   UNL A   1      34.402  32.697  31.012  1.00  0.00    -0.237 OA
ATOM     81  O   UNL A   1      36.132  33.556  29.462  1.00  0.00    -0.237 OA
ATOM     82  O   UNL A   1      34.858  31.526  28.890  1.00  0.00    -0.744 OA
ENDBRANCH  75  79
ENDBRANCH  48  72
BRANCH  60  83
ATOM     83  C   UNL A   1      44.748  33.558  29.224  1.00  0.00     0.023 A 
ATOM     84  C   UNL A   1      44.606  34.581  28.272  1.00  0.00     0.031 A 
ATOM     85  C   UNL A   1      45.329  33.877  30.464  1.00  0.00     0.131 A 
ATOM     86  C   UNL A   1      45.066  35.874  28.567  1.00  0.00     0.055 A 
ATOM     87  C   UNL A   1      45.744  35.174  30.768  1.00  0.00     0.041 A 
ATOM     88  F   UNL A   1      45.483  32.934  31.407  1.00  0.00    -0.206 F 
ATOM     89  C   UNL A   1      45.618  36.180  29.814  1.00  0.00     0.022 A 
BRANCH  86  90
ATOM     90  S   UNL A   1      44.965  37.150  27.282  1.00  0.00     0.124 S 
ATOM     91  O   UNL A   1      45.936  36.671  26.303  1.00  0.00    -0.237 OA
ATOM     92  O   UNL A   1      43.565  37.082  26.877  1.00  0.00    -0.237 OA
ATOM     93  O   UNL A   1      45.345  38.374  27.984  1.00  0.00    -0.744 OA
ENDBRANCH  86  90
ENDBRANCH  60  83
ENDBRANCH  34  35
ENDBRANCH  27  29
ENDBRANCH  26  27
ENDBRANCH  25  26
ENDBRANCH   1  25
TORSDOF 18
ENDMDL
MODEL 2
REMARK VINA RESULT:     -11.6      5.070     10.708
REMARK SMILES Cc1c(Cl)cc2c(c1C)O[C@H](C(F)(F)F)C(C(=O)OCCOCCOC(=O)c1ccc(-c3c4nc(c(-c5cc(S(=O)(=O)[O-])ccc5F)c5ccc([nH]5)c(-c5cc(S(=O)(=O)[O-])ccc5F)c5nc(c(-c6cc(S(=O)(=O)[O-])ccc6F)c6ccc3[nH]6)C=C5)C=C4)cc1)=C2
REMARK SMILES IDX 23 1 22 2 21 3 20 4 19 5 17 6 18 7 16 8 1 9 2 10 3 11 8 12
REMARK SMILES IDX 4 13 5 14 7 15 9 16 6 17 10 18 91 19 11 20 12 21 13 22 14 23
REMARK SMILES IDX 15 24 24 25 25 26 26 27 27 28 28 29 29 30 90 31 30 32 89 33
REMARK SMILES IDX 31 34 32 35 33 36 83 37 34 38 88 39 82 40 84 41 35 42 87 43
REMARK SMILES IDX 81 44 80 45 36 47 68 48 48 49 67 50 49 51 52 52 66 53 85 54
REMARK SMILES IDX 50 55 51 56 65 58 86 59 53 60 37 61 38 62 46 63 39 64 45 65
REMARK SMILES IDX 47 66 44 67 40 68 41 69 42 70 43 71 69 72 70 73 78 74 71 75
REMARK SMILES IDX 77 76 79 77 76 78 72 79 73 80 74 81 75 82 54 83 55 84 63 85
REMARK SMILES IDX 56 86 62 87 64 88 61 89 57 90 58 91 59 92 60 93
REMARK H PARENT 84 46 52 57
REMARK Flexibility Score: inf
ROOT
ATOM      1  C   UNL A   1      31.314  31.552  26.229  1.00  0.00     0.202 C 
ENDROOT
BRANCH   1   2
ATOM      2  O   UNL A   1      31.971  30.398  26.754  1.00  0.00    -0.374 OA
BRANCH   2   3
ATOM      3  C   UNL A   1      32.645  29.540  25.833  1.00  0.00     0.202 C 
BRANCH   3   4
ATOM      4  C   UNL A   1      32.101  28.115  25.698  1.00  0.00     0.261 C 
BRANCH   4   5
ATOM      5  O   UNL A   1      33.139  27.135  25.852  1.00  0.00    -0.460 OA
BRANCH   5   6
ATOM      6  C   UNL A   1      33.513  26.525  24.705  1.00  0.00     0.338 C 
ATOM      7  O   UNL A   1      33.913  27.062  23.682  1.00  0.00    -0.246 OA
BRANCH   6   8
ATOM      8  C   UNL A   1      33.497  25.061  24.885  1.00  0.00     0.087 C 
ATOM      9  C   UNL A   1      35.012  18.750  24.573  1.00  0.00     0.046 C 
ATOM     10  C   UNL A   1      34.925  20.237  24.813  1.00  0.00    -0.026 A 
ATOM     11  C   UNL A   1      36.084  21.021  24.968  1.00  0.00     0.045 A 
ATOM     12  C   UNL A   1      33.660  20.885  24.822  1.00  0.00    -0.004 A 
ATOM     13  Cl  UNL A   1      37.677  20.343  24.973  1.00  0.00    -0.084 Cl
ATOM     14  C   UNL A   1      36.001  22.408  25.096  1.00  0.00     0.032 A 
ATOM     15  C   UNL A   1      33.595  22.287  24.966  1.00  0.00     0.131 A 
ATOM     16  C   UNL A   1      32.362  20.129  24.655  1.00  0.00     0.049 C 
ATOM     17  C   UNL A   1      34.761  23.044  25.065  1.00  0.00     0.019 A 
ATOM     18  O   UNL A   1      32.348  22.855  25.009  1.00  0.00    -0.475 OA
ATOM     19  C   UNL A   1      34.697  24.492  25.048  1.00  0.00     0.027 C 
ATOM     20  C   UNL A   1      32.206  24.295  24.842  1.00  0.00     0.316 C 
BRANCH  20  21
ATOM     21  C   UNL A   1      31.402  24.552  23.559  1.00  0.00     0.430 C 
ATOM     22  F   UNL A   1      31.083  25.863  23.438  1.00  0.00    -0.167 F 
ATOM     23  F   UNL A   1      32.097  24.213  22.450  1.00  0.00    -0.167 F 
ATOM     24  F   UNL A   1      30.244  23.852  23.544  1.00  0.00    -0.167 F 
ENDBRANCH  20  21
ENDBRANCH   6   8
ENDBRANCH   5   6
ENDBRANCH   4   5
ENDBRANCH   3   4
ENDBRANCH   2   3
ENDBRANCH   1   2
BRANCH   1  25
ATOM     25  C   UNL A   1      31.613  32.904  26.890  1.00  0.00     0.261 C 
BRANCH  25  26
ATOM     26  O   UNL A   1      33.010  33.242  26.844  1.00  0.00    -0.460 OA
BRANCH  26  27
ATOM     27  C   UNL A   1      33.518  33.699  28.015  1.00  0.00     0.338 C 
ATOM     28  O   UNL A   1      32.987  34.483  28.790  1.00  0.00    -0.246 OA
BRANCH  27  29
ATOM     29  C   UNL A   1      34.753  32.968  28.349  1.00  0.00     0.060 A 
ATOM     30  C   UNL A   1      34.631  31.626  28.733  1.00  0.00     0.016 A 
ATOM     31  C   UNL A   1      35.995  33.604  28.368  1.00  0.00     0.016 A 
ATOM     32  C   UNL A   1      35.749  30.925  29.180  1.00  0.00     0.010 A 
ATOM     33  C   UNL A   1      37.115  32.902  28.830  1.00  0.00     0.010 A 
ATOM     34  C   UNL A   1      36.989  31.570  29.267  1.00  0.00    -0.014 A 
BRANCH  34  35
ATOM     35  C   UNL A   1      38.114  30.894  29.957  1.00  0.00     0.031 A 
ATOM     36  C   UNL A   1      38.368  31.201  31.408  1.00  0.00     0.074 A 
ATOM     37  C   UNL A   1      38.861  29.977  29.316  1.00  0.00     0.049 A 
ATOM     38  N   UNL A   1      39.308  30.751  32.198  1.00  0.00    -0.248 NA
ATOM     39  C   UNL A   1      37.434  32.137  32.054  1.00  0.00     0.031 C 
ATOM     40  C   UNL A   1      38.663  29.547  27.932  1.00  0.00     0.029 A 
ATOM     41  N   UNL A   1      39.933  29.238  29.749  1.00  0.00    -0.354 N 
ATOM     42  C   UNL A   1      39.076  31.341  33.435  1.00  0.00     0.074 A 
ATOM     43  C   UNL A   1      37.929  32.209  33.281  1.00  0.00     0.031 C 
ATOM     44  C   UNL A   1      39.580  28.611  27.632  1.00  0.00     0.029 A 
ATOM     45  C   UNL A   1      40.453  28.405  28.787  1.00  0.00     0.049 A 
ATOM     46  H   UNL A   1      40.293  29.297  30.663  1.00  0.00     0.167 HD
ATOM     47  C   UNL A   1      39.753  31.165  34.594  1.00  0.00     0.034 A 
ATOM     48  C   UNL A   1      41.522  27.584  28.828  1.00  0.00     0.034 A 
ATOM     49  C   UNL A   1      40.900  30.304  34.734  1.00  0.00     0.049 A 
ATOM     50  C   UNL A   1      42.328  27.490  30.099  1.00  0.00     0.074 A 
ATOM     51  C   UNL A   1      41.664  30.067  35.863  1.00  0.00     0.029 A 
ATOM     52  N   UNL A   1      41.452  29.544  33.713  1.00  0.00    -0.354 N 
ATOM     53  N   UNL A   1      42.126  28.089  31.250  1.00  0.00    -0.248 NA
ATOM     54  C   UNL A   1      43.509  26.615  30.075  1.00  0.00     0.031 C 
ATOM     55  C   UNL A   1      42.712  29.211  35.510  1.00  0.00     0.029 A 
ATOM     56  C   UNL A   1      42.563  28.860  34.179  1.00  0.00     0.049 A 
ATOM     57  H   UNL A   1      41.105  29.498  32.793  1.00  0.00     0.167 HD
ATOM     58  C   UNL A   1      43.141  27.645  32.093  1.00  0.00     0.074 A 
ATOM     59  C   UNL A   1      43.952  26.727  31.321  1.00  0.00     0.031 C 
ATOM     60  C   UNL A   1      43.373  27.961  33.391  1.00  0.00     0.034 A 
BRANCH  47  61
ATOM     61  C   UNL A   1      39.293  31.949  35.795  1.00  0.00     0.023 A 
ATOM     62  C   UNL A   1      38.487  31.366  36.788  1.00  0.00     0.031 A 
ATOM     63  C   UNL A   1      39.677  33.291  35.955  1.00  0.00     0.131 A 
ATOM     64  C   UNL A   1      38.058  32.138  37.879  1.00  0.00     0.055 A 
ATOM     65  C   UNL A   1      39.297  34.035  37.073  1.00  0.00     0.041 A 
ATOM     66  F   UNL A   1      40.429  33.901  35.025  1.00  0.00    -0.206 F 
ATOM     67  C   UNL A   1      38.478  33.460  38.040  1.00  0.00     0.022 A 
BRANCH  64  68
ATOM     68  S   UNL A   1      36.878  31.413  39.049  1.00  0.00     0.124 S 
ATOM     69  O   UNL A   1      37.610  31.519  40.308  1.00  0.00    -0.237 OA
ATOM     70  O   UNL A   1      35.717  32.285  38.911  1.00  0.00    -0.237 OA
ATOM     71  O   UNL A   1      36.696  30.051  38.552  1.00  0.00    -0.744 OA
ENDBRANCH  64  68
ENDBRANCH  47  61
BRANCH  48  72
ATOM     72  C   UNL A   1      41.914  26.810  27.619  1.00  0.00     0.023 A 
ATOM     73  C   UNL A   1      41.712  25.423  27.551  1.00  0.00     0.031 A 
ATOM     74  C   UNL A   1      42.507  27.448  26.516  1.00  0.00     0.131 A 
ATOM     75  C   UNL A   1      42.118  24.714  26.409  1.00  0.00     0.055 A 
ATOM     76  C   UNL A   1      42.875  26.745  25.367  1.00  0.00     0.041 A 
ATOM     77  F   UNL A   1      42.719  28.774  26.532  1.00  0.00    -0.206 F 
ATOM     78  C   UNL A   1      42.686  25.368  25.313  1.00  0.00     0.022 A 
BRANCH  75  79
ATOM     79  S   UNL A   1      41.920  22.911  26.387  1.00  0.00     0.124 S 
ATOM     80  O   UNL A   1      42.572  22.557  25.132  1.00  0.00    -0.237 OA
ATOM     81  O   UNL A   1      42.613  22.513  27.608  1.00  0.00    -0.237 OA
ATOM     82  O   UNL A   1      40.470  22.729  26.412  1.00  0.00    -0.744 OA
ENDBRANCH  75  79
ENDBRANCH  48  72
BRANCH  60  83
ATOM     83  C   UNL A   1      44.536  27.291  34.074  1.00  0.00     0.023 A 
ATOM     84  C   UNL A   1      44.373  26.099  34.801  1.00  0.00     0.031 A 
ATOM     85  C   UNL A   1      45.831  27.827  33.954  1.00  0.00     0.131 A 
ATOM     86  C   UNL A   1      45.487  25.495  35.404  1.00  0.00     0.055 A 
ATOM     87  C   UNL A   1      46.941  27.197  34.518  1.00  0.00     0.041 A 
ATOM     88  F   UNL A   1      46.038  28.961  33.267  1.00  0.00    -0.206 F 
ATOM     89  C   UNL A   1      46.771  26.026  35.252  1.00  0.00     0.022 A 
BRANCH  86  90
ATOM     90  S   UNL A   1      45.232  24.016  36.422  1.00  0.00     0.124 S 
ATOM     91  O   UNL A   1      44.764  24.591  37.678  1.00  0.00    -0.237 OA
ATOM     92  O   UNL A   1      44.242  23.269  35.653  1.00  0.00    -0.237 OA
ATOM     93  O   UNL A   1      46.559  23.404  36.476  1.00  0.00    -0.744 OA
ENDBRANCH  86  90
ENDBRANCH  60  83
ENDBRANCH  34  35
ENDBRANCH  27  29
ENDBRANCH  26  27
ENDBRANCH  25  26
ENDBRANCH   1  25
TORSDOF 18
ENDMDL
MODEL 3
REMARK VINA RESULT:     -11.6      1.671      2.041
REMARK SMILES Cc1c(Cl)cc2c(c1C)O[C@H](C(F)(F)F)C(C(=O)OCCOCCOC(=O)c1ccc(-c3c4nc(c(-c5cc(S(=O)(=O)[O-])ccc5F)c5ccc([nH]5)c(-c5cc(S(=O)(=O)[O-])ccc5F)c5nc(c(-c6cc(S(=O)(=O)[O-])ccc6F)c6ccc3[nH]6)C=C5)C=C4)cc1)=C2
REMARK SMILES IDX 23 1 22 2 21 3 20 4 19 5 17 6 18 7 16 8 1 9 2 10 3 11 8 12
REMARK SMILES IDX 4 13 5 14 7 15 9 16 6 17 10 18 91 19 11 20 12 21 13 22 14 23
REMARK SMILES IDX 15 24 24 25 25 26 26 27 27 28 28 29 29 30 90 31 30 32 89 33
REMARK SMILES IDX 31 34 32 35 33 36 83 37 34 38 88 39 82 40 84 41 35 42 87 43
REMARK SMILES IDX 81 44 80 45 36 47 68 48 48 49 67 50 49 51 52 52 66 53 85 54
REMARK SMILES IDX 50 55 51 56 65 58 86 59 53 60 37 61 38 62 46 63 39 64 45 65
REMARK SMILES IDX 47 66 44 67 40 68 41 69 42 70 43 71 69 72 70 73 78 74 71 75
REMARK SMILES IDX 77 76 79 77 76 78 72 79 73 80 74 81 75 82 54 83 55 84 63 85
REMARK SMILES IDX 56 86 62 87 64 88 61 89 57 90 58 91 59 92 60 93
REMARK H PARENT 84 46 52 57
REMARK Flexibility Score: inf
ROOT
ATOM      1  C   UNL A   1      36.480  20.940  24.720  1.00  0.00     0.202 C 
ENDROOT
BRANCH   1   2
ATOM      2  O   UNL A   1      35.278  20.404  25.274  1.00  0.00    -0.374 OA
BRANCH   2   3
ATOM      3  C   UNL A   1      34.454  21.279  26.044  1.00  0.00     0.202 C 
BRANCH   3   4
ATOM      4  C   UNL A   1      34.864  22.755  26.080  1.00  0.00     0.261 C 
BRANCH   4   5
ATOM      5  O   UNL A   1      33.766  23.617  25.745  1.00  0.00    -0.460 OA
BRANCH   5   6
ATOM      6  C   UNL A   1      33.786  24.090  24.478  1.00  0.00     0.338 C 
ATOM      7  O   UNL A   1      34.075  23.469  23.466  1.00  0.00    -0.246 OA
BRANCH   6   8
ATOM      8  C   UNL A   1      33.275  25.473  24.449  1.00  0.00     0.087 C 
ATOM      9  C   UNL A   1      31.326  31.410  26.230  1.00  0.00     0.046 C 
ATOM     10  C   UNL A   1      32.062  30.135  25.904  1.00  0.00    -0.026 A 
ATOM     11  C   UNL A   1      33.211  29.751  26.622  1.00  0.00     0.045 A 
ATOM     12  C   UNL A   1      31.564  29.260  24.901  1.00  0.00    -0.004 A 
ATOM     13  Cl  UNL A   1      33.907  30.733  27.865  1.00  0.00    -0.084 Cl
ATOM     14  C   UNL A   1      33.832  28.526  26.381  1.00  0.00     0.032 A 
ATOM     15  C   UNL A   1      32.214  28.030  24.661  1.00  0.00     0.131 A 
ATOM     16  C   UNL A   1      30.333  29.581  24.085  1.00  0.00     0.049 C 
ATOM     17  C   UNL A   1      33.318  27.653  25.422  1.00  0.00     0.019 A 
ATOM     18  O   UNL A   1      31.715  27.244  23.654  1.00  0.00    -0.475 OA
ATOM     19  C   UNL A   1      33.880  26.324  25.286  1.00  0.00     0.027 C 
ATOM     20  C   UNL A   1      32.127  25.851  23.558  1.00  0.00     0.316 C 
BRANCH  20  21
ATOM     21  C   UNL A   1      30.889  24.968  23.774  1.00  0.00     0.430 C 
ATOM     22  F   UNL A   1      29.754  25.633  23.448  1.00  0.00    -0.167 F 
ATOM     23  F   UNL A   1      30.923  23.854  23.011  1.00  0.00    -0.167 F 
ATOM     24  F   UNL A   1      30.772  24.576  25.063  1.00  0.00    -0.167 F 
ENDBRANCH  20  21
ENDBRANCH   6   8
ENDBRANCH   5   6
ENDBRANCH   4   5
ENDBRANCH   3   4
ENDBRANCH   2   3
ENDBRANCH   1   2
BRANCH   1  25
ATOM     25  C   UNL A   1      37.813  20.415  25.270  1.00  0.00     0.261 C 
BRANCH  25  26
ATOM     26  O   UNL A   1      38.794  21.456  25.421  1.00  0.00    -0.460 OA
BRANCH  26  27
ATOM     27  C   UNL A   1      39.642  21.284  26.465  1.00  0.00     0.338 C 
ATOM     28  O   UNL A   1      40.123  20.230  26.854  1.00  0.00    -0.246 OA
BRANCH  27  29
ATOM     29  C   UNL A   1      40.078  22.593  26.982  1.00  0.00     0.060 A 
ATOM     30  C   UNL A   1      39.491  23.740  26.429  1.00  0.00     0.016 A 
ATOM     31  C   UNL A   1      41.098  22.702  27.928  1.00  0.00     0.016 A 
ATOM     32  C   UNL A   1      39.955  25.002  26.791  1.00  0.00     0.010 A 
ATOM     33  C   UNL A   1      41.572  23.971  28.279  1.00  0.00     0.010 A 
ATOM     34  C   UNL A   1      41.024  25.124  27.688  1.00  0.00    -0.014 A 
BRANCH  34  35
ATOM     35  C   UNL A   1      41.660  26.448  27.887  1.00  0.00     0.031 A 
ATOM     36  C   UNL A   1      43.012  26.705  27.279  1.00  0.00     0.074 A 
ATOM     37  C   UNL A   1      41.017  27.427  28.550  1.00  0.00     0.049 A 
ATOM     38  N   UNL A   1      43.763  27.773  27.350  1.00  0.00    -0.248 NA
ATOM     39  C   UNL A   1      43.592  25.612  26.482  1.00  0.00     0.031 C 
ATOM     40  C   UNL A   1      39.675  27.316  29.121  1.00  0.00     0.029 A 
ATOM     41  N   UNL A   1      41.405  28.708  28.847  1.00  0.00    -0.354 N 
ATOM     42  C   UNL A   1      44.899  27.486  26.602  1.00  0.00     0.074 A 
ATOM     43  C   UNL A   1      44.755  26.131  26.117  1.00  0.00     0.031 C 
ATOM     44  C   UNL A   1      39.348  28.488  29.694  1.00  0.00     0.029 A 
ATOM     45  C   UNL A   1      40.471  29.416  29.566  1.00  0.00     0.049 A 
ATOM     46  H   UNL A   1      42.272  29.085  28.571  1.00  0.00     0.167 HD
ATOM     47  C   UNL A   1      45.960  28.285  26.336  1.00  0.00     0.034 A 
ATOM     48  C   UNL A   1      40.523  30.662  30.077  1.00  0.00     0.034 A 
ATOM     49  C   UNL A   1      46.097  29.631  26.832  1.00  0.00     0.049 A 
ATOM     50  C   UNL A   1      41.762  31.493  29.862  1.00  0.00     0.074 A 
ATOM     51  C   UNL A   1      47.139  30.519  26.630  1.00  0.00     0.029 A 
ATOM     52  N   UNL A   1      45.168  30.282  27.631  1.00  0.00    -0.354 N 
ATOM     53  N   UNL A   1      42.850  31.193  29.192  1.00  0.00    -0.248 NA
ATOM     54  C   UNL A   1      41.784  32.828  30.478  1.00  0.00     0.031 C 
ATOM     55  C   UNL A   1      46.868  31.683  27.356  1.00  0.00     0.029 A 
ATOM     56  C   UNL A   1      45.626  31.549  27.954  1.00  0.00     0.049 A 
ATOM     57  H   UNL A   1      44.310  29.900  27.925  1.00  0.00     0.167 HD
ATOM     58  C   UNL A   1      43.675  32.311  29.286  1.00  0.00     0.074 A 
ATOM     59  C   UNL A   1      42.959  33.292  30.075  1.00  0.00     0.031 C 
ATOM     60  C   UNL A   1      44.909  32.509  28.758  1.00  0.00     0.034 A 
BRANCH  47  61
ATOM     61  C   UNL A   1      47.073  27.710  25.501  1.00  0.00     0.023 A 
ATOM     62  C   UNL A   1      47.226  28.048  24.146  1.00  0.00     0.031 A 
ATOM     63  C   UNL A   1      48.001  26.823  26.072  1.00  0.00     0.131 A 
ATOM     64  C   UNL A   1      48.262  27.471  23.396  1.00  0.00     0.055 A 
ATOM     65  C   UNL A   1      49.066  26.300  25.337  1.00  0.00     0.041 A 
ATOM     66  F   UNL A   1      47.888  26.451  27.358  1.00  0.00    -0.206 F 
ATOM     67  C   UNL A   1      49.196  26.618  23.989  1.00  0.00     0.022 A 
BRANCH  64  68
ATOM     68  S   UNL A   1      48.327  27.788  21.612  1.00  0.00     0.124 S 
ATOM     69  O   UNL A   1      46.977  28.282  21.352  1.00  0.00    -0.237 OA
ATOM     70  O   UNL A   1      49.397  28.773  21.503  1.00  0.00    -0.237 OA
ATOM     71  O   UNL A   1      48.626  26.477  21.042  1.00  0.00    -0.744 OA
ENDBRANCH  64  68
ENDBRANCH  47  61
BRANCH  48  72
ATOM     72  C   UNL A   1      39.379  31.191  30.869  1.00  0.00     0.023 A 
ATOM     73  C   UNL A   1      39.401  31.174  32.272  1.00  0.00     0.031 A 
ATOM     74  C   UNL A   1      38.240  31.711  30.230  1.00  0.00     0.131 A 
ATOM     75  C   UNL A   1      38.296  31.653  32.993  1.00  0.00     0.055 A 
ATOM     76  C   UNL A   1      37.158  32.220  30.951  1.00  0.00     0.041 A 
ATOM     77  F   UNL A   1      38.172  31.750  28.890  1.00  0.00    -0.206 F 
ATOM     78  C   UNL A   1      37.181  32.187  32.341  1.00  0.00     0.022 A 
BRANCH  75  79
ATOM     79  S   UNL A   1      38.321  31.541  34.803  1.00  0.00     0.124 S 
ATOM     80  O   UNL A   1      37.113  32.275  35.163  1.00  0.00    -0.237 OA
ATOM     81  O   UNL A   1      38.285  30.098  35.020  1.00  0.00    -0.237 OA
ATOM     82  O   UNL A   1      39.579  32.189  35.166  1.00  0.00    -0.744 OA
ENDBRANCH  75  79
ENDBRANCH  48  72
BRANCH  60  83
ATOM     83  C   UNL A   1      45.559  33.848  28.991  1.00  0.00     0.023 A 
ATOM     84  C   UNL A   1      45.220  34.973  28.220  1.00  0.00     0.031 A 
ATOM     85  C   UNL A   1      46.493  34.009  30.030  1.00  0.00     0.131 A 
ATOM     86  C   UNL A   1      45.834  36.207  28.484  1.00  0.00     0.055 A 
ATOM     87  C   UNL A   1      47.065  35.249  30.317  1.00  0.00     0.041 A 
ATOM     88  F   UNL A   1      46.845  32.966  30.797  1.00  0.00    -0.206 F 
ATOM     89  C   UNL A   1      46.740  36.356  29.537  1.00  0.00     0.022 A 
BRANCH  86  90
ATOM     90  S   UNL A   1      45.456  37.617  27.407  1.00  0.00     0.124 S 
ATOM     91  O   UNL A   1      45.511  38.735  28.343  1.00  0.00    -0.237 OA
ATOM     92  O   UNL A   1      46.528  37.558  26.420  1.00  0.00    -0.237 OA
ATOM     93  O   UNL A   1      44.124  37.306  26.890  1.00  0.00    -0.744 OA
ENDBRANCH  86  90
ENDBRANCH  60  83
ENDBRANCH  34  35
ENDBRANCH  27  29
ENDBRANCH  26  27
ENDBRANCH  25  26
ENDBRANCH   1  25
TORSDOF 18
ENDMDL
