MODEL 1
REMARK VINA RESULT:     -10.9      0.000      0.000
REMARK SMILES CC(C)[C@@H](CNC(=O)NCC1C(C)(C)C1(C)C)C(=O)OCCOCCOC(=O)c1ccc(-c2c3nc(c(-c4cc(S(=O)(=O)[O-])ccc4F)c4ccc([nH]4)c(-c4cc(S(=O)(=O)[O-])ccc4F)c4nc(c(-c5cc(S(=O)(=O)[O-])ccc5F)c5ccc2[nH]5)C=C4)C=C3)cc1
REMARK SMILES IDX 22 1 21 2 20 3 18 4 19 5 4 6 2 7 1 8 3 9 5 10 6 11 7 12 8 14
REMARK SMILES IDX 9 15 10 17 11 18 12 19 15 20 13 21 14 22 16 23 17 24 23 25
REMARK SMILES IDX 24 26 25 27 26 28 27 29 28 30 29 31 30 32 91 33 31 34 90 35
REMARK SMILES IDX 32 36 33 37 34 38 84 39 35 40 89 41 83 42 85 43 36 44 88 45
REMARK SMILES IDX 82 46 81 47 37 49 69 50 49 51 68 52 50 53 53 54 67 55 86 56
REMARK SMILES IDX 51 57 52 58 66 60 87 61 54 62 38 63 39 64 47 65 40 66 46 67
REMARK SMILES IDX 48 68 45 69 41 70 42 71 43 72 44 73 70 74 71 75 79 76 72 77
REMARK SMILES IDX 78 78 80 79 77 80 73 81 74 82 75 83 76 84 55 85 56 86 64 87
REMARK SMILES IDX 57 88 63 89 65 90 62 91 58 92 59 93 60 94 61 95
REMARK H PARENT 6 13 9 16 85 48 53 59
REMARK Flexibility Score: inf
ROOT
ATOM      1  C   UNL A   1      31.029  29.583  24.256  1.00  0.00     0.202 C 
ENDROOT
BRANCH   1   2
ATOM      2  C   UNL A   1      29.918  28.810  23.541  1.00  0.00     0.261 C 
BRANCH   2   3
ATOM      3  O   UNL A   1      30.339  27.551  22.979  1.00  0.00    -0.463 OA
BRANCH   3   4
ATOM      4  C   UNL A   1      30.238  26.476  23.801  1.00  0.00     0.311 C 
ATOM      5  O   UNL A   1      29.181  25.997  24.204  1.00  0.00    -0.252 OA
BRANCH   4   6
ATOM      6  C   UNL A   1      31.581  25.952  24.282  1.00  0.00     0.121 C 
BRANCH   6   7
ATOM      7  C   UNL A   1      32.848  26.538  23.601  1.00  0.00    -0.001 C 
ATOM      8  C   UNL A   1      33.985  26.703  24.625  1.00  0.00     0.008 C 
ATOM      9  C   UNL A   1      33.371  25.662  22.460  1.00  0.00     0.008 C 
ENDBRANCH   6   7
BRANCH   6  10
ATOM     10  C   UNL A   1      31.609  26.030  25.821  1.00  0.00     0.133 C 
BRANCH  10  11
ATOM     11  N   UNL A   1      30.749  25.053  26.455  1.00  0.00    -0.337 N 
ATOM     12  C   UNL A   1      30.907  23.790  26.865  1.00  0.00     0.314 C 
ATOM     13  H   UNL A   1      29.841  25.396  26.621  1.00  0.00     0.165 HD
ATOM     14  O   UNL A   1      29.906  23.194  27.266  1.00  0.00    -0.249 OA
ATOM     15  N   UNL A   1      32.069  23.137  26.887  1.00  0.00    -0.338 N 
ATOM     16  H   UNL A   1      31.971  22.224  27.241  1.00  0.00     0.165 HD
BRANCH  15  17
ATOM     17  C   UNL A   1      33.430  23.430  26.525  1.00  0.00     0.122 C 
BRANCH  17  18
ATOM     18  C   UNL A   1      33.837  23.184  25.105  1.00  0.00     0.021 C 
ATOM     19  C   UNL A   1      34.954  22.350  24.463  1.00  0.00    -0.025 C 
ATOM     20  C   UNL A   1      33.482  21.885  24.379  1.00  0.00    -0.025 C 
ATOM     21  C   UNL A   1      35.601  22.910  23.207  1.00  0.00     0.012 C 
ATOM     22  C   UNL A   1      35.961  21.560  25.265  1.00  0.00     0.012 C 
ATOM     23  C   UNL A   1      33.047  20.649  25.139  1.00  0.00     0.012 C 
ATOM     24  C   UNL A   1      32.685  22.050  23.100  1.00  0.00     0.012 C 
ENDBRANCH  17  18
ENDBRANCH  15  17
ENDBRANCH  10  11
ENDBRANCH   6  10
ENDBRANCH   4   6
ENDBRANCH   3   4
ENDBRANCH   2   3
ENDBRANCH   1   2
BRANCH   1  25
ATOM     25  O   UNL A   1      30.642  30.786  24.917  1.00  0.00    -0.374 OA
BRANCH  25  26
ATOM     26  C   UNL A   1      31.376  31.149  26.084  1.00  0.00     0.202 C 
BRANCH  26  27
ATOM     27  C   UNL A   1      32.731  30.453  26.272  1.00  0.00     0.261 C 
BRANCH  27  28
ATOM     28  O   UNL A   1      33.221  30.569  27.623  1.00  0.00    -0.460 OA
BRANCH  28  29
ATOM     29  C   UNL A   1      34.121  31.563  27.811  1.00  0.00     0.338 C 
ATOM     30  O   UNL A   1      33.868  32.755  27.971  1.00  0.00    -0.246 OA
BRANCH  29  31
ATOM     31  C   UNL A   1      35.484  31.025  27.984  1.00  0.00     0.060 A 
ATOM     32  C   UNL A   1      35.616  29.631  28.041  1.00  0.00     0.016 A 
ATOM     33  C   UNL A   1      36.593  31.848  28.197  1.00  0.00     0.016 A 
ATOM     34  C   UNL A   1      36.838  29.057  28.384  1.00  0.00     0.010 A 
ATOM     35  C   UNL A   1      37.822  31.265  28.547  1.00  0.00     0.010 A 
ATOM     36  C   UNL A   1      37.938  29.870  28.689  1.00  0.00    -0.014 A 
BRANCH  36  37
ATOM     37  C   UNL A   1      39.131  29.250  29.326  1.00  0.00     0.031 A 
ATOM     38  C   UNL A   1      39.559  29.728  30.690  1.00  0.00     0.074 A 
ATOM     39  C   UNL A   1      39.775  28.221  28.744  1.00  0.00     0.049 A 
ATOM     40  N   UNL A   1      40.539  29.311  31.450  1.00  0.00    -0.248 NA
ATOM     41  C   UNL A   1      38.772  30.825  31.273  1.00  0.00     0.031 C 
ATOM     42  C   UNL A   1      39.428  27.632  27.452  1.00  0.00     0.029 A 
ATOM     43  N   UNL A   1      40.850  27.482  29.174  1.00  0.00    -0.354 N 
ATOM     44  C   UNL A   1      40.484  30.087  32.604  1.00  0.00     0.074 A 
ATOM     45  C   UNL A   1      39.402  31.032  32.420  1.00  0.00     0.031 C 
ATOM     46  C   UNL A   1      40.274  26.619  27.195  1.00  0.00     0.029 A 
ATOM     47  C   UNL A   1      41.242  26.508  28.286  1.00  0.00     0.049 A 
ATOM     48  H   UNL A   1      41.299  27.636  30.036  1.00  0.00     0.167 HD
ATOM     49  C   UNL A   1      41.253  30.012  33.720  1.00  0.00     0.034 A 
ATOM     50  C   UNL A   1      42.272  25.637  28.339  1.00  0.00     0.034 A 
ATOM     51  C   UNL A   1      42.338  29.076  33.890  1.00  0.00     0.049 A 
ATOM     52  C   UNL A   1      43.177  25.638  29.548  1.00  0.00     0.074 A 
ATOM     53  C   UNL A   1      43.173  28.913  34.982  1.00  0.00     0.029 A 
ATOM     54  N   UNL A   1      42.749  28.153  32.938  1.00  0.00    -0.354 N 
ATOM     55  N   UNL A   1      43.109  26.375  30.633  1.00  0.00    -0.248 NA
ATOM     56  C   UNL A   1      44.293  24.682  29.541  1.00  0.00     0.031 C 
ATOM     57  C   UNL A   1      44.130  27.943  34.664  1.00  0.00     0.029 A 
ATOM     58  C   UNL A   1      43.847  27.444  33.403  1.00  0.00     0.049 A 
ATOM     59  H   UNL A   1      42.324  28.020  32.060  1.00  0.00     0.167 HD
ATOM     60  C   UNL A   1      44.157  25.950  31.447  1.00  0.00     0.074 A 
ATOM     61  C   UNL A   1      44.831  24.885  30.734  1.00  0.00     0.031 C 
ATOM     62  C   UNL A   1      44.523  26.394  32.677  1.00  0.00     0.034 A 
BRANCH  49  63
ATOM     63  C   UNL A   1      40.973  31.010  34.818  1.00  0.00     0.023 A 
ATOM     64  C   UNL A   1      39.850  30.893  35.656  1.00  0.00     0.031 A 
ATOM     65  C   UNL A   1      41.824  32.112  35.008  1.00  0.00     0.131 A 
ATOM     66  C   UNL A   1      39.571  31.898  36.597  1.00  0.00     0.055 A 
ATOM     67  C   UNL A   1      41.583  33.068  35.997  1.00  0.00     0.041 A 
ATOM     68  F   UNL A   1      42.899  32.288  34.223  1.00  0.00    -0.206 F 
ATOM     69  C   UNL A   1      40.443  32.971  36.788  1.00  0.00     0.022 A 
BRANCH  66  70
ATOM     70  S   UNL A   1      37.980  31.856  37.468  1.00  0.00     0.124 S 
ATOM     71  O   UNL A   1      38.364  32.301  38.806  1.00  0.00    -0.237 OA
ATOM     72  O   UNL A   1      37.171  32.789  36.692  1.00  0.00    -0.237 OA
ATOM     73  O   UNL A   1      37.577  30.455  37.377  1.00  0.00    -0.744 OA
ENDBRANCH  66  70
ENDBRANCH  49  63
BRANCH  50  74
ATOM     74  C   UNL A   1      42.540  24.715  27.198  1.00  0.00     0.023 A 
ATOM     75  C   UNL A   1      42.063  23.394  27.198  1.00  0.00     0.031 A 
ATOM     76  C   UNL A   1      43.336  25.129  26.115  1.00  0.00     0.131 A 
ATOM     77  C   UNL A   1      42.422  22.521  26.157  1.00  0.00     0.055 A 
ATOM     78  C   UNL A   1      43.647  24.274  25.056  1.00  0.00     0.041 A 
ATOM     79  F   UNL A   1      43.824  26.379  26.071  1.00  0.00    -0.206 F 
ATOM     80  C   UNL A   1      43.200  22.957  25.081  1.00  0.00     0.022 A 
BRANCH  77  81
ATOM     81  S   UNL A   1      41.926  20.780  26.270  1.00  0.00     0.124 S 
ATOM     82  O   UNL A   1      42.259  20.466  27.655  1.00  0.00    -0.237 OA
ATOM     83  O   UNL A   1      40.505  20.847  25.949  1.00  0.00    -0.237 OA
ATOM     84  O   UNL A   1      42.758  20.123  25.264  1.00  0.00    -0.744 OA
ENDBRANCH  77  81
ENDBRANCH  50  74
BRANCH  62  85
ATOM     85  C   UNL A   1      45.682  25.693  33.345  1.00  0.00     0.023 A 
ATOM     86  C   UNL A   1      45.498  24.548  34.142  1.00  0.00     0.031 A 
ATOM     87  C   UNL A   1      46.990  26.184  33.188  1.00  0.00     0.131 A 
ATOM     88  C   UNL A   1      46.597  23.965  34.794  1.00  0.00     0.055 A 
ATOM     89  C   UNL A   1      48.087  25.567  33.792  1.00  0.00     0.041 A 
ATOM     90  F   UNL A   1      47.225  27.273  32.439  1.00  0.00    -0.206 F 
ATOM     91  C   UNL A   1      47.892  24.459  34.611  1.00  0.00     0.022 A 
BRANCH  88  92
ATOM     92  S   UNL A   1      46.302  22.601  35.953  1.00  0.00     0.124 S 
ATOM     93  O   UNL A   1      45.409  21.739  35.187  1.00  0.00    -0.237 OA
ATOM     94  O   UNL A   1      47.649  22.086  36.178  1.00  0.00    -0.237 OA
ATOM     95  O   UNL A   1      45.690  23.257  37.107  1.00  0.00    -0.744 OA
ENDBRANCH  88  92
ENDBRANCH  62  85
ENDBRANCH  36  37
ENDBRANCH  29  31
ENDBRANCH  28  29
ENDBRANCH  27  28
ENDBRANCH  26  27
ENDBRANCH  25  26
ENDBRANCH   1  25
TORSDOF 22
ENDMDL
MODEL 2
REMARK VINA RESULT:     -10.6      2.005      2.831
REMARK SMILES CC(C)[C@@H](CNC(=O)NCC1C(C)(C)C1(C)C)C(=O)OCCOCCOC(=O)c1ccc(-c2c3nc(c(-c4cc(S(=O)(=O)[O-])ccc4F)c4ccc([nH]4)c(-c4cc(S(=O)(=O)[O-])ccc4F)c4nc(c(-c5cc(S(=O)(=O)[O-])ccc5F)c5ccc2[nH]5)C=C4)C=C3)cc1
REMARK SMILES IDX 22 1 21 2 20 3 18 4 19 5 4 6 2 7 1 8 3 9 5 10 6 11 7 12 8 14
REMARK SMILES IDX 9 15 10 17 11 18 12 19 15 20 13 21 14 22 16 23 17 24 23 25
REMARK SMILES IDX 24 26 25 27 26 28 27 29 28 30 29 31 30 32 91 33 31 34 90 35
REMARK SMILES IDX 32 36 33 37 34 38 84 39 35 40 89 41 83 42 85 43 36 44 88 45
REMARK SMILES IDX 82 46 81 47 37 49 69 50 49 51 68 52 50 53 53 54 67 55 86 56
REMARK SMILES IDX 51 57 52 58 66 60 87 61 54 62 38 63 39 64 47 65 40 66 46 67
REMARK SMILES IDX 48 68 45 69 41 70 42 71 43 72 44 73 70 74 71 75 79 76 72 77
REMARK SMILES IDX 78 78 80 79 77 80 73 81 74 82 75 83 76 84 55 85 56 86 64 87
REMARK SMILES IDX 57 88 63 89 65 90 62 91 58 92 59 93 60 94 61 95
REMARK H PARENT 6 13 9 16 85 48 53 59
REMARK Flexibility Score: inf
ROOT
ATOM      1  C   UNL A   1      31.408  29.194  24.350  1.00  0.00     0.202 C 
ENDROOT
BRANCH   1   2
ATOM      2  C   UNL A   1      30.679  27.867  24.127  1.00  0.00     0.261 C 
BRANCH   2   3
ATOM      3  O   UNL A   1      31.410  26.706  24.570  1.00  0.00    -0.463 OA
BRANCH   3   4
ATOM      4  C   UNL A   1      30.667  25.724  25.139  1.00  0.00     0.311 C 
ATOM      5  O   UNL A   1      29.696  25.911  25.868  1.00  0.00    -0.252 OA
BRANCH   4   6
ATOM      6  C   UNL A   1      31.205  24.327  24.879  1.00  0.00     0.121 C 
BRANCH   6   7
ATOM      7  C   UNL A   1      30.843  23.230  25.918  1.00  0.00    -0.001 C 
ATOM      8  C   UNL A   1      31.059  21.828  25.323  1.00  0.00     0.008 C 
ATOM      9  C   UNL A   1      31.675  23.326  27.200  1.00  0.00     0.008 C 
ENDBRANCH   6   7
BRANCH   6  10
ATOM     10  C   UNL A   1      30.870  23.940  23.426  1.00  0.00     0.133 C 
BRANCH  10  11
ATOM     11  N   UNL A   1      31.600  24.721  22.448  1.00  0.00    -0.337 N 
ATOM     12  C   UNL A   1      32.844  24.687  21.960  1.00  0.00     0.314 C 
ATOM     13  H   UNL A   1      31.056  25.441  22.053  1.00  0.00     0.165 HD
ATOM     14  O   UNL A   1      33.183  25.599  21.205  1.00  0.00    -0.249 OA
ATOM     15  N   UNL A   1      33.736  23.731  22.219  1.00  0.00    -0.338 N 
ATOM     16  H   UNL A   1      34.586  23.885  21.746  1.00  0.00     0.165 HD
BRANCH  15  17
ATOM     17  C   UNL A   1      33.772  22.532  23.012  1.00  0.00     0.122 C 
BRANCH  17  18
ATOM     18  C   UNL A   1      34.333  22.633  24.396  1.00  0.00     0.021 C 
ATOM     19  C   UNL A   1      35.067  21.639  25.306  1.00  0.00    -0.025 C 
ATOM     20  C   UNL A   1      35.832  22.810  24.646  1.00  0.00    -0.025 C 
ATOM     21  C   UNL A   1      34.779  21.722  26.796  1.00  0.00     0.012 C 
ATOM     22  C   UNL A   1      35.360  20.212  24.906  1.00  0.00     0.012 C 
ATOM     23  C   UNL A   1      36.852  22.517  23.565  1.00  0.00     0.012 C 
ATOM     24  C   UNL A   1      36.220  24.037  25.447  1.00  0.00     0.012 C 
ENDBRANCH  17  18
ENDBRANCH  15  17
ENDBRANCH  10  11
ENDBRANCH   6  10
ENDBRANCH   4   6
ENDBRANCH   3   4
ENDBRANCH   2   3
ENDBRANCH   1   2
BRANCH   1  25
ATOM     25  O   UNL A   1      30.593  30.326  24.647  1.00  0.00    -0.374 OA
BRANCH  25  26
ATOM     26  C   UNL A   1      31.048  31.197  25.680  1.00  0.00     0.202 C 
BRANCH  26  27
ATOM     27  C   UNL A   1      32.412  30.860  26.295  1.00  0.00     0.261 C 
BRANCH  27  28
ATOM     28  O   UNL A   1      32.562  31.405  27.622  1.00  0.00    -0.460 OA
BRANCH  28  29
ATOM     29  C   UNL A   1      33.489  32.387  27.724  1.00  0.00     0.338 C 
ATOM     30  O   UNL A   1      33.273  33.596  27.718  1.00  0.00    -0.246 OA
BRANCH  29  31
ATOM     31  C   UNL A   1      34.822  31.834  28.030  1.00  0.00     0.060 A 
ATOM     32  C   UNL A   1      34.873  30.511  28.488  1.00  0.00     0.016 A 
ATOM     33  C   UNL A   1      35.984  32.609  27.983  1.00  0.00     0.016 A 
ATOM     34  C   UNL A   1      36.069  29.981  28.969  1.00  0.00     0.010 A 
ATOM     35  C   UNL A   1      37.186  32.074  28.473  1.00  0.00     0.010 A 
ATOM     36  C   UNL A   1      37.224  30.775  29.012  1.00  0.00    -0.014 A 
BRANCH  36  37
ATOM     37  C   UNL A   1      38.397  30.289  29.788  1.00  0.00     0.031 A 
ATOM     38  C   UNL A   1      38.589  30.777  31.201  1.00  0.00     0.074 A 
ATOM     39  C   UNL A   1      39.231  29.363  29.281  1.00  0.00     0.049 A 
ATOM     40  N   UNL A   1      39.511  30.463  32.075  1.00  0.00    -0.248 NA
ATOM     41  C   UNL A   1      37.604  31.753  31.692  1.00  0.00     0.031 C 
ATOM     42  C   UNL A   1      39.125  28.772  27.948  1.00  0.00     0.029 A 
ATOM     43  N   UNL A   1      40.329  28.750  29.834  1.00  0.00    -0.354 N 
ATOM     44  C   UNL A   1      39.215  31.195  33.221  1.00  0.00     0.074 A 
ATOM     45  C   UNL A   1      38.055  32.004  32.912  1.00  0.00     0.031 C 
ATOM     46  C   UNL A   1      40.116  27.878  27.788  1.00  0.00     0.029 A 
ATOM     47  C   UNL A   1      40.947  27.856  28.991  1.00  0.00     0.049 A 
ATOM     48  H   UNL A   1      40.644  28.934  30.748  1.00  0.00     0.167 HD
ATOM     49  C   UNL A   1      39.843  31.184  34.424  1.00  0.00     0.034 A 
ATOM     50  C   UNL A   1      42.063  27.117  29.165  1.00  0.00     0.034 A 
ATOM     51  C   UNL A   1      41.007  30.384  34.719  1.00  0.00     0.049 A 
ATOM     52  C   UNL A   1      42.803  27.196  30.478  1.00  0.00     0.074 A 
ATOM     53  C   UNL A   1      41.714  30.294  35.906  1.00  0.00     0.029 A 
ATOM     54  N   UNL A   1      41.646  29.544  33.816  1.00  0.00    -0.354 N 
ATOM     55  N   UNL A   1      42.510  27.889  31.554  1.00  0.00    -0.248 NA
ATOM     56  C   UNL A   1      44.023  26.385  30.601  1.00  0.00     0.031 C 
ATOM     57  C   UNL A   1      42.817  29.458  35.701  1.00  0.00     0.029 A 
ATOM     58  C   UNL A   1      42.758  28.963  34.408  1.00  0.00     0.049 A 
ATOM     59  H   UNL A   1      41.353  29.385  32.890  1.00  0.00     0.167 HD
ATOM     60  C   UNL A   1      43.493  27.573  32.490  1.00  0.00     0.074 A 
ATOM     61  C   UNL A   1      44.379  26.619  31.855  1.00  0.00     0.031 C 
ATOM     62  C   UNL A   1      43.645  28.024  33.762  1.00  0.00     0.034 A 
BRANCH  49  63
ATOM     63  C   UNL A   1      39.306  32.108  35.490  1.00  0.00     0.023 A 
ATOM     64  C   UNL A   1      39.760  33.432  35.620  1.00  0.00     0.031 A 
ATOM     65  C   UNL A   1      38.349  31.647  36.412  1.00  0.00     0.131 A 
ATOM     66  C   UNL A   1      39.310  34.225  36.688  1.00  0.00     0.055 A 
ATOM     67  C   UNL A   1      37.848  32.466  37.426  1.00  0.00     0.041 A 
ATOM     68  F   UNL A   1      37.895  30.385  36.350  1.00  0.00    -0.206 F 
ATOM     69  C   UNL A   1      38.340  33.758  37.577  1.00  0.00     0.022 A 
BRANCH  66  70
ATOM     70  S   UNL A   1      40.115  35.824  36.983  1.00  0.00     0.124 S 
ATOM     71  O   UNL A   1      39.542  36.210  38.271  1.00  0.00    -0.237 OA
ATOM     72  O   UNL A   1      41.529  35.468  36.994  1.00  0.00    -0.237 OA
ATOM     73  O   UNL A   1      39.684  36.639  35.850  1.00  0.00    -0.744 OA
ENDBRANCH  66  70
ENDBRANCH  49  63
BRANCH  50  74
ATOM     74  C   UNL A   1      42.584  26.267  28.055  1.00  0.00     0.023 A 
ATOM     75  C   UNL A   1      42.180  24.931  27.906  1.00  0.00     0.031 A 
ATOM     76  C   UNL A   1      43.550  26.767  27.163  1.00  0.00     0.131 A 
ATOM     77  C   UNL A   1      42.769  24.128  26.915  1.00  0.00     0.055 A 
ATOM     78  C   UNL A   1      44.094  25.981  26.146  1.00  0.00     0.041 A 
ATOM     79  F   UNL A   1      43.978  28.035  27.267  1.00  0.00    -0.206 F 
ATOM     80  C   UNL A   1      43.713  24.648  26.027  1.00  0.00     0.022 A 
BRANCH  77  81
ATOM     81  S   UNL A   1      42.344  22.365  26.855  1.00  0.00     0.124 S 
ATOM     82  O   UNL A   1      42.140  22.061  28.267  1.00  0.00    -0.237 OA
ATOM     83  O   UNL A   1      41.147  22.369  26.020  1.00  0.00    -0.237 OA
ATOM     84  O   UNL A   1      43.522  21.751  26.247  1.00  0.00    -0.744 OA
ENDBRANCH  77  81
ENDBRANCH  50  74
BRANCH  62  85
ATOM     85  C   UNL A   1      44.791  27.453  34.563  1.00  0.00     0.023 A 
ATOM     86  C   UNL A   1      44.640  26.303  35.358  1.00  0.00     0.031 A 
ATOM     87  C   UNL A   1      46.051  28.075  34.536  1.00  0.00     0.131 A 
ATOM     88  C   UNL A   1      45.715  25.842  36.135  1.00  0.00     0.055 A 
ATOM     89  C   UNL A   1      47.133  27.580  35.265  1.00  0.00     0.041 A 
ATOM     90  F   UNL A   1      46.254  29.176  33.794  1.00  0.00    -0.206 F 
ATOM     91  C   UNL A   1      46.965  26.465  36.080  1.00  0.00     0.022 A 
BRANCH  88  92
ATOM     92  S   UNL A   1      45.437  24.465  37.282  1.00  0.00     0.124 S 
ATOM     93  O   UNL A   1      46.729  24.361  37.951  1.00  0.00    -0.237 OA
ATOM     94  O   UNL A   1      44.333  24.957  38.100  1.00  0.00    -0.237 OA
ATOM     95  O   UNL A   1      45.103  23.346  36.402  1.00  0.00    -0.744 OA
ENDBRANCH  88  92
ENDBRANCH  62  85
ENDBRANCH  36  37
ENDBRANCH  29  31
ENDBRANCH  28  29
ENDBRANCH  27  28
ENDBRANCH  26  27
ENDBRANCH  25  26
ENDBRANCH   1  25
TORSDOF 22
ENDMDL
MODEL 3
REMARK VINA RESULT:     -10.1      1.812      2.472
REMARK SMILES CC(C)[C@@H](CNC(=O)NCC1C(C)(C)C1(C)C)C(=O)OCCOCCOC(=O)c1ccc(-c2c3nc(c(-c4cc(S(=O)(=O)[O-])ccc4F)c4ccc([nH]4)c(-c4cc(S(=O)(=O)[O-])ccc4F)c4nc(c(-c5cc(S(=O)(=O)[O-])ccc5F)c5ccc2[nH]5)C=C4)C=C3)cc1
REMARK SMILES IDX 22 1 21 2 20 3 18 4 19 5 4 6 2 7 1 8 3 9 5 10 6 11 7 12 8 14
REMARK SMILES IDX 9 15 10 17 11 18 12 19 15 20 13 21 14 22 16 23 17 24 23 25
REMARK SMILES IDX 24 26 25 27 26 28 27 29 28 30 29 31 30 32 91 33 31 34 90 35
REMARK SMILES IDX 32 36 33 37 34 38 84 39 35 40 89 41 83 42 85 43 36 44 88 45
REMARK SMILES IDX 82 46 81 47 37 49 69 50 49 51 68 52 50 53 53 54 67 55 86 56
REMARK SMILES IDX 51 57 52 58 66 60 87 61 54 62 38 63 39 64 47 65 40 66 46 67
REMARK SMILES IDX 48 68 45 69 41 70 42 71 43 72 44 73 70 74 71 75 79 76 72 77
REMARK SMILES IDX 78 78 80 79 77 80 73 81 74 82 75 83 76 84 55 85 56 86 64 87
REMARK SMILES IDX 57 88 63 89 65 90 62 91 58 92 59 93 60 94 61 95
REMARK H PARENT 6 13 9 16 85 48 53 59
REMARK Flexibility Score: inf
ROOT
ATOM      1  C   UNL A   1      32.374  28.398  23.838  1.00  0.00     0.202 C 
ENDROOT
BRANCH   1   2
ATOM      2  C   UNL A   1      32.596  26.977  23.316  1.00  0.00     0.261 C 
BRANCH   2   3
ATOM      3  O   UNL A   1      33.882  26.416  23.647  1.00  0.00    -0.463 OA
BRANCH   3   4
ATOM      4  C   UNL A   1      34.093  26.165  24.964  1.00  0.00     0.311 C 
ATOM      5  O   UNL A   1      34.185  27.025  25.837  1.00  0.00    -0.252 OA
BRANCH   4   6
ATOM      6  C   UNL A   1      34.313  24.694  25.274  1.00  0.00     0.121 C 
BRANCH   6   7
ATOM      7  C   UNL A   1      35.785  24.222  25.427  1.00  0.00    -0.001 C 
ATOM      8  C   UNL A   1      35.892  23.121  26.496  1.00  0.00     0.008 C 
ATOM      9  C   UNL A   1      36.372  23.668  24.126  1.00  0.00     0.008 C 
ENDBRANCH   6   7
BRANCH   6  10
ATOM     10  C   UNL A   1      33.410  24.307  26.461  1.00  0.00     0.133 C 
BRANCH  10  11
ATOM     11  N   UNL A   1      32.057  24.807  26.331  1.00  0.00    -0.337 N 
ATOM     12  C   UNL A   1      30.892  24.271  25.954  1.00  0.00     0.314 C 
ATOM     13  H   UNL A   1      31.977  25.758  26.574  1.00  0.00     0.165 HD
ATOM     14  O   UNL A   1      29.928  25.030  25.840  1.00  0.00    -0.249 OA
ATOM     15  N   UNL A   1      30.694  22.975  25.710  1.00  0.00    -0.338 N 
ATOM     16  H   UNL A   1      29.759  22.787  25.464  1.00  0.00     0.165 HD
BRANCH  15  17
ATOM     17  C   UNL A   1      31.499  21.784  25.717  1.00  0.00     0.122 C 
BRANCH  17  18
ATOM     18  C   UNL A   1      31.659  21.049  24.422  1.00  0.00     0.021 C 
ATOM     19  C   UNL A   1      32.414  21.363  23.124  1.00  0.00    -0.025 C 
ATOM     20  C   UNL A   1      32.935  20.273  24.090  1.00  0.00    -0.025 C 
ATOM     21  C   UNL A   1      31.768  20.916  21.823  1.00  0.00     0.012 C 
ATOM     22  C   UNL A   1      33.200  22.635  22.911  1.00  0.00     0.012 C 
ATOM     23  C   UNL A   1      34.223  20.508  24.852  1.00  0.00     0.012 C 
ATOM     24  C   UNL A   1      32.742  18.802  23.781  1.00  0.00     0.012 C 
ENDBRANCH  17  18
ENDBRANCH  15  17
ENDBRANCH  10  11
ENDBRANCH   6  10
ENDBRANCH   4   6
ENDBRANCH   3   4
ENDBRANCH   2   3
ENDBRANCH   1   2
BRANCH   1  25
ATOM     25  O   UNL A   1      31.116  28.660  24.456  1.00  0.00    -0.374 OA
BRANCH  25  26
ATOM     26  C   UNL A   1      31.120  29.521  25.593  1.00  0.00     0.202 C 
BRANCH  26  27
ATOM     27  C   UNL A   1      32.391  30.353  25.804  1.00  0.00     0.261 C 
BRANCH  27  28
ATOM     28  O   UNL A   1      32.699  30.533  27.202  1.00  0.00    -0.460 OA
BRANCH  28  29
ATOM     29  C   UNL A   1      33.467  31.615  27.473  1.00  0.00     0.338 C 
ATOM     30  O   UNL A   1      33.073  32.770  27.620  1.00  0.00    -0.246 OA
BRANCH  29  31
ATOM     31  C   UNL A   1      34.860  31.225  27.756  1.00  0.00     0.060 A 
ATOM     32  C   UNL A   1      35.116  29.858  27.930  1.00  0.00     0.016 A 
ATOM     33  C   UNL A   1      35.876  32.163  27.959  1.00  0.00     0.016 A 
ATOM     34  C   UNL A   1      36.364  29.430  28.379  1.00  0.00     0.010 A 
ATOM     35  C   UNL A   1      37.131  31.729  28.416  1.00  0.00     0.010 A 
ATOM     36  C   UNL A   1      37.366  30.366  28.674  1.00  0.00    -0.014 A 
BRANCH  36  37
ATOM     37  C   UNL A   1      38.572  29.912  29.417  1.00  0.00     0.031 A 
ATOM     38  C   UNL A   1      38.820  30.453  30.802  1.00  0.00     0.074 A 
ATOM     39  C   UNL A   1      39.389  28.971  28.909  1.00  0.00     0.049 A 
ATOM     40  N   UNL A   1      39.780  30.174  31.647  1.00  0.00    -0.248 NA
ATOM     41  C   UNL A   1      37.852  31.443  31.298  1.00  0.00     0.031 C 
ATOM     42  C   UNL A   1      39.230  28.331  27.605  1.00  0.00     0.029 A 
ATOM     43  N   UNL A   1      40.512  28.382  29.439  1.00  0.00    -0.354 N 
ATOM     44  C   UNL A   1      39.529  30.946  32.777  1.00  0.00     0.074 A 
ATOM     45  C   UNL A   1      38.353  31.740  32.488  1.00  0.00     0.031 C 
ATOM     46  C   UNL A   1      40.218  27.434  27.436  1.00  0.00     0.029 A 
ATOM     47  C   UNL A   1      41.098  27.459  28.604  1.00  0.00     0.049 A 
ATOM     48  H   UNL A   1      40.864  28.600  30.331  1.00  0.00     0.167 HD
ATOM     49  C   UNL A   1      40.206  30.981  33.953  1.00  0.00     0.034 A 
ATOM     50  C   UNL A   1      42.224  26.731  28.758  1.00  0.00     0.034 A 
ATOM     51  C   UNL A   1      41.385  30.196  34.228  1.00  0.00     0.049 A 
ATOM     52  C   UNL A   1      43.018  26.860  30.036  1.00  0.00     0.074 A 
ATOM     53  C   UNL A   1      42.141  30.152  35.387  1.00  0.00     0.029 A 
ATOM     54  N   UNL A   1      41.990  29.326  33.330  1.00  0.00    -0.354 N 
ATOM     55  N   UNL A   1      42.766  27.591  31.097  1.00  0.00    -0.248 NA
ATOM     56  C   UNL A   1      44.245  26.058  30.137  1.00  0.00     0.031 C 
ATOM     57  C   UNL A   1      43.239  29.312  35.167  1.00  0.00     0.029 A 
ATOM     58  C   UNL A   1      43.128  28.770  33.896  1.00  0.00     0.049 A 
ATOM     59  H   UNL A   1      41.659  29.132  32.424  1.00  0.00     0.167 HD
ATOM     60  C   UNL A   1      43.789  27.313  32.001  1.00  0.00     0.074 A 
ATOM     61  C   UNL A   1      44.652  26.339  31.366  1.00  0.00     0.031 C 
ATOM     62  C   UNL A   1      43.991  27.811  33.248  1.00  0.00     0.034 A 
BRANCH  49  63
ATOM     63  C   UNL A   1      39.709  31.943  35.006  1.00  0.00     0.023 A 
ATOM     64  C   UNL A   1      40.222  33.247  35.119  1.00  0.00     0.031 A 
ATOM     65  C   UNL A   1      38.732  31.537  35.932  1.00  0.00     0.131 A 
ATOM     66  C   UNL A   1      39.806  34.073  36.175  1.00  0.00     0.055 A 
ATOM     67  C   UNL A   1      38.268  32.390  36.935  1.00  0.00     0.041 A 
ATOM     68  F   UNL A   1      38.223  30.295  35.887  1.00  0.00    -0.206 F 
ATOM     69  C   UNL A   1      38.816  33.661  37.069  1.00  0.00     0.022 A 
BRANCH  66  70
ATOM     70  S   UNL A   1      40.680  35.639  36.450  1.00  0.00     0.124 S 
ATOM     71  O   UNL A   1      39.671  36.616  36.047  1.00  0.00    -0.237 OA
ATOM     72  O   UNL A   1      40.984  35.585  37.876  1.00  0.00    -0.237 OA
ATOM     73  O   UNL A   1      41.836  35.547  35.562  1.00  0.00    -0.744 OA
ENDBRANCH  66  70
ENDBRANCH  49  63
BRANCH  50  74
ATOM     74  C   UNL A   1      42.702  25.842  27.659  1.00  0.00     0.023 A 
ATOM     75  C   UNL A   1      42.195  24.543  27.497  1.00  0.00     0.031 A 
ATOM     76  C   UNL A   1      43.727  26.263  26.793  1.00  0.00     0.131 A 
ATOM     77  C   UNL A   1      42.742  23.696  26.518  1.00  0.00     0.055 A 
ATOM     78  C   UNL A   1      44.232  25.436  25.788  1.00  0.00     0.041 A 
ATOM     79  F   UNL A   1      44.253  27.492  26.911  1.00  0.00    -0.206 F 
ATOM     80  C   UNL A   1      43.747  24.139  25.655  1.00  0.00     0.022 A 
BRANCH  77  81
ATOM     81  S   UNL A   1      42.177  21.973  26.443  1.00  0.00     0.124 S 
ATOM     82  O   UNL A   1      40.761  22.138  26.136  1.00  0.00    -0.237 OA
ATOM     83  O   UNL A   1      43.006  21.428  25.373  1.00  0.00    -0.237 OA
ATOM     84  O   UNL A   1      42.472  21.460  27.779  1.00  0.00    -0.744 OA
ENDBRANCH  77  81
ENDBRANCH  50  74
BRANCH  62  85
ATOM     85  C   UNL A   1      45.172  27.273  34.022  1.00  0.00     0.023 A 
ATOM     86  C   UNL A   1      45.085  26.094  34.784  1.00  0.00     0.031 A 
ATOM     87  C   UNL A   1      46.400  27.956  34.001  1.00  0.00     0.131 A 
ATOM     88  C   UNL A   1      46.190  25.664  35.536  1.00  0.00     0.055 A 
ATOM     89  C   UNL A   1      47.513  27.493  34.705  1.00  0.00     0.041 A 
ATOM     90  F   UNL A   1      46.541  29.087  33.291  1.00  0.00    -0.206 F 
ATOM     91  C   UNL A   1      47.408  26.348  35.488  1.00  0.00     0.022 A 
BRANCH  88  92
ATOM     92  S   UNL A   1      45.991  24.242  36.645  1.00  0.00     0.124 S 
ATOM     93  O   UNL A   1      44.567  23.956  36.522  1.00  0.00    -0.237 OA
ATOM     94  O   UNL A   1      46.894  23.257  36.056  1.00  0.00    -0.237 OA
ATOM     95  O   UNL A   1      46.409  24.761  37.947  1.00  0.00    -0.744 OA
ENDBRANCH  88  92
ENDBRANCH  62  85
ENDBRANCH  36  37
ENDBRANCH  29  31
ENDBRANCH  28  29
ENDBRANCH  27  28
ENDBRANCH  26  27
ENDBRANCH  25  26
ENDBRANCH   1  25
TORSDOF 22
ENDMDL
