MODEL 1
REMARK VINA RESULT:     -10.7      0.000      0.000
REMARK SMILES CC[N@@H+]1CCO[C@H](c2nc(C)c(C(=O)OCCOCCOC(=O)c3ccc(-c4c5nc(c(-c6cc(S(=O)(=O)[O-])ccc6F)c6ccc([nH]6)c(-c6cc(S(=O)(=O)[O-])ccc6F)c6nc(c(-c7cc(S(=O)(=O)[O-])ccc7F)c7ccc4[nH]7)C=C6)C=C5)cc3)s2)C1
REMARK SMILES IDX 19 1 18 2 17 3 16 4 15 5 13 6 14 7 12 8 8 9 9 10 87 11 10 12
REMARK SMILES IDX 11 13 7 14 3 15 4 16 88 17 5 19 6 20 2 21 1 22 20 23 21 24
REMARK SMILES IDX 22 25 23 26 24 27 25 28 86 29 26 30 85 31 27 32 28 33 29 34
REMARK SMILES IDX 79 35 30 36 84 37 78 38 80 39 31 40 83 41 77 42 76 43 32 45
REMARK SMILES IDX 64 46 44 47 63 48 45 49 48 50 62 51 81 52 46 53 47 54 61 56
REMARK SMILES IDX 82 57 49 58 33 59 34 60 42 61 35 62 41 63 43 64 40 65 36 66
REMARK SMILES IDX 37 67 38 68 39 69 65 70 66 71 74 72 67 73 73 74 75 75 72 76
REMARK SMILES IDX 68 77 69 78 70 79 71 80 50 81 51 82 59 83 52 84 58 85 60 86
REMARK SMILES IDX 57 87 53 88 54 89 55 90 56 91
REMARK H PARENT 3 18 80 44 48 55
REMARK Flexibility Score: inf
ROOT
ATOM      1  C   UNL A   1      35.956  20.558  25.012  1.00  0.00     0.202 C 
ENDROOT
BRANCH   1   2
ATOM      2  O   UNL A   1      35.267  19.350  24.682  1.00  0.00    -0.374 OA
BRANCH   2   3
ATOM      3  C   UNL A   1      33.844  19.373  24.832  1.00  0.00     0.202 C 
BRANCH   3   4
ATOM      4  C   UNL A   1      33.326  20.560  25.647  1.00  0.00     0.261 C 
BRANCH   4   5
ATOM      5  O   UNL A   1      32.333  21.278  24.892  1.00  0.00    -0.459 OA
BRANCH   5   6
ATOM      6  C   UNL A   1      32.800  22.366  24.230  1.00  0.00     0.350 C 
ATOM      7  O   UNL A   1      33.097  22.388  23.039  1.00  0.00    -0.245 OA
BRANCH   6   8
ATOM      8  C   UNL A   1      32.809  23.525  25.078  1.00  0.00     0.135 A 
ATOM      9  C   UNL A   1      31.944  25.596  25.922  1.00  0.00     0.128 A 
ATOM     10  N   UNL A   1      33.264  25.592  26.021  1.00  0.00    -0.243 NA
ATOM     11  S   UNL A   1      31.302  24.021  25.734  1.00  0.00    -0.108 S 
ATOM     12  C   UNL A   1      33.782  24.375  25.572  1.00  0.00     0.063 A 
ATOM     13  C   UNL A   1      35.260  24.228  25.542  1.00  0.00     0.068 C 
BRANCH   9  14
ATOM     14  C   UNL A   1      31.053  26.820  25.983  1.00  0.00     0.232 C 
ATOM     15  N   UNL A   1      32.383  28.921  25.118  1.00  0.00    -0.331 N 
ATOM     16  C   UNL A   1      32.416  29.309  26.544  1.00  0.00     0.291 C 
ATOM     17  C   UNL A   1      31.286  27.937  24.914  1.00  0.00     0.302 C 
ATOM     18  H   UNL A   1      32.156  29.715  24.519  1.00  0.00     0.348 HD
ATOM     19  C   UNL A   1      32.335  28.124  27.516  1.00  0.00     0.222 C 
ATOM     20  O   UNL A   1      31.127  27.381  27.314  1.00  0.00    -0.359 OA
BRANCH  15  21
ATOM     21  C   UNL A   1      33.715  28.518  24.648  1.00  0.00     0.258 C 
ATOM     22  C   UNL A   1      33.860  28.509  23.128  1.00  0.00     0.071 C 
ENDBRANCH  15  21
ENDBRANCH   9  14
ENDBRANCH   6   8
ENDBRANCH   5   6
ENDBRANCH   4   5
ENDBRANCH   3   4
ENDBRANCH   2   3
ENDBRANCH   1   2
BRANCH   1  23
ATOM     23  C   UNL A   1      37.483  20.452  24.980  1.00  0.00     0.261 C 
BRANCH  23  24
ATOM     24  O   UNL A   1      38.066  21.630  25.566  1.00  0.00    -0.460 OA
BRANCH  24  25
ATOM     25  C   UNL A   1      39.271  21.445  26.157  1.00  0.00     0.338 C 
ATOM     26  O   UNL A   1      39.966  20.444  26.101  1.00  0.00    -0.246 OA
BRANCH  25  27
ATOM     27  C   UNL A   1      39.737  22.729  26.727  1.00  0.00     0.060 A 
ATOM     28  C   UNL A   1      39.064  23.890  26.325  1.00  0.00     0.016 A 
ATOM     29  C   UNL A   1      40.793  22.807  27.640  1.00  0.00     0.016 A 
ATOM     30  C   UNL A   1      39.463  25.133  26.809  1.00  0.00     0.010 A 
ATOM     31  C   UNL A   1      41.203  24.058  28.113  1.00  0.00     0.010 A 
ATOM     32  C   UNL A   1      40.555  25.227  27.681  1.00  0.00    -0.014 A 
BRANCH  32  33
ATOM     33  C   UNL A   1      41.100  26.560  28.028  1.00  0.00     0.031 A 
ATOM     34  C   UNL A   1      42.540  26.855  27.720  1.00  0.00     0.074 A 
ATOM     35  C   UNL A   1      40.315  27.501  28.585  1.00  0.00     0.049 A 
ATOM     36  N   UNL A   1      43.232  27.940  27.950  1.00  0.00    -0.248 NA
ATOM     37  C   UNL A   1      43.300  25.782  27.060  1.00  0.00     0.031 C 
ATOM     38  C   UNL A   1      38.892  27.345  28.886  1.00  0.00     0.029 A 
ATOM     39  N   UNL A   1      40.610  28.774  29.003  1.00  0.00    -0.354 N 
ATOM     40  C   UNL A   1      44.503  27.691  27.446  1.00  0.00     0.074 A 
ATOM     41  C   UNL A   1      44.495  26.338  26.930  1.00  0.00     0.031 C 
ATOM     42  C   UNL A   1      38.443  28.475  29.461  1.00  0.00     0.029 A 
ATOM     43  C   UNL A   1      39.551  29.420  29.594  1.00  0.00     0.049 A 
ATOM     44  H   UNL A   1      41.498  29.186  28.890  1.00  0.00     0.167 HD
ATOM     45  C   UNL A   1      45.576  28.517  27.408  1.00  0.00     0.034 A 
ATOM     46  C   UNL A   1      39.493  30.623  30.198  1.00  0.00     0.034 A 
ATOM     47  C   UNL A   1      45.587  29.850  27.954  1.00  0.00     0.049 A 
ATOM     48  C   UNL A   1      40.739  31.472  30.263  1.00  0.00     0.074 A 
ATOM     49  C   UNL A   1      46.614  30.777  27.954  1.00  0.00     0.029 A 
ATOM     50  N   UNL A   1      44.521  30.438  28.621  1.00  0.00    -0.354 N 
ATOM     51  N   UNL A   1      41.931  31.227  29.771  1.00  0.00    -0.248 NA
ATOM     52  C   UNL A   1      40.630  32.755  30.972  1.00  0.00     0.031 C 
ATOM     53  C   UNL A   1      46.188  31.902  28.671  1.00  0.00     0.029 A 
ATOM     54  C   UNL A   1      44.878  31.697  29.073  1.00  0.00     0.049 A 
ATOM     55  H   UNL A   1      43.639  30.020  28.754  1.00  0.00     0.167 HD
ATOM     56  C   UNL A   1      42.709  32.335  30.098  1.00  0.00     0.074 A 
ATOM     57  C   UNL A   1      41.851  33.250  30.822  1.00  0.00     0.031 C 
ATOM     58  C   UNL A   1      44.015  32.580  29.818  1.00  0.00     0.034 A 
BRANCH  45  59
ATOM     59  C   UNL A   1      46.836  27.971  26.793  1.00  0.00     0.023 A 
ATOM     60  C   UNL A   1      47.083  28.078  25.413  1.00  0.00     0.031 A 
ATOM     61  C   UNL A   1      47.783  27.306  27.590  1.00  0.00     0.131 A 
ATOM     62  C   UNL A   1      48.226  27.480  24.863  1.00  0.00     0.055 A 
ATOM     63  C   UNL A   1      48.948  26.764  27.044  1.00  0.00     0.041 A 
ATOM     64  F   UNL A   1      47.582  27.158  28.908  1.00  0.00    -0.206 F 
ATOM     65  C   UNL A   1      49.170  26.840  25.671  1.00  0.00     0.022 A 
BRANCH  62  66
ATOM     66  S   UNL A   1      48.414  27.459  23.059  1.00  0.00     0.124 S 
ATOM     67  O   UNL A   1      49.715  28.102  22.889  1.00  0.00    -0.237 OA
ATOM     68  O   UNL A   1      48.361  26.035  22.751  1.00  0.00    -0.237 OA
ATOM     69  O   UNL A   1      47.273  28.242  22.587  1.00  0.00    -0.744 OA
ENDBRANCH  62  66
ENDBRANCH  45  59
BRANCH  46  70
ATOM     70  C   UNL A   1      38.239  31.078  30.858  1.00  0.00     0.023 A 
ATOM     71  C   UNL A   1      37.246  31.764  30.142  1.00  0.00     0.031 A 
ATOM     72  C   UNL A   1      38.048  30.886  32.238  1.00  0.00     0.131 A 
ATOM     73  C   UNL A   1      36.122  32.266  30.817  1.00  0.00     0.055 A 
ATOM     74  C   UNL A   1      36.912  31.354  32.898  1.00  0.00     0.041 A 
ATOM     75  F   UNL A   1      38.971  30.237  32.966  1.00  0.00    -0.206 F 
ATOM     76  C   UNL A   1      35.945  32.059  32.187  1.00  0.00     0.022 A 
BRANCH  73  77
ATOM     77  S   UNL A   1      34.923  33.261  29.889  1.00  0.00     0.124 S 
ATOM     78  O   UNL A   1      34.312  32.262  29.019  1.00  0.00    -0.237 OA
ATOM     79  O   UNL A   1      34.078  33.786  30.956  1.00  0.00    -0.237 OA
ATOM     80  O   UNL A   1      35.756  34.253  29.212  1.00  0.00    -0.744 OA
ENDBRANCH  73  77
ENDBRANCH  46  70
BRANCH  58  81
ATOM     81  C   UNL A   1      44.573  33.898  30.282  1.00  0.00     0.023 A 
ATOM     82  C   UNL A   1      45.209  34.025  31.528  1.00  0.00     0.031 A 
ATOM     83  C   UNL A   1      44.455  35.040  29.472  1.00  0.00     0.131 A 
ATOM     84  C   UNL A   1      45.672  35.281  31.948  1.00  0.00     0.055 A 
ATOM     85  C   UNL A   1      44.955  36.278  29.877  1.00  0.00     0.041 A 
ATOM     86  F   UNL A   1      43.855  34.968  28.273  1.00  0.00    -0.206 F 
ATOM     87  C   UNL A   1      45.559  36.405  31.125  1.00  0.00     0.022 A 
BRANCH  84  88
ATOM     88  S   UNL A   1      46.379  35.439  33.610  1.00  0.00     0.124 S 
ATOM     89  O   UNL A   1      47.352  34.351  33.631  1.00  0.00    -0.237 OA
ATOM     90  O   UNL A   1      46.933  36.789  33.590  1.00  0.00    -0.237 OA
ATOM     91  O   UNL A   1      45.227  35.258  34.492  1.00  0.00    -0.744 OA
ENDBRANCH  84  88
ENDBRANCH  58  81
ENDBRANCH  32  33
ENDBRANCH  25  27
ENDBRANCH  24  25
ENDBRANCH  23  24
ENDBRANCH   1  23
TORSDOF 19
ENDMDL
MODEL 2
REMARK VINA RESULT:     -10.6      4.690      7.605
REMARK SMILES CC[N@@H+]1CCO[C@H](c2nc(C)c(C(=O)OCCOCCOC(=O)c3ccc(-c4c5nc(c(-c6cc(S(=O)(=O)[O-])ccc6F)c6ccc([nH]6)c(-c6cc(S(=O)(=O)[O-])ccc6F)c6nc(c(-c7cc(S(=O)(=O)[O-])ccc7F)c7ccc4[nH]7)C=C6)C=C5)cc3)s2)C1
REMARK SMILES IDX 19 1 18 2 17 3 16 4 15 5 13 6 14 7 12 8 8 9 9 10 87 11 10 12
REMARK SMILES IDX 11 13 7 14 3 15 4 16 88 17 5 19 6 20 2 21 1 22 20 23 21 24
REMARK SMILES IDX 22 25 23 26 24 27 25 28 86 29 26 30 85 31 27 32 28 33 29 34
REMARK SMILES IDX 79 35 30 36 84 37 78 38 80 39 31 40 83 41 77 42 76 43 32 45
REMARK SMILES IDX 64 46 44 47 63 48 45 49 48 50 62 51 81 52 46 53 47 54 61 56
REMARK SMILES IDX 82 57 49 58 33 59 34 60 42 61 35 62 41 63 43 64 40 65 36 66
REMARK SMILES IDX 37 67 38 68 39 69 65 70 66 71 74 72 67 73 73 74 75 75 72 76
REMARK SMILES IDX 68 77 69 78 70 79 71 80 50 81 51 82 59 83 52 84 58 85 60 86
REMARK SMILES IDX 57 87 53 88 54 89 55 90 56 91
REMARK H PARENT 3 18 80 44 48 55
REMARK Flexibility Score: inf
ROOT
ATOM      1  C   UNL A   1      31.726  29.700  25.235  1.00  0.00     0.202 C 
ENDROOT
BRANCH   1   2
ATOM      2  O   UNL A   1      30.680  29.677  24.261  1.00  0.00    -0.374 OA
BRANCH   2   3
ATOM      3  C   UNL A   1      30.931  28.907  23.082  1.00  0.00     0.202 C 
BRANCH   3   4
ATOM      4  C   UNL A   1      31.164  27.419  23.352  1.00  0.00     0.261 C 
BRANCH   4   5
ATOM      5  O   UNL A   1      32.557  27.100  23.174  1.00  0.00    -0.459 OA
BRANCH   5   6
ATOM      6  C   UNL A   1      33.089  26.317  24.145  1.00  0.00     0.350 C 
ATOM      7  O   UNL A   1      33.784  26.722  25.071  1.00  0.00    -0.245 OA
BRANCH   6   8
ATOM      8  C   UNL A   1      32.649  24.955  24.011  1.00  0.00     0.135 A 
ATOM      9  C   UNL A   1      32.225  22.731  24.798  1.00  0.00     0.128 A 
ATOM     10  N   UNL A   1      32.513  22.699  23.506  1.00  0.00    -0.243 NA
ATOM     11  S   UNL A   1      31.759  24.292  25.320  1.00  0.00    -0.108 S 
ATOM     12  C   UNL A   1      32.723  23.992  23.022  1.00  0.00     0.063 A 
ATOM     13  C   UNL A   1      33.133  24.135  21.601  1.00  0.00     0.068 C 
BRANCH   9  14
ATOM     14  C   UNL A   1      32.265  21.549  25.746  1.00  0.00     0.232 C 
ATOM     15  N   UNL A   1      34.664  20.465  25.700  1.00  0.00    -0.331 N 
ATOM     16  C   UNL A   1      34.004  19.382  24.940  1.00  0.00     0.291 C 
ATOM     17  C   UNL A   1      33.627  21.230  26.444  1.00  0.00     0.302 C 
ATOM     18  H   UNL A   1      35.295  20.094  26.411  1.00  0.00     0.348 HD
ATOM     19  C   UNL A   1      32.760  19.833  24.164  1.00  0.00     0.222 C 
ATOM     20  O   UNL A   1      31.775  20.380  25.049  1.00  0.00    -0.359 OA
BRANCH  15  21
ATOM     21  C   UNL A   1      35.557  21.249  24.837  1.00  0.00     0.258 C 
ATOM     22  C   UNL A   1      37.034  20.889  24.981  1.00  0.00     0.071 C 
ENDBRANCH  15  21
ENDBRANCH   9  14
ENDBRANCH   6   8
ENDBRANCH   5   6
ENDBRANCH   4   5
ENDBRANCH   3   4
ENDBRANCH   2   3
ENDBRANCH   1   2
BRANCH   1  23
ATOM     23  C   UNL A   1      31.778  30.970  26.089  1.00  0.00     0.261 C 
BRANCH  23  24
ATOM     24  O   UNL A   1      32.719  30.798  27.164  1.00  0.00    -0.460 OA
BRANCH  24  25
ATOM     25  C   UNL A   1      33.464  31.890  27.460  1.00  0.00     0.338 C 
ATOM     26  O   UNL A   1      33.093  33.051  27.452  1.00  0.00    -0.246 OA
BRANCH  25  27
ATOM     27  C   UNL A   1      34.770  31.455  28.005  1.00  0.00     0.060 A 
ATOM     28  C   UNL A   1      34.850  30.153  28.515  1.00  0.00     0.016 A 
ATOM     29  C   UNL A   1      35.896  32.285  28.011  1.00  0.00     0.016 A 
ATOM     30  C   UNL A   1      36.043  29.687  29.060  1.00  0.00     0.010 A 
ATOM     31  C   UNL A   1      37.090  31.821  28.574  1.00  0.00     0.010 A 
ATOM     32  C   UNL A   1      37.161  30.529  29.122  1.00  0.00    -0.014 A 
BRANCH  32  33
ATOM     33  C   UNL A   1      38.358  30.101  29.882  1.00  0.00     0.031 A 
ATOM     34  C   UNL A   1      39.259  29.059  29.283  1.00  0.00     0.074 A 
ATOM     35  C   UNL A   1      38.650  30.651  31.075  1.00  0.00     0.049 A 
ATOM     36  N   UNL A   1      40.347  28.523  29.773  1.00  0.00    -0.248 NA
ATOM     37  C   UNL A   1      38.886  28.561  27.950  1.00  0.00     0.031 C 
ATOM     38  C   UNL A   1      37.874  31.702  31.733  1.00  0.00     0.029 A 
ATOM     39  N   UNL A   1      39.676  30.393  31.947  1.00  0.00    -0.354 N 
ATOM     40  C   UNL A   1      40.800  27.638  28.802  1.00  0.00     0.074 A 
ATOM     41  C   UNL A   1      39.850  27.684  27.710  1.00  0.00     0.031 C 
ATOM     42  C   UNL A   1      38.443  31.985  32.919  1.00  0.00     0.029 A 
ATOM     43  C   UNL A   1      39.603  31.116  33.114  1.00  0.00     0.049 A 
ATOM     44  H   UNL A   1      40.397  29.750  31.756  1.00  0.00     0.167 HD
ATOM     45  C   UNL A   1      41.912  26.864  28.815  1.00  0.00     0.034 A 
ATOM     46  C   UNL A   1      40.368  31.060  34.222  1.00  0.00     0.034 A 
ATOM     47  C   UNL A   1      42.835  26.797  29.919  1.00  0.00     0.049 A 
ATOM     48  C   UNL A   1      41.524  30.090  34.267  1.00  0.00     0.074 A 
ATOM     49  C   UNL A   1      44.000  26.060  30.030  1.00  0.00     0.029 A 
ATOM     50  N   UNL A   1      42.681  27.480  31.118  1.00  0.00    -0.354 N 
ATOM     51  N   UNL A   1      41.948  29.268  33.336  1.00  0.00    -0.248 NA
ATOM     52  C   UNL A   1      42.298  30.039  35.516  1.00  0.00     0.031 C 
ATOM     53  C   UNL A   1      44.519  26.252  31.316  1.00  0.00     0.029 A 
ATOM     54  C   UNL A   1      43.706  27.149  31.989  1.00  0.00     0.049 A 
ATOM     55  H   UNL A   1      41.949  28.107  31.320  1.00  0.00     0.167 HD
ATOM     56  C   UNL A   1      43.048  28.613  33.883  1.00  0.00     0.074 A 
ATOM     57  C   UNL A   1      43.227  29.141  35.220  1.00  0.00     0.031 C 
ATOM     58  C   UNL A   1      43.847  27.666  33.328  1.00  0.00     0.034 A 
BRANCH  45  59
ATOM     59  C   UNL A   1      42.153  25.995  27.610  1.00  0.00     0.023 A 
ATOM     60  C   UNL A   1      41.693  24.668  27.560  1.00  0.00     0.031 A 
ATOM     61  C   UNL A   1      42.882  26.489  26.515  1.00  0.00     0.131 A 
ATOM     62  C   UNL A   1      42.013  23.862  26.458  1.00  0.00     0.055 A 
ATOM     63  C   UNL A   1      43.147  25.699  25.395  1.00  0.00     0.041 A 
ATOM     64  F   UNL A   1      43.363  27.742  26.525  1.00  0.00    -0.206 F 
ATOM     65  C   UNL A   1      42.721  24.373  25.368  1.00  0.00     0.022 A 
BRANCH  62  66
ATOM     66  S   UNL A   1      41.581  22.101  26.515  1.00  0.00     0.124 S 
ATOM     67  O   UNL A   1      42.484  21.542  25.511  1.00  0.00    -0.237 OA
ATOM     68  O   UNL A   1      41.868  21.749  27.900  1.00  0.00    -0.237 OA
ATOM     69  O   UNL A   1      40.166  22.084  26.148  1.00  0.00    -0.744 OA
ENDBRANCH  62  66
ENDBRANCH  45  59
BRANCH  46  70
ATOM     70  C   UNL A   1      40.035  31.887  35.414  1.00  0.00     0.023 A 
ATOM     71  C   UNL A   1      39.063  31.474  36.338  1.00  0.00     0.031 A 
ATOM     72  C   UNL A   1      40.644  33.140  35.606  1.00  0.00     0.131 A 
ATOM     73  C   UNL A   1      38.703  32.324  37.396  1.00  0.00     0.055 A 
ATOM     74  C   UNL A   1      40.309  33.965  36.679  1.00  0.00     0.041 A 
ATOM     75  F   UNL A   1      41.578  33.578  34.748  1.00  0.00    -0.206 F 
ATOM     76  C   UNL A   1      39.324  33.562  37.577  1.00  0.00     0.022 A 
BRANCH  73  77
ATOM     77  S   UNL A   1      37.352  31.819  38.496  1.00  0.00     0.124 S 
ATOM     78  O   UNL A   1      37.137  30.434  38.091  1.00  0.00    -0.237 OA
ATOM     79  O   UNL A   1      37.947  32.018  39.813  1.00  0.00    -0.237 OA
ATOM     80  O   UNL A   1      36.273  32.744  38.155  1.00  0.00    -0.744 OA
ENDBRANCH  73  77
ENDBRANCH  46  70
BRANCH  58  81
ATOM     81  C   UNL A   1      44.992  27.167  34.167  1.00  0.00     0.023 A 
ATOM     82  C   UNL A   1      44.853  26.044  34.999  1.00  0.00     0.031 A 
ATOM     83  C   UNL A   1      46.230  27.831  34.142  1.00  0.00     0.131 A 
ATOM     84  C   UNL A   1      45.928  25.638  35.805  1.00  0.00     0.055 A 
ATOM     85  C   UNL A   1      47.309  27.397  34.914  1.00  0.00     0.041 A 
ATOM     86  F   UNL A   1      46.411  28.909  33.362  1.00  0.00    -0.206 F 
ATOM     87  C   UNL A   1      47.158  26.301  35.758  1.00  0.00     0.022 A 
BRANCH  84  88
ATOM     88  S   UNL A   1      45.682  24.260  36.958  1.00  0.00     0.124 S 
ATOM     89  O   UNL A   1      47.052  23.948  37.354  1.00  0.00    -0.237 OA
ATOM     90  O   UNL A   1      44.840  24.859  37.990  1.00  0.00    -0.237 OA
ATOM     91  O   UNL A   1      45.025  23.242  36.141  1.00  0.00    -0.744 OA
ENDBRANCH  84  88
ENDBRANCH  58  81
ENDBRANCH  32  33
ENDBRANCH  25  27
ENDBRANCH  24  25
ENDBRANCH  23  24
ENDBRANCH   1  23
TORSDOF 19
ENDMDL
MODEL 3
REMARK VINA RESULT:     -10.6      1.636      1.947
REMARK SMILES CC[N@@H+]1CCO[C@H](c2nc(C)c(C(=O)OCCOCCOC(=O)c3ccc(-c4c5nc(c(-c6cc(S(=O)(=O)[O-])ccc6F)c6ccc([nH]6)c(-c6cc(S(=O)(=O)[O-])ccc6F)c6nc(c(-c7cc(S(=O)(=O)[O-])ccc7F)c7ccc4[nH]7)C=C6)C=C5)cc3)s2)C1
REMARK SMILES IDX 19 1 18 2 17 3 16 4 15 5 13 6 14 7 12 8 8 9 9 10 87 11 10 12
REMARK SMILES IDX 11 13 7 14 3 15 4 16 88 17 5 19 6 20 2 21 1 22 20 23 21 24
REMARK SMILES IDX 22 25 23 26 24 27 25 28 86 29 26 30 85 31 27 32 28 33 29 34
REMARK SMILES IDX 79 35 30 36 84 37 78 38 80 39 31 40 83 41 77 42 76 43 32 45
REMARK SMILES IDX 64 46 44 47 63 48 45 49 48 50 62 51 81 52 46 53 47 54 61 56
REMARK SMILES IDX 82 57 49 58 33 59 34 60 42 61 35 62 41 63 43 64 40 65 36 66
REMARK SMILES IDX 37 67 38 68 39 69 65 70 66 71 74 72 67 73 73 74 75 75 72 76
REMARK SMILES IDX 68 77 69 78 70 79 71 80 50 81 51 82 59 83 52 84 58 85 60 86
REMARK SMILES IDX 57 87 53 88 54 89 55 90 56 91
REMARK H PARENT 3 18 80 44 48 55
REMARK Flexibility Score: inf
ROOT
ATOM      1  C   UNL A   1      36.401  20.351  25.003  1.00  0.00     0.202 C 
ENDROOT
BRANCH   1   2
ATOM      2  O   UNL A   1      35.745  19.125  24.673  1.00  0.00    -0.374 OA
BRANCH   2   3
ATOM      3  C   UNL A   1      34.315  19.164  24.634  1.00  0.00     0.202 C 
BRANCH   3   4
ATOM      4  C   UNL A   1      33.712  20.416  25.275  1.00  0.00     0.261 C 
BRANCH   4   5
ATOM      5  O   UNL A   1      32.762  21.019  24.376  1.00  0.00    -0.459 OA
BRANCH   5   6
ATOM      6  C   UNL A   1      33.077  22.277  23.979  1.00  0.00     0.350 C 
ATOM      7  O   UNL A   1      33.966  22.559  23.181  1.00  0.00    -0.245 OA
BRANCH   6   8
ATOM      8  C   UNL A   1      32.166  23.239  24.534  1.00  0.00     0.135 A 
ATOM      9  C   UNL A   1      30.857  25.248  24.507  1.00  0.00     0.128 A 
ATOM     10  N   UNL A   1      31.225  24.973  25.748  1.00  0.00    -0.243 NA
ATOM     11  S   UNL A   1      30.977  23.885  23.478  1.00  0.00    -0.108 S 
ATOM     12  C   UNL A   1      31.954  23.782  25.788  1.00  0.00     0.063 A 
ATOM     13  C   UNL A   1      32.513  23.364  27.099  1.00  0.00     0.068 C 
BRANCH   9  14
ATOM     14  C   UNL A   1      30.358  26.587  24.004  1.00  0.00     0.232 C 
ATOM     15  N   UNL A   1      32.058  27.554  22.242  1.00  0.00    -0.331 N 
ATOM     16  C   UNL A   1      32.425  28.493  23.322  1.00  0.00     0.291 C 
ATOM     17  C   UNL A   1      30.715  26.985  22.535  1.00  0.00     0.302 C 
ATOM     18  H   UNL A   1      31.965  28.032  21.345  1.00  0.00     0.348 HD
ATOM     19  C   UNL A   1      32.177  27.947  24.735  1.00  0.00     0.222 C 
ATOM     20  O   UNL A   1      30.795  27.618  24.920  1.00  0.00    -0.359 OA
BRANCH  15  21
ATOM     21  C   UNL A   1      33.135  26.586  21.993  1.00  0.00     0.258 C 
ATOM     22  C   UNL A   1      32.788  25.525  20.951  1.00  0.00     0.071 C 
ENDBRANCH  15  21
ENDBRANCH   9  14
ENDBRANCH   6   8
ENDBRANCH   5   6
ENDBRANCH   4   5
ENDBRANCH   3   4
ENDBRANCH   2   3
ENDBRANCH   1   2
BRANCH   1  23
ATOM     23  C   UNL A   1      37.927  20.260  25.078  1.00  0.00     0.261 C 
BRANCH  23  24
ATOM     24  O   UNL A   1      38.462  21.470  25.644  1.00  0.00    -0.460 OA
BRANCH  24  25
ATOM     25  C   UNL A   1      39.570  21.310  26.407  1.00  0.00     0.338 C 
ATOM     26  O   UNL A   1      40.237  20.296  26.522  1.00  0.00    -0.246 OA
BRANCH  25  27
ATOM     27  C   UNL A   1      39.990  22.627  26.936  1.00  0.00     0.060 A 
ATOM     28  C   UNL A   1      39.329  23.758  26.440  1.00  0.00     0.016 A 
ATOM     29  C   UNL A   1      40.993  22.763  27.902  1.00  0.00     0.016 A 
ATOM     30  C   UNL A   1      39.688  25.029  26.883  1.00  0.00     0.010 A 
ATOM     31  C   UNL A   1      41.364  24.042  28.333  1.00  0.00     0.010 A 
ATOM     32  C   UNL A   1      40.729  25.179  27.808  1.00  0.00    -0.014 A 
BRANCH  32  33
ATOM     33  C   UNL A   1      41.240  26.535  28.118  1.00  0.00     0.031 A 
ATOM     34  C   UNL A   1      42.666  26.865  27.777  1.00  0.00     0.074 A 
ATOM     35  C   UNL A   1      40.439  27.464  28.669  1.00  0.00     0.049 A 
ATOM     36  N   UNL A   1      43.329  27.975  27.971  1.00  0.00    -0.248 NA
ATOM     37  C   UNL A   1      43.445  25.801  27.125  1.00  0.00     0.031 C 
ATOM     38  C   UNL A   1      39.027  27.272  29.000  1.00  0.00     0.029 A 
ATOM     39  N   UNL A   1      40.704  28.753  29.055  1.00  0.00    -0.354 N 
ATOM     40  C   UNL A   1      44.598  27.752  27.449  1.00  0.00     0.074 A 
ATOM     41  C   UNL A   1      44.620  26.389  26.961  1.00  0.00     0.031 C 
ATOM     42  C   UNL A   1      38.554  28.401  29.560  1.00  0.00     0.029 A 
ATOM     43  C   UNL A   1      39.636  29.380  29.653  1.00  0.00     0.049 A 
ATOM     44  H   UNL A   1      41.576  29.188  28.918  1.00  0.00     0.167 HD
ATOM     45  C   UNL A   1      45.645  28.608  27.373  1.00  0.00     0.034 A 
ATOM     46  C   UNL A   1      39.554  30.594  30.233  1.00  0.00     0.034 A 
ATOM     47  C   UNL A   1      45.626  29.952  27.892  1.00  0.00     0.049 A 
ATOM     48  C   UNL A   1      40.775  31.480  30.258  1.00  0.00     0.074 A 
ATOM     49  C   UNL A   1      46.625  30.908  27.853  1.00  0.00     0.029 A 
ATOM     50  N   UNL A   1      44.555  30.522  28.567  1.00  0.00    -0.354 N 
ATOM     51  N   UNL A   1      41.965  31.260  29.748  1.00  0.00    -0.248 NA
ATOM     52  C   UNL A   1      40.641  32.774  30.942  1.00  0.00     0.031 C 
ATOM     53  C   UNL A   1      46.179  32.035  28.555  1.00  0.00     0.029 A 
ATOM     54  C   UNL A   1      44.883  31.801  28.986  1.00  0.00     0.049 A 
ATOM     55  H   UNL A   1      43.689  30.082  28.725  1.00  0.00     0.167 HD
ATOM     56  C   UNL A   1      42.715  32.396  30.038  1.00  0.00     0.074 A 
ATOM     57  C   UNL A   1      41.844  33.301  30.759  1.00  0.00     0.031 C 
ATOM     58  C   UNL A   1      44.008  32.673  29.728  1.00  0.00     0.034 A 
BRANCH  45  59
ATOM     59  C   UNL A   1      46.909  28.086  26.746  1.00  0.00     0.023 A 
ATOM     60  C   UNL A   1      47.106  28.124  25.355  1.00  0.00     0.031 A 
ATOM     61  C   UNL A   1      47.913  27.514  27.546  1.00  0.00     0.131 A 
ATOM     62  C   UNL A   1      48.258  27.549  24.799  1.00  0.00     0.055 A 
ATOM     63  C   UNL A   1      49.084  26.995  26.991  1.00  0.00     0.041 A 
ATOM     64  F   UNL A   1      47.762  27.433  28.876  1.00  0.00    -0.206 F 
ATOM     65  C   UNL A   1      49.257  27.001  25.609  1.00  0.00     0.022 A 
BRANCH  62  66
ATOM     66  S   UNL A   1      48.387  27.432  22.994  1.00  0.00     0.124 S 
ATOM     67  O   UNL A   1      47.224  28.205  22.564  1.00  0.00    -0.237 OA
ATOM     68  O   UNL A   1      49.688  28.035  22.730  1.00  0.00    -0.237 OA
ATOM     69  O   UNL A   1      48.303  25.996  22.737  1.00  0.00    -0.744 OA
ENDBRANCH  62  66
ENDBRANCH  45  59
BRANCH  46  70
ATOM     70  C   UNL A   1      38.299  31.026  30.907  1.00  0.00     0.023 A 
ATOM     71  C   UNL A   1      37.279  31.680  30.199  1.00  0.00     0.031 A 
ATOM     72  C   UNL A   1      38.133  30.844  32.292  1.00  0.00     0.131 A 
ATOM     73  C   UNL A   1      36.153  32.162  30.885  1.00  0.00     0.055 A 
ATOM     74  C   UNL A   1      36.996  31.292  32.963  1.00  0.00     0.041 A 
ATOM     75  F   UNL A   1      39.082  30.226  33.012  1.00  0.00    -0.206 F 
ATOM     76  C   UNL A   1      36.002  31.966  32.260  1.00  0.00     0.022 A 
BRANCH  73  77
ATOM     77  S   UNL A   1      34.917  33.118  29.964  1.00  0.00     0.124 S 
ATOM     78  O   UNL A   1      34.300  32.089  29.133  1.00  0.00    -0.237 OA
ATOM     79  O   UNL A   1      34.091  33.655  31.040  1.00  0.00    -0.237 OA
ATOM     80  O   UNL A   1      35.718  34.105  29.244  1.00  0.00    -0.744 OA
ENDBRANCH  73  77
ENDBRANCH  46  70
BRANCH  58  81
ATOM     81  C   UNL A   1      44.535  34.017  30.155  1.00  0.00     0.023 A 
ATOM     82  C   UNL A   1      44.334  35.164  29.368  1.00  0.00     0.031 A 
ATOM     83  C   UNL A   1      45.254  34.147  31.354  1.00  0.00     0.131 A 
ATOM     84  C   UNL A   1      44.883  36.390  29.773  1.00  0.00     0.055 A 
ATOM     85  C   UNL A   1      45.761  35.378  31.773  1.00  0.00     0.041 A 
ATOM     86  F   UNL A   1      45.471  33.080  32.139  1.00  0.00    -0.206 F 
ATOM     87  C   UNL A   1      45.585  36.505  30.977  1.00  0.00     0.022 A 
BRANCH  84  88
ATOM     88  S   UNL A   1      44.713  37.826  28.679  1.00  0.00     0.124 S 
ATOM     89  O   UNL A   1      43.563  38.514  29.258  1.00  0.00    -0.237 OA
ATOM     90  O   UNL A   1      46.001  38.495  28.834  1.00  0.00    -0.237 OA
ATOM     91  O   UNL A   1      44.481  37.230  27.364  1.00  0.00    -0.744 OA
ENDBRANCH  84  88
ENDBRANCH  58  81
ENDBRANCH  32  33
ENDBRANCH  25  27
ENDBRANCH  24  25
ENDBRANCH  23  24
ENDBRANCH   1  23
TORSDOF 19
ENDMDL
