MODEL 1
REMARK VINA RESULT:     -10.5      0.000      0.000
REMARK SMILES CCCc1nsc(Oc2csc(C(=O)OCCOCCOC(=O)c3ccc(-c4c5nc(c(-c6cc(S(=O)(=O)[O-])ccc6F)c6ccc([nH]6)c(-c6cc(S(=O)(=O)[O-])ccc6F)c6nc(c(-c7cc(S(=O)(=O)[O-])ccc7F)c7ccc4[nH]7)C=C6)C=C5)cc3)c2)n1
REMARK SMILES IDX 17 1 16 2 15 3 13 4 14 5 12 6 9 7 10 8 87 9 11 10 8 11 7 12
REMARK SMILES IDX 4 13 5 14 88 15 6 16 3 17 2 18 1 19 18 20 19 21 20 22 21 23
REMARK SMILES IDX 22 24 23 25 24 26 25 27 86 28 26 29 85 30 27 31 28 32 29 33
REMARK SMILES IDX 79 34 30 35 84 36 78 37 80 38 31 39 83 40 77 41 76 42 32 44
REMARK SMILES IDX 64 45 44 46 63 47 45 48 48 49 62 50 81 51 46 52 47 53 61 55
REMARK SMILES IDX 82 56 49 57 33 58 34 59 42 60 35 61 41 62 43 63 40 64 36 65
REMARK SMILES IDX 37 66 38 67 39 68 65 69 66 70 74 71 67 72 73 73 75 74 72 75
REMARK SMILES IDX 68 76 69 77 70 78 71 79 50 80 51 81 59 82 52 83 58 84 60 85
REMARK SMILES IDX 57 86 53 87 54 88 55 89 56 90
REMARK H PARENT 80 43 48 54
REMARK Flexibility Score: inf
ROOT
ATOM      1  C   UNL A   1      35.091  20.890  24.908  1.00  0.00     0.202 C 
ENDROOT
BRANCH   1   2
ATOM      2  C   UNL A   1      33.617  21.085  24.540  1.00  0.00     0.261 C 
BRANCH   2   3
ATOM      3  O   UNL A   1      33.358  22.465  24.219  1.00  0.00    -0.459 OA
BRANCH   3   4
ATOM      4  C   UNL A   1      32.204  22.716  23.538  1.00  0.00     0.348 C 
ATOM      5  O   UNL A   1      31.786  22.044  22.602  1.00  0.00    -0.245 OA
BRANCH   4   6
ATOM      6  C   UNL A   1      31.518  23.842  24.149  1.00  0.00     0.116 A 
ATOM      7  C   UNL A   1      30.151  25.695  24.555  1.00  0.00     0.141 A 
ATOM      8  C   UNL A   1      30.859  25.622  25.733  1.00  0.00     0.112 A 
ATOM      9  C   UNL A   1      30.532  24.669  23.640  1.00  0.00     0.074 A 
ATOM     10  S   UNL A   1      31.965  24.318  25.736  1.00  0.00    -0.133 S 
BRANCH   7  11
ATOM     11  O   UNL A   1      29.143  26.562  24.293  1.00  0.00    -0.429 OA
BRANCH  11  12
ATOM     12  C   UNL A   1      29.265  27.553  23.410  1.00  0.00     0.298 A 
ATOM     13  C   UNL A   1      28.844  29.322  22.178  1.00  0.00     0.146 A 
ATOM     14  N   UNL A   1      30.154  29.295  21.910  1.00  0.00    -0.172 NA
ATOM     15  N   UNL A   1      28.290  28.327  22.979  1.00  0.00    -0.186 NA
ATOM     16  S   UNL A   1      30.789  28.017  22.779  1.00  0.00     0.025 S 
BRANCH  13  17
ATOM     17  C   UNL A   1      28.007  30.428  21.618  1.00  0.00     0.078 C 
BRANCH  17  18
ATOM     18  C   UNL A   1      28.578  31.838  21.771  1.00  0.00     0.005 C 
ATOM     19  C   UNL A   1      28.421  32.412  23.173  1.00  0.00     0.004 C 
ENDBRANCH  17  18
ENDBRANCH  13  17
ENDBRANCH  11  12
ENDBRANCH   7  11
ENDBRANCH   4   6
ENDBRANCH   3   4
ENDBRANCH   2   3
ENDBRANCH   1   2
BRANCH   1  20
ATOM     20  O   UNL A   1      35.496  19.520  24.960  1.00  0.00    -0.374 OA
BRANCH  20  21
ATOM     21  C   UNL A   1      36.905  19.283  24.954  1.00  0.00     0.202 C 
BRANCH  21  22
ATOM     22  C   UNL A   1      37.765  20.523  24.686  1.00  0.00     0.261 C 
BRANCH  22  23
ATOM     23  O   UNL A   1      38.120  21.179  25.918  1.00  0.00    -0.460 OA
BRANCH  23  24
ATOM     24  C   UNL A   1      39.413  21.028  26.297  1.00  0.00     0.338 C 
ATOM     25  O   UNL A   1      40.127  20.062  26.089  1.00  0.00    -0.246 OA
BRANCH  24  26
ATOM     26  C   UNL A   1      39.920  22.298  26.859  1.00  0.00     0.060 A 
ATOM     27  C   UNL A   1      39.386  23.489  26.349  1.00  0.00     0.016 A 
ATOM     28  C   UNL A   1      40.924  22.336  27.832  1.00  0.00     0.016 A 
ATOM     29  C   UNL A   1      39.888  24.720  26.770  1.00  0.00     0.010 A 
ATOM     30  C   UNL A   1      41.430  23.573  28.249  1.00  0.00     0.010 A 
ATOM     31  C   UNL A   1      40.938  24.768  27.695  1.00  0.00    -0.014 A 
BRANCH  31  32
ATOM     32  C   UNL A   1      41.635  26.052  27.954  1.00  0.00     0.031 A 
ATOM     33  C   UNL A   1      40.899  27.134  28.696  1.00  0.00     0.074 A 
ATOM     34  C   UNL A   1      42.903  26.249  27.551  1.00  0.00     0.049 A 
ATOM     35  N   UNL A   1      41.271  28.357  28.970  1.00  0.00    -0.248 NA
ATOM     36  C   UNL A   1      39.559  26.784  29.191  1.00  0.00     0.031 C 
ATOM     37  C   UNL A   1      43.736  25.259  26.869  1.00  0.00     0.029 A 
ATOM     38  N   UNL A   1      43.709  27.355  27.649  1.00  0.00    -0.354 N 
ATOM     39  C   UNL A   1      40.208  28.930  29.662  1.00  0.00     0.074 A 
ATOM     40  C   UNL A   1      39.166  27.927  29.734  1.00  0.00     0.031 C 
ATOM     41  C   UNL A   1      44.931  25.810  26.594  1.00  0.00     0.029 A 
ATOM     42  C   UNL A   1      44.934  27.201  27.044  1.00  0.00     0.049 A 
ATOM     43  H   UNL A   1      43.436  28.182  28.108  1.00  0.00     0.167 HD
ATOM     44  C   UNL A   1      40.113  30.174  30.194  1.00  0.00     0.034 A 
ATOM     45  C   UNL A   1      45.930  28.091  26.848  1.00  0.00     0.034 A 
ATOM     46  C   UNL A   1      41.155  31.166  30.102  1.00  0.00     0.049 A 
ATOM     47  C   UNL A   1      45.769  29.498  27.372  1.00  0.00     0.074 A 
ATOM     48  C   UNL A   1      41.167  32.454  30.606  1.00  0.00     0.029 A 
ATOM     49  N   UNL A   1      42.369  30.984  29.451  1.00  0.00    -0.354 N 
ATOM     50  N   UNL A   1      44.759  30.029  28.021  1.00  0.00    -0.248 NA
ATOM     51  C   UNL A   1      46.886  30.424  27.141  1.00  0.00     0.031 C 
ATOM     52  C   UNL A   1      42.359  33.072  30.207  1.00  0.00     0.029 A 
ATOM     53  C   UNL A   1      43.124  32.145  29.517  1.00  0.00     0.049 A 
ATOM     54  H   UNL A   1      42.653  30.151  29.009  1.00  0.00     0.167 HD
ATOM     55  C   UNL A   1      45.135  31.340  28.305  1.00  0.00     0.074 A 
ATOM     56  C   UNL A   1      46.465  31.517  27.760  1.00  0.00     0.031 C 
ATOM     57  C   UNL A   1      44.449  32.307  28.966  1.00  0.00     0.034 A 
BRANCH  44  58
ATOM     58  C   UNL A   1      38.813  30.538  30.866  1.00  0.00     0.023 A 
ATOM     59  C   UNL A   1      37.746  31.112  30.153  1.00  0.00     0.031 A 
ATOM     60  C   UNL A   1      38.653  30.347  32.249  1.00  0.00     0.131 A 
ATOM     61  C   UNL A   1      36.597  31.540  30.836  1.00  0.00     0.055 A 
ATOM     62  C   UNL A   1      37.475  30.702  32.911  1.00  0.00     0.041 A 
ATOM     63  F   UNL A   1      39.645  29.824  32.986  1.00  0.00    -0.206 F 
ATOM     64  C   UNL A   1      36.445  31.318  32.206  1.00  0.00     0.022 A 
BRANCH  61  65
ATOM     65  S   UNL A   1      35.367  32.522  29.934  1.00  0.00     0.124 S 
ATOM     66  O   UNL A   1      34.308  32.656  30.930  1.00  0.00    -0.237 OA
ATOM     67  O   UNL A   1      36.106  33.739  29.618  1.00  0.00    -0.237 OA
ATOM     68  O   UNL A   1      35.031  31.679  28.788  1.00  0.00    -0.744 OA
ENDBRANCH  61  65
ENDBRANCH  44  58
BRANCH  45  69
ATOM     69  C   UNL A   1      47.149  27.702  26.084  1.00  0.00     0.023 A 
ATOM     70  C   UNL A   1      47.244  27.924  24.701  1.00  0.00     0.031 A 
ATOM     71  C   UNL A   1      48.219  27.049  26.723  1.00  0.00     0.131 A 
ATOM     72  C   UNL A   1      48.364  27.457  23.993  1.00  0.00     0.055 A 
ATOM     73  C   UNL A   1      49.352  26.633  26.023  1.00  0.00     0.041 A 
ATOM     74  F   UNL A   1      48.179  26.812  28.043  1.00  0.00    -0.206 F 
ATOM     75  C   UNL A   1      49.423  26.824  24.647  1.00  0.00     0.022 A 
BRANCH  72  76
ATOM     76  S   UNL A   1      48.381  27.621  22.188  1.00  0.00     0.124 S 
ATOM     77  O   UNL A   1      49.508  28.523  21.982  1.00  0.00    -0.237 OA
ATOM     78  O   UNL A   1      48.577  26.240  21.760  1.00  0.00    -0.237 OA
ATOM     79  O   UNL A   1      47.066  28.184  21.885  1.00  0.00    -0.744 OA
ENDBRANCH  72  76
ENDBRANCH  45  69
BRANCH  57  80
ATOM     80  C   UNL A   1      45.151  33.624  29.188  1.00  0.00     0.023 A 
ATOM     81  C   UNL A   1      45.097  34.665  28.245  1.00  0.00     0.031 A 
ATOM     82  C   UNL A   1      45.883  33.837  30.370  1.00  0.00     0.131 A 
ATOM     83  C   UNL A   1      45.799  35.857  28.482  1.00  0.00     0.055 A 
ATOM     84  C   UNL A   1      46.536  35.043  30.622  1.00  0.00     0.041 A 
ATOM     85  F   UNL A   1      45.968  32.875  31.303  1.00  0.00    -0.206 F 
ATOM     86  C   UNL A   1      46.506  36.059  29.671  1.00  0.00     0.022 A 
BRANCH  83  87
ATOM     87  S   UNL A   1      45.839  37.121  27.181  1.00  0.00     0.124 S 
ATOM     88  O   UNL A   1      46.644  38.169  27.799  1.00  0.00    -0.237 OA
ATOM     89  O   UNL A   1      46.465  36.409  26.072  1.00  0.00    -0.237 OA
ATOM     90  O   UNL A   1      44.430  37.455  26.984  1.00  0.00    -0.744 OA
ENDBRANCH  83  87
ENDBRANCH  57  80
ENDBRANCH  31  32
ENDBRANCH  24  26
ENDBRANCH  23  24
ENDBRANCH  22  23
ENDBRANCH  21  22
ENDBRANCH  20  21
ENDBRANCH   1  20
TORSDOF 21
ENDMDL
MODEL 2
REMARK VINA RESULT:     -10.4      5.317     10.677
REMARK SMILES CCCc1nsc(Oc2csc(C(=O)OCCOCCOC(=O)c3ccc(-c4c5nc(c(-c6cc(S(=O)(=O)[O-])ccc6F)c6ccc([nH]6)c(-c6cc(S(=O)(=O)[O-])ccc6F)c6nc(c(-c7cc(S(=O)(=O)[O-])ccc7F)c7ccc4[nH]7)C=C6)C=C5)cc3)c2)n1
REMARK SMILES IDX 17 1 16 2 15 3 13 4 14 5 12 6 9 7 10 8 87 9 11 10 8 11 7 12
REMARK SMILES IDX 4 13 5 14 88 15 6 16 3 17 2 18 1 19 18 20 19 21 20 22 21 23
REMARK SMILES IDX 22 24 23 25 24 26 25 27 86 28 26 29 85 30 27 31 28 32 29 33
REMARK SMILES IDX 79 34 30 35 84 36 78 37 80 38 31 39 83 40 77 41 76 42 32 44
REMARK SMILES IDX 64 45 44 46 63 47 45 48 48 49 62 50 81 51 46 52 47 53 61 55
REMARK SMILES IDX 82 56 49 57 33 58 34 59 42 60 35 61 41 62 43 63 40 64 36 65
REMARK SMILES IDX 37 66 38 67 39 68 65 69 66 70 74 71 67 72 73 73 75 74 72 75
REMARK SMILES IDX 68 76 69 77 70 78 71 79 50 80 51 81 59 82 52 83 58 84 60 85
REMARK SMILES IDX 57 86 53 87 54 88 55 89 56 90
REMARK H PARENT 80 43 48 54
REMARK Flexibility Score: inf
ROOT
ATOM      1  C   UNL A   1      30.690  28.764  23.573  1.00  0.00     0.202 C 
ENDROOT
BRANCH   1   2
ATOM      2  C   UNL A   1      31.817  28.938  22.551  1.00  0.00     0.261 C 
BRANCH   2   3
ATOM      3  O   UNL A   1      32.816  27.917  22.727  1.00  0.00    -0.459 OA
BRANCH   3   4
ATOM      4  C   UNL A   1      32.435  26.644  22.421  1.00  0.00     0.348 C 
ATOM      5  O   UNL A   1      31.712  26.340  21.478  1.00  0.00    -0.245 OA
BRANCH   4   6
ATOM      6  C   UNL A   1      33.086  25.713  23.327  1.00  0.00     0.116 A 
ATOM      7  C   UNL A   1      34.071  23.824  24.289  1.00  0.00     0.141 A 
ATOM      8  C   UNL A   1      34.050  24.689  25.360  1.00  0.00     0.112 A 
ATOM      9  C   UNL A   1      33.514  24.414  23.116  1.00  0.00     0.074 A 
ATOM     10  S   UNL A   1      33.373  26.203  24.947  1.00  0.00    -0.133 S 
BRANCH   7  11
ATOM     11  O   UNL A   1      34.628  22.589  24.284  1.00  0.00    -0.429 OA
BRANCH  11  12
ATOM     12  C   UNL A   1      33.968  21.506  24.694  1.00  0.00     0.298 A 
ATOM     13  C   UNL A   1      32.960  19.555  24.721  1.00  0.00     0.146 A 
ATOM     14  N   UNL A   1      33.022  19.680  26.052  1.00  0.00    -0.172 NA
ATOM     15  N   UNL A   1      33.436  20.586  23.917  1.00  0.00    -0.186 NA
ATOM     16  S   UNL A   1      33.812  21.120  26.356  1.00  0.00     0.025 S 
BRANCH  13  17
ATOM     17  C   UNL A   1      32.390  18.304  24.132  1.00  0.00     0.078 C 
BRANCH  17  18
ATOM     18  C   UNL A   1      33.240  17.043  24.295  1.00  0.00     0.005 C 
ATOM     19  C   UNL A   1      34.158  16.769  23.110  1.00  0.00     0.004 C 
ENDBRANCH  17  18
ENDBRANCH  13  17
ENDBRANCH  11  12
ENDBRANCH   7  11
ENDBRANCH   4   6
ENDBRANCH   3   4
ENDBRANCH   2   3
ENDBRANCH   1   2
BRANCH   1  20
ATOM     20  O   UNL A   1      30.669  29.772  24.586  1.00  0.00    -0.374 OA
BRANCH  20  21
ATOM     21  C   UNL A   1      31.864  29.911  25.357  1.00  0.00     0.202 C 
BRANCH  21  22
ATOM     22  C   UNL A   1      31.818  31.010  26.423  1.00  0.00     0.261 C 
BRANCH  22  23
ATOM     23  O   UNL A   1      32.872  30.836  27.389  1.00  0.00    -0.460 OA
BRANCH  23  24
ATOM     24  C   UNL A   1      33.650  31.928  27.593  1.00  0.00     0.338 C 
ATOM     25  O   UNL A   1      33.290  33.092  27.586  1.00  0.00    -0.246 OA
BRANCH  24  26
ATOM     26  C   UNL A   1      35.003  31.505  28.015  1.00  0.00     0.060 A 
ATOM     27  C   UNL A   1      35.186  30.154  28.339  1.00  0.00     0.016 A 
ATOM     28  C   UNL A   1      36.063  32.408  28.136  1.00  0.00     0.016 A 
ATOM     29  C   UNL A   1      36.412  29.710  28.832  1.00  0.00     0.010 A 
ATOM     30  C   UNL A   1      37.291  31.961  28.637  1.00  0.00     0.010 A 
ATOM     31  C   UNL A   1      37.461  30.619  29.020  1.00  0.00    -0.014 A 
BRANCH  31  32
ATOM     32  C   UNL A   1      38.672  30.204  29.770  1.00  0.00     0.031 A 
ATOM     33  C   UNL A   1      39.587  29.182  29.152  1.00  0.00     0.074 A 
ATOM     34  C   UNL A   1      38.961  30.736  30.971  1.00  0.00     0.049 A 
ATOM     35  N   UNL A   1      40.654  28.612  29.648  1.00  0.00    -0.248 NA
ATOM     36  C   UNL A   1      39.244  28.743  27.791  1.00  0.00     0.031 C 
ATOM     37  C   UNL A   1      38.179  31.769  31.648  1.00  0.00     0.029 A 
ATOM     38  N   UNL A   1      39.989  30.469  31.840  1.00  0.00    -0.354 N 
ATOM     39  C   UNL A   1      41.108  27.739  28.664  1.00  0.00     0.074 A 
ATOM     40  C   UNL A   1      40.178  27.833  27.558  1.00  0.00     0.031 C 
ATOM     41  C   UNL A   1      38.747  32.037  32.837  1.00  0.00     0.029 A 
ATOM     42  C   UNL A   1      39.909  31.168  33.022  1.00  0.00     0.049 A 
ATOM     43  H   UNL A   1      40.716  29.837  31.637  1.00  0.00     0.167 HD
ATOM     44  C   UNL A   1      42.202  26.938  28.680  1.00  0.00     0.034 A 
ATOM     45  C   UNL A   1      40.665  31.089  34.136  1.00  0.00     0.034 A 
ATOM     46  C   UNL A   1      43.113  26.846  29.794  1.00  0.00     0.049 A 
ATOM     47  C   UNL A   1      41.829  30.128  34.166  1.00  0.00     0.074 A 
ATOM     48  C   UNL A   1      44.253  26.073  29.916  1.00  0.00     0.029 A 
ATOM     49  N   UNL A   1      42.978  27.544  30.988  1.00  0.00    -0.354 N 
ATOM     50  N   UNL A   1      42.247  29.305  33.232  1.00  0.00    -0.248 NA
ATOM     51  C   UNL A   1      42.627  30.089  35.400  1.00  0.00     0.031 C 
ATOM     52  C   UNL A   1      44.772  26.253  31.204  1.00  0.00     0.029 A 
ATOM     53  C   UNL A   1      43.998  27.197  31.861  1.00  0.00     0.049 A 
ATOM     54  H   UNL A   1      42.264  28.193  31.186  1.00  0.00     0.167 HD
ATOM     55  C   UNL A   1      43.376  28.677  33.754  1.00  0.00     0.074 A 
ATOM     56  C   UNL A   1      43.575  29.220  35.082  1.00  0.00     0.031 C 
ATOM     57  C   UNL A   1      44.182  27.745  33.184  1.00  0.00     0.034 A 
BRANCH  44  58
ATOM     58  C   UNL A   1      42.432  26.061  27.474  1.00  0.00     0.023 A 
ATOM     59  C   UNL A   1      41.949  24.742  27.416  1.00  0.00     0.031 A 
ATOM     60  C   UNL A   1      43.179  26.538  26.383  1.00  0.00     0.131 A 
ATOM     61  C   UNL A   1      42.280  23.923  26.325  1.00  0.00     0.055 A 
ATOM     62  C   UNL A   1      43.438  25.743  25.265  1.00  0.00     0.041 A 
ATOM     63  F   UNL A   1      43.685  27.781  26.392  1.00  0.00    -0.206 F 
ATOM     64  C   UNL A   1      43.001  24.422  25.239  1.00  0.00     0.022 A 
BRANCH  61  65
ATOM     65  S   UNL A   1      41.879  22.156  26.414  1.00  0.00     0.124 S 
ATOM     66  O   UNL A   1      42.614  21.628  25.269  1.00  0.00    -0.237 OA
ATOM     67  O   UNL A   1      42.388  21.784  27.729  1.00  0.00    -0.237 OA
ATOM     68  O   UNL A   1      40.424  22.130  26.277  1.00  0.00    -0.744 OA
ENDBRANCH  61  65
ENDBRANCH  44  58
BRANCH  45  69
ATOM     69  C   UNL A   1      40.327  31.906  35.336  1.00  0.00     0.023 A 
ATOM     70  C   UNL A   1      39.330  31.501  36.237  1.00  0.00     0.031 A 
ATOM     71  C   UNL A   1      40.964  33.139  35.569  1.00  0.00     0.131 A 
ATOM     72  C   UNL A   1      38.967  32.340  37.302  1.00  0.00     0.055 A 
ATOM     73  C   UNL A   1      40.635  33.946  36.658  1.00  0.00     0.041 A 
ATOM     74  F   UNL A   1      41.925  33.574  34.738  1.00  0.00    -0.206 F 
ATOM     75  C   UNL A   1      39.621  33.553  37.526  1.00  0.00     0.022 A 
BRANCH  72  76
ATOM     76  S   UNL A   1      37.569  31.857  38.352  1.00  0.00     0.124 S 
ATOM     77  O   UNL A   1      38.148  31.966  39.686  1.00  0.00    -0.237 OA
ATOM     78  O   UNL A   1      36.567  32.859  38.002  1.00  0.00    -0.237 OA
ATOM     79  O   UNL A   1      37.267  30.496  37.911  1.00  0.00    -0.744 OA
ENDBRANCH  72  76
ENDBRANCH  45  69
BRANCH  57  80
ATOM     80  C   UNL A   1      45.388  27.299  33.973  1.00  0.00     0.023 A 
ATOM     81  C   UNL A   1      45.340  26.201  34.849  1.00  0.00     0.031 A 
ATOM     82  C   UNL A   1      46.608  27.987  33.838  1.00  0.00     0.131 A 
ATOM     83  C   UNL A   1      46.480  25.849  35.589  1.00  0.00     0.055 A 
ATOM     84  C   UNL A   1      47.751  27.601  34.538  1.00  0.00     0.041 A 
ATOM     85  F   UNL A   1      46.707  29.044  33.016  1.00  0.00    -0.206 F 
ATOM     86  C   UNL A   1      47.689  26.533  35.428  1.00  0.00     0.022 A 
BRANCH  83  87
ATOM     87  S   UNL A   1      46.346  24.527  36.824  1.00  0.00     0.124 S 
ATOM     88  O   UNL A   1      46.611  25.244  38.068  1.00  0.00    -0.237 OA
ATOM     89  O   UNL A   1      44.976  24.062  36.638  1.00  0.00    -0.237 OA
ATOM     90  O   UNL A   1      47.382  23.577  36.424  1.00  0.00    -0.744 OA
ENDBRANCH  83  87
ENDBRANCH  57  80
ENDBRANCH  31  32
ENDBRANCH  24  26
ENDBRANCH  23  24
ENDBRANCH  22  23
ENDBRANCH  21  22
ENDBRANCH  20  21
ENDBRANCH   1  20
TORSDOF 21
ENDMDL
MODEL 3
REMARK VINA RESULT:     -10.2      1.096      7.622
REMARK SMILES CCCc1nsc(Oc2csc(C(=O)OCCOCCOC(=O)c3ccc(-c4c5nc(c(-c6cc(S(=O)(=O)[O-])ccc6F)c6ccc([nH]6)c(-c6cc(S(=O)(=O)[O-])ccc6F)c6nc(c(-c7cc(S(=O)(=O)[O-])ccc7F)c7ccc4[nH]7)C=C6)C=C5)cc3)c2)n1
REMARK SMILES IDX 17 1 16 2 15 3 13 4 14 5 12 6 9 7 10 8 87 9 11 10 8 11 7 12
REMARK SMILES IDX 4 13 5 14 88 15 6 16 3 17 2 18 1 19 18 20 19 21 20 22 21 23
REMARK SMILES IDX 22 24 23 25 24 26 25 27 86 28 26 29 85 30 27 31 28 32 29 33
REMARK SMILES IDX 79 34 30 35 84 36 78 37 80 38 31 39 83 40 77 41 76 42 32 44
REMARK SMILES IDX 64 45 44 46 63 47 45 48 48 49 62 50 81 51 46 52 47 53 61 55
REMARK SMILES IDX 82 56 49 57 33 58 34 59 42 60 35 61 41 62 43 63 40 64 36 65
REMARK SMILES IDX 37 66 38 67 39 68 65 69 66 70 74 71 67 72 73 73 75 74 72 75
REMARK SMILES IDX 68 76 69 77 70 78 71 79 50 80 51 81 59 82 52 83 58 84 60 85
REMARK SMILES IDX 57 86 53 87 54 88 55 89 56 90
REMARK H PARENT 80 43 48 54
REMARK Flexibility Score: inf
ROOT
ATOM      1  C   UNL A   1      36.746  22.525  25.031  1.00  0.00     0.202 C 
ENDROOT
BRANCH   1   2
ATOM      2  C   UNL A   1      35.422  21.779  25.218  1.00  0.00     0.261 C 
BRANCH   2   3
ATOM      3  O   UNL A   1      34.313  22.693  25.127  1.00  0.00    -0.459 OA
BRANCH   3   4
ATOM      4  C   UNL A   1      33.278  22.303  24.327  1.00  0.00     0.348 C 
ATOM      5  O   UNL A   1      33.001  21.139  24.065  1.00  0.00    -0.245 OA
BRANCH   4   6
ATOM      6  C   UNL A   1      32.519  23.471  23.917  1.00  0.00     0.116 A 
ATOM      7  C   UNL A   1      31.876  25.575  23.123  1.00  0.00     0.141 A 
ATOM      8  C   UNL A   1      30.670  25.074  23.559  1.00  0.00     0.112 A 
ATOM      9  C   UNL A   1      32.943  24.651  23.330  1.00  0.00     0.074 A 
ATOM     10  S   UNL A   1      30.826  23.498  24.202  1.00  0.00    -0.133 S 
BRANCH   7  11
ATOM     11  O   UNL A   1      32.055  26.757  22.485  1.00  0.00    -0.429 OA
BRANCH  11  12
ATOM     12  C   UNL A   1      31.299  27.826  22.737  1.00  0.00     0.298 A 
ATOM     13  C   UNL A   1      29.705  29.332  22.634  1.00  0.00     0.146 A 
ATOM     14  N   UNL A   1      30.169  29.726  23.825  1.00  0.00    -0.172 NA
ATOM     15  N   UNL A   1      30.345  28.297  21.960  1.00  0.00    -0.186 NA
ATOM     16  S   UNL A   1      31.424  28.693  24.209  1.00  0.00     0.025 S 
BRANCH  13  17
ATOM     17  C   UNL A   1      28.501  30.009  22.060  1.00  0.00     0.078 C 
BRANCH  17  18
ATOM     18  C   UNL A   1      28.622  31.519  21.850  1.00  0.00     0.005 C 
ATOM     19  C   UNL A   1      27.980  32.009  20.559  1.00  0.00     0.004 C 
ENDBRANCH  17  18
ENDBRANCH  13  17
ENDBRANCH  11  12
ENDBRANCH   7  11
ENDBRANCH   4   6
ENDBRANCH   3   4
ENDBRANCH   2   3
ENDBRANCH   1   2
BRANCH   1  20
ATOM     20  O   UNL A   1      37.844  21.676  24.693  1.00  0.00    -0.374 OA
BRANCH  20  21
ATOM     21  C   UNL A   1      37.730  20.311  25.104  1.00  0.00     0.202 C 
BRANCH  21  22
ATOM     22  C   UNL A   1      39.054  19.644  25.493  1.00  0.00     0.261 C 
BRANCH  22  23
ATOM     23  O   UNL A   1      39.607  20.250  26.677  1.00  0.00    -0.460 OA
BRANCH  23  24
ATOM     24  C   UNL A   1      40.901  20.641  26.571  1.00  0.00     0.338 C 
ATOM     25  O   UNL A   1      41.805  20.035  26.022  1.00  0.00    -0.246 OA
BRANCH  24  26
ATOM     26  C   UNL A   1      41.045  22.027  27.067  1.00  0.00     0.060 A 
ATOM     27  C   UNL A   1      40.418  23.044  26.335  1.00  0.00     0.016 A 
ATOM     28  C   UNL A   1      41.809  22.340  28.196  1.00  0.00     0.016 A 
ATOM     29  C   UNL A   1      40.592  24.379  26.696  1.00  0.00     0.010 A 
ATOM     30  C   UNL A   1      41.987  23.682  28.553  1.00  0.00     0.010 A 
ATOM     31  C   UNL A   1      41.409  24.708  27.786  1.00  0.00    -0.014 A 
BRANCH  31  32
ATOM     32  C   UNL A   1      41.794  26.122  28.019  1.00  0.00     0.031 A 
ATOM     33  C   UNL A   1      43.171  26.570  27.612  1.00  0.00     0.074 A 
ATOM     34  C   UNL A   1      40.933  26.995  28.570  1.00  0.00     0.049 A 
ATOM     35  N   UNL A   1      43.756  27.726  27.785  1.00  0.00    -0.248 NA
ATOM     36  C   UNL A   1      43.999  25.571  26.918  1.00  0.00     0.031 C 
ATOM     37  C   UNL A   1      39.556  26.692  28.959  1.00  0.00     0.029 A 
ATOM     38  N   UNL A   1      41.094  28.315  28.908  1.00  0.00    -0.354 N 
ATOM     39  C   UNL A   1      45.026  27.594  27.231  1.00  0.00     0.074 A 
ATOM     40  C   UNL A   1      45.133  26.234  26.747  1.00  0.00     0.031 C 
ATOM     41  C   UNL A   1      39.004  27.793  29.500  1.00  0.00     0.029 A 
ATOM     42  C   UNL A   1      39.998  28.865  29.531  1.00  0.00     0.049 A 
ATOM     43  H   UNL A   1      41.918  28.822  28.722  1.00  0.00     0.167 HD
ATOM     44  C   UNL A   1      46.008  28.524  27.128  1.00  0.00     0.034 A 
ATOM     45  C   UNL A   1      39.829  30.081  30.090  1.00  0.00     0.034 A 
ATOM     46  C   UNL A   1      45.890  29.872  27.627  1.00  0.00     0.049 A 
ATOM     47  C   UNL A   1      40.966  31.074  30.043  1.00  0.00     0.074 A 
ATOM     48  C   UNL A   1      46.819  30.896  27.574  1.00  0.00     0.029 A 
ATOM     49  N   UNL A   1      44.776  30.381  28.282  1.00  0.00    -0.354 N 
ATOM     50  N   UNL A   1      42.163  30.938  29.520  1.00  0.00    -0.248 NA
ATOM     51  C   UNL A   1      40.727  32.387  30.657  1.00  0.00     0.031 C 
ATOM     52  C   UNL A   1      46.293  32.003  28.252  1.00  0.00     0.029 A 
ATOM     53  C   UNL A   1      45.006  31.694  28.664  1.00  0.00     0.049 A 
ATOM     54  H   UNL A   1      43.943  29.883  28.451  1.00  0.00     0.167 HD
ATOM     55  C   UNL A   1      42.805  32.159  29.712  1.00  0.00     0.074 A 
ATOM     56  C   UNL A   1      41.861  33.020  30.395  1.00  0.00     0.031 C 
ATOM     57  C   UNL A   1      44.056  32.539  29.348  1.00  0.00     0.034 A 
BRANCH  44  58
ATOM     58  C   UNL A   1      47.309  28.086  26.504  1.00  0.00     0.023 A 
ATOM     59  C   UNL A   1      47.474  28.011  25.110  1.00  0.00     0.031 A 
ATOM     60  C   UNL A   1      48.389  27.699  27.317  1.00  0.00     0.131 A 
ATOM     61  C   UNL A   1      48.662  27.491  24.572  1.00  0.00     0.055 A 
ATOM     62  C   UNL A   1      49.598  27.257  26.774  1.00  0.00     0.041 A 
ATOM     63  F   UNL A   1      48.283  27.728  28.654  1.00  0.00    -0.206 F 
ATOM     64  C   UNL A   1      49.733  27.137  25.394  1.00  0.00     0.022 A 
BRANCH  61  65
ATOM     65  S   UNL A   1      48.731  27.151  22.792  1.00  0.00     0.124 S 
ATOM     66  O   UNL A   1      48.332  25.747  22.744  1.00  0.00    -0.237 OA
ATOM     67  O   UNL A   1      47.773  28.107  22.251  1.00  0.00    -0.237 OA
ATOM     68  O   UNL A   1      50.129  27.405  22.450  1.00  0.00    -0.744 OA
ENDBRANCH  61  65
ENDBRANCH  44  58
BRANCH  45  69
ATOM     69  C   UNL A   1      38.556  30.421  30.786  1.00  0.00     0.023 A 
ATOM     70  C   UNL A   1      37.533  31.125  30.132  1.00  0.00     0.031 A 
ATOM     71  C   UNL A   1      38.368  30.092  32.141  1.00  0.00     0.131 A 
ATOM     72  C   UNL A   1      36.388  31.516  30.843  1.00  0.00     0.055 A 
ATOM     73  C   UNL A   1      37.206  30.439  32.830  1.00  0.00     0.041 A 
ATOM     74  F   UNL A   1      39.315  29.419  32.814  1.00  0.00    -0.206 F 
ATOM     75  C   UNL A   1      36.212  31.167  32.184  1.00  0.00     0.022 A 
BRANCH  72  76
ATOM     76  S   UNL A   1      35.160  32.558  30.010  1.00  0.00     0.124 S 
ATOM     77  O   UNL A   1      34.218  32.829  31.090  1.00  0.00    -0.237 OA
ATOM     78  O   UNL A   1      35.972  33.687  29.567  1.00  0.00    -0.237 OA
ATOM     79  O   UNL A   1      34.655  31.699  28.940  1.00  0.00    -0.744 OA
ENDBRANCH  72  76
ENDBRANCH  45  69
BRANCH  57  80
ATOM     80  C   UNL A   1      44.452  33.968  29.628  1.00  0.00     0.023 A 
ATOM     81  C   UNL A   1      44.139  35.014  28.744  1.00  0.00     0.031 A 
ATOM     82  C   UNL A   1      45.152  34.282  30.807  1.00  0.00     0.131 A 
ATOM     83  C   UNL A   1      44.564  36.321  29.032  1.00  0.00     0.055 A 
ATOM     84  C   UNL A   1      45.526  35.591  31.112  1.00  0.00     0.041 A 
ATOM     85  F   UNL A   1      45.477  33.320  31.685  1.00  0.00    -0.206 F 
ATOM     86  C   UNL A   1      45.242  36.618  30.218  1.00  0.00     0.022 A 
BRANCH  83  87
ATOM     87  S   UNL A   1      44.281  37.623  27.801  1.00  0.00     0.124 S 
ATOM     88  O   UNL A   1      43.864  38.745  28.635  1.00  0.00    -0.237 OA
ATOM     89  O   UNL A   1      45.592  37.749  27.173  1.00  0.00    -0.237 OA
ATOM     90  O   UNL A   1      43.237  37.066  26.944  1.00  0.00    -0.744 OA
ENDBRANCH  83  87
ENDBRANCH  57  80
ENDBRANCH  31  32
ENDBRANCH  24  26
ENDBRANCH  23  24
ENDBRANCH  22  23
ENDBRANCH  21  22
ENDBRANCH  20  21
ENDBRANCH   1  20
TORSDOF 21
ENDMDL
