MODEL 1
REMARK VINA RESULT:      -8.4      0.000      0.000
REMARK SMILES O=C(CCCc1nc(-c2ccc(Cl)c(Cl)c2)c(-c2ccccc2)o1)OCCOCCOC(=O)c1ccc(-c2c3nc(c(-c4cc(S(=O)(=O)[O-])ccc4F)c4ccc([nH]4)c(-c4cc(S(=O)(=O)[O-])ccc4F)c4nc(c(-c5cc(S(=O)(=O)[O-])ccc5F)c5ccc2[nH]5)C=C4)C=C3)cc1
REMARK SMILES IDX 27 1 26 2 25 3 2 4 1 5 3 6 4 7 5 8 6 9 7 10 24 11 8 12 17 13
REMARK SMILES IDX 9 14 10 15 16 16 11 17 14 18 12 19 15 20 13 21 18 22 19 23
REMARK SMILES IDX 23 24 20 25 22 26 21 27 28 28 29 29 30 30 31 31 32 32 33 33
REMARK SMILES IDX 34 34 35 35 96 36 36 37 95 38 37 39 38 40 39 41 89 42 40 43
REMARK SMILES IDX 94 44 88 45 90 46 41 47 93 48 87 49 86 50 42 52 74 53 54 54
REMARK SMILES IDX 73 55 55 56 58 57 72 58 91 59 56 60 57 61 71 63 92 64 59 65
REMARK SMILES IDX 43 66 44 67 52 68 45 69 51 70 53 71 50 72 46 73 47 74 48 75
REMARK SMILES IDX 49 76 75 77 76 78 84 79 77 80 83 81 85 82 82 83 78 84 79 85
REMARK SMILES IDX 80 86 81 87 60 88 61 89 69 90 62 91 68 92 70 93 67 94 63 95
REMARK SMILES IDX 64 96 65 97 66 98
REMARK H PARENT 90 51 58 62
REMARK Flexibility Score: inf
ROOT
ATOM      1  C   UNL A   1      42.972  22.726  25.220  1.00  0.00     0.202 C 
ENDROOT
BRANCH   1   2
ATOM      2  C   UNL A   1      41.810  22.425  26.167  1.00  0.00     0.261 C 
BRANCH   2   3
ATOM      3  O   UNL A   1      41.254  23.522  26.920  1.00  0.00    -0.463 OA
BRANCH   3   4
ATOM      4  C   UNL A   1      39.912  23.617  27.015  1.00  0.00     0.305 C 
ATOM      5  O   UNL A   1      39.132  22.817  26.514  1.00  0.00    -0.252 OA
BRANCH   4   6
ATOM      6  C   UNL A   1      39.478  24.874  27.741  1.00  0.00     0.123 C 
BRANCH   6   7
ATOM      7  C   UNL A   1      40.589  25.713  28.377  1.00  0.00     0.021 C 
BRANCH   7   8
ATOM      8  C   UNL A   1      40.916  27.069  27.738  1.00  0.00     0.098 C 
BRANCH   8   9
ATOM      9  C   UNL A   1      40.197  28.241  28.308  1.00  0.00     0.195 A 
ATOM     10  N   UNL A   1      39.275  28.979  27.717  1.00  0.00    -0.213 NA
ATOM     11  O   UNL A   1      40.347  28.479  29.658  1.00  0.00    -0.440 OA
ATOM     12  C   UNL A   1      38.788  29.753  28.738  1.00  0.00     0.117 A 
ATOM     13  C   UNL A   1      39.435  29.467  29.921  1.00  0.00     0.162 A 
BRANCH  12  14
ATOM     14  C   UNL A   1      37.629  30.607  28.654  1.00  0.00     0.006 A 
ATOM     15  C   UNL A   1      37.755  31.953  29.010  1.00  0.00     0.012 A 
ATOM     16  C   UNL A   1      36.439  30.139  28.091  1.00  0.00     0.032 A 
ATOM     17  C   UNL A   1      36.705  32.838  28.771  1.00  0.00     0.023 A 
ATOM     18  C   UNL A   1      35.386  31.026  27.849  1.00  0.00     0.060 A 
ATOM     19  C   UNL A   1      35.522  32.380  28.182  1.00  0.00     0.059 A 
ATOM     20  Cl  UNL A   1      33.958  30.391  27.112  1.00  0.00    -0.083 Cl
ATOM     21  Cl  UNL A   1      34.273  33.536  27.887  1.00  0.00    -0.083 Cl
ENDBRANCH  12  14
BRANCH  13  22
ATOM     22  C   UNL A   1      39.274  29.950  31.281  1.00  0.00     0.020 A 
ATOM     23  C   UNL A   1      40.054  31.022  31.727  1.00  0.00     0.012 A 
ATOM     24  C   UNL A   1      38.275  29.448  32.124  1.00  0.00     0.012 A 
ATOM     25  C   UNL A   1      39.860  31.573  32.998  1.00  0.00     0.001 A 
ATOM     26  C   UNL A   1      38.085  29.995  33.400  1.00  0.00     0.001 A 
ATOM     27  C   UNL A   1      38.881  31.053  33.837  1.00  0.00     0.000 A 
ENDBRANCH  13  22
ENDBRANCH   8   9
ENDBRANCH   7   8
ENDBRANCH   6   7
ENDBRANCH   4   6
ENDBRANCH   3   4
ENDBRANCH   2   3
ENDBRANCH   1   2
BRANCH   1  28
ATOM     28  O   UNL A   1      44.232  22.351  25.793  1.00  0.00    -0.374 OA
BRANCH  28  29
ATOM     29  C   UNL A   1      45.233  22.081  24.802  1.00  0.00     0.202 C 
BRANCH  29  30
ATOM     30  C   UNL A   1      46.338  23.135  24.661  1.00  0.00     0.261 C 
BRANCH  30  31
ATOM     31  O   UNL A   1      45.818  24.438  24.384  1.00  0.00    -0.460 OA
BRANCH  31  32
ATOM     32  C   UNL A   1      46.697  25.430  24.686  1.00  0.00     0.338 C 
ATOM     33  O   UNL A   1      47.794  25.589  24.202  1.00  0.00    -0.246 OA
BRANCH  32  34
ATOM     34  C   UNL A   1      46.063  26.358  25.642  1.00  0.00     0.060 A 
ATOM     35  C   UNL A   1      46.865  27.069  26.544  1.00  0.00     0.016 A 
ATOM     36  C   UNL A   1      44.680  26.510  25.650  1.00  0.00     0.016 A 
ATOM     37  C   UNL A   1      46.281  27.905  27.496  1.00  0.00     0.010 A 
ATOM     38  C   UNL A   1      44.097  27.348  26.595  1.00  0.00     0.010 A 
ATOM     39  C   UNL A   1      44.890  28.031  27.538  1.00  0.00    -0.014 A 
BRANCH  39  40
ATOM     40  C   UNL A   1      44.190  28.770  28.613  1.00  0.00     0.031 A 
ATOM     41  C   UNL A   1      44.046  30.254  28.466  1.00  0.00     0.074 A 
ATOM     42  C   UNL A   1      43.836  28.152  29.751  1.00  0.00     0.049 A 
ATOM     43  N   UNL A   1      43.834  31.166  29.374  1.00  0.00    -0.248 NA
ATOM     44  C   UNL A   1      44.202  30.774  27.100  1.00  0.00     0.031 C 
ATOM     45  C   UNL A   1      43.880  26.709  29.974  1.00  0.00     0.029 A 
ATOM     46  N   UNL A   1      43.436  28.673  30.956  1.00  0.00    -0.354 N 
ATOM     47  C   UNL A   1      43.876  32.382  28.701  1.00  0.00     0.074 A 
ATOM     48  C   UNL A   1      44.144  32.080  27.308  1.00  0.00     0.031 C 
ATOM     49  C   UNL A   1      43.578  26.460  31.260  1.00  0.00     0.029 A 
ATOM     50  C   UNL A   1      43.393  27.731  31.958  1.00  0.00     0.049 A 
ATOM     51  H   UNL A   1      43.202  29.620  31.089  1.00  0.00     0.167 HD
ATOM     52  C   UNL A   1      43.725  33.630  29.211  1.00  0.00     0.034 A 
ATOM     53  C   UNL A   1      43.297  27.885  33.294  1.00  0.00     0.034 A 
ATOM     54  C   UNL A   1      43.482  33.885  30.611  1.00  0.00     0.049 A 
ATOM     55  C   UNL A   1      43.201  29.278  33.862  1.00  0.00     0.074 A 
ATOM     56  C   UNL A   1      43.295  35.096  31.253  1.00  0.00     0.029 A 
ATOM     57  N   UNL A   1      43.412  32.903  31.593  1.00  0.00    -0.354 N 
ATOM     58  N   UNL A   1      43.260  30.432  33.234  1.00  0.00    -0.248 NA
ATOM     59  C   UNL A   1      43.030  29.393  35.316  1.00  0.00     0.031 C 
ATOM     60  C   UNL A   1      43.185  34.851  32.626  1.00  0.00     0.029 A 
ATOM     61  C   UNL A   1      43.217  33.481  32.838  1.00  0.00     0.049 A 
ATOM     62  H   UNL A   1      43.490  31.935  31.428  1.00  0.00     0.167 HD
ATOM     63  C   UNL A   1      43.101  31.408  34.213  1.00  0.00     0.074 A 
ATOM     64  C   UNL A   1      42.948  30.707  35.473  1.00  0.00     0.031 C 
ATOM     65  C   UNL A   1      43.072  32.760  34.083  1.00  0.00     0.034 A 
BRANCH  52  66
ATOM     66  C   UNL A   1      43.908  34.788  28.258  1.00  0.00     0.023 A 
ATOM     67  C   UNL A   1      45.183  35.217  27.845  1.00  0.00     0.031 A 
ATOM     68  C   UNL A   1      42.797  35.534  27.824  1.00  0.00     0.131 A 
ATOM     69  C   UNL A   1      45.322  36.414  27.126  1.00  0.00     0.055 A 
ATOM     70  C   UNL A   1      42.936  36.671  27.025  1.00  0.00     0.041 A 
ATOM     71  F   UNL A   1      41.555  35.193  28.200  1.00  0.00    -0.206 F 
ATOM     72  C   UNL A   1      44.207  37.132  26.690  1.00  0.00     0.022 A 
BRANCH  69  73
ATOM     73  S   UNL A   1      46.984  37.124  26.948  1.00  0.00     0.124 S 
ATOM     74  O   UNL A   1      46.786  38.065  25.847  1.00  0.00    -0.237 OA
ATOM     75  O   UNL A   1      47.215  37.716  28.260  1.00  0.00    -0.237 OA
ATOM     76  O   UNL A   1      47.817  35.968  26.627  1.00  0.00    -0.744 OA
ENDBRANCH  69  73
ENDBRANCH  52  66
BRANCH  53  77
ATOM     77  C   UNL A   1      43.370  26.690  34.181  1.00  0.00     0.023 A 
ATOM     78  C   UNL A   1      44.595  26.073  34.472  1.00  0.00     0.031 A 
ATOM     79  C   UNL A   1      42.205  26.158  34.767  1.00  0.00     0.131 A 
ATOM     80  C   UNL A   1      44.627  24.949  35.313  1.00  0.00     0.055 A 
ATOM     81  C   UNL A   1      42.248  25.066  35.635  1.00  0.00     0.041 A 
ATOM     82  F   UNL A   1      41.008  26.717  34.525  1.00  0.00    -0.206 F 
ATOM     83  C   UNL A   1      43.465  24.450  35.908  1.00  0.00     0.022 A 
BRANCH  80  84
ATOM     84  S   UNL A   1      46.216  24.122  35.598  1.00  0.00     0.124 S 
ATOM     85  O   UNL A   1      46.665  24.759  36.832  1.00  0.00    -0.237 OA
ATOM     86  O   UNL A   1      45.815  22.723  35.707  1.00  0.00    -0.237 OA
ATOM     87  O   UNL A   1      46.992  24.454  34.405  1.00  0.00    -0.744 OA
ENDBRANCH  80  84
ENDBRANCH  53  77
BRANCH  65  88
ATOM     88  C   UNL A   1      42.800  33.566  35.328  1.00  0.00     0.023 A 
ATOM     89  C   UNL A   1      41.517  34.043  35.647  1.00  0.00     0.031 A 
ATOM     90  C   UNL A   1      43.851  33.842  36.223  1.00  0.00     0.131 A 
ATOM     91  C   UNL A   1      41.326  34.800  36.813  1.00  0.00     0.055 A 
ATOM     92  C   UNL A   1      43.644  34.548  37.407  1.00  0.00     0.041 A 
ATOM     93  F   UNL A   1      45.097  33.412  35.965  1.00  0.00    -0.206 F 
ATOM     94  C   UNL A   1      42.376  35.041  37.704  1.00  0.00     0.022 A 
BRANCH  91  95
ATOM     95  S   UNL A   1      39.693  35.529  37.126  1.00  0.00     0.124 S 
ATOM     96  O   UNL A   1      39.681  36.654  36.196  1.00  0.00    -0.237 OA
ATOM     97  O   UNL A   1      38.792  34.427  36.805  1.00  0.00    -0.237 OA
ATOM     98  O   UNL A   1      39.745  35.894  38.540  1.00  0.00    -0.744 OA
ENDBRANCH  91  95
ENDBRANCH  65  88
ENDBRANCH  39  40
ENDBRANCH  32  34
ENDBRANCH  31  32
ENDBRANCH  30  31
ENDBRANCH  29  30
ENDBRANCH  28  29
ENDBRANCH   1  28
TORSDOF 22
ENDMDL
MODEL 2
REMARK VINA RESULT:      -8.4      1.152      2.203
REMARK SMILES O=C(CCCc1nc(-c2ccc(Cl)c(Cl)c2)c(-c2ccccc2)o1)OCCOCCOC(=O)c1ccc(-c2c3nc(c(-c4cc(S(=O)(=O)[O-])ccc4F)c4ccc([nH]4)c(-c4cc(S(=O)(=O)[O-])ccc4F)c4nc(c(-c5cc(S(=O)(=O)[O-])ccc5F)c5ccc2[nH]5)C=C4)C=C3)cc1
REMARK SMILES IDX 27 1 26 2 25 3 2 4 1 5 3 6 4 7 5 8 6 9 7 10 24 11 8 12 17 13
REMARK SMILES IDX 9 14 10 15 16 16 11 17 14 18 12 19 15 20 13 21 18 22 19 23
REMARK SMILES IDX 23 24 20 25 22 26 21 27 28 28 29 29 30 30 31 31 32 32 33 33
REMARK SMILES IDX 34 34 35 35 96 36 36 37 95 38 37 39 38 40 39 41 89 42 40 43
REMARK SMILES IDX 94 44 88 45 90 46 41 47 93 48 87 49 86 50 42 52 74 53 54 54
REMARK SMILES IDX 73 55 55 56 58 57 72 58 91 59 56 60 57 61 71 63 92 64 59 65
REMARK SMILES IDX 43 66 44 67 52 68 45 69 51 70 53 71 50 72 46 73 47 74 48 75
REMARK SMILES IDX 49 76 75 77 76 78 84 79 77 80 83 81 85 82 82 83 78 84 79 85
REMARK SMILES IDX 80 86 81 87 60 88 61 89 69 90 62 91 68 92 70 93 67 94 63 95
REMARK SMILES IDX 64 96 65 97 66 98
REMARK H PARENT 90 51 58 62
REMARK Flexibility Score: inf
ROOT
ATOM      1  C   UNL A   1      42.931  22.654  25.312  1.00  0.00     0.202 C 
ENDROOT
BRANCH   1   2
ATOM      2  C   UNL A   1      41.774  22.391  26.277  1.00  0.00     0.261 C 
BRANCH   2   3
ATOM      3  O   UNL A   1      41.195  23.523  26.957  1.00  0.00    -0.463 OA
BRANCH   3   4
ATOM      4  C   UNL A   1      39.851  23.616  27.013  1.00  0.00     0.305 C 
ATOM      5  O   UNL A   1      39.087  22.773  26.560  1.00  0.00    -0.252 OA
BRANCH   4   6
ATOM      6  C   UNL A   1      39.393  24.925  27.624  1.00  0.00     0.123 C 
BRANCH   6   7
ATOM      7  C   UNL A   1      40.451  25.729  28.384  1.00  0.00     0.021 C 
BRANCH   7   8
ATOM      8  C   UNL A   1      40.647  27.200  27.996  1.00  0.00     0.098 C 
BRANCH   8   9
ATOM      9  C   UNL A   1      39.778  28.177  28.707  1.00  0.00     0.195 A 
ATOM     10  N   UNL A   1      40.047  28.821  29.828  1.00  0.00    -0.213 NA
ATOM     11  O   UNL A   1      38.654  28.623  28.043  1.00  0.00    -0.440 OA
ATOM     12  C   UNL A   1      39.040  29.746  29.912  1.00  0.00     0.117 A 
ATOM     13  C   UNL A   1      38.181  29.634  28.840  1.00  0.00     0.162 A 
BRANCH  12  14
ATOM     14  C   UNL A   1      38.978  30.825  30.867  1.00  0.00     0.006 A 
ATOM     15  C   UNL A   1      39.999  31.779  30.874  1.00  0.00     0.012 A 
ATOM     16  C   UNL A   1      37.850  30.999  31.673  1.00  0.00     0.032 A 
ATOM     17  C   UNL A   1      39.876  32.925  31.659  1.00  0.00     0.023 A 
ATOM     18  C   UNL A   1      37.725  32.148  32.459  1.00  0.00     0.060 A 
ATOM     19  C   UNL A   1      38.736  33.116  32.446  1.00  0.00     0.059 A 
ATOM     20  Cl  UNL A   1      36.287  32.320  33.401  1.00  0.00    -0.083 Cl
ATOM     21  Cl  UNL A   1      38.636  34.571  33.373  1.00  0.00    -0.083 Cl
ENDBRANCH  12  14
BRANCH  13  22
ATOM     22  C   UNL A   1      37.009  30.383  28.424  1.00  0.00     0.020 A 
ATOM     23  C   UNL A   1      35.807  29.706  28.189  1.00  0.00     0.012 A 
ATOM     24  C   UNL A   1      37.016  31.782  28.367  1.00  0.00     0.012 A 
ATOM     25  C   UNL A   1      34.637  30.406  27.879  1.00  0.00     0.001 A 
ATOM     26  C   UNL A   1      35.844  32.483  28.051  1.00  0.00     0.001 A 
ATOM     27  C   UNL A   1      34.658  31.794  27.802  1.00  0.00     0.000 A 
ENDBRANCH  13  22
ENDBRANCH   8   9
ENDBRANCH   7   8
ENDBRANCH   6   7
ENDBRANCH   4   6
ENDBRANCH   3   4
ENDBRANCH   2   3
ENDBRANCH   1   2
BRANCH   1  28
ATOM     28  O   UNL A   1      44.193  22.289  25.887  1.00  0.00    -0.374 OA
BRANCH  28  29
ATOM     29  C   UNL A   1      45.190  22.000  24.897  1.00  0.00     0.202 C 
BRANCH  29  30
ATOM     30  C   UNL A   1      46.259  23.081  24.688  1.00  0.00     0.261 C 
BRANCH  30  31
ATOM     31  O   UNL A   1      45.692  24.360  24.392  1.00  0.00    -0.460 OA
BRANCH  31  32
ATOM     32  C   UNL A   1      46.554  25.384  24.629  1.00  0.00     0.338 C 
ATOM     33  O   UNL A   1      47.627  25.556  24.098  1.00  0.00    -0.246 OA
BRANCH  32  34
ATOM     34  C   UNL A   1      45.930  26.326  25.578  1.00  0.00     0.060 A 
ATOM     35  C   UNL A   1      46.742  27.038  26.471  1.00  0.00     0.016 A 
ATOM     36  C   UNL A   1      44.549  26.489  25.588  1.00  0.00     0.016 A 
ATOM     37  C   UNL A   1      46.167  27.888  27.417  1.00  0.00     0.010 A 
ATOM     38  C   UNL A   1      43.976  27.341  26.528  1.00  0.00     0.010 A 
ATOM     39  C   UNL A   1      44.777  28.026  27.462  1.00  0.00    -0.014 A 
BRANCH  39  40
ATOM     40  C   UNL A   1      44.086  28.781  28.532  1.00  0.00     0.031 A 
ATOM     41  C   UNL A   1      43.982  30.268  28.386  1.00  0.00     0.074 A 
ATOM     42  C   UNL A   1      43.708  28.170  29.666  1.00  0.00     0.049 A 
ATOM     43  N   UNL A   1      43.785  31.184  29.295  1.00  0.00    -0.248 NA
ATOM     44  C   UNL A   1      44.162  30.786  27.023  1.00  0.00     0.031 C 
ATOM     45  C   UNL A   1      43.713  26.725  29.886  1.00  0.00     0.029 A 
ATOM     46  N   UNL A   1      43.309  28.698  30.868  1.00  0.00    -0.354 N 
ATOM     47  C   UNL A   1      43.864  32.399  28.625  1.00  0.00     0.074 A 
ATOM     48  C   UNL A   1      44.135  32.093  27.234  1.00  0.00     0.031 C 
ATOM     49  C   UNL A   1      43.394  26.482  31.169  1.00  0.00     0.029 A 
ATOM     50  C   UNL A   1      43.234  27.756  31.868  1.00  0.00     0.049 A 
ATOM     51  H   UNL A   1      43.099  29.651  31.001  1.00  0.00     0.167 HD
ATOM     52  C   UNL A   1      43.739  33.650  29.135  1.00  0.00     0.034 A 
ATOM     53  C   UNL A   1      43.131  27.910  33.203  1.00  0.00     0.034 A 
ATOM     54  C   UNL A   1      43.490  33.908  30.534  1.00  0.00     0.049 A 
ATOM     55  C   UNL A   1      43.065  29.304  33.774  1.00  0.00     0.074 A 
ATOM     56  C   UNL A   1      43.329  35.123  31.176  1.00  0.00     0.029 A 
ATOM     57  N   UNL A   1      43.387  32.926  31.513  1.00  0.00    -0.354 N 
ATOM     58  N   UNL A   1      43.158  30.457  33.148  1.00  0.00    -0.248 NA
ATOM     59  C   UNL A   1      42.884  29.421  35.226  1.00  0.00     0.031 C 
ATOM     60  C   UNL A   1      43.200  34.878  32.548  1.00  0.00     0.029 A 
ATOM     61  C   UNL A   1      43.196  33.507  32.758  1.00  0.00     0.049 A 
ATOM     62  H   UNL A   1      43.442  31.957  31.347  1.00  0.00     0.167 HD
ATOM     63  C   UNL A   1      43.016  31.435  34.128  1.00  0.00     0.074 A 
ATOM     64  C   UNL A   1      42.834  30.737  35.385  1.00  0.00     0.031 C 
ATOM     65  C   UNL A   1      43.022  32.788  34.000  1.00  0.00     0.034 A 
BRANCH  52  66
ATOM     66  C   UNL A   1      43.960  34.805  28.186  1.00  0.00     0.023 A 
ATOM     67  C   UNL A   1      45.249  35.259  27.856  1.00  0.00     0.031 A 
ATOM     68  C   UNL A   1      42.864  35.522  27.672  1.00  0.00     0.131 A 
ATOM     69  C   UNL A   1      45.410  36.454  27.137  1.00  0.00     0.055 A 
ATOM     70  C   UNL A   1      43.031  36.655  26.874  1.00  0.00     0.041 A 
ATOM     71  F   UNL A   1      41.607  35.155  27.968  1.00  0.00    -0.206 F 
ATOM     72  C   UNL A   1      44.310  37.142  26.621  1.00  0.00     0.022 A 
BRANCH  69  73
ATOM     73  S   UNL A   1      47.063  37.200  27.063  1.00  0.00     0.124 S 
ATOM     74  O   UNL A   1      47.874  36.188  27.738  1.00  0.00    -0.237 OA
ATOM     75  O   UNL A   1      47.281  37.339  25.628  1.00  0.00    -0.237 OA
ATOM     76  O   UNL A   1      46.906  38.453  27.798  1.00  0.00    -0.744 OA
ENDBRANCH  69  73
ENDBRANCH  52  66
BRANCH  53  77
ATOM     77  C   UNL A   1      43.166  26.712  34.089  1.00  0.00     0.023 A 
ATOM     78  C   UNL A   1      44.374  26.076  34.405  1.00  0.00     0.031 A 
ATOM     79  C   UNL A   1      41.980  26.197  34.648  1.00  0.00     0.131 A 
ATOM     80  C   UNL A   1      44.371  24.949  35.244  1.00  0.00     0.055 A 
ATOM     81  C   UNL A   1      41.987  25.102  35.513  1.00  0.00     0.041 A 
ATOM     82  F   UNL A   1      40.798  26.775  34.381  1.00  0.00    -0.206 F 
ATOM     83  C   UNL A   1      43.188  24.467  35.812  1.00  0.00     0.022 A 
BRANCH  80  84
ATOM     84  S   UNL A   1      45.940  24.097  35.562  1.00  0.00     0.124 S 
ATOM     85  O   UNL A   1      46.806  25.205  35.950  1.00  0.00    -0.237 OA
ATOM     86  O   UNL A   1      45.571  23.168  36.623  1.00  0.00    -0.237 OA
ATOM     87  O   UNL A   1      46.257  23.477  34.277  1.00  0.00    -0.744 OA
ENDBRANCH  80  84
ENDBRANCH  53  77
BRANCH  65  88
ATOM     88  C   UNL A   1      42.759  33.599  35.244  1.00  0.00     0.023 A 
ATOM     89  C   UNL A   1      41.473  34.048  35.588  1.00  0.00     0.031 A 
ATOM     90  C   UNL A   1      43.824  33.906  36.113  1.00  0.00     0.131 A 
ATOM     91  C   UNL A   1      41.290  34.812  36.752  1.00  0.00     0.055 A 
ATOM     92  C   UNL A   1      43.626  34.618  37.295  1.00  0.00     0.041 A 
ATOM     93  F   UNL A   1      45.073  33.503  35.829  1.00  0.00    -0.206 F 
ATOM     94  C   UNL A   1      42.355  35.084  37.616  1.00  0.00     0.022 A 
BRANCH  91  95
ATOM     95  S   UNL A   1      39.649  35.505  37.096  1.00  0.00     0.124 S 
ATOM     96  O   UNL A   1      39.526  36.521  36.055  1.00  0.00    -0.237 OA
ATOM     97  O   UNL A   1      38.781  34.340  36.956  1.00  0.00    -0.237 OA
ATOM     98  O   UNL A   1      39.773  36.024  38.457  1.00  0.00    -0.744 OA
ENDBRANCH  91  95
ENDBRANCH  65  88
ENDBRANCH  39  40
ENDBRANCH  32  34
ENDBRANCH  31  32
ENDBRANCH  30  31
ENDBRANCH  29  30
ENDBRANCH  28  29
ENDBRANCH   1  28
TORSDOF 22
ENDMDL
MODEL 3
REMARK VINA RESULT:      -8.3      5.002      9.789
REMARK SMILES O=C(CCCc1nc(-c2ccc(Cl)c(Cl)c2)c(-c2ccccc2)o1)OCCOCCOC(=O)c1ccc(-c2c3nc(c(-c4cc(S(=O)(=O)[O-])ccc4F)c4ccc([nH]4)c(-c4cc(S(=O)(=O)[O-])ccc4F)c4nc(c(-c5cc(S(=O)(=O)[O-])ccc5F)c5ccc2[nH]5)C=C4)C=C3)cc1
REMARK SMILES IDX 27 1 26 2 25 3 2 4 1 5 3 6 4 7 5 8 6 9 7 10 24 11 8 12 17 13
REMARK SMILES IDX 9 14 10 15 16 16 11 17 14 18 12 19 15 20 13 21 18 22 19 23
REMARK SMILES IDX 23 24 20 25 22 26 21 27 28 28 29 29 30 30 31 31 32 32 33 33
REMARK SMILES IDX 34 34 35 35 96 36 36 37 95 38 37 39 38 40 39 41 89 42 40 43
REMARK SMILES IDX 94 44 88 45 90 46 41 47 93 48 87 49 86 50 42 52 74 53 54 54
REMARK SMILES IDX 73 55 55 56 58 57 72 58 91 59 56 60 57 61 71 63 92 64 59 65
REMARK SMILES IDX 43 66 44 67 52 68 45 69 51 70 53 71 50 72 46 73 47 74 48 75
REMARK SMILES IDX 49 76 75 77 76 78 84 79 77 80 83 81 85 82 82 83 78 84 79 85
REMARK SMILES IDX 80 86 81 87 60 88 61 89 69 90 62 91 68 92 70 93 67 94 63 95
REMARK SMILES IDX 64 96 65 97 66 98
REMARK H PARENT 90 51 58 62
REMARK Flexibility Score: inf
ROOT
ATOM      1  C   UNL A   1      34.365  24.121  23.680  1.00  0.00     0.202 C 
ENDROOT
BRANCH   1   2
ATOM      2  C   UNL A   1      33.335  25.239  23.845  1.00  0.00     0.261 C 
BRANCH   2   3
ATOM      3  O   UNL A   1      33.627  26.289  24.790  1.00  0.00    -0.463 OA
BRANCH   3   4
ATOM      4  C   UNL A   1      33.213  27.540  24.505  1.00  0.00     0.305 C 
ATOM      5  O   UNL A   1      33.242  28.032  23.384  1.00  0.00    -0.252 OA
BRANCH   4   6
ATOM      6  C   UNL A   1      32.786  28.297  25.746  1.00  0.00     0.123 C 
BRANCH   6   7
ATOM      7  C   UNL A   1      33.048  29.805  25.749  1.00  0.00     0.021 C 
BRANCH   7   8
ATOM      8  C   UNL A   1      33.013  30.535  27.099  1.00  0.00     0.098 C 
BRANCH   8   9
ATOM      9  C   UNL A   1      34.279  30.506  27.882  1.00  0.00     0.195 A 
ATOM     10  N   UNL A   1      35.159  29.524  27.945  1.00  0.00    -0.213 NA
ATOM     11  O   UNL A   1      34.697  31.691  28.450  1.00  0.00    -0.440 OA
ATOM     12  C   UNL A   1      36.222  30.093  28.597  1.00  0.00     0.117 A 
ATOM     13  C   UNL A   1      35.953  31.406  28.918  1.00  0.00     0.162 A 
BRANCH  12  14
ATOM     14  C   UNL A   1      37.520  29.487  28.757  1.00  0.00     0.006 A 
ATOM     15  C   UNL A   1      37.770  28.717  29.896  1.00  0.00     0.012 A 
ATOM     16  C   UNL A   1      38.465  29.545  27.729  1.00  0.00     0.032 A 
ATOM     17  C   UNL A   1      38.947  27.977  29.993  1.00  0.00     0.023 A 
ATOM     18  C   UNL A   1      39.645  28.801  27.824  1.00  0.00     0.060 A 
ATOM     19  C   UNL A   1      39.883  28.009  28.954  1.00  0.00     0.059 A 
ATOM     20  Cl  UNL A   1      40.752  28.884  26.500  1.00  0.00    -0.083 Cl
ATOM     21  Cl  UNL A   1      41.306  27.045  29.126  1.00  0.00    -0.083 Cl
ENDBRANCH  12  14
BRANCH  13  22
ATOM     22  C   UNL A   1      36.736  32.453  29.550  1.00  0.00     0.020 A 
ATOM     23  C   UNL A   1      36.712  32.584  30.942  1.00  0.00     0.012 A 
ATOM     24  C   UNL A   1      37.609  33.262  28.812  1.00  0.00     0.012 A 
ATOM     25  C   UNL A   1      37.525  33.519  31.590  1.00  0.00     0.001 A 
ATOM     26  C   UNL A   1      38.419  34.203  29.461  1.00  0.00     0.001 A 
ATOM     27  C   UNL A   1      38.372  34.335  30.848  1.00  0.00     0.000 A 
ENDBRANCH  13  22
ENDBRANCH   8   9
ENDBRANCH   7   8
ENDBRANCH   6   7
ENDBRANCH   4   6
ENDBRANCH   3   4
ENDBRANCH   2   3
ENDBRANCH   1   2
BRANCH   1  28
ATOM     28  O   UNL A   1      35.250  24.047  24.806  1.00  0.00    -0.374 OA
BRANCH  28  29
ATOM     29  C   UNL A   1      36.431  23.281  24.532  1.00  0.00     0.202 C 
BRANCH  29  30
ATOM     30  C   UNL A   1      36.966  22.435  25.695  1.00  0.00     0.261 C 
BRANCH  30  31
ATOM     31  O   UNL A   1      38.272  22.841  26.110  1.00  0.00    -0.460 OA
BRANCH  31  32
ATOM     32  C   UNL A   1      39.174  21.825  26.078  1.00  0.00     0.338 C 
ATOM     33  O   UNL A   1      38.950  20.676  25.776  1.00  0.00    -0.246 OA
BRANCH  32  34
ATOM     34  C   UNL A   1      40.514  22.364  26.381  1.00  0.00     0.060 A 
ATOM     35  C   UNL A   1      41.620  21.504  26.361  1.00  0.00     0.016 A 
ATOM     36  C   UNL A   1      40.667  23.711  26.694  1.00  0.00     0.016 A 
ATOM     37  C   UNL A   1      42.887  21.980  26.703  1.00  0.00     0.010 A 
ATOM     38  C   UNL A   1      41.931  24.187  27.030  1.00  0.00     0.010 A 
ATOM     39  C   UNL A   1      43.041  23.322  27.061  1.00  0.00    -0.014 A 
BRANCH  39  40
ATOM     40  C   UNL A   1      44.316  23.864  27.586  1.00  0.00     0.031 A 
ATOM     41  C   UNL A   1      44.469  23.982  29.071  1.00  0.00     0.074 A 
ATOM     42  C   UNL A   1      45.237  24.375  26.754  1.00  0.00     0.049 A 
ATOM     43  N   UNL A   1      45.274  24.735  29.770  1.00  0.00    -0.248 NA
ATOM     44  C   UNL A   1      43.555  23.155  29.871  1.00  0.00     0.031 C 
ATOM     45  C   UNL A   1      45.212  24.261  25.297  1.00  0.00     0.029 A 
ATOM     46  N   UNL A   1      46.337  25.152  27.018  1.00  0.00    -0.354 N 
ATOM     47  C   UNL A   1      44.935  24.511  31.099  1.00  0.00     0.074 A 
ATOM     48  C   UNL A   1      43.844  23.557  31.099  1.00  0.00     0.031 C 
ATOM     49  C   UNL A   1      46.215  24.996  24.788  1.00  0.00     0.029 A 
ATOM     50  C   UNL A   1      46.902  25.683  25.882  1.00  0.00     0.049 A 
ATOM     51  H   UNL A   1      46.685  25.312  27.925  1.00  0.00     0.167 HD
ATOM     52  C   UNL A   1      45.477  25.072  32.210  1.00  0.00     0.034 A 
ATOM     53  C   UNL A   1      47.810  26.669  25.739  1.00  0.00     0.034 A 
ATOM     54  C   UNL A   1      46.549  26.037  32.162  1.00  0.00     0.049 A 
ATOM     55  C   UNL A   1      48.357  27.339  26.974  1.00  0.00     0.074 A 
ATOM     56  C   UNL A   1      47.197  26.668  33.209  1.00  0.00     0.029 A 
ATOM     57  N   UNL A   1      47.120  26.528  30.992  1.00  0.00    -0.354 N 
ATOM     58  N   UNL A   1      48.028  27.146  28.232  1.00  0.00    -0.248 NA
ATOM     59  C   UNL A   1      49.394  28.359  26.773  1.00  0.00     0.031 C 
ATOM     60  C   UNL A   1      48.105  27.588  32.672  1.00  0.00     0.029 A 
ATOM     61  C   UNL A   1      48.088  27.474  31.290  1.00  0.00     0.049 A 
ATOM     62  H   UNL A   1      46.872  26.243  30.082  1.00  0.00     0.167 HD
ATOM     63  C   UNL A   1      48.840  28.000  28.974  1.00  0.00     0.074 A 
ATOM     64  C   UNL A   1      49.671  28.709  28.022  1.00  0.00     0.031 C 
ATOM     65  C   UNL A   1      48.902  28.173  30.320  1.00  0.00     0.034 A 
BRANCH  52  66
ATOM     66  C   UNL A   1      44.851  24.711  33.537  1.00  0.00     0.023 A 
ATOM     67  C   UNL A   1      43.703  25.366  34.020  1.00  0.00     0.031 A 
ATOM     68  C   UNL A   1      45.461  23.761  34.376  1.00  0.00     0.131 A 
ATOM     69  C   UNL A   1      43.272  25.147  35.337  1.00  0.00     0.055 A 
ATOM     70  C   UNL A   1      44.968  23.475  35.651  1.00  0.00     0.041 A 
ATOM     71  F   UNL A   1      46.572  23.117  33.986  1.00  0.00    -0.206 F 
ATOM     72  C   UNL A   1      43.880  24.187  36.149  1.00  0.00     0.022 A 
BRANCH  69  73
ATOM     73  S   UNL A   1      42.038  26.279  36.039  1.00  0.00     0.124 S 
ATOM     74  O   UNL A   1      42.481  26.372  37.430  1.00  0.00    -0.237 OA
ATOM     75  O   UNL A   1      42.217  27.479  35.231  1.00  0.00    -0.237 OA
ATOM     76  O   UNL A   1      40.774  25.573  35.842  1.00  0.00    -0.744 OA
ENDBRANCH  69  73
ENDBRANCH  52  66
BRANCH  53  77
ATOM     77  C   UNL A   1      48.192  27.130  24.375  1.00  0.00     0.023 A 
ATOM     78  C   UNL A   1      49.476  26.901  23.862  1.00  0.00     0.031 A 
ATOM     79  C   UNL A   1      47.261  27.797  23.555  1.00  0.00     0.131 A 
ATOM     80  C   UNL A   1      49.802  27.348  22.571  1.00  0.00     0.055 A 
ATOM     81  C   UNL A   1      47.577  28.203  22.258  1.00  0.00     0.041 A 
ATOM     82  F   UNL A   1      46.016  28.035  23.998  1.00  0.00    -0.206 F 
ATOM     83  C   UNL A   1      48.858  27.984  21.761  1.00  0.00     0.022 A 
BRANCH  80  84
ATOM     84  S   UNL A   1      51.498  27.113  21.972  1.00  0.00     0.124 S 
ATOM     85  O   UNL A   1      51.312  26.092  20.947  1.00  0.00    -0.237 OA
ATOM     86  O   UNL A   1      51.839  28.448  21.494  1.00  0.00    -0.237 OA
ATOM     87  O   UNL A   1      52.223  26.677  23.164  1.00  0.00    -0.744 OA
ENDBRANCH  80  84
ENDBRANCH  53  77
BRANCH  65  88
ATOM     88  C   UNL A   1      49.952  29.121  30.845  1.00  0.00     0.023 A 
ATOM     89  C   UNL A   1      49.674  30.472  31.114  1.00  0.00     0.031 A 
ATOM     90  C   UNL A   1      51.253  28.648  31.100  1.00  0.00     0.131 A 
ATOM     91  C   UNL A   1      50.694  31.311  31.588  1.00  0.00     0.055 A 
ATOM     92  C   UNL A   1      52.247  29.474  31.622  1.00  0.00     0.041 A 
ATOM     93  F   UNL A   1      51.572  27.366  30.857  1.00  0.00    -0.206 F 
ATOM     94  C   UNL A   1      51.973  30.817  31.861  1.00  0.00     0.022 A 
BRANCH  91  95
ATOM     95  S   UNL A   1      50.350  33.082  31.787  1.00  0.00     0.124 S 
ATOM     96  O   UNL A   1      49.209  33.270  30.895  1.00  0.00    -0.237 OA
ATOM     97  O   UNL A   1      50.067  33.188  33.214  1.00  0.00    -0.237 OA
ATOM     98  O   UNL A   1      51.589  33.724  31.352  1.00  0.00    -0.744 OA
ENDBRANCH  91  95
ENDBRANCH  65  88
ENDBRANCH  39  40
ENDBRANCH  32  34
ENDBRANCH  31  32
ENDBRANCH  30  31
ENDBRANCH  29  30
ENDBRANCH  28  29
ENDBRANCH   1  28
TORSDOF 22
ENDMDL
