MODEL 1
REMARK VINA RESULT:     -10.8      0.000      0.000
REMARK SMILES Cc1cc(C)c2c(=O)n(CCCC(=O)OCCOCCOC(=O)c3ccc(-c4c5nc(c(-c6cc(S(=O)(=O)[O-])ccc6F)c6ccc([nH]6)c(-c6cc(S(=O)(=O)[O-])ccc6F)c6nc(c(-c7cc(S(=O)(=O)[O-])ccc7F)c7ccc4[nH]7)C=C6)C=C5)cc3)sc2n1
REMARK SMILES IDX 18 1 17 2 16 3 15 4 13 5 14 6 12 7 11 8 10 9 9 10 1 11 2 12
REMARK SMILES IDX 3 13 89 14 4 15 88 16 5 17 6 18 87 19 7 20 8 21 19 22 20 23
REMARK SMILES IDX 21 24 22 25 23 26 24 27 25 28 86 29 26 30 85 31 27 32 28 33
REMARK SMILES IDX 29 34 79 35 30 36 84 37 78 38 80 39 31 40 83 41 77 42 76 43
REMARK SMILES IDX 32 45 64 46 44 47 63 48 45 49 48 50 62 51 81 52 46 53 47 54
REMARK SMILES IDX 61 56 82 57 49 58 33 59 34 60 42 61 35 62 41 63 43 64 40 65
REMARK SMILES IDX 36 66 37 67 38 68 39 69 65 70 66 71 74 72 67 73 73 74 75 75
REMARK SMILES IDX 72 76 68 77 69 78 70 79 71 80 50 81 51 82 59 83 52 84 58 85
REMARK SMILES IDX 60 86 57 87 53 88 54 89 55 90 56 91
REMARK H PARENT 80 44 48 55
REMARK Flexibility Score: inf
ROOT
ATOM      1  O   UNL A   1      41.133  20.220  27.413  1.00  0.00    -0.374 OA
ENDROOT
BRANCH   1   2
ATOM      2  C   UNL A   1      40.692  21.031  26.324  1.00  0.00     0.202 C 
BRANCH   2   3
ATOM      3  C   UNL A   1      39.423  21.846  26.551  1.00  0.00     0.261 C 
BRANCH   3   4
ATOM      4  O   UNL A   1      38.395  21.437  25.637  1.00  0.00    -0.463 OA
BRANCH   4   5
ATOM      5  C   UNL A   1      37.580  22.407  25.160  1.00  0.00     0.305 C 
ATOM      6  O   UNL A   1      37.419  23.507  25.677  1.00  0.00    -0.252 OA
BRANCH   5   7
ATOM      7  C   UNL A   1      36.876  22.013  23.876  1.00  0.00     0.124 C 
BRANCH   7   8
ATOM      8  C   UNL A   1      35.987  23.025  23.145  1.00  0.00     0.035 C 
BRANCH   8   9
ATOM      9  C   UNL A   1      34.515  23.173  23.559  1.00  0.00     0.139 C 
BRANCH   9  10
ATOM     10  N   UNL A   1      34.133  24.471  24.066  1.00  0.00    -0.262 N 
ATOM     11  C   UNL A   1      33.897  29.589  27.281  1.00  0.00     0.067 C 
ATOM     12  C   UNL A   1      33.772  28.622  26.148  1.00  0.00     0.039 A 
ATOM     13  C   UNL A   1      33.557  29.046  24.829  1.00  0.00     0.027 A 
ATOM     14  N   UNL A   1      33.854  27.322  26.494  1.00  0.00    -0.241 NA
ATOM     15  C   UNL A   1      33.509  28.106  23.785  1.00  0.00    -0.033 A 
ATOM     16  C   UNL A   1      33.807  26.451  25.477  1.00  0.00     0.146 A 
ATOM     17  C   UNL A   1      33.233  28.517  22.373  1.00  0.00     0.045 C 
ATOM     18  C   UNL A   1      33.709  26.779  24.138  1.00  0.00     0.081 A 
ATOM     19  S   UNL A   1      33.872  24.715  25.736  1.00  0.00    -0.035 S 
ATOM     20  C   UNL A   1      33.919  25.593  23.278  1.00  0.00     0.270 A 
ATOM     21  O   UNL A   1      33.960  25.652  22.060  1.00  0.00    -0.268 OA
ENDBRANCH   9  10
ENDBRANCH   8   9
ENDBRANCH   7   8
ENDBRANCH   5   7
ENDBRANCH   4   5
ENDBRANCH   3   4
ENDBRANCH   2   3
ENDBRANCH   1   2
BRANCH   1  22
ATOM     22  C   UNL A   1      42.100  19.197  27.182  1.00  0.00     0.202 C 
BRANCH  22  23
ATOM     23  C   UNL A   1      42.681  19.068  25.781  1.00  0.00     0.261 C 
BRANCH  23  24
ATOM     24  O   UNL A   1      44.046  19.460  25.745  1.00  0.00    -0.460 OA
BRANCH  24  25
ATOM     25  C   UNL A   1      44.457  19.942  24.545  1.00  0.00     0.338 C 
ATOM     26  O   UNL A   1      44.612  19.316  23.518  1.00  0.00    -0.246 OA
BRANCH  25  27
ATOM     27  C   UNL A   1      44.781  21.365  24.709  1.00  0.00     0.060 A 
ATOM     28  C   UNL A   1      45.677  21.680  25.724  1.00  0.00     0.016 A 
ATOM     29  C   UNL A   1      43.994  22.345  24.085  1.00  0.00     0.016 A 
ATOM     30  C   UNL A   1      45.555  22.917  26.311  1.00  0.00     0.010 A 
ATOM     31  C   UNL A   1      43.927  23.604  24.624  1.00  0.00     0.010 A 
ATOM     32  C   UNL A   1      44.593  23.815  25.817  1.00  0.00    -0.014 A 
BRANCH  32  33
ATOM     33  C   UNL A   1      44.321  25.015  26.572  1.00  0.00     0.031 A 
ATOM     34  C   UNL A   1      45.407  25.999  26.438  1.00  0.00     0.074 A 
ATOM     35  C   UNL A   1      43.205  25.212  27.303  1.00  0.00     0.049 A 
ATOM     36  N   UNL A   1      46.331  26.228  27.307  1.00  0.00    -0.248 NA
ATOM     37  C   UNL A   1      45.648  26.602  25.120  1.00  0.00     0.031 C 
ATOM     38  C   UNL A   1      41.985  24.408  27.408  1.00  0.00     0.029 A 
ATOM     39  N   UNL A   1      42.936  26.261  28.121  1.00  0.00    -0.354 N 
ATOM     40  C   UNL A   1      47.144  27.191  26.738  1.00  0.00     0.074 A 
ATOM     41  C   UNL A   1      46.802  27.235  25.339  1.00  0.00     0.031 C 
ATOM     42  C   UNL A   1      41.033  25.114  28.072  1.00  0.00     0.029 A 
ATOM     43  C   UNL A   1      41.621  26.349  28.568  1.00  0.00     0.049 A 
ATOM     44  H   UNL A   1      43.625  26.915  28.380  1.00  0.00     0.167 HD
ATOM     45  C   UNL A   1      47.854  28.042  27.523  1.00  0.00     0.034 A 
ATOM     46  C   UNL A   1      41.085  27.367  29.301  1.00  0.00     0.034 A 
ATOM     47  C   UNL A   1      47.980  27.535  28.872  1.00  0.00     0.049 A 
ATOM     48  C   UNL A   1      42.229  27.996  30.013  1.00  0.00     0.074 A 
ATOM     49  C   UNL A   1      48.553  26.405  29.428  1.00  0.00     0.029 A 
ATOM     50  N   UNL A   1      47.097  27.999  29.821  1.00  0.00    -0.354 N 
ATOM     51  N   UNL A   1      42.909  27.374  30.937  1.00  0.00    -0.248 NA
ATOM     52  C   UNL A   1      42.934  29.079  29.342  1.00  0.00     0.031 C 
ATOM     53  C   UNL A   1      47.629  25.975  30.428  1.00  0.00     0.029 A 
ATOM     54  C   UNL A   1      46.590  26.905  30.485  1.00  0.00     0.049 A 
ATOM     55  H   UNL A   1      46.870  28.941  29.994  1.00  0.00     0.167 HD
ATOM     56  C   UNL A   1      44.234  27.682  30.674  1.00  0.00     0.074 A 
ATOM     57  C   UNL A   1      44.185  28.788  29.715  1.00  0.00     0.031 C 
ATOM     58  C   UNL A   1      45.246  26.835  31.028  1.00  0.00     0.034 A 
BRANCH  45  59
ATOM     59  C   UNL A   1      48.092  29.481  27.162  1.00  0.00     0.023 A 
ATOM     60  C   UNL A   1      49.404  29.971  27.250  1.00  0.00     0.031 A 
ATOM     61  C   UNL A   1      47.069  30.449  27.016  1.00  0.00     0.131 A 
ATOM     62  C   UNL A   1      49.649  31.355  27.255  1.00  0.00     0.055 A 
ATOM     63  C   UNL A   1      47.324  31.819  26.965  1.00  0.00     0.041 A 
ATOM     64  F   UNL A   1      45.769  30.133  27.016  1.00  0.00    -0.206 F 
ATOM     65  C   UNL A   1      48.618  32.282  27.113  1.00  0.00     0.022 A 
BRANCH  62  66
ATOM     66  S   UNL A   1      51.332  31.930  27.591  1.00  0.00     0.124 S 
ATOM     67  O   UNL A   1      51.599  31.332  28.894  1.00  0.00    -0.237 OA
ATOM     68  O   UNL A   1      52.069  31.372  26.462  1.00  0.00    -0.237 OA
ATOM     69  O   UNL A   1      51.198  33.386  27.588  1.00  0.00    -0.744 OA
ENDBRANCH  62  66
ENDBRANCH  45  59
BRANCH  46  70
ATOM     70  C   UNL A   1      39.810  28.108  29.048  1.00  0.00     0.023 A 
ATOM     71  C   UNL A   1      39.011  28.609  30.105  1.00  0.00     0.031 A 
ATOM     72  C   UNL A   1      39.515  28.590  27.755  1.00  0.00     0.131 A 
ATOM     73  C   UNL A   1      37.991  29.559  29.850  1.00  0.00     0.055 A 
ATOM     74  C   UNL A   1      38.513  29.536  27.512  1.00  0.00     0.041 A 
ATOM     75  F   UNL A   1      40.249  28.229  26.693  1.00  0.00    -0.206 F 
ATOM     76  C   UNL A   1      37.756  30.036  28.559  1.00  0.00     0.022 A 
BRANCH  73  77
ATOM     77  S   UNL A   1      37.022  30.287  31.216  1.00  0.00     0.124 S 
ATOM     78  O   UNL A   1      35.908  30.905  30.506  1.00  0.00    -0.237 OA
ATOM     79  O   UNL A   1      36.701  29.125  32.037  1.00  0.00    -0.237 OA
ATOM     80  O   UNL A   1      37.957  31.229  31.833  1.00  0.00    -0.744 OA
ENDBRANCH  73  77
ENDBRANCH  46  70
BRANCH  58  81
ATOM     81  C   UNL A   1      44.909  25.651  31.917  1.00  0.00     0.023 A 
ATOM     82  C   UNL A   1      44.781  25.694  33.327  1.00  0.00     0.031 A 
ATOM     83  C   UNL A   1      44.603  24.441  31.273  1.00  0.00     0.131 A 
ATOM     84  C   UNL A   1      44.367  24.542  34.034  1.00  0.00     0.055 A 
ATOM     85  C   UNL A   1      44.176  23.313  31.972  1.00  0.00     0.041 A 
ATOM     86  F   UNL A   1      44.682  24.346  29.936  1.00  0.00    -0.206 F 
ATOM     87  C   UNL A   1      44.061  23.358  33.356  1.00  0.00     0.022 A 
BRANCH  84  88
ATOM     88  S   UNL A   1      44.214  24.561  35.854  1.00  0.00     0.124 S 
ATOM     89  O   UNL A   1      42.776  24.656  36.071  1.00  0.00    -0.237 OA
ATOM     90  O   UNL A   1      44.837  23.299  36.242  1.00  0.00    -0.237 OA
ATOM     91  O   UNL A   1      44.968  25.753  36.250  1.00  0.00    -0.744 OA
ENDBRANCH  84  88
ENDBRANCH  58  81
ENDBRANCH  32  33
ENDBRANCH  25  27
ENDBRANCH  24  25
ENDBRANCH  23  24
ENDBRANCH  22  23
ENDBRANCH   1  22
TORSDOF 20
ENDMDL
MODEL 2
REMARK VINA RESULT:     -10.3      2.906      8.562
REMARK SMILES Cc1cc(C)c2c(=O)n(CCCC(=O)OCCOCCOC(=O)c3ccc(-c4c5nc(c(-c6cc(S(=O)(=O)[O-])ccc6F)c6ccc([nH]6)c(-c6cc(S(=O)(=O)[O-])ccc6F)c6nc(c(-c7cc(S(=O)(=O)[O-])ccc7F)c7ccc4[nH]7)C=C6)C=C5)cc3)sc2n1
REMARK SMILES IDX 18 1 17 2 16 3 15 4 13 5 14 6 12 7 11 8 10 9 9 10 1 11 2 12
REMARK SMILES IDX 3 13 89 14 4 15 88 16 5 17 6 18 87 19 7 20 8 21 19 22 20 23
REMARK SMILES IDX 21 24 22 25 23 26 24 27 25 28 86 29 26 30 85 31 27 32 28 33
REMARK SMILES IDX 29 34 79 35 30 36 84 37 78 38 80 39 31 40 83 41 77 42 76 43
REMARK SMILES IDX 32 45 64 46 44 47 63 48 45 49 48 50 62 51 81 52 46 53 47 54
REMARK SMILES IDX 61 56 82 57 49 58 33 59 34 60 42 61 35 62 41 63 43 64 40 65
REMARK SMILES IDX 36 66 37 67 38 68 39 69 65 70 66 71 74 72 67 73 73 74 75 75
REMARK SMILES IDX 72 76 68 77 69 78 70 79 71 80 50 81 51 82 59 83 52 84 58 85
REMARK SMILES IDX 60 86 57 87 53 88 54 89 55 90 56 91
REMARK H PARENT 80 44 48 55
REMARK Flexibility Score: inf
ROOT
ATOM      1  O   UNL A   1      35.037  32.647  31.040  1.00  0.00    -0.374 OA
ENDROOT
BRANCH   1   2
ATOM      2  C   UNL A   1      34.506  33.969  30.945  1.00  0.00     0.202 C 
BRANCH   2   3
ATOM      3  C   UNL A   1      34.011  34.408  29.572  1.00  0.00     0.261 C 
BRANCH   3   4
ATOM      4  O   UNL A   1      33.772  33.265  28.737  1.00  0.00    -0.463 OA
BRANCH   4   5
ATOM      5  C   UNL A   1      34.807  32.836  27.977  1.00  0.00     0.305 C 
ATOM      6  O   UNL A   1      35.748  33.532  27.613  1.00  0.00    -0.252 OA
BRANCH   5   7
ATOM      7  C   UNL A   1      34.711  31.365  27.620  1.00  0.00     0.124 C 
BRANCH   7   8
ATOM      8  C   UNL A   1      33.485  30.834  26.868  1.00  0.00     0.035 C 
BRANCH   8   9
ATOM      9  C   UNL A   1      32.806  29.544  27.351  1.00  0.00     0.139 C 
BRANCH   9  10
ATOM     10  N   UNL A   1      32.469  28.589  26.320  1.00  0.00    -0.262 N 
ATOM     11  C   UNL A   1      30.785  23.553  23.423  1.00  0.00     0.067 C 
ATOM     12  C   UNL A   1      31.002  24.997  23.743  1.00  0.00     0.039 A 
ATOM     13  C   UNL A   1      30.345  26.020  23.043  1.00  0.00     0.027 A 
ATOM     14  N   UNL A   1      31.891  25.238  24.727  1.00  0.00    -0.241 NA
ATOM     15  C   UNL A   1      30.531  27.362  23.419  1.00  0.00    -0.033 A 
ATOM     16  C   UNL A   1      32.043  26.526  25.063  1.00  0.00     0.146 A 
ATOM     17  C   UNL A   1      29.885  28.481  22.666  1.00  0.00     0.045 C 
ATOM     18  C   UNL A   1      31.359  27.591  24.508  1.00  0.00     0.081 A 
ATOM     19  S   UNL A   1      33.177  27.034  26.304  1.00  0.00    -0.035 S 
ATOM     20  C   UNL A   1      31.599  28.837  25.269  1.00  0.00     0.270 A 
ATOM     21  O   UNL A   1      31.037  29.890  25.016  1.00  0.00    -0.268 OA
ENDBRANCH   9  10
ENDBRANCH   8   9
ENDBRANCH   7   8
ENDBRANCH   5   7
ENDBRANCH   4   5
ENDBRANCH   3   4
ENDBRANCH   2   3
ENDBRANCH   1   2
BRANCH   1  22
ATOM     22  C   UNL A   1      36.252  32.427  31.754  1.00  0.00     0.202 C 
BRANCH  22  23
ATOM     23  C   UNL A   1      37.457  31.921  30.973  1.00  0.00     0.261 C 
BRANCH  23  24
ATOM     24  O   UNL A   1      37.071  31.008  29.954  1.00  0.00    -0.460 OA
BRANCH  24  25
ATOM     25  C   UNL A   1      36.977  29.719  30.366  1.00  0.00     0.338 C 
ATOM     26  O   UNL A   1      36.303  29.289  31.277  1.00  0.00    -0.246 OA
BRANCH  25  27
ATOM     27  C   UNL A   1      37.915  28.915  29.572  1.00  0.00     0.060 A 
ATOM     28  C   UNL A   1      38.518  27.847  30.227  1.00  0.00     0.016 A 
ATOM     29  C   UNL A   1      38.389  29.392  28.341  1.00  0.00     0.016 A 
ATOM     30  C   UNL A   1      39.769  27.470  29.797  1.00  0.00     0.010 A 
ATOM     31  C   UNL A   1      39.603  28.962  27.870  1.00  0.00     0.010 A 
ATOM     32  C   UNL A   1      40.335  28.123  28.689  1.00  0.00    -0.014 A 
BRANCH  32  33
ATOM     33  C   UNL A   1      41.725  27.878  28.382  1.00  0.00     0.031 A 
ATOM     34  C   UNL A   1      41.905  26.609  27.658  1.00  0.00     0.074 A 
ATOM     35  C   UNL A   1      42.731  28.712  28.713  1.00  0.00     0.049 A 
ATOM     36  N   UNL A   1      42.310  25.498  28.169  1.00  0.00    -0.248 NA
ATOM     37  C   UNL A   1      41.342  26.488  26.306  1.00  0.00     0.031 C 
ATOM     38  C   UNL A   1      42.697  30.060  29.284  1.00  0.00     0.029 A 
ATOM     39  N   UNL A   1      44.061  28.493  28.556  1.00  0.00    -0.354 N 
ATOM     40  C   UNL A   1      42.283  24.582  27.133  1.00  0.00     0.074 A 
ATOM     41  C   UNL A   1      41.502  25.182  26.083  1.00  0.00     0.031 C 
ATOM     42  C   UNL A   1      43.938  30.611  29.221  1.00  0.00     0.029 A 
ATOM     43  C   UNL A   1      44.876  29.605  28.748  1.00  0.00     0.049 A 
ATOM     44  H   UNL A   1      44.424  27.609  28.322  1.00  0.00     0.167 HD
ATOM     45  C   UNL A   1      43.118  23.511  27.142  1.00  0.00     0.034 A 
ATOM     46  C   UNL A   1      46.223  29.662  28.538  1.00  0.00     0.034 A 
ATOM     47  C   UNL A   1      43.636  23.255  28.468  1.00  0.00     0.049 A 
ATOM     48  C   UNL A   1      46.712  28.264  28.671  1.00  0.00     0.074 A 
ATOM     49  C   UNL A   1      43.059  22.924  29.681  1.00  0.00     0.029 A 
ATOM     50  N   UNL A   1      44.882  23.750  28.780  1.00  0.00    -0.354 N 
ATOM     51  N   UNL A   1      46.678  27.612  29.801  1.00  0.00    -0.248 NA
ATOM     52  C   UNL A   1      46.734  27.436  27.473  1.00  0.00     0.031 C 
ATOM     53  C   UNL A   1      43.764  23.702  30.650  1.00  0.00     0.029 A 
ATOM     54  C   UNL A   1      44.779  24.397  29.991  1.00  0.00     0.049 A 
ATOM     55  H   UNL A   1      45.699  23.658  28.238  1.00  0.00     0.167 HD
ATOM     56  C   UNL A   1      46.242  26.339  29.466  1.00  0.00     0.074 A 
ATOM     57  C   UNL A   1      46.352  26.271  28.007  1.00  0.00     0.031 C 
ATOM     58  C   UNL A   1      45.564  25.560  30.360  1.00  0.00     0.034 A 
BRANCH  45  59
ATOM     59  C   UNL A   1      43.745  22.954  25.895  1.00  0.00     0.023 A 
ATOM     60  C   UNL A   1      43.650  21.571  25.674  1.00  0.00     0.031 A 
ATOM     61  C   UNL A   1      44.659  23.658  25.075  1.00  0.00     0.131 A 
ATOM     62  C   UNL A   1      44.478  20.941  24.730  1.00  0.00     0.055 A 
ATOM     63  C   UNL A   1      45.438  23.036  24.100  1.00  0.00     0.041 A 
ATOM     64  F   UNL A   1      44.923  24.960  25.239  1.00  0.00    -0.206 F 
ATOM     65  C   UNL A   1      45.371  21.665  23.941  1.00  0.00     0.022 A 
BRANCH  62  66
ATOM     66  S   UNL A   1      44.467  19.134  24.644  1.00  0.00     0.124 S 
ATOM     67  O   UNL A   1      43.168  18.814  25.224  1.00  0.00    -0.237 OA
ATOM     68  O   UNL A   1      44.609  18.901  23.211  1.00  0.00    -0.237 OA
ATOM     69  O   UNL A   1      45.623  18.751  25.453  1.00  0.00    -0.744 OA
ENDBRANCH  62  66
ENDBRANCH  45  59
BRANCH  46  70
ATOM     70  C   UNL A   1      46.991  30.696  27.777  1.00  0.00     0.023 A 
ATOM     71  C   UNL A   1      46.347  31.756  27.092  1.00  0.00     0.031 A 
ATOM     72  C   UNL A   1      48.385  30.822  27.960  1.00  0.00     0.131 A 
ATOM     73  C   UNL A   1      47.085  32.882  26.647  1.00  0.00     0.055 A 
ATOM     74  C   UNL A   1      49.106  31.940  27.527  1.00  0.00     0.041 A 
ATOM     75  F   UNL A   1      49.081  29.906  28.648  1.00  0.00    -0.206 F 
ATOM     76  C   UNL A   1      48.458  32.981  26.881  1.00  0.00     0.022 A 
BRANCH  73  77
ATOM     77  S   UNL A   1      46.251  34.299  25.855  1.00  0.00     0.124 S 
ATOM     78  O   UNL A   1      45.924  35.141  27.000  1.00  0.00    -0.237 OA
ATOM     79  O   UNL A   1      47.274  34.807  24.947  1.00  0.00    -0.237 OA
ATOM     80  O   UNL A   1      45.098  33.688  25.192  1.00  0.00    -0.744 OA
ENDBRANCH  73  77
ENDBRANCH  46  70
BRANCH  58  81
ATOM     81  C   UNL A   1      45.491  26.027  31.803  1.00  0.00     0.023 A 
ATOM     82  C   UNL A   1      44.372  26.649  32.409  1.00  0.00     0.031 A 
ATOM     83  C   UNL A   1      46.589  25.722  32.625  1.00  0.00     0.131 A 
ATOM     84  C   UNL A   1      44.392  26.950  33.790  1.00  0.00     0.055 A 
ATOM     85  C   UNL A   1      46.597  26.003  33.990  1.00  0.00     0.041 A 
ATOM     86  F   UNL A   1      47.669  25.110  32.114  1.00  0.00    -0.206 F 
ATOM     87  C   UNL A   1      45.500  26.622  34.577  1.00  0.00     0.022 A 
BRANCH  84  88
ATOM     88  S   UNL A   1      42.973  27.772  34.594  1.00  0.00     0.124 S 
ATOM     89  O   UNL A   1      43.574  28.433  35.746  1.00  0.00    -0.237 OA
ATOM     90  O   UNL A   1      42.473  28.652  33.541  1.00  0.00    -0.237 OA
ATOM     91  O   UNL A   1      42.078  26.662  34.929  1.00  0.00    -0.744 OA
ENDBRANCH  84  88
ENDBRANCH  58  81
ENDBRANCH  32  33
ENDBRANCH  25  27
ENDBRANCH  24  25
ENDBRANCH  23  24
ENDBRANCH  22  23
ENDBRANCH   1  22
TORSDOF 20
ENDMDL
MODEL 3
REMARK VINA RESULT:     -10.2      2.875      9.326
REMARK SMILES Cc1cc(C)c2c(=O)n(CCCC(=O)OCCOCCOC(=O)c3ccc(-c4c5nc(c(-c6cc(S(=O)(=O)[O-])ccc6F)c6ccc([nH]6)c(-c6cc(S(=O)(=O)[O-])ccc6F)c6nc(c(-c7cc(S(=O)(=O)[O-])ccc7F)c7ccc4[nH]7)C=C6)C=C5)cc3)sc2n1
REMARK SMILES IDX 18 1 17 2 16 3 15 4 13 5 14 6 12 7 11 8 10 9 9 10 1 11 2 12
REMARK SMILES IDX 3 13 89 14 4 15 88 16 5 17 6 18 87 19 7 20 8 21 19 22 20 23
REMARK SMILES IDX 21 24 22 25 23 26 24 27 25 28 86 29 26 30 85 31 27 32 28 33
REMARK SMILES IDX 29 34 79 35 30 36 84 37 78 38 80 39 31 40 83 41 77 42 76 43
REMARK SMILES IDX 32 45 64 46 44 47 63 48 45 49 48 50 62 51 81 52 46 53 47 54
REMARK SMILES IDX 61 56 82 57 49 58 33 59 34 60 42 61 35 62 41 63 43 64 40 65
REMARK SMILES IDX 36 66 37 67 38 68 39 69 65 70 66 71 74 72 67 73 73 74 75 75
REMARK SMILES IDX 72 76 68 77 69 78 70 79 71 80 50 81 51 82 59 83 52 84 58 85
REMARK SMILES IDX 60 86 57 87 53 88 54 89 55 90 56 91
REMARK H PARENT 80 44 48 55
REMARK Flexibility Score: inf
ROOT
ATOM      1  O   UNL A   1      34.394  32.133  27.362  1.00  0.00    -0.374 OA
ENDROOT
BRANCH   1   2
ATOM      2  C   UNL A   1      33.736  30.878  27.539  1.00  0.00     0.202 C 
BRANCH   2   3
ATOM      3  C   UNL A   1      32.795  30.438  26.422  1.00  0.00     0.261 C 
BRANCH   3   4
ATOM      4  O   UNL A   1      33.411  29.417  25.623  1.00  0.00    -0.463 OA
BRANCH   4   5
ATOM      5  C   UNL A   1      32.964  28.152  25.797  1.00  0.00     0.305 C 
ATOM      6  O   UNL A   1      33.476  27.321  26.539  1.00  0.00    -0.252 OA
BRANCH   5   7
ATOM      7  C   UNL A   1      31.719  27.845  24.987  1.00  0.00     0.124 C 
BRANCH   7   8
ATOM      8  C   UNL A   1      30.550  27.089  25.630  1.00  0.00     0.035 C 
BRANCH   8   9
ATOM      9  C   UNL A   1      30.241  25.655  25.178  1.00  0.00     0.139 C 
BRANCH   9  10
ATOM     10  N   UNL A   1      31.381  24.774  25.062  1.00  0.00    -0.262 N 
ATOM     11  C   UNL A   1      36.786  22.460  23.638  1.00  0.00     0.067 C 
ATOM     12  C   UNL A   1      35.517  22.745  24.376  1.00  0.00     0.039 A 
ATOM     13  C   UNL A   1      35.340  22.378  25.719  1.00  0.00     0.027 A 
ATOM     14  N   UNL A   1      34.556  23.349  23.651  1.00  0.00    -0.241 NA
ATOM     15  C   UNL A   1      34.156  22.722  26.392  1.00  0.00    -0.033 A 
ATOM     16  C   UNL A   1      33.440  23.664  24.322  1.00  0.00     0.146 A 
ATOM     17  C   UNL A   1      33.913  22.306  27.809  1.00  0.00     0.045 C 
ATOM     18  C   UNL A   1      33.219  23.445  25.668  1.00  0.00     0.081 A 
ATOM     19  S   UNL A   1      32.069  24.431  23.537  1.00  0.00    -0.035 S 
ATOM     20  C   UNL A   1      31.986  24.123  26.127  1.00  0.00     0.270 A 
ATOM     21  O   UNL A   1      31.630  24.140  27.294  1.00  0.00    -0.268 OA
ENDBRANCH   9  10
ENDBRANCH   8   9
ENDBRANCH   7   8
ENDBRANCH   5   7
ENDBRANCH   4   5
ENDBRANCH   3   4
ENDBRANCH   2   3
ENDBRANCH   1   2
BRANCH   1  22
ATOM     22  C   UNL A   1      33.846  33.305  27.961  1.00  0.00     0.202 C 
BRANCH  22  23
ATOM     23  C   UNL A   1      34.110  33.540  29.441  1.00  0.00     0.261 C 
BRANCH  23  24
ATOM     24  O   UNL A   1      35.474  33.313  29.770  1.00  0.00    -0.460 OA
BRANCH  24  25
ATOM     25  C   UNL A   1      35.692  32.195  30.506  1.00  0.00     0.338 C 
ATOM     26  O   UNL A   1      35.226  31.930  31.593  1.00  0.00    -0.246 OA
BRANCH  25  27
ATOM     27  C   UNL A   1      36.681  31.368  29.802  1.00  0.00     0.060 A 
ATOM     28  C   UNL A   1      36.440  29.999  29.783  1.00  0.00     0.016 A 
ATOM     29  C   UNL A   1      37.930  31.905  29.452  1.00  0.00     0.016 A 
ATOM     30  C   UNL A   1      37.533  29.168  29.712  1.00  0.00     0.010 A 
ATOM     31  C   UNL A   1      39.009  31.072  29.306  1.00  0.00     0.010 A 
ATOM     32  C   UNL A   1      38.814  29.733  29.592  1.00  0.00    -0.014 A 
BRANCH  32  33
ATOM     33  C   UNL A   1      39.963  28.871  29.740  1.00  0.00     0.031 A 
ATOM     34  C   UNL A   1      40.320  28.681  31.156  1.00  0.00     0.074 A 
ATOM     35  C   UNL A   1      40.622  28.306  28.708  1.00  0.00     0.049 A 
ATOM     36  N   UNL A   1      41.277  29.277  31.780  1.00  0.00    -0.248 NA
ATOM     37  C   UNL A   1      39.378  27.965  32.025  1.00  0.00     0.031 C 
ATOM     38  C   UNL A   1      40.301  28.273  27.280  1.00  0.00     0.029 A 
ATOM     39  N   UNL A   1      41.769  27.582  28.768  1.00  0.00    -0.354 N 
ATOM     40  C   UNL A   1      41.207  28.822  33.084  1.00  0.00     0.074 A 
ATOM     41  C   UNL A   1      39.921  28.187  33.223  1.00  0.00     0.031 C 
ATOM     42  C   UNL A   1      41.116  27.386  26.652  1.00  0.00     0.029 A 
ATOM     43  C   UNL A   1      42.110  26.906  27.600  1.00  0.00     0.049 A 
ATOM     44  H   UNL A   1      42.321  27.538  29.582  1.00  0.00     0.167 HD
ATOM     45  C   UNL A   1      42.320  28.792  33.861  1.00  0.00     0.034 A 
ATOM     46  C   UNL A   1      43.146  26.031  27.449  1.00  0.00     0.034 A 
ATOM     47  C   UNL A   1      43.357  29.650  33.332  1.00  0.00     0.049 A 
ATOM     48  C   UNL A   1      44.137  26.395  28.496  1.00  0.00     0.074 A 
ATOM     49  C   UNL A   1      43.456  31.008  33.091  1.00  0.00     0.029 A 
ATOM     50  N   UNL A   1      44.341  29.072  32.561  1.00  0.00    -0.354 N 
ATOM     51  N   UNL A   1      44.784  27.528  28.487  1.00  0.00    -0.248 NA
ATOM     52  C   UNL A   1      44.014  25.757  29.799  1.00  0.00     0.031 C 
ATOM     53  C   UNL A   1      44.125  31.115  31.834  1.00  0.00     0.029 A 
ATOM     54  C   UNL A   1      44.469  29.828  31.417  1.00  0.00     0.049 A 
ATOM     55  H   UNL A   1      44.860  28.266  32.786  1.00  0.00     0.167 HD
ATOM     56  C   UNL A   1      44.770  27.958  29.804  1.00  0.00     0.074 A 
ATOM     57  C   UNL A   1      44.335  26.794  30.579  1.00  0.00     0.031 C 
ATOM     58  C   UNL A   1      44.832  29.286  30.121  1.00  0.00     0.034 A 
BRANCH  45  59
ATOM     59  C   UNL A   1      42.587  27.707  34.866  1.00  0.00     0.023 A 
ATOM     60  C   UNL A   1      43.319  26.587  34.444  1.00  0.00     0.031 A 
ATOM     61  C   UNL A   1      41.925  27.591  36.112  1.00  0.00     0.131 A 
ATOM     62  C   UNL A   1      43.320  25.407  35.207  1.00  0.00     0.055 A 
ATOM     63  C   UNL A   1      41.976  26.437  36.893  1.00  0.00     0.041 A 
ATOM     64  F   UNL A   1      41.114  28.541  36.593  1.00  0.00    -0.206 F 
ATOM     65  C   UNL A   1      42.654  25.325  36.429  1.00  0.00     0.022 A 
BRANCH  62  66
ATOM     66  S   UNL A   1      44.097  23.930  34.508  1.00  0.00     0.124 S 
ATOM     67  O   UNL A   1      45.180  23.684  35.454  1.00  0.00    -0.237 OA
ATOM     68  O   UNL A   1      42.995  22.974  34.527  1.00  0.00    -0.237 OA
ATOM     69  O   UNL A   1      44.518  24.368  33.178  1.00  0.00    -0.744 OA
ENDBRANCH  62  66
ENDBRANCH  45  59
BRANCH  46  70
ATOM     70  C   UNL A   1      43.113  24.667  26.834  1.00  0.00     0.023 A 
ATOM     71  C   UNL A   1      42.086  23.736  27.126  1.00  0.00     0.031 A 
ATOM     72  C   UNL A   1      43.933  24.370  25.724  1.00  0.00     0.131 A 
ATOM     73  C   UNL A   1      41.900  22.589  26.314  1.00  0.00     0.055 A 
ATOM     74  C   UNL A   1      43.738  23.242  24.921  1.00  0.00     0.041 A 
ATOM     75  F   UNL A   1      44.895  25.215  25.324  1.00  0.00    -0.206 F 
ATOM     76  C   UNL A   1      42.713  22.353  25.204  1.00  0.00     0.022 A 
BRANCH  73  77
ATOM     77  S   UNL A   1      40.518  21.436  26.619  1.00  0.00     0.124 S 
ATOM     78  O   UNL A   1      39.360  22.319  26.541  1.00  0.00    -0.237 OA
ATOM     79  O   UNL A   1      40.666  20.465  25.541  1.00  0.00    -0.237 OA
ATOM     80  O   UNL A   1      40.802  20.910  27.955  1.00  0.00    -0.744 OA
ENDBRANCH  73  77
ENDBRANCH  46  70
BRANCH  58  81
ATOM     81  C   UNL A   1      45.142  30.272  29.010  1.00  0.00     0.023 A 
ATOM     82  C   UNL A   1      46.438  30.699  28.629  1.00  0.00     0.031 A 
ATOM     83  C   UNL A   1      44.058  30.717  28.235  1.00  0.00     0.131 A 
ATOM     84  C   UNL A   1      46.603  31.548  27.512  1.00  0.00     0.055 A 
ATOM     85  C   UNL A   1      44.226  31.539  27.123  1.00  0.00     0.041 A 
ATOM     86  F   UNL A   1      42.808  30.327  28.532  1.00  0.00    -0.206 F 
ATOM     87  C   UNL A   1      45.499  31.962  26.759  1.00  0.00     0.022 A 
BRANCH  84  88
ATOM     88  S   UNL A   1      48.259  32.132  27.010  1.00  0.00     0.124 S 
ATOM     89  O   UNL A   1      48.916  30.920  26.536  1.00  0.00    -0.237 OA
ATOM     90  O   UNL A   1      47.953  33.134  25.993  1.00  0.00    -0.237 OA
ATOM     91  O   UNL A   1      48.819  32.681  28.248  1.00  0.00    -0.744 OA
ENDBRANCH  84  88
ENDBRANCH  58  81
ENDBRANCH  32  33
ENDBRANCH  25  27
ENDBRANCH  24  25
ENDBRANCH  23  24
ENDBRANCH  22  23
ENDBRANCH   1  22
TORSDOF 20
ENDMDL
