MODEL 1
REMARK VINA RESULT:     -12.4      0.000      0.000
REMARK SMILES Cc1c(NC(=O)c2ccc(-c3cccc(Cl)c3)o2)cccc1C(=O)OCCOCCOC(=O)c1ccc(-c2c3nc(c(-c4cc(S(=O)(=O)[O-])ccc4F)c4ccc([nH]4)c(-c4cc(S(=O)(=O)[O-])ccc4F)c4nc(c(-c5cc(S(=O)(=O)[O-])ccc5F)c5ccc2[nH]5)C=C4)C=C3)cc1
REMARK SMILES IDX 28 1 27 2 26 3 25 4 23 5 24 6 22 7 1 8 2 9 3 10 19 11 21 12
REMARK SMILES IDX 20 13 4 14 5 15 6 17 7 18 8 19 18 20 9 21 10 22 11 23 12 24
REMARK SMILES IDX 17 25 13 26 15 27 14 28 16 29 29 30 30 31 31 32 32 33 33 34
REMARK SMILES IDX 34 35 35 36 96 37 36 38 95 39 37 40 38 41 39 42 89 43 40 44
REMARK SMILES IDX 94 45 88 46 90 47 41 48 93 49 87 50 86 51 42 53 74 54 54 55
REMARK SMILES IDX 73 56 55 57 58 58 72 59 91 60 56 61 57 62 71 64 92 65 59 66
REMARK SMILES IDX 43 67 44 68 52 69 45 70 51 71 53 72 50 73 46 74 47 75 48 76
REMARK SMILES IDX 49 77 75 78 76 79 84 80 77 81 83 82 85 83 82 84 78 85 79 86
REMARK SMILES IDX 80 87 81 88 60 89 61 90 69 91 62 92 68 93 70 94 67 95 63 96
REMARK SMILES IDX 64 97 65 98 66 99
REMARK H PARENT 4 16 90 52 58 63
REMARK Flexibility Score: inf
ROOT
ATOM      1  O   UNL A   1      33.297  33.818  28.968  1.00  0.00    -0.374 OA
ENDROOT
BRANCH   1   2
ATOM      2  C   UNL A   1      33.829  33.230  27.791  1.00  0.00     0.202 C 
BRANCH   2   3
ATOM      3  C   UNL A   1      34.120  31.829  28.193  1.00  0.00     0.261 C 
BRANCH   3   4
ATOM      4  O   UNL A   1      33.730  30.897  27.173  1.00  0.00    -0.460 OA
BRANCH   4   5
ATOM      5  C   UNL A   1      34.273  29.683  27.006  1.00  0.00     0.338 C 
ATOM      6  O   UNL A   1      35.411  29.337  27.236  1.00  0.00    -0.246 OA
BRANCH   5   7
ATOM      7  C   UNL A   1      33.183  28.781  26.527  1.00  0.00     0.065 A 
ATOM      8  C   UNL A   1      33.939  28.589  24.033  1.00  0.00     0.047 C 
ATOM      9  C   UNL A   1      33.022  28.287  25.200  1.00  0.00    -0.013 A 
ATOM     10  C   UNL A   1      31.921  27.450  24.922  1.00  0.00     0.045 A 
ATOM     11  C   UNL A   1      31.032  27.116  25.951  1.00  0.00     0.026 A 
ATOM     12  C   UNL A   1      32.223  28.487  27.513  1.00  0.00     0.016 A 
ATOM     13  C   UNL A   1      31.149  27.661  27.225  1.00  0.00     0.003 A 
BRANCH  10  14
ATOM     14  N   UNL A   1      31.774  26.981  23.592  1.00  0.00    -0.319 N 
ATOM     15  C   UNL A   1      31.989  25.747  23.029  1.00  0.00     0.291 C 
ATOM     16  H   UNL A   1      31.458  27.664  22.957  1.00  0.00     0.170 HD
ATOM     17  O   UNL A   1      31.818  25.602  21.818  1.00  0.00    -0.265 OA
BRANCH  15  18
ATOM     18  C   UNL A   1      32.367  24.673  23.898  1.00  0.00     0.192 A 
ATOM     19  C   UNL A   1      31.711  24.034  24.934  1.00  0.00     0.057 A 
ATOM     20  O   UNL A   1      33.668  24.276  23.851  1.00  0.00    -0.451 OA
ATOM     21  C   UNL A   1      32.693  23.263  25.602  1.00  0.00     0.052 A 
ATOM     22  C   UNL A   1      33.873  23.460  24.914  1.00  0.00     0.135 A 
BRANCH  22  23
ATOM     23  C   UNL A   1      35.238  23.022  25.084  1.00  0.00     0.019 A 
ATOM     24  C   UNL A   1      35.602  21.738  24.670  1.00  0.00     0.012 A 
ATOM     25  C   UNL A   1      36.203  23.870  25.649  1.00  0.00     0.032 A 
ATOM     26  C   UNL A   1      36.918  21.303  24.807  1.00  0.00     0.002 A 
ATOM     27  C   UNL A   1      37.513  23.425  25.795  1.00  0.00     0.041 A 
ATOM     28  C   UNL A   1      37.874  22.146  25.374  1.00  0.00     0.020 A 
ATOM     29  Cl  UNL A   1      38.700  24.454  26.498  1.00  0.00    -0.084 Cl
ENDBRANCH  22  23
ENDBRANCH  15  18
ENDBRANCH  10  14
ENDBRANCH   5   7
ENDBRANCH   4   5
ENDBRANCH   3   4
ENDBRANCH   2   3
ENDBRANCH   1   2
BRANCH   1  30
ATOM     30  C   UNL A   1      33.307  35.221  29.005  1.00  0.00     0.202 C 
BRANCH  30  31
ATOM     31  C   UNL A   1      33.142  35.743  30.434  1.00  0.00     0.261 C 
BRANCH  31  32
ATOM     32  O   UNL A   1      33.376  34.665  31.371  1.00  0.00    -0.460 OA
BRANCH  32  33
ATOM     33  C   UNL A   1      34.590  34.654  31.995  1.00  0.00     0.338 C 
ATOM     34  O   UNL A   1      35.019  35.549  32.702  1.00  0.00    -0.246 OA
BRANCH  33  35
ATOM     35  C   UNL A   1      35.387  33.465  31.560  1.00  0.00     0.060 A 
ATOM     36  C   UNL A   1      35.218  32.213  32.189  1.00  0.00     0.016 A 
ATOM     37  C   UNL A   1      36.492  33.681  30.742  1.00  0.00     0.016 A 
ATOM     38  C   UNL A   1      36.238  31.244  32.129  1.00  0.00     0.010 A 
ATOM     39  C   UNL A   1      37.527  32.770  30.771  1.00  0.00     0.010 A 
ATOM     40  C   UNL A   1      37.434  31.567  31.493  1.00  0.00    -0.014 A 
BRANCH  40  41
ATOM     41  C   UNL A   1      38.715  30.855  31.607  1.00  0.00     0.031 A 
ATOM     42  C   UNL A   1      38.911  29.667  30.750  1.00  0.00     0.074 A 
ATOM     43  C   UNL A   1      39.793  31.447  32.188  1.00  0.00     0.049 A 
ATOM     44  N   UNL A   1      39.960  28.933  30.790  1.00  0.00    -0.248 NA
ATOM     45  C   UNL A   1      37.926  29.168  29.789  1.00  0.00     0.031 C 
ATOM     46  C   UNL A   1      41.221  31.244  31.926  1.00  0.00     0.029 A 
ATOM     47  N   UNL A   1      39.813  32.426  33.181  1.00  0.00    -0.354 N 
ATOM     48  C   UNL A   1      39.961  28.127  29.680  1.00  0.00     0.074 A 
ATOM     49  C   UNL A   1      38.619  28.207  29.170  1.00  0.00     0.031 C 
ATOM     50  C   UNL A   1      41.955  31.843  32.885  1.00  0.00     0.029 A 
ATOM     51  C   UNL A   1      41.029  32.371  33.875  1.00  0.00     0.049 A 
ATOM     52  H   UNL A   1      39.083  33.059  33.367  1.00  0.00     0.167 HD
ATOM     53  C   UNL A   1      41.151  27.600  29.287  1.00  0.00     0.034 A 
ATOM     54  C   UNL A   1      41.022  32.181  35.220  1.00  0.00     0.034 A 
ATOM     55  C   UNL A   1      42.179  27.851  30.314  1.00  0.00     0.049 A 
ATOM     56  C   UNL A   1      41.540  30.773  35.425  1.00  0.00     0.074 A 
ATOM     57  C   UNL A   1      43.300  28.657  30.383  1.00  0.00     0.029 A 
ATOM     58  N   UNL A   1      41.918  27.443  31.625  1.00  0.00    -0.354 N 
ATOM     59  N   UNL A   1      41.519  29.870  34.475  1.00  0.00    -0.248 NA
ATOM     60  C   UNL A   1      42.274  30.325  36.602  1.00  0.00     0.031 C 
ATOM     61  C   UNL A   1      43.624  28.829  31.768  1.00  0.00     0.029 A 
ATOM     62  C   UNL A   1      42.730  28.093  32.534  1.00  0.00     0.049 A 
ATOM     63  H   UNL A   1      41.239  26.773  31.870  1.00  0.00     0.167 HD
ATOM     64  C   UNL A   1      42.317  28.824  34.817  1.00  0.00     0.074 A 
ATOM     65  C   UNL A   1      42.721  29.125  36.186  1.00  0.00     0.031 C 
ATOM     66  C   UNL A   1      42.620  27.801  33.963  1.00  0.00     0.034 A 
BRANCH  53  67
ATOM     67  C   UNL A   1      41.452  26.988  27.935  1.00  0.00     0.023 A 
ATOM     68  C   UNL A   1      41.915  25.655  27.892  1.00  0.00     0.031 A 
ATOM     69  C   UNL A   1      41.396  27.639  26.680  1.00  0.00     0.131 A 
ATOM     70  C   UNL A   1      42.278  25.038  26.678  1.00  0.00     0.055 A 
ATOM     71  C   UNL A   1      41.708  27.006  25.468  1.00  0.00     0.041 A 
ATOM     72  F   UNL A   1      41.095  28.933  26.549  1.00  0.00    -0.206 F 
ATOM     73  C   UNL A   1      42.155  25.699  25.461  1.00  0.00     0.022 A 
BRANCH  70  74
ATOM     74  S   UNL A   1      42.958  23.359  26.715  1.00  0.00     0.124 S 
ATOM     75  O   UNL A   1      43.092  23.052  25.294  1.00  0.00    -0.237 OA
ATOM     76  O   UNL A   1      44.198  23.541  27.460  1.00  0.00    -0.237 OA
ATOM     77  O   UNL A   1      41.927  22.590  27.414  1.00  0.00    -0.744 OA
ENDBRANCH  70  74
ENDBRANCH  53  67
BRANCH  54  78
ATOM     78  C   UNL A   1      39.867  32.916  35.858  1.00  0.00     0.023 A 
ATOM     79  C   UNL A   1      38.918  32.151  36.604  1.00  0.00     0.031 A 
ATOM     80  C   UNL A   1      39.959  34.282  36.169  1.00  0.00     0.131 A 
ATOM     81  C   UNL A   1      38.199  32.726  37.678  1.00  0.00     0.055 A 
ATOM     82  C   UNL A   1      39.255  34.842  37.251  1.00  0.00     0.041 A 
ATOM     83  F   UNL A   1      40.846  35.065  35.540  1.00  0.00    -0.206 F 
ATOM     84  C   UNL A   1      38.404  34.060  38.031  1.00  0.00     0.022 A 
BRANCH  81  85
ATOM     85  S   UNL A   1      37.195  31.686  38.806  1.00  0.00     0.124 S 
ATOM     86  O   UNL A   1      37.119  30.425  38.082  1.00  0.00    -0.237 OA
ATOM     87  O   UNL A   1      37.984  31.659  40.033  1.00  0.00    -0.237 OA
ATOM     88  O   UNL A   1      35.942  32.431  38.924  1.00  0.00    -0.744 OA
ENDBRANCH  81  85
ENDBRANCH  54  78
BRANCH  66  89
ATOM     89  C   UNL A   1      42.890  26.412  34.471  1.00  0.00     0.023 A 
ATOM     90  C   UNL A   1      44.182  25.876  34.451  1.00  0.00     0.031 A 
ATOM     91  C   UNL A   1      41.906  25.630  35.113  1.00  0.00     0.131 A 
ATOM     92  C   UNL A   1      44.435  24.578  34.896  1.00  0.00     0.055 A 
ATOM     93  C   UNL A   1      42.190  24.386  35.681  1.00  0.00     0.041 A 
ATOM     94  F   UNL A   1      40.636  26.042  35.236  1.00  0.00    -0.206 F 
ATOM     95  C   UNL A   1      43.455  23.835  35.546  1.00  0.00     0.022 A 
BRANCH  92  96
ATOM     96  S   UNL A   1      46.034  23.864  34.460  1.00  0.00     0.124 S 
ATOM     97  O   UNL A   1      46.739  23.917  35.739  1.00  0.00    -0.237 OA
ATOM     98  O   UNL A   1      45.670  22.528  33.996  1.00  0.00    -0.237 OA
ATOM     99  O   UNL A   1      46.543  24.767  33.431  1.00  0.00    -0.744 OA
ENDBRANCH  92  96
ENDBRANCH  66  89
ENDBRANCH  40  41
ENDBRANCH  33  35
ENDBRANCH  32  33
ENDBRANCH  31  32
ENDBRANCH  30  31
ENDBRANCH   1  30
TORSDOF 20
ENDMDL
MODEL 2
REMARK VINA RESULT:     -12.3      4.419     10.280
REMARK SMILES Cc1c(NC(=O)c2ccc(-c3cccc(Cl)c3)o2)cccc1C(=O)OCCOCCOC(=O)c1ccc(-c2c3nc(c(-c4cc(S(=O)(=O)[O-])ccc4F)c4ccc([nH]4)c(-c4cc(S(=O)(=O)[O-])ccc4F)c4nc(c(-c5cc(S(=O)(=O)[O-])ccc5F)c5ccc2[nH]5)C=C4)C=C3)cc1
REMARK SMILES IDX 28 1 27 2 26 3 25 4 23 5 24 6 22 7 1 8 2 9 3 10 19 11 21 12
REMARK SMILES IDX 20 13 4 14 5 15 6 17 7 18 8 19 18 20 9 21 10 22 11 23 12 24
REMARK SMILES IDX 17 25 13 26 15 27 14 28 16 29 29 30 30 31 31 32 32 33 33 34
REMARK SMILES IDX 34 35 35 36 96 37 36 38 95 39 37 40 38 41 39 42 89 43 40 44
REMARK SMILES IDX 94 45 88 46 90 47 41 48 93 49 87 50 86 51 42 53 74 54 54 55
REMARK SMILES IDX 73 56 55 57 58 58 72 59 91 60 56 61 57 62 71 64 92 65 59 66
REMARK SMILES IDX 43 67 44 68 52 69 45 70 51 71 53 72 50 73 46 74 47 75 48 76
REMARK SMILES IDX 49 77 75 78 76 79 84 80 77 81 83 82 85 83 82 84 78 85 79 86
REMARK SMILES IDX 80 87 81 88 60 89 61 90 69 91 62 92 68 93 70 94 67 95 63 96
REMARK SMILES IDX 64 97 65 98 66 99
REMARK H PARENT 4 16 90 52 58 63
REMARK Flexibility Score: inf
ROOT
ATOM      1  O   UNL A   1      35.796  21.533  24.623  1.00  0.00    -0.374 OA
ENDROOT
BRANCH   1   2
ATOM      2  C   UNL A   1      35.281  20.263  24.992  1.00  0.00     0.202 C 
BRANCH   2   3
ATOM      3  C   UNL A   1      33.819  20.497  25.126  1.00  0.00     0.261 C 
BRANCH   3   4
ATOM      4  O   UNL A   1      33.534  21.477  26.137  1.00  0.00    -0.460 OA
BRANCH   4   5
ATOM      5  C   UNL A   1      32.493  22.320  26.104  1.00  0.00     0.338 C 
ATOM      6  O   UNL A   1      31.406  22.183  26.623  1.00  0.00    -0.246 OA
BRANCH   5   7
ATOM      7  C   UNL A   1      32.934  23.526  25.342  1.00  0.00     0.065 A 
ATOM      8  C   UNL A   1      31.748  22.981  23.078  1.00  0.00     0.047 C 
ATOM      9  C   UNL A   1      32.608  23.832  23.988  1.00  0.00    -0.013 A 
ATOM     10  C   UNL A   1      33.124  25.017  23.422  1.00  0.00     0.045 A 
ATOM     11  C   UNL A   1      33.922  25.863  24.203  1.00  0.00     0.026 A 
ATOM     12  C   UNL A   1      33.803  24.362  26.066  1.00  0.00     0.016 A 
ATOM     13  C   UNL A   1      34.299  25.524  25.498  1.00  0.00     0.003 A 
BRANCH  10  14
ATOM     14  N   UNL A   1      32.799  25.294  22.070  1.00  0.00    -0.319 N 
ATOM     15  C   UNL A   1      31.775  26.014  21.505  1.00  0.00     0.291 C 
ATOM     16  H   UNL A   1      33.421  24.899  21.418  1.00  0.00     0.170 HD
ATOM     17  O   UNL A   1      31.691  26.076  20.279  1.00  0.00    -0.265 OA
BRANCH  15  18
ATOM     18  C   UNL A   1      30.873  26.695  22.386  1.00  0.00     0.192 A 
ATOM     19  C   UNL A   1      29.989  26.244  23.349  1.00  0.00     0.057 A 
ATOM     20  O   UNL A   1      30.688  28.024  22.163  1.00  0.00    -0.451 OA
ATOM     21  C   UNL A   1      29.167  27.351  23.674  1.00  0.00     0.052 A 
ATOM     22  C   UNL A   1      29.622  28.407  22.910  1.00  0.00     0.135 A 
BRANCH  22  23
ATOM     23  C   UNL A   1      29.212  29.778  22.718  1.00  0.00     0.019 A 
ATOM     24  C   UNL A   1      29.304  30.676  23.785  1.00  0.00     0.012 A 
ATOM     25  C   UNL A   1      28.733  30.221  21.475  1.00  0.00     0.032 A 
ATOM     26  C   UNL A   1      28.932  32.007  23.616  1.00  0.00     0.002 A 
ATOM     27  C   UNL A   1      28.352  31.549  21.316  1.00  0.00     0.041 A 
ATOM     28  C   UNL A   1      28.452  32.444  22.381  1.00  0.00     0.020 A 
ATOM     29  Cl  UNL A   1      27.753  32.099  19.799  1.00  0.00    -0.084 Cl
ENDBRANCH  22  23
ENDBRANCH  15  18
ENDBRANCH  10  14
ENDBRANCH   5   7
ENDBRANCH   4   5
ENDBRANCH   3   4
ENDBRANCH   2   3
ENDBRANCH   1   2
BRANCH   1  30
ATOM     30  C   UNL A   1      37.195  21.626  24.558  1.00  0.00     0.202 C 
BRANCH  30  31
ATOM     31  C   UNL A   1      37.773  22.244  25.833  1.00  0.00     0.261 C 
BRANCH  31  32
ATOM     32  O   UNL A   1      39.199  22.435  25.672  1.00  0.00    -0.460 OA
BRANCH  32  33
ATOM     33  C   UNL A   1      39.882  22.874  26.770  1.00  0.00     0.338 C 
ATOM     34  O   UNL A   1      40.492  22.159  27.545  1.00  0.00    -0.246 OA
BRANCH  33  35
ATOM     35  C   UNL A   1      39.638  24.335  26.980  1.00  0.00     0.060 A 
ATOM     36  C   UNL A   1      40.398  25.301  26.285  1.00  0.00     0.016 A 
ATOM     37  C   UNL A   1      38.872  24.721  28.076  1.00  0.00     0.016 A 
ATOM     38  C   UNL A   1      40.516  26.611  26.790  1.00  0.00     0.010 A 
ATOM     39  C   UNL A   1      39.071  25.972  28.618  1.00  0.00     0.010 A 
ATOM     40  C   UNL A   1      39.922  26.914  28.012  1.00  0.00    -0.014 A 
BRANCH  40  41
ATOM     41  C   UNL A   1      40.197  28.082  28.862  1.00  0.00     0.031 A 
ATOM     42  C   UNL A   1      39.202  29.174  28.862  1.00  0.00     0.074 A 
ATOM     43  C   UNL A   1      41.119  28.016  29.861  1.00  0.00     0.049 A 
ATOM     44  N   UNL A   1      39.347  30.263  29.519  1.00  0.00    -0.248 NA
ATOM     45  C   UNL A   1      37.958  29.159  28.090  1.00  0.00     0.031 C 
ATOM     46  C   UNL A   1      41.168  28.745  31.132  1.00  0.00     0.029 A 
ATOM     47  N   UNL A   1      42.256  27.213  29.939  1.00  0.00    -0.354 N 
ATOM     48  C   UNL A   1      38.137  30.907  29.556  1.00  0.00     0.074 A 
ATOM     49  C   UNL A   1      37.349  30.260  28.542  1.00  0.00     0.031 C 
ATOM     50  C   UNL A   1      42.369  28.569  31.717  1.00  0.00     0.029 A 
ATOM     51  C   UNL A   1      43.194  27.802  30.796  1.00  0.00     0.049 A 
ATOM     52  H   UNL A   1      42.381  26.361  29.462  1.00  0.00     0.167 HD
ATOM     53  C   UNL A   1      37.944  31.826  30.539  1.00  0.00     0.034 A 
ATOM     54  C   UNL A   1      44.438  28.087  30.329  1.00  0.00     0.034 A 
ATOM     55  C   UNL A   1      39.213  32.090  31.241  1.00  0.00     0.049 A 
ATOM     56  C   UNL A   1      44.489  29.597  30.228  1.00  0.00     0.074 A 
ATOM     57  C   UNL A   1      39.697  31.802  32.504  1.00  0.00     0.029 A 
ATOM     58  N   UNL A   1      40.323  32.471  30.482  1.00  0.00    -0.354 N 
ATOM     59  N   UNL A   1      43.406  30.335  30.163  1.00  0.00    -0.248 NA
ATOM     60  C   UNL A   1      45.698  30.397  30.376  1.00  0.00     0.031 C 
ATOM     61  C   UNL A   1      41.126  31.890  32.449  1.00  0.00     0.029 A 
ATOM     62  C   UNL A   1      41.505  32.275  31.169  1.00  0.00     0.049 A 
ATOM     63  H   UNL A   1      40.268  32.835  29.569  1.00  0.00     0.167 HD
ATOM     64  C   UNL A   1      43.722  31.636  30.398  1.00  0.00     0.074 A 
ATOM     65  C   UNL A   1      45.178  31.636  30.465  1.00  0.00     0.031 C 
ATOM     66  C   UNL A   1      42.784  32.618  30.551  1.00  0.00     0.034 A 
BRANCH  53  67
ATOM     67  C   UNL A   1      36.609  32.390  30.981  1.00  0.00     0.023 A 
ATOM     68  C   UNL A   1      35.882  33.182  30.067  1.00  0.00     0.031 A 
ATOM     69  C   UNL A   1      36.028  32.279  32.265  1.00  0.00     0.131 A 
ATOM     70  C   UNL A   1      34.666  33.797  30.426  1.00  0.00     0.055 A 
ATOM     71  C   UNL A   1      34.792  32.848  32.605  1.00  0.00     0.041 A 
ATOM     72  F   UNL A   1      36.636  31.668  33.285  1.00  0.00    -0.206 F 
ATOM     73  C   UNL A   1      34.103  33.615  31.684  1.00  0.00     0.022 A 
BRANCH  70  74
ATOM     74  S   UNL A   1      33.841  34.879  29.230  1.00  0.00     0.124 S 
ATOM     75  O   UNL A   1      32.933  33.956  28.556  1.00  0.00    -0.237 OA
ATOM     76  O   UNL A   1      33.226  35.883  30.091  1.00  0.00    -0.237 OA
ATOM     77  O   UNL A   1      34.943  35.372  28.401  1.00  0.00    -0.744 OA
ENDBRANCH  70  74
ENDBRANCH  53  67
BRANCH  54  78
ATOM     78  C   UNL A   1      44.913  27.012  29.381  1.00  0.00     0.023 A 
ATOM     79  C   UNL A   1      44.887  27.297  27.981  1.00  0.00     0.031 A 
ATOM     80  C   UNL A   1      45.803  26.013  29.804  1.00  0.00     0.131 A 
ATOM     81  C   UNL A   1      45.800  26.681  27.093  1.00  0.00     0.055 A 
ATOM     82  C   UNL A   1      46.721  25.419  28.919  1.00  0.00     0.041 A 
ATOM     83  F   UNL A   1      45.915  25.706  31.104  1.00  0.00    -0.206 F 
ATOM     84  C   UNL A   1      46.748  25.777  27.572  1.00  0.00     0.022 A 
BRANCH  81  85
ATOM     85  S   UNL A   1      45.954  27.245  25.356  1.00  0.00     0.124 S 
ATOM     86  O   UNL A   1      47.109  28.131  25.417  1.00  0.00    -0.237 OA
ATOM     87  O   UNL A   1      46.152  26.005  24.613  1.00  0.00    -0.237 OA
ATOM     88  O   UNL A   1      44.668  27.891  25.096  1.00  0.00    -0.744 OA
ENDBRANCH  81  85
ENDBRANCH  54  78
BRANCH  66  89
ATOM     89  C   UNL A   1      43.068  34.039  30.147  1.00  0.00     0.023 A 
ATOM     90  C   UNL A   1      42.966  34.443  28.812  1.00  0.00     0.031 A 
ATOM     91  C   UNL A   1      43.314  35.064  31.086  1.00  0.00     0.131 A 
ATOM     92  C   UNL A   1      43.253  35.754  28.427  1.00  0.00     0.055 A 
ATOM     93  C   UNL A   1      43.466  36.401  30.714  1.00  0.00     0.041 A 
ATOM     94  F   UNL A   1      43.396  34.821  32.402  1.00  0.00    -0.206 F 
ATOM     95  C   UNL A   1      43.470  36.751  29.372  1.00  0.00     0.022 A 
BRANCH  92  96
ATOM     96  S   UNL A   1      43.474  36.055  26.662  1.00  0.00     0.124 S 
ATOM     97  O   UNL A   1      42.710  37.287  26.476  1.00  0.00    -0.237 OA
ATOM     98  O   UNL A   1      44.923  36.187  26.541  1.00  0.00    -0.237 OA
ATOM     99  O   UNL A   1      42.899  34.866  26.037  1.00  0.00    -0.744 OA
ENDBRANCH  92  96
ENDBRANCH  66  89
ENDBRANCH  40  41
ENDBRANCH  33  35
ENDBRANCH  32  33
ENDBRANCH  31  32
ENDBRANCH  30  31
ENDBRANCH   1  30
TORSDOF 20
ENDMDL
MODEL 3
REMARK VINA RESULT:     -11.6      4.773     11.068
REMARK SMILES Cc1c(NC(=O)c2ccc(-c3cccc(Cl)c3)o2)cccc1C(=O)OCCOCCOC(=O)c1ccc(-c2c3nc(c(-c4cc(S(=O)(=O)[O-])ccc4F)c4ccc([nH]4)c(-c4cc(S(=O)(=O)[O-])ccc4F)c4nc(c(-c5cc(S(=O)(=O)[O-])ccc5F)c5ccc2[nH]5)C=C4)C=C3)cc1
REMARK SMILES IDX 28 1 27 2 26 3 25 4 23 5 24 6 22 7 1 8 2 9 3 10 19 11 21 12
REMARK SMILES IDX 20 13 4 14 5 15 6 17 7 18 8 19 18 20 9 21 10 22 11 23 12 24
REMARK SMILES IDX 17 25 13 26 15 27 14 28 16 29 29 30 30 31 31 32 32 33 33 34
REMARK SMILES IDX 34 35 35 36 96 37 36 38 95 39 37 40 38 41 39 42 89 43 40 44
REMARK SMILES IDX 94 45 88 46 90 47 41 48 93 49 87 50 86 51 42 53 74 54 54 55
REMARK SMILES IDX 73 56 55 57 58 58 72 59 91 60 56 61 57 62 71 64 92 65 59 66
REMARK SMILES IDX 43 67 44 68 52 69 45 70 51 71 53 72 50 73 46 74 47 75 48 76
REMARK SMILES IDX 49 77 75 78 76 79 84 80 77 81 83 82 85 83 82 84 78 85 79 86
REMARK SMILES IDX 80 87 81 88 60 89 61 90 69 91 62 92 68 93 70 94 67 95 63 96
REMARK SMILES IDX 64 97 65 98 66 99
REMARK H PARENT 4 16 90 52 58 63
REMARK Flexibility Score: inf
ROOT
ATOM      1  O   UNL A   1      40.471  19.958  27.043  1.00  0.00    -0.374 OA
ENDROOT
BRANCH   1   2
ATOM      2  C   UNL A   1      39.836  20.509  25.900  1.00  0.00     0.202 C 
BRANCH   2   3
ATOM      3  C   UNL A   1      39.304  21.810  26.380  1.00  0.00     0.261 C 
BRANCH   3   4
ATOM      4  O   UNL A   1      38.012  22.090  25.819  1.00  0.00    -0.460 OA
BRANCH   4   5
ATOM      5  C   UNL A   1      37.359  23.252  25.960  1.00  0.00     0.338 C 
ATOM      6  O   UNL A   1      37.745  24.263  26.504  1.00  0.00    -0.246 OA
BRANCH   5   7
ATOM      7  C   UNL A   1      36.050  23.103  25.256  1.00  0.00     0.065 A 
ATOM      8  C   UNL A   1      34.567  22.597  27.348  1.00  0.00     0.047 C 
ATOM      9  C   UNL A   1      34.795  22.809  25.866  1.00  0.00    -0.013 A 
ATOM     10  C   UNL A   1      33.657  22.692  25.041  1.00  0.00     0.045 A 
ATOM     11  C   UNL A   1      33.784  22.884  23.660  1.00  0.00     0.026 A 
ATOM     12  C   UNL A   1      36.149  23.208  23.857  1.00  0.00     0.016 A 
ATOM     13  C   UNL A   1      35.021  23.095  23.061  1.00  0.00     0.003 A 
BRANCH  10  14
ATOM     14  N   UNL A   1      32.422  22.386  25.668  1.00  0.00    -0.319 N 
ATOM     15  C   UNL A   1      31.245  23.088  25.761  1.00  0.00     0.291 C 
ATOM     16  H   UNL A   1      32.405  21.510  26.116  1.00  0.00     0.170 HD
ATOM     17  O   UNL A   1      30.311  22.609  26.404  1.00  0.00    -0.265 OA
BRANCH  15  18
ATOM     18  C   UNL A   1      31.155  24.336  25.063  1.00  0.00     0.192 A 
ATOM     19  C   UNL A   1      30.897  24.651  23.742  1.00  0.00     0.057 A 
ATOM     20  O   UNL A   1      31.553  25.446  25.741  1.00  0.00    -0.451 OA
ATOM     21  C   UNL A   1      31.231  26.019  23.594  1.00  0.00     0.052 A 
ATOM     22  C   UNL A   1      31.644  26.452  24.837  1.00  0.00     0.135 A 
BRANCH  22  23
ATOM     23  C   UNL A   1      32.156  27.695  25.366  1.00  0.00     0.019 A 
ATOM     24  C   UNL A   1      31.446  28.877  25.148  1.00  0.00     0.012 A 
ATOM     25  C   UNL A   1      33.352  27.726  26.102  1.00  0.00     0.032 A 
ATOM     26  C   UNL A   1      31.913  30.083  25.666  1.00  0.00     0.002 A 
ATOM     27  C   UNL A   1      33.820  28.935  26.606  1.00  0.00     0.041 A 
ATOM     28  C   UNL A   1      33.103  30.113  26.392  1.00  0.00     0.020 A 
ATOM     29  Cl  UNL A   1      35.289  28.986  27.500  1.00  0.00    -0.084 Cl
ENDBRANCH  22  23
ENDBRANCH  15  18
ENDBRANCH  10  14
ENDBRANCH   5   7
ENDBRANCH   4   5
ENDBRANCH   3   4
ENDBRANCH   2   3
ENDBRANCH   1   2
BRANCH   1  30
ATOM     30  C   UNL A   1      41.845  20.214  27.159  1.00  0.00     0.202 C 
BRANCH  30  31
ATOM     31  C   UNL A   1      42.637  19.540  26.037  1.00  0.00     0.261 C 
BRANCH  31  32
ATOM     32  O   UNL A   1      42.989  20.525  25.037  1.00  0.00    -0.460 OA
BRANCH  32  33
ATOM     33  C   UNL A   1      44.024  21.362  25.346  1.00  0.00     0.338 C 
ATOM     34  O   UNL A   1      45.151  21.001  25.633  1.00  0.00    -0.246 OA
BRANCH  33  35
ATOM     35  C   UNL A   1      43.537  22.773  25.441  1.00  0.00     0.060 A 
ATOM     36  C   UNL A   1      44.168  23.806  24.715  1.00  0.00     0.016 A 
ATOM     37  C   UNL A   1      42.659  23.095  26.472  1.00  0.00     0.016 A 
ATOM     38  C   UNL A   1      44.046  25.146  25.131  1.00  0.00     0.010 A 
ATOM     39  C   UNL A   1      42.623  24.393  26.933  1.00  0.00     0.010 A 
ATOM     40  C   UNL A   1      43.344  25.423  26.301  1.00  0.00    -0.014 A 
BRANCH  40  41
ATOM     41  C   UNL A   1      43.380  26.670  27.079  1.00  0.00     0.031 A 
ATOM     42  C   UNL A   1      42.111  27.412  27.234  1.00  0.00     0.074 A 
ATOM     43  C   UNL A   1      44.423  26.946  27.908  1.00  0.00     0.049 A 
ATOM     44  N   UNL A   1      42.020  28.535  27.844  1.00  0.00    -0.248 NA
ATOM     45  C   UNL A   1      40.826  26.978  26.684  1.00  0.00     0.031 C 
ATOM     46  C   UNL A   1      44.447  27.734  29.143  1.00  0.00     0.029 A 
ATOM     47  N   UNL A   1      45.748  26.526  27.801  1.00  0.00    -0.354 N 
ATOM     48  C   UNL A   1      40.692  28.788  28.077  1.00  0.00     0.074 A 
ATOM     49  C   UNL A   1      39.990  27.872  27.219  1.00  0.00     0.031 C 
ATOM     50  C   UNL A   1      45.721  27.963  29.519  1.00  0.00     0.029 A 
ATOM     51  C   UNL A   1      46.584  27.421  28.480  1.00  0.00     0.049 A 
ATOM     52  H   UNL A   1      46.051  25.722  27.321  1.00  0.00     0.167 HD
ATOM     53  C   UNL A   1      40.385  29.667  29.068  1.00  0.00     0.034 A 
ATOM     54  C   UNL A   1      47.592  28.035  27.807  1.00  0.00     0.034 A 
ATOM     55  C   UNL A   1      41.607  30.342  29.541  1.00  0.00     0.049 A 
ATOM     56  C   UNL A   1      47.163  29.482  27.680  1.00  0.00     0.074 A 
ATOM     57  C   UNL A   1      42.348  30.292  30.708  1.00  0.00     0.029 A 
ATOM     58  N   UNL A   1      42.413  30.989  28.601  1.00  0.00    -0.354 N 
ATOM     59  N   UNL A   1      45.911  29.857  27.790  1.00  0.00    -0.248 NA
ATOM     60  C   UNL A   1      48.078  30.614  27.612  1.00  0.00     0.031 C 
ATOM     61  C   UNL A   1      43.655  30.800  30.410  1.00  0.00     0.029 A 
ATOM     62  C   UNL A   1      43.691  31.199  29.080  1.00  0.00     0.049 A 
ATOM     63  H   UNL A   1      42.107  31.262  27.706  1.00  0.00     0.167 HD
ATOM     64  C   UNL A   1      45.847  31.204  27.953  1.00  0.00     0.074 A 
ATOM     65  C   UNL A   1      47.226  31.644  27.773  1.00  0.00     0.031 C 
ATOM     66  C   UNL A   1      44.691  31.870  28.250  1.00  0.00     0.034 A 
BRANCH  53  67
ATOM     67  C   UNL A   1      39.029  29.834  29.723  1.00  0.00     0.023 A 
ATOM     68  C   UNL A   1      38.228  30.927  29.332  1.00  0.00     0.031 A 
ATOM     69  C   UNL A   1      38.491  29.045  30.766  1.00  0.00     0.131 A 
ATOM     70  C   UNL A   1      36.984  31.188  29.941  1.00  0.00     0.055 A 
ATOM     71  C   UNL A   1      37.230  29.274  31.335  1.00  0.00     0.041 A 
ATOM     72  F   UNL A   1      39.165  28.044  31.338  1.00  0.00    -0.206 F 
ATOM     73  C   UNL A   1      36.469  30.352  30.926  1.00  0.00     0.022 A 
BRANCH  70  74
ATOM     74  S   UNL A   1      36.058  32.667  29.455  1.00  0.00     0.124 S 
ATOM     75  O   UNL A   1      34.822  32.519  30.218  1.00  0.00    -0.237 OA
ATOM     76  O   UNL A   1      36.951  33.743  29.868  1.00  0.00    -0.237 OA
ATOM     77  O   UNL A   1      35.909  32.514  28.007  1.00  0.00    -0.744 OA
ENDBRANCH  70  74
ENDBRANCH  53  67
BRANCH  54  78
ATOM     78  C   UNL A   1      48.217  27.094  26.804  1.00  0.00     0.023 A 
ATOM     79  C   UNL A   1      47.937  27.310  25.420  1.00  0.00     0.031 A 
ATOM     80  C   UNL A   1      49.391  26.386  27.107  1.00  0.00     0.131 A 
ATOM     81  C   UNL A   1      48.863  26.931  24.419  1.00  0.00     0.055 A 
ATOM     82  C   UNL A   1      50.316  26.029  26.109  1.00  0.00     0.041 A 
ATOM     83  F   UNL A   1      49.745  26.169  28.381  1.00  0.00    -0.206 F 
ATOM     84  C   UNL A   1      50.074  26.333  24.770  1.00  0.00     0.022 A 
BRANCH  81  85
ATOM     85  S   UNL A   1      48.637  27.452  22.677  1.00  0.00     0.124 S 
ATOM     86  O   UNL A   1      49.784  28.324  22.462  1.00  0.00    -0.237 OA
ATOM     87  O   UNL A   1      48.659  26.193  21.941  1.00  0.00    -0.237 OA
ATOM     88  O   UNL A   1      47.331  28.109  22.689  1.00  0.00    -0.744 OA
ENDBRANCH  81  85
ENDBRANCH  54  78
BRANCH  66  89
ATOM     89  C   UNL A   1      44.460  33.281  27.788  1.00  0.00     0.023 A 
ATOM     90  C   UNL A   1      44.725  34.368  28.627  1.00  0.00     0.031 A 
ATOM     91  C   UNL A   1      44.100  33.599  26.460  1.00  0.00     0.131 A 
ATOM     92  C   UNL A   1      44.488  35.680  28.213  1.00  0.00     0.055 A 
ATOM     93  C   UNL A   1      43.995  34.916  26.007  1.00  0.00     0.041 A 
ATOM     94  F   UNL A   1      43.856  32.654  25.541  1.00  0.00    -0.206 F 
ATOM     95  C   UNL A   1      44.156  35.969  26.894  1.00  0.00     0.022 A 
BRANCH  92  96
ATOM     96  S   UNL A   1      44.487  36.951  29.494  1.00  0.00     0.124 S 
ATOM     97  O   UNL A   1      45.806  36.765  30.094  1.00  0.00    -0.237 OA
ATOM     98  O   UNL A   1      44.313  38.179  28.722  1.00  0.00    -0.237 OA
ATOM     99  O   UNL A   1      43.359  36.580  30.344  1.00  0.00    -0.744 OA
ENDBRANCH  92  96
ENDBRANCH  66  89
ENDBRANCH  40  41
ENDBRANCH  33  35
ENDBRANCH  32  33
ENDBRANCH  31  32
ENDBRANCH  30  31
ENDBRANCH   1  30
TORSDOF 20
ENDMDL
