MODEL 1
REMARK VINA RESULT:     -12.1      0.000      0.000
REMARK SMILES C[C@H]1[C@H](C(=O)OCCOCCOC(=O)c2ccc(-c3c4nc(c(-c5cc(S(=O)(=O)[O-])ccc5F)c5ccc([nH]5)c(-c5cc(S(=O)(=O)[O-])ccc5F)c5nc(c(-c6cc(S(=O)(=O)[O-])ccc6F)c6ccc3[nH]6)C=C5)C=C4)cc2)CCN1C(=O)Nc1ccc(F)c(Cl)c1
REMARK SMILES IDX 10 1 9 2 8 3 7 4 6 5 4 6 5 7 3 8 1 9 2 10 80 11 78 12 79 13
REMARK SMILES IDX 81 14 82 15 83 16 84 18 85 19 91 20 86 21 89 22 87 23 90 24
REMARK SMILES IDX 88 25 11 26 12 27 13 28 14 29 15 30 16 31 77 32 17 33 76 34
REMARK SMILES IDX 18 35 19 36 20 37 70 38 21 39 75 40 69 41 71 42 22 43 74 44
REMARK SMILES IDX 68 45 67 46 23 48 55 49 35 50 54 51 36 52 39 53 53 54 72 55
REMARK SMILES IDX 37 56 38 57 52 59 73 60 40 61 24 62 25 63 33 64 26 65 32 66
REMARK SMILES IDX 34 67 31 68 27 69 28 70 29 71 30 72 56 73 57 74 65 75 58 76
REMARK SMILES IDX 64 77 66 78 63 79 59 80 60 81 61 82 62 83 41 84 42 85 50 86
REMARK SMILES IDX 43 87 49 88 51 89 48 90 44 91 45 92 46 93 47 94
REMARK H PARENT 83 17 71 47 39 58
REMARK Flexibility Score: inf
ROOT
ATOM      1  C   UNL A   1      35.614  20.484  25.088  1.00  0.00     0.202 C 
ENDROOT
BRANCH   1   2
ATOM      2  O   UNL A   1      35.157  21.279  26.173  1.00  0.00    -0.374 OA
BRANCH   2   3
ATOM      3  C   UNL A   1      33.785  21.208  26.540  1.00  0.00     0.202 C 
BRANCH   3   4
ATOM      4  C   UNL A   1      33.167  22.409  27.267  1.00  0.00     0.261 C 
BRANCH   4   5
ATOM      5  O   UNL A   1      32.013  22.975  26.620  1.00  0.00    -0.463 OA
BRANCH   5   6
ATOM      6  C   UNL A   1      32.013  24.330  26.542  1.00  0.00     0.311 C 
ATOM      7  O   UNL A   1      31.212  25.070  27.107  1.00  0.00    -0.252 OA
BRANCH   6   8
ATOM      8  C   UNL A   1      33.057  24.882  25.603  1.00  0.00     0.123 C 
ATOM      9  C   UNL A   1      33.803  23.633  23.576  1.00  0.00     0.032 C 
ATOM     10  C   UNL A   1      32.852  24.731  24.069  1.00  0.00     0.098 C 
ATOM     11  N   UNL A   1      33.195  26.057  23.519  1.00  0.00    -0.321 N 
ATOM     12  C   UNL A   1      33.189  26.375  25.856  1.00  0.00     0.039 C 
ATOM     13  C   UNL A   1      33.776  26.887  24.567  1.00  0.00     0.122 C 
BRANCH  11  14
ATOM     14  C   UNL A   1      33.067  26.633  22.295  1.00  0.00     0.322 C 
ATOM     15  O   UNL A   1      33.852  26.339  21.382  1.00  0.00    -0.248 OA
ATOM     16  N   UNL A   1      32.074  27.445  21.900  1.00  0.00    -0.308 N 
ATOM     17  H   UNL A   1      32.213  27.752  20.976  1.00  0.00     0.171 HD
BRANCH  16  18
ATOM     18  C   UNL A   1      30.904  27.972  22.434  1.00  0.00     0.044 A 
ATOM     19  C   UNL A   1      30.034  27.057  23.050  1.00  0.00     0.029 A 
ATOM     20  C   UNL A   1      30.462  29.262  22.147  1.00  0.00     0.049 A 
ATOM     21  C   UNL A   1      28.760  27.446  23.455  1.00  0.00     0.043 A 
ATOM     22  C   UNL A   1      29.148  29.621  22.485  1.00  0.00     0.078 A 
ATOM     23  C   UNL A   1      28.322  28.727  23.165  1.00  0.00     0.141 A 
ATOM     24  Cl  UNL A   1      28.488  31.130  21.987  1.00  0.00    -0.081 Cl
ATOM     25  F   UNL A   1      27.077  29.075  23.522  1.00  0.00    -0.205 F 
ENDBRANCH  16  18
ENDBRANCH  11  14
ENDBRANCH   6   8
ENDBRANCH   5   6
ENDBRANCH   4   5
ENDBRANCH   3   4
ENDBRANCH   2   3
ENDBRANCH   1   2
BRANCH   1  26
ATOM     26  C   UNL A   1      37.094  20.527  24.697  1.00  0.00     0.261 C 
BRANCH  26  27
ATOM     27  O   UNL A   1      37.816  21.676  25.184  1.00  0.00    -0.460 OA
BRANCH  27  28
ATOM     28  C   UNL A   1      38.933  21.354  25.890  1.00  0.00     0.338 C 
ATOM     29  O   UNL A   1      39.544  20.293  25.817  1.00  0.00    -0.246 OA
BRANCH  28  30
ATOM     30  C   UNL A   1      39.455  22.479  26.694  1.00  0.00     0.060 A 
ATOM     31  C   UNL A   1      38.930  23.745  26.412  1.00  0.00     0.016 A 
ATOM     32  C   UNL A   1      40.523  22.350  27.589  1.00  0.00     0.016 A 
ATOM     33  C   UNL A   1      39.518  24.883  26.955  1.00  0.00     0.010 A 
ATOM     34  C   UNL A   1      41.111  23.498  28.139  1.00  0.00     0.010 A 
ATOM     35  C   UNL A   1      40.640  24.771  27.787  1.00  0.00    -0.014 A 
BRANCH  35  36
ATOM     36  C   UNL A   1      41.348  26.011  28.190  1.00  0.00     0.031 A 
ATOM     37  C   UNL A   1      42.757  26.255  27.719  1.00  0.00     0.074 A 
ATOM     38  C   UNL A   1      40.693  26.950  28.895  1.00  0.00     0.049 A 
ATOM     39  N   UNL A   1      43.490  27.333  27.826  1.00  0.00    -0.248 NA
ATOM     40  C   UNL A   1      43.428  25.135  27.043  1.00  0.00     0.031 C 
ATOM     41  C   UNL A   1      39.328  26.816  29.404  1.00  0.00     0.029 A 
ATOM     42  N   UNL A   1      41.077  28.206  29.287  1.00  0.00    -0.354 N 
ATOM     43  C   UNL A   1      44.704  27.030  27.216  1.00  0.00     0.074 A 
ATOM     44  C   UNL A   1      44.624  25.649  26.791  1.00  0.00     0.031 C 
ATOM     45  C   UNL A   1      38.980  27.954  30.026  1.00  0.00     0.029 A 
ATOM     46  C   UNL A   1      40.101  28.890  29.970  1.00  0.00     0.049 A 
ATOM     47  H   UNL A   1      41.967  28.581  29.097  1.00  0.00     0.167 HD
ATOM     48  C   UNL A   1      45.778  27.837  27.017  1.00  0.00     0.034 A 
ATOM     49  C   UNL A   1      40.105  30.137  30.481  1.00  0.00     0.034 A 
ATOM     50  C   UNL A   1      45.845  29.209  27.464  1.00  0.00     0.049 A 
ATOM     51  C   UNL A   1      41.316  31.008  30.266  1.00  0.00     0.074 A 
ATOM     52  C   UNL A   1      46.871  30.123  27.298  1.00  0.00     0.029 A 
ATOM     53  N   UNL A   1      44.849  29.860  28.181  1.00  0.00    -0.354 N 
ATOM     54  N   UNL A   1      42.437  30.725  29.642  1.00  0.00    -0.248 NA
ATOM     55  C   UNL A   1      41.249  32.373  30.800  1.00  0.00     0.031 C 
ATOM     56  C   UNL A   1      46.521  31.304  27.967  1.00  0.00     0.029 A 
ATOM     57  C   UNL A   1      45.247  31.153  28.491  1.00  0.00     0.049 A 
ATOM     58  H   UNL A   1      43.984  29.462  28.433  1.00  0.00     0.167 HD
ATOM     59  C   UNL A   1      43.200  31.888  29.691  1.00  0.00     0.074 A 
ATOM     60  C   UNL A   1      42.400  32.879  30.384  1.00  0.00     0.031 C 
ATOM     61  C   UNL A   1      44.447  32.121  29.204  1.00  0.00     0.034 A 
BRANCH  48  62
ATOM     62  C   UNL A   1      46.976  27.237  26.317  1.00  0.00     0.023 A 
ATOM     63  C   UNL A   1      47.960  26.517  27.019  1.00  0.00     0.031 A 
ATOM     64  C   UNL A   1      47.149  27.406  24.932  1.00  0.00     0.131 A 
ATOM     65  C   UNL A   1      49.102  26.051  26.347  1.00  0.00     0.055 A 
ATOM     66  C   UNL A   1      48.251  26.878  24.256  1.00  0.00     0.041 A 
ATOM     67  F   UNL A   1      46.254  28.100  24.211  1.00  0.00    -0.206 F 
ATOM     68  C   UNL A   1      49.243  26.208  24.966  1.00  0.00     0.022 A 
BRANCH  65  69
ATOM     69  S   UNL A   1      50.462  25.352  27.322  1.00  0.00     0.124 S 
ATOM     70  O   UNL A   1      51.413  24.978  26.278  1.00  0.00    -0.237 OA
ATOM     71  O   UNL A   1      50.851  26.473  28.170  1.00  0.00    -0.237 OA
ATOM     72  O   UNL A   1      49.841  24.228  28.021  1.00  0.00    -0.744 OA
ENDBRANCH  65  69
ENDBRANCH  48  62
BRANCH  49  73
ATOM     73  C   UNL A   1      38.927  30.636  31.243  1.00  0.00     0.023 A 
ATOM     74  C   UNL A   1      37.820  31.200  30.591  1.00  0.00     0.031 A 
ATOM     75  C   UNL A   1      38.908  30.577  32.648  1.00  0.00     0.131 A 
ATOM     76  C   UNL A   1      36.755  31.718  31.344  1.00  0.00     0.055 A 
ATOM     77  C   UNL A   1      37.827  31.052  33.392  1.00  0.00     0.041 A 
ATOM     78  F   UNL A   1      39.939  30.039  33.319  1.00  0.00    -0.206 F 
ATOM     79  C   UNL A   1      36.746  31.637  32.739  1.00  0.00     0.022 A 
BRANCH  76  80
ATOM     80  S   UNL A   1      35.403  32.559  30.476  1.00  0.00     0.124 S 
ATOM     81  O   UNL A   1      36.011  33.846  30.154  1.00  0.00    -0.237 OA
ATOM     82  O   UNL A   1      35.163  31.662  29.351  1.00  0.00    -0.237 OA
ATOM     83  O   UNL A   1      34.336  32.606  31.473  1.00  0.00    -0.744 OA
ENDBRANCH  76  80
ENDBRANCH  49  73
BRANCH  61  84
ATOM     84  C   UNL A   1      44.997  33.514  29.390  1.00  0.00     0.023 A 
ATOM     85  C   UNL A   1      44.846  34.503  28.401  1.00  0.00     0.031 A 
ATOM     86  C   UNL A   1      45.717  33.843  30.551  1.00  0.00     0.131 A 
ATOM     87  C   UNL A   1      45.466  35.751  28.561  1.00  0.00     0.055 A 
ATOM     88  C   UNL A   1      46.281  35.108  30.731  1.00  0.00     0.041 A 
ATOM     89  F   UNL A   1      45.893  32.938  31.527  1.00  0.00    -0.206 F 
ATOM     90  C   UNL A   1      46.171  36.064  29.726  1.00  0.00     0.022 A 
BRANCH  87  91
ATOM     91  S   UNL A   1      45.435  36.921  27.175  1.00  0.00     0.124 S 
ATOM     92  O   UNL A   1      46.075  36.152  26.113  1.00  0.00    -0.237 OA
ATOM     93  O   UNL A   1      44.007  37.170  27.010  1.00  0.00    -0.237 OA
ATOM     94  O   UNL A   1      46.209  38.059  27.669  1.00  0.00    -0.744 OA
ENDBRANCH  87  91
ENDBRANCH  61  84
ENDBRANCH  35  36
ENDBRANCH  28  30
ENDBRANCH  27  28
ENDBRANCH  26  27
ENDBRANCH   1  26
TORSDOF 19
ENDMDL
MODEL 2
REMARK VINA RESULT:     -11.9      1.825      2.135
REMARK SMILES C[C@H]1[C@H](C(=O)OCCOCCOC(=O)c2ccc(-c3c4nc(c(-c5cc(S(=O)(=O)[O-])ccc5F)c5ccc([nH]5)c(-c5cc(S(=O)(=O)[O-])ccc5F)c5nc(c(-c6cc(S(=O)(=O)[O-])ccc6F)c6ccc3[nH]6)C=C5)C=C4)cc2)CCN1C(=O)Nc1ccc(F)c(Cl)c1
REMARK SMILES IDX 10 1 9 2 8 3 7 4 6 5 4 6 5 7 3 8 1 9 2 10 80 11 78 12 79 13
REMARK SMILES IDX 81 14 82 15 83 16 84 18 85 19 91 20 86 21 89 22 87 23 90 24
REMARK SMILES IDX 88 25 11 26 12 27 13 28 14 29 15 30 16 31 77 32 17 33 76 34
REMARK SMILES IDX 18 35 19 36 20 37 70 38 21 39 75 40 69 41 71 42 22 43 74 44
REMARK SMILES IDX 68 45 67 46 23 48 55 49 35 50 54 51 36 52 39 53 53 54 72 55
REMARK SMILES IDX 37 56 38 57 52 59 73 60 40 61 24 62 25 63 33 64 26 65 32 66
REMARK SMILES IDX 34 67 31 68 27 69 28 70 29 71 30 72 56 73 57 74 65 75 58 76
REMARK SMILES IDX 64 77 66 78 63 79 59 80 60 81 61 82 62 83 41 84 42 85 50 86
REMARK SMILES IDX 43 87 49 88 51 89 48 90 44 91 45 92 46 93 47 94
REMARK H PARENT 83 17 71 47 39 58
REMARK Flexibility Score: inf
ROOT
ATOM      1  C   UNL A   1      35.869  20.622  25.341  1.00  0.00     0.202 C 
ENDROOT
BRANCH   1   2
ATOM      2  O   UNL A   1      35.258  21.697  26.042  1.00  0.00    -0.374 OA
BRANCH   2   3
ATOM      3  C   UNL A   1      34.031  21.459  26.720  1.00  0.00     0.202 C 
BRANCH   3   4
ATOM      4  C   UNL A   1      33.366  22.634  27.448  1.00  0.00     0.261 C 
BRANCH   4   5
ATOM      5  O   UNL A   1      32.007  22.894  27.054  1.00  0.00    -0.463 OA
BRANCH   5   6
ATOM      6  C   UNL A   1      31.767  24.167  26.645  1.00  0.00     0.311 C 
ATOM      7  O   UNL A   1      30.764  24.819  26.919  1.00  0.00    -0.252 OA
BRANCH   6   8
ATOM      8  C   UNL A   1      32.825  24.714  25.721  1.00  0.00     0.123 C 
ATOM      9  C   UNL A   1      33.519  23.512  23.647  1.00  0.00     0.032 C 
ATOM     10  C   UNL A   1      32.609  24.624  24.184  1.00  0.00     0.098 C 
ATOM     11  N   UNL A   1      32.996  25.957  23.678  1.00  0.00    -0.321 N 
ATOM     12  C   UNL A   1      33.011  26.192  26.024  1.00  0.00     0.039 C 
ATOM     13  C   UNL A   1      33.610  26.728  24.751  1.00  0.00     0.122 C 
BRANCH  11  14
ATOM     14  C   UNL A   1      32.883  26.579  22.476  1.00  0.00     0.322 C 
ATOM     15  O   UNL A   1      33.723  26.377  21.587  1.00  0.00    -0.248 OA
ATOM     16  N   UNL A   1      31.857  27.345  22.072  1.00  0.00    -0.308 N 
ATOM     17  H   UNL A   1      32.014  27.703  21.169  1.00  0.00     0.171 HD
BRANCH  16  18
ATOM     18  C   UNL A   1      30.634  27.773  22.575  1.00  0.00     0.044 A 
ATOM     19  C   UNL A   1      29.853  26.800  23.220  1.00  0.00     0.029 A 
ATOM     20  C   UNL A   1      30.069  29.000  22.233  1.00  0.00     0.049 A 
ATOM     21  C   UNL A   1      28.541  27.075  23.600  1.00  0.00     0.043 A 
ATOM     22  C   UNL A   1      28.722  29.239  22.547  1.00  0.00     0.078 A 
ATOM     23  C   UNL A   1      27.981  28.293  23.255  1.00  0.00     0.141 A 
ATOM     24  Cl  UNL A   1      27.921  30.653  21.983  1.00  0.00    -0.081 Cl
ATOM     25  F   UNL A   1      26.704  28.529  23.588  1.00  0.00    -0.205 F 
ENDBRANCH  16  18
ENDBRANCH  11  14
ENDBRANCH   6   8
ENDBRANCH   5   6
ENDBRANCH   4   5
ENDBRANCH   3   4
ENDBRANCH   2   3
ENDBRANCH   1   2
BRANCH   1  26
ATOM     26  C   UNL A   1      37.313  20.769  24.852  1.00  0.00     0.261 C 
BRANCH  26  27
ATOM     27  O   UNL A   1      38.012  21.920  25.366  1.00  0.00    -0.460 OA
BRANCH  27  28
ATOM     28  C   UNL A   1      39.115  21.603  26.095  1.00  0.00     0.338 C 
ATOM     29  O   UNL A   1      39.686  20.517  26.092  1.00  0.00    -0.246 OA
BRANCH  28  30
ATOM     30  C   UNL A   1      39.678  22.758  26.826  1.00  0.00     0.060 A 
ATOM     31  C   UNL A   1      39.172  24.018  26.489  1.00  0.00     0.016 A 
ATOM     32  C   UNL A   1      40.765  22.654  27.700  1.00  0.00     0.016 A 
ATOM     33  C   UNL A   1      39.795  25.170  26.957  1.00  0.00     0.010 A 
ATOM     34  C   UNL A   1      41.390  23.816  28.174  1.00  0.00     0.010 A 
ATOM     35  C   UNL A   1      40.935  25.079  27.767  1.00  0.00    -0.014 A 
BRANCH  35  36
ATOM     36  C   UNL A   1      41.677  26.323  28.086  1.00  0.00     0.031 A 
ATOM     37  C   UNL A   1      43.073  26.519  27.559  1.00  0.00     0.074 A 
ATOM     38  C   UNL A   1      41.061  27.307  28.767  1.00  0.00     0.049 A 
ATOM     39  N   UNL A   1      43.828  27.587  27.591  1.00  0.00    -0.248 NA
ATOM     40  C   UNL A   1      43.702  25.355  26.917  1.00  0.00     0.031 C 
ATOM     41  C   UNL A   1      39.712  27.222  29.326  1.00  0.00     0.029 A 
ATOM     42  N   UNL A   1      41.479  28.573  29.085  1.00  0.00    -0.354 N 
ATOM     43  C   UNL A   1      45.015  27.234  26.957  1.00  0.00     0.074 A 
ATOM     44  C   UNL A   1      44.898  25.835  26.601  1.00  0.00     0.031 C 
ATOM     45  C   UNL A   1      39.405  28.395  29.903  1.00  0.00     0.029 A 
ATOM     46  C   UNL A   1      40.538  29.306  29.766  1.00  0.00     0.049 A 
ATOM     47  H   UNL A   1      42.368  28.922  28.849  1.00  0.00     0.167 HD
ATOM     48  C   UNL A   1      46.095  28.009  26.684  1.00  0.00     0.034 A 
ATOM     49  C   UNL A   1      40.581  30.576  30.217  1.00  0.00     0.034 A 
ATOM     50  C   UNL A   1      46.201  29.400  27.063  1.00  0.00     0.049 A 
ATOM     51  C   UNL A   1      41.798  31.413  29.920  1.00  0.00     0.074 A 
ATOM     52  C   UNL A   1      47.236  30.286  26.821  1.00  0.00     0.029 A 
ATOM     53  N   UNL A   1      45.240  30.102  27.780  1.00  0.00    -0.354 N 
ATOM     54  N   UNL A   1      42.893  31.081  29.275  1.00  0.00    -0.248 NA
ATOM     55  C   UNL A   1      41.772  32.803  30.390  1.00  0.00     0.031 C 
ATOM     56  C   UNL A   1      46.928  31.503  27.442  1.00  0.00     0.029 A 
ATOM     57  C   UNL A   1      45.670  31.401  28.014  1.00  0.00     0.049 A 
ATOM     58  H   UNL A   1      44.378  29.733  28.079  1.00  0.00     0.167 HD
ATOM     59  C   UNL A   1      43.676  32.230  29.243  1.00  0.00     0.074 A 
ATOM     60  C   UNL A   1      42.917  33.268  29.913  1.00  0.00     0.031 C 
ATOM     61  C   UNL A   1      44.911  32.416  28.706  1.00  0.00     0.034 A 
BRANCH  48  62
ATOM     62  C   UNL A   1      47.259  27.355  25.976  1.00  0.00     0.023 A 
ATOM     63  C   UNL A   1      48.251  26.647  26.679  1.00  0.00     0.031 A 
ATOM     64  C   UNL A   1      47.392  27.460  24.580  1.00  0.00     0.131 A 
ATOM     65  C   UNL A   1      49.362  26.128  25.993  1.00  0.00     0.055 A 
ATOM     66  C   UNL A   1      48.463  26.881  23.895  1.00  0.00     0.041 A 
ATOM     67  F   UNL A   1      46.489  28.140  23.857  1.00  0.00    -0.206 F 
ATOM     68  C   UNL A   1      49.463  26.221  24.603  1.00  0.00     0.022 A 
BRANCH  65  69
ATOM     69  S   UNL A   1      50.739  25.444  26.957  1.00  0.00     0.124 S 
ATOM     70  O   UNL A   1      50.088  24.340  27.658  1.00  0.00    -0.237 OA
ATOM     71  O   UNL A   1      51.693  25.070  25.921  1.00  0.00    -0.237 OA
ATOM     72  O   UNL A   1      51.148  26.559  27.810  1.00  0.00    -0.744 OA
ENDBRANCH  65  69
ENDBRANCH  48  62
BRANCH  49  73
ATOM     73  C   UNL A   1      39.437  31.132  30.992  1.00  0.00     0.023 A 
ATOM     74  C   UNL A   1      39.446  31.155  32.395  1.00  0.00     0.031 A 
ATOM     75  C   UNL A   1      38.301  31.629  30.328  1.00  0.00     0.131 A 
ATOM     76  C   UNL A   1      38.325  31.628  33.092  1.00  0.00     0.055 A 
ATOM     77  C   UNL A   1      37.206  32.141  31.026  1.00  0.00     0.041 A 
ATOM     78  F   UNL A   1      38.246  31.638  28.988  1.00  0.00    -0.206 F 
ATOM     79  C   UNL A   1      37.209  32.132  32.417  1.00  0.00     0.022 A 
BRANCH  76  80
ATOM     80  S   UNL A   1      38.316  31.519  34.903  1.00  0.00     0.124 S 
ATOM     81  O   UNL A   1      39.588  32.146  35.245  1.00  0.00    -0.237 OA
ATOM     82  O   UNL A   1      37.114  32.273  35.245  1.00  0.00    -0.237 OA
ATOM     83  O   UNL A   1      38.241  30.082  35.156  1.00  0.00    -0.744 OA
ENDBRANCH  76  80
ENDBRANCH  49  73
BRANCH  61  84
ATOM     84  C   UNL A   1      45.490  33.806  28.806  1.00  0.00     0.023 A 
ATOM     85  C   UNL A   1      46.282  34.196  29.902  1.00  0.00     0.031 A 
ATOM     86  C   UNL A   1      45.212  34.764  27.817  1.00  0.00     0.131 A 
ATOM     87  C   UNL A   1      46.709  35.527  30.015  1.00  0.00     0.055 A 
ATOM     88  C   UNL A   1      45.692  36.072  27.905  1.00  0.00     0.041 A 
ATOM     89  F   UNL A   1      44.461  34.447  26.750  1.00  0.00    -0.206 F 
ATOM     90  C   UNL A   1      46.431  36.464  29.017  1.00  0.00     0.022 A 
BRANCH  87  91
ATOM     91  S   UNL A   1      47.539  36.046  31.543  1.00  0.00     0.124 S 
ATOM     92  O   UNL A   1      46.561  35.678  32.561  1.00  0.00    -0.237 OA
ATOM     93  O   UNL A   1      48.762  35.251  31.519  1.00  0.00    -0.237 OA
ATOM     94  O   UNL A   1      47.731  37.484  31.359  1.00  0.00    -0.744 OA
ENDBRANCH  87  91
ENDBRANCH  61  84
ENDBRANCH  35  36
ENDBRANCH  28  30
ENDBRANCH  27  28
ENDBRANCH  26  27
ENDBRANCH   1  26
TORSDOF 19
ENDMDL
MODEL 3
REMARK VINA RESULT:     -11.9      5.077     10.438
REMARK SMILES C[C@H]1[C@H](C(=O)OCCOCCOC(=O)c2ccc(-c3c4nc(c(-c5cc(S(=O)(=O)[O-])ccc5F)c5ccc([nH]5)c(-c5cc(S(=O)(=O)[O-])ccc5F)c5nc(c(-c6cc(S(=O)(=O)[O-])ccc6F)c6ccc3[nH]6)C=C5)C=C4)cc2)CCN1C(=O)Nc1ccc(F)c(Cl)c1
REMARK SMILES IDX 10 1 9 2 8 3 7 4 6 5 4 6 5 7 3 8 1 9 2 10 80 11 78 12 79 13
REMARK SMILES IDX 81 14 82 15 83 16 84 18 85 19 91 20 86 21 89 22 87 23 90 24
REMARK SMILES IDX 88 25 11 26 12 27 13 28 14 29 15 30 16 31 77 32 17 33 76 34
REMARK SMILES IDX 18 35 19 36 20 37 70 38 21 39 75 40 69 41 71 42 22 43 74 44
REMARK SMILES IDX 68 45 67 46 23 48 55 49 35 50 54 51 36 52 39 53 53 54 72 55
REMARK SMILES IDX 37 56 38 57 52 59 73 60 40 61 24 62 25 63 33 64 26 65 32 66
REMARK SMILES IDX 34 67 31 68 27 69 28 70 29 71 30 72 56 73 57 74 65 75 58 76
REMARK SMILES IDX 64 77 66 78 63 79 59 80 60 81 61 82 62 83 41 84 42 85 50 86
REMARK SMILES IDX 43 87 49 88 51 89 48 90 44 91 45 92 46 93 47 94
REMARK H PARENT 83 17 71 47 39 58
REMARK Flexibility Score: inf
ROOT
ATOM      1  C   UNL A   1      32.135  29.431  25.045  1.00  0.00     0.202 C 
ENDROOT
BRANCH   1   2
ATOM      2  O   UNL A   1      31.118  28.910  24.199  1.00  0.00    -0.374 OA
BRANCH   2   3
ATOM      3  C   UNL A   1      31.499  28.093  23.100  1.00  0.00     0.202 C 
BRANCH   3   4
ATOM      4  C   UNL A   1      32.979  28.057  22.702  1.00  0.00     0.261 C 
BRANCH   4   5
ATOM      5  O   UNL A   1      33.505  26.740  22.459  1.00  0.00    -0.463 OA
BRANCH   5   6
ATOM      6  C   UNL A   1      33.713  25.996  23.574  1.00  0.00     0.311 C 
ATOM      7  O   UNL A   1      34.145  26.426  24.640  1.00  0.00    -0.252 OA
BRANCH   6   8
ATOM      8  C   UNL A   1      33.446  24.525  23.378  1.00  0.00     0.123 C 
ATOM      9  C   UNL A   1      34.818  22.770  24.503  1.00  0.00     0.032 C 
ATOM     10  C   UNL A   1      33.514  23.572  24.604  1.00  0.00     0.098 C 
ATOM     11  N   UNL A   1      32.319  22.714  24.472  1.00  0.00    -0.321 N 
ATOM     12  C   UNL A   1      32.047  24.362  22.807  1.00  0.00     0.039 C 
ATOM     13  C   UNL A   1      31.691  22.946  23.178  1.00  0.00     0.122 C 
BRANCH  11  14
ATOM     14  C   UNL A   1      31.712  21.810  25.284  1.00  0.00     0.322 C 
ATOM     15  O   UNL A   1      30.816  22.171  26.061  1.00  0.00    -0.248 OA
ATOM     16  N   UNL A   1      31.900  20.481  25.272  1.00  0.00    -0.308 N 
ATOM     17  H   UNL A   1      31.363  20.040  25.969  1.00  0.00     0.171 HD
BRANCH  16  18
ATOM     18  C   UNL A   1      32.640  19.555  24.547  1.00  0.00     0.044 A 
ATOM     19  C   UNL A   1      32.125  19.191  23.293  1.00  0.00     0.029 A 
ATOM     20  C   UNL A   1      33.672  18.809  25.115  1.00  0.00     0.049 A 
ATOM     21  C   UNL A   1      32.686  18.144  22.566  1.00  0.00     0.043 A 
ATOM     22  C   UNL A   1      34.179  17.705  24.412  1.00  0.00     0.078 A 
ATOM     23  C   UNL A   1      33.709  17.402  23.134  1.00  0.00     0.141 A 
ATOM     24  Cl  UNL A   1      35.316  16.640  25.141  1.00  0.00    -0.081 Cl
ATOM     25  F   UNL A   1      34.212  16.370  22.442  1.00  0.00    -0.205 F 
ENDBRANCH  16  18
ENDBRANCH  11  14
ENDBRANCH   6   8
ENDBRANCH   5   6
ENDBRANCH   4   5
ENDBRANCH   3   4
ENDBRANCH   2   3
ENDBRANCH   1   2
BRANCH   1  26
ATOM     26  C   UNL A   1      31.794  30.562  26.020  1.00  0.00     0.261 C 
BRANCH  26  27
ATOM     27  O   UNL A   1      32.541  30.544  27.253  1.00  0.00    -0.460 OA
BRANCH  27  28
ATOM     28  C   UNL A   1      33.295  31.660  27.445  1.00  0.00     0.338 C 
ATOM     29  O   UNL A   1      32.876  32.812  27.459  1.00  0.00    -0.246 OA
BRANCH  28  30
ATOM     30  C   UNL A   1      34.702  31.356  27.781  1.00  0.00     0.060 A 
ATOM     31  C   UNL A   1      35.003  30.019  28.063  1.00  0.00     0.016 A 
ATOM     32  C   UNL A   1      35.674  32.344  27.968  1.00  0.00     0.016 A 
ATOM     33  C   UNL A   1      36.239  29.679  28.603  1.00  0.00     0.010 A 
ATOM     34  C   UNL A   1      36.921  32.000  28.509  1.00  0.00     0.010 A 
ATOM     35  C   UNL A   1      37.191  30.672  28.872  1.00  0.00    -0.014 A 
BRANCH  35  36
ATOM     36  C   UNL A   1      38.415  30.294  29.621  1.00  0.00     0.031 A 
ATOM     37  C   UNL A   1      38.606  30.774  31.034  1.00  0.00     0.074 A 
ATOM     38  C   UNL A   1      39.300  29.449  29.062  1.00  0.00     0.049 A 
ATOM     39  N   UNL A   1      39.519  30.433  31.908  1.00  0.00    -0.248 NA
ATOM     40  C   UNL A   1      37.645  31.773  31.525  1.00  0.00     0.031 C 
ATOM     41  C   UNL A   1      39.213  28.925  27.699  1.00  0.00     0.029 A 
ATOM     42  N   UNL A   1      40.429  28.867  29.576  1.00  0.00    -0.354 N 
ATOM     43  C   UNL A   1      39.234  31.160  33.059  1.00  0.00     0.074 A 
ATOM     44  C   UNL A   1      38.096  32.001  32.751  1.00  0.00     0.031 C 
ATOM     45  C   UNL A   1      40.238  28.082  27.489  1.00  0.00     0.029 A 
ATOM     46  C   UNL A   1      41.057  28.018  28.697  1.00  0.00     0.049 A 
ATOM     47  H   UNL A   1      40.759  29.041  30.487  1.00  0.00     0.167 HD
ATOM     48  C   UNL A   1      39.855  31.118  34.265  1.00  0.00     0.034 A 
ATOM     49  C   UNL A   1      42.162  27.262  28.854  1.00  0.00     0.034 A 
ATOM     50  C   UNL A   1      41.002  30.285  34.548  1.00  0.00     0.049 A 
ATOM     51  C   UNL A   1      42.849  27.246  30.195  1.00  0.00     0.074 A 
ATOM     52  C   UNL A   1      41.697  30.145  35.737  1.00  0.00     0.029 A 
ATOM     53  N   UNL A   1      41.631  29.460  33.624  1.00  0.00    -0.354 N 
ATOM     54  N   UNL A   1      42.538  27.900  31.291  1.00  0.00    -0.248 NA
ATOM     55  C   UNL A   1      44.018  26.368  30.325  1.00  0.00     0.031 C 
ATOM     56  C   UNL A   1      42.781  29.285  35.515  1.00  0.00     0.029 A 
ATOM     57  C   UNL A   1      42.723  28.831  34.207  1.00  0.00     0.049 A 
ATOM     58  H   UNL A   1      41.344  29.337  32.691  1.00  0.00     0.167 HD
ATOM     59  C   UNL A   1      43.463  27.494  32.248  1.00  0.00     0.074 A 
ATOM     60  C   UNL A   1      44.325  26.522  31.605  1.00  0.00     0.031 C 
ATOM     61  C   UNL A   1      43.588  27.884  33.544  1.00  0.00     0.034 A 
BRANCH  48  62
ATOM     62  C   UNL A   1      39.328  32.027  35.351  1.00  0.00     0.023 A 
ATOM     63  C   UNL A   1      39.768  33.358  35.481  1.00  0.00     0.031 A 
ATOM     64  C   UNL A   1      38.389  31.552  36.283  1.00  0.00     0.131 A 
ATOM     65  C   UNL A   1      39.319  34.143  36.556  1.00  0.00     0.055 A 
ATOM     66  C   UNL A   1      37.892  32.361  37.308  1.00  0.00     0.041 A 
ATOM     67  F   UNL A   1      37.947  30.286  36.223  1.00  0.00    -0.206 F 
ATOM     68  C   UNL A   1      38.367  33.660  37.457  1.00  0.00     0.022 A 
BRANCH  65  69
ATOM     69  S   UNL A   1      40.093  35.760  36.837  1.00  0.00     0.124 S 
ATOM     70  O   UNL A   1      39.492  36.158  38.107  1.00  0.00    -0.237 OA
ATOM     71  O   UNL A   1      41.512  35.426  36.876  1.00  0.00    -0.237 OA
ATOM     72  O   UNL A   1      39.669  36.548  35.681  1.00  0.00    -0.744 OA
ENDBRANCH  65  69
ENDBRANCH  48  62
BRANCH  49  73
ATOM     73  C   UNL A   1      42.686  26.459  27.714  1.00  0.00     0.023 A 
ATOM     74  C   UNL A   1      42.476  25.074  27.638  1.00  0.00     0.031 A 
ATOM     75  C   UNL A   1      43.432  27.074  26.691  1.00  0.00     0.131 A 
ATOM     76  C   UNL A   1      43.039  24.340  26.583  1.00  0.00     0.055 A 
ATOM     77  C   UNL A   1      43.951  26.346  25.620  1.00  0.00     0.041 A 
ATOM     78  F   UNL A   1      43.652  28.397  26.713  1.00  0.00    -0.206 F 
ATOM     79  C   UNL A   1      43.765  24.969  25.567  1.00  0.00     0.022 A 
BRANCH  76  80
ATOM     80  S   UNL A   1      42.862  22.535  26.587  1.00  0.00     0.124 S 
ATOM     81  O   UNL A   1      42.878  22.237  28.015  1.00  0.00    -0.237 OA
ATOM     82  O   UNL A   1      41.583  22.356  25.907  1.00  0.00    -0.237 OA
ATOM     83  O   UNL A   1      44.032  22.077  25.841  1.00  0.00    -0.744 OA
ENDBRANCH  76  80
ENDBRANCH  49  73
BRANCH  61  84
ATOM     84  C   UNL A   1      44.686  27.228  34.345  1.00  0.00     0.023 A 
ATOM     85  C   UNL A   1      44.535  25.938  34.885  1.00  0.00     0.031 A 
ATOM     86  C   UNL A   1      45.882  27.918  34.607  1.00  0.00     0.131 A 
ATOM     87  C   UNL A   1      45.532  25.407  35.716  1.00  0.00     0.055 A 
ATOM     88  C   UNL A   1      46.897  27.359  35.385  1.00  0.00     0.041 A 
ATOM     89  F   UNL A   1      46.080  29.153  34.117  1.00  0.00    -0.206 F 
ATOM     90  C   UNL A   1      46.718  26.104  35.958  1.00  0.00     0.022 A 
BRANCH  87  91
ATOM     91  S   UNL A   1      45.208  23.839  36.570  1.00  0.00     0.124 S 
ATOM     92  O   UNL A   1      45.043  24.273  37.953  1.00  0.00    -0.237 OA
ATOM     93  O   UNL A   1      43.999  23.366  35.903  1.00  0.00    -0.237 OA
ATOM     94  O   UNL A   1      46.410  23.050  36.306  1.00  0.00    -0.744 OA
ENDBRANCH  87  91
ENDBRANCH  61  84
ENDBRANCH  35  36
ENDBRANCH  28  30
ENDBRANCH  27  28
ENDBRANCH  26  27
ENDBRANCH   1  26
TORSDOF 19
ENDMDL
