MODEL 1
REMARK VINA RESULT:     -11.6      0.000      0.000
REMARK SMILES CC(C)Cc1ccc(S(=O)(=O)Nc2cnc(N3CCCC3)c(C(=O)OCCOCCOC(=O)c3ccc(-c4c5nc(c(-c6cc(S(=O)(=O)[O-])ccc6F)c6ccc([nH]6)c(-c6cc(S(=O)(=O)[O-])ccc6F)c6nc(c(-c7cc(S(=O)(=O)[O-])ccc7F)c7ccc4[nH]7)C=C6)C=C5)cc3)c2)cc1
REMARK SMILES IDX 27 1 26 2 25 3 23 4 24 5 22 6 13 7 14 8 97 9 15 10 16 11
REMARK SMILES IDX 12 12 9 14 10 15 11 16 8 17 5 18 6 19 99 20 7 21 98 22 4 23
REMARK SMILES IDX 2 24 1 25 3 26 17 27 18 28 21 29 19 30 20 31 28 32 29 33
REMARK SMILES IDX 30 34 31 35 32 36 33 37 34 38 35 39 96 40 36 41 95 42 37 43
REMARK SMILES IDX 38 44 39 45 89 46 40 47 94 48 88 49 90 50 41 51 93 52 87 53
REMARK SMILES IDX 86 54 42 56 74 57 54 58 73 59 55 60 58 61 72 62 91 63 56 64
REMARK SMILES IDX 57 65 71 67 92 68 59 69 43 70 44 71 52 72 45 73 51 74 53 75
REMARK SMILES IDX 50 76 46 77 47 78 48 79 49 80 75 81 76 82 84 83 77 84 83 85
REMARK SMILES IDX 85 86 82 87 78 88 79 89 80 90 81 91 60 92 61 93 69 94 62 95
REMARK SMILES IDX 68 96 70 97 67 98 63 99 64 100 65 101 66 102
REMARK H PARENT 12 13 90 55 58 66
REMARK Flexibility Score: inf
ROOT
ATOM      1  C   UNL A   1      33.703  27.715  24.193  1.00  0.00     0.202 C 
ENDROOT
BRANCH   1   2
ATOM      2  C   UNL A   1      33.578  27.475  22.688  1.00  0.00     0.261 C 
BRANCH   2   3
ATOM      3  O   UNL A   1      33.110  26.163  22.335  1.00  0.00    -0.460 OA
BRANCH   3   4
ATOM      4  C   UNL A   1      31.811  26.107  21.943  1.00  0.00     0.342 C 
ATOM      5  O   UNL A   1      31.396  26.256  20.803  1.00  0.00    -0.246 OA
BRANCH   4   6
ATOM      6  C   UNL A   1      30.928  25.888  23.104  1.00  0.00     0.104 A 
ATOM      7  C   UNL A   1      30.560  24.617  25.117  1.00  0.00     0.068 A 
ATOM      8  C   UNL A   1      29.780  25.676  25.559  1.00  0.00     0.140 A 
ATOM      9  C   UNL A   1      31.130  24.723  23.859  1.00  0.00     0.048 A 
ATOM     10  N   UNL A   1      29.493  26.768  24.803  1.00  0.00    -0.236 NA
ATOM     11  C   UNL A   1      30.049  26.878  23.570  1.00  0.00     0.143 A 
BRANCH   7  12
ATOM     12  N   UNL A   1      30.860  23.470  25.919  1.00  0.00    -0.278 N 
ATOM     13  H   UNL A   1      30.170  22.786  26.077  1.00  0.00     0.180 HD
BRANCH  12  14
ATOM     14  S   UNL A   1      32.416  23.290  26.603  1.00  0.00     0.261 S 
ATOM     15  O   UNL A   1      32.183  23.017  27.997  1.00  0.00    -0.201 OA
ATOM     16  O   UNL A   1      33.176  24.465  26.201  1.00  0.00    -0.201 OA
BRANCH  14  17
ATOM     17  C   UNL A   1      33.196  21.872  25.873  1.00  0.00     0.087 A 
ATOM     18  C   UNL A   1      34.443  19.583  24.826  1.00  0.00    -0.048 A 
ATOM     19  C   UNL A   1      35.197  20.718  25.159  1.00  0.00     0.005 A 
ATOM     20  C   UNL A   1      33.046  19.654  24.919  1.00  0.00     0.005 A 
ATOM     21  C   UNL A   1      34.584  21.847  25.710  1.00  0.00     0.022 A 
ATOM     22  C   UNL A   1      32.424  20.810  25.395  1.00  0.00     0.022 A 
BRANCH  18  23
ATOM     23  C   UNL A   1      35.108  18.298  24.372  1.00  0.00     0.038 C 
BRANCH  23  24
ATOM     24  C   UNL A   1      34.140  17.117  24.128  1.00  0.00    -0.013 C 
ATOM     25  C   UNL A   1      34.382  16.455  22.774  1.00  0.00     0.008 C 
ATOM     26  C   UNL A   1      34.300  16.060  25.224  1.00  0.00     0.008 C 
ENDBRANCH  23  24
ENDBRANCH  18  23
ENDBRANCH  14  17
ENDBRANCH  12  14
ENDBRANCH   7  12
BRANCH  11  27
ATOM     27  N   UNL A   1      29.602  27.940  22.826  1.00  0.00    -0.356 N 
ATOM     28  C   UNL A   1      30.446  29.092  22.564  1.00  0.00     0.118 C 
ATOM     29  C   UNL A   1      28.188  28.282  22.758  1.00  0.00     0.118 C 
ATOM     30  C   UNL A   1      29.547  30.269  22.925  1.00  0.00     0.023 C 
ATOM     31  C   UNL A   1      28.184  29.786  22.446  1.00  0.00     0.023 C 
ENDBRANCH  11  27
ENDBRANCH   4   6
ENDBRANCH   3   4
ENDBRANCH   2   3
ENDBRANCH   1   2
BRANCH   1  32
ATOM     32  O   UNL A   1      33.881  29.044  24.669  1.00  0.00    -0.374 OA
BRANCH  32  33
ATOM     33  C   UNL A   1      32.719  29.797  24.977  1.00  0.00     0.202 C 
BRANCH  33  34
ATOM     34  C   UNL A   1      31.878  29.459  26.217  1.00  0.00     0.261 C 
BRANCH  34  35
ATOM     35  O   UNL A   1      32.370  29.987  27.452  1.00  0.00    -0.460 OA
BRANCH  35  36
ATOM     36  C   UNL A   1      33.096  31.123  27.304  1.00  0.00     0.338 C 
ATOM     37  O   UNL A   1      32.672  32.232  27.014  1.00  0.00    -0.246 OA
BRANCH  36  38
ATOM     38  C   UNL A   1      34.491  30.879  27.702  1.00  0.00     0.060 A 
ATOM     39  C   UNL A   1      34.903  29.550  27.866  1.00  0.00     0.016 A 
ATOM     40  C   UNL A   1      35.346  31.939  28.006  1.00  0.00     0.016 A 
ATOM     41  C   UNL A   1      36.165  29.275  28.381  1.00  0.00     0.010 A 
ATOM     42  C   UNL A   1      36.604  31.661  28.541  1.00  0.00     0.010 A 
ATOM     43  C   UNL A   1      36.999  30.330  28.767  1.00  0.00    -0.014 A 
BRANCH  43  44
ATOM     44  C   UNL A   1      38.189  30.043  29.600  1.00  0.00     0.031 A 
ATOM     45  C   UNL A   1      39.208  29.070  29.073  1.00  0.00     0.074 A 
ATOM     46  C   UNL A   1      38.368  30.658  30.781  1.00  0.00     0.049 A 
ATOM     47  N   UNL A   1      40.291  28.611  29.640  1.00  0.00    -0.248 NA
ATOM     48  C   UNL A   1      38.960  28.542  27.723  1.00  0.00     0.031 C 
ATOM     49  C   UNL A   1      37.472  31.662  31.353  1.00  0.00     0.029 A 
ATOM     50  N   UNL A   1      39.362  30.521  31.714  1.00  0.00    -0.354 N 
ATOM     51  C   UNL A   1      40.855  27.734  28.718  1.00  0.00     0.074 A 
ATOM     52  C   UNL A   1      39.969  27.699  27.573  1.00  0.00     0.031 C 
ATOM     53  C   UNL A   1      37.952  32.040  32.551  1.00  0.00     0.029 A 
ATOM     54  C   UNL A   1      39.164  31.276  32.845  1.00  0.00     0.049 A 
ATOM     55  H   UNL A   1      40.144  29.936  31.587  1.00  0.00     0.167 HD
ATOM     56  C   UNL A   1      42.008  27.028  28.818  1.00  0.00     0.034 A 
ATOM     57  C   UNL A   1      39.866  31.319  33.994  1.00  0.00     0.034 A 
ATOM     58  C   UNL A   1      42.861  27.064  29.981  1.00  0.00     0.049 A 
ATOM     59  C   UNL A   1      41.095  30.451  34.125  1.00  0.00     0.074 A 
ATOM     60  C   UNL A   1      44.048  26.390  30.203  1.00  0.00     0.029 A 
ATOM     61  N   UNL A   1      42.604  27.807  31.128  1.00  0.00    -0.354 N 
ATOM     62  N   UNL A   1      41.618  29.618  33.253  1.00  0.00    -0.248 NA
ATOM     63  C   UNL A   1      41.830  30.533  35.393  1.00  0.00     0.031 C 
ATOM     64  C   UNL A   1      44.472  26.670  31.507  1.00  0.00     0.029 A 
ATOM     65  C   UNL A   1      43.594  27.583  32.072  1.00  0.00     0.049 A 
ATOM     66  H   UNL A   1      41.832  28.404  31.252  1.00  0.00     0.167 HD
ATOM     67  C   UNL A   1      42.764  29.105  33.855  1.00  0.00     0.074 A 
ATOM     68  C   UNL A   1      42.856  29.727  35.162  1.00  0.00     0.031 C 
ATOM     69  C   UNL A   1      43.663  28.209  33.373  1.00  0.00     0.034 A 
BRANCH  56  70
ATOM     70  C   UNL A   1      42.363  26.118  27.665  1.00  0.00     0.023 A 
ATOM     71  C   UNL A   1      41.839  24.816  27.559  1.00  0.00     0.031 A 
ATOM     72  C   UNL A   1      43.283  26.537  26.689  1.00  0.00     0.131 A 
ATOM     73  C   UNL A   1      42.303  23.955  26.553  1.00  0.00     0.055 A 
ATOM     74  C   UNL A   1      43.676  25.703  25.640  1.00  0.00     0.041 A 
ATOM     75  F   UNL A   1      43.837  27.758  26.751  1.00  0.00    -0.206 F 
ATOM     76  C   UNL A   1      43.200  24.397  25.578  1.00  0.00     0.022 A 
BRANCH  73  77
ATOM     77  S   UNL A   1      41.843  22.201  26.632  1.00  0.00     0.124 S 
ATOM     78  O   UNL A   1      40.388  22.281  26.727  1.00  0.00    -0.237 OA
ATOM     79  O   UNL A   1      42.375  21.679  25.379  1.00  0.00    -0.237 OA
ATOM     80  O   UNL A   1      42.513  21.726  27.841  1.00  0.00    -0.744 OA
ENDBRANCH  73  77
ENDBRANCH  56  70
BRANCH  57  81
ATOM     81  C   UNL A   1      39.411  32.177  35.123  1.00  0.00     0.023 A 
ATOM     82  C   UNL A   1      39.950  33.457  35.327  1.00  0.00     0.031 A 
ATOM     83  C   UNL A   1      38.450  31.713  36.040  1.00  0.00     0.131 A 
ATOM     84  C   UNL A   1      39.554  34.213  36.443  1.00  0.00     0.055 A 
ATOM     85  C   UNL A   1      38.024  32.488  37.121  1.00  0.00     0.041 A 
ATOM     86  F   UNL A   1      37.901  30.497  35.891  1.00  0.00    -0.206 F 
ATOM     87  C   UNL A   1      38.587  33.742  37.333  1.00  0.00     0.022 A 
BRANCH  84  88
ATOM     88  S   UNL A   1      40.378  35.798  36.754  1.00  0.00     0.124 S 
ATOM     89  O   UNL A   1      40.157  35.973  38.185  1.00  0.00    -0.237 OA
ATOM     90  O   UNL A   1      41.749  35.511  36.347  1.00  0.00    -0.237 OA
ATOM     91  O   UNL A   1      39.657  36.731  35.891  1.00  0.00    -0.744 OA
ENDBRANCH  84  88
ENDBRANCH  57  81
BRANCH  69  92
ATOM     92  C   UNL A   1      44.856  27.897  34.244  1.00  0.00     0.023 A 
ATOM     93  C   UNL A   1      44.836  26.855  35.187  1.00  0.00     0.031 A 
ATOM     94  C   UNL A   1      46.033  28.657  34.121  1.00  0.00     0.131 A 
ATOM     95  C   UNL A   1      45.953  26.636  36.007  1.00  0.00     0.055 A 
ATOM     96  C   UNL A   1      47.162  28.396  34.898  1.00  0.00     0.041 A 
ATOM     97  F   UNL A   1      46.106  29.665  33.237  1.00  0.00    -0.206 F 
ATOM     98  C   UNL A   1      47.122  27.387  35.856  1.00  0.00     0.022 A 
BRANCH  95  99
ATOM     99  S   UNL A   1      45.832  25.407  37.336  1.00  0.00     0.124 S 
ATOM    100  O   UNL A   1      44.823  26.002  38.207  1.00  0.00    -0.237 OA
ATOM    101  O   UNL A   1      45.424  24.206  36.616  1.00  0.00    -0.237 OA
ATOM    102  O   UNL A   1      47.184  25.367  37.891  1.00  0.00    -0.744 OA
ENDBRANCH  95  99
ENDBRANCH  69  92
ENDBRANCH  43  44
ENDBRANCH  36  38
ENDBRANCH  35  36
ENDBRANCH  34  35
ENDBRANCH  33  34
ENDBRANCH  32  33
ENDBRANCH   1  32
TORSDOF 23
ENDMDL
MODEL 2
REMARK VINA RESULT:     -11.4      5.068     10.704
REMARK SMILES CC(C)Cc1ccc(S(=O)(=O)Nc2cnc(N3CCCC3)c(C(=O)OCCOCCOC(=O)c3ccc(-c4c5nc(c(-c6cc(S(=O)(=O)[O-])ccc6F)c6ccc([nH]6)c(-c6cc(S(=O)(=O)[O-])ccc6F)c6nc(c(-c7cc(S(=O)(=O)[O-])ccc7F)c7ccc4[nH]7)C=C6)C=C5)cc3)c2)cc1
REMARK SMILES IDX 27 1 26 2 25 3 23 4 24 5 22 6 13 7 14 8 97 9 15 10 16 11
REMARK SMILES IDX 12 12 9 14 10 15 11 16 8 17 5 18 6 19 99 20 7 21 98 22 4 23
REMARK SMILES IDX 2 24 1 25 3 26 17 27 18 28 21 29 19 30 20 31 28 32 29 33
REMARK SMILES IDX 30 34 31 35 32 36 33 37 34 38 35 39 96 40 36 41 95 42 37 43
REMARK SMILES IDX 38 44 39 45 89 46 40 47 94 48 88 49 90 50 41 51 93 52 87 53
REMARK SMILES IDX 86 54 42 56 74 57 54 58 73 59 55 60 58 61 72 62 91 63 56 64
REMARK SMILES IDX 57 65 71 67 92 68 59 69 43 70 44 71 52 72 45 73 51 74 53 75
REMARK SMILES IDX 50 76 46 77 47 78 48 79 49 80 75 81 76 82 84 83 77 84 83 85
REMARK SMILES IDX 85 86 82 87 78 88 79 89 80 90 81 91 60 92 61 93 69 94 62 95
REMARK SMILES IDX 68 96 70 97 67 98 63 99 64 100 65 101 66 102
REMARK H PARENT 12 13 90 55 58 66
REMARK Flexibility Score: inf
ROOT
ATOM      1  C   UNL A   1      37.917  21.511  25.112  1.00  0.00     0.202 C 
ENDROOT
BRANCH   1   2
ATOM      2  C   UNL A   1      36.556  21.909  25.683  1.00  0.00     0.261 C 
BRANCH   2   3
ATOM      3  O   UNL A   1      35.564  20.871  25.626  1.00  0.00    -0.460 OA
BRANCH   3   4
ATOM      4  C   UNL A   1      34.333  21.232  26.075  1.00  0.00     0.342 C 
ATOM      5  O   UNL A   1      34.046  21.534  27.223  1.00  0.00    -0.246 OA
BRANCH   4   6
ATOM      6  C   UNL A   1      33.343  21.165  24.983  1.00  0.00     0.104 A 
ATOM      7  C   UNL A   1      32.136  22.404  23.308  1.00  0.00     0.068 A 
ATOM      8  C   UNL A   1      31.988  21.204  22.627  1.00  0.00     0.140 A 
ATOM      9  C   UNL A   1      32.813  22.376  24.516  1.00  0.00     0.048 A 
ATOM     10  N   UNL A   1      32.408  20.006  23.111  1.00  0.00    -0.236 NA
ATOM     11  C   UNL A   1      33.074  19.972  24.294  1.00  0.00     0.143 A 
BRANCH   7  12
ATOM     12  N   UNL A   1      31.692  23.663  22.791  1.00  0.00    -0.278 N 
ATOM     13  H   UNL A   1      30.732  23.881  22.781  1.00  0.00     0.180 HD
BRANCH  12  14
ATOM     14  S   UNL A   1      32.830  24.788  22.190  1.00  0.00     0.261 S 
ATOM     15  O   UNL A   1      32.147  25.480  21.128  1.00  0.00    -0.201 OA
ATOM     16  O   UNL A   1      34.043  24.032  21.913  1.00  0.00    -0.201 OA
BRANCH  14  17
ATOM     17  C   UNL A   1      33.207  25.955  23.474  1.00  0.00     0.087 A 
ATOM     18  C   UNL A   1      33.689  27.804  25.532  1.00  0.00    -0.048 A 
ATOM     19  C   UNL A   1      33.434  28.241  24.225  1.00  0.00     0.005 A 
ATOM     20  C   UNL A   1      33.812  26.427  25.768  1.00  0.00     0.005 A 
ATOM     21  C   UNL A   1      33.162  27.325  23.204  1.00  0.00     0.022 A 
ATOM     22  C   UNL A   1      33.618  25.510  24.733  1.00  0.00     0.022 A 
BRANCH  18  23
ATOM     23  C   UNL A   1      33.834  28.784  26.680  1.00  0.00     0.038 C 
BRANCH  23  24
ATOM     24  C   UNL A   1      32.499  29.317  27.250  1.00  0.00    -0.013 C 
ATOM     25  C   UNL A   1      31.778  30.225  26.257  1.00  0.00     0.008 C 
ATOM     26  C   UNL A   1      31.570  28.155  27.612  1.00  0.00     0.008 C 
ENDBRANCH  23  24
ENDBRANCH  18  23
ENDBRANCH  14  17
ENDBRANCH  12  14
ENDBRANCH   7  12
BRANCH  11  27
ATOM     27  N   UNL A   1      33.342  18.715  24.771  1.00  0.00    -0.356 N 
ATOM     28  C   UNL A   1      34.426  17.913  24.231  1.00  0.00     0.118 C 
ATOM     29  C   UNL A   1      32.302  17.885  25.362  1.00  0.00     0.118 C 
ATOM     30  C   UNL A   1      33.760  16.569  23.962  1.00  0.00     0.023 C 
ATOM     31  C   UNL A   1      32.797  16.449  25.137  1.00  0.00     0.023 C 
ENDBRANCH  11  27
ENDBRANCH   4   6
ENDBRANCH   3   4
ENDBRANCH   2   3
ENDBRANCH   1   2
BRANCH   1  32
ATOM     32  O   UNL A   1      39.091  21.786  25.866  1.00  0.00    -0.374 OA
BRANCH  32  33
ATOM     33  C   UNL A   1      39.666  20.721  26.606  1.00  0.00     0.202 C 
BRANCH  33  34
ATOM     34  C   UNL A   1      40.330  19.540  25.882  1.00  0.00     0.261 C 
BRANCH  34  35
ATOM     35  O   UNL A   1      41.610  19.153  26.388  1.00  0.00    -0.460 OA
BRANCH  35  36
ATOM     36  C   UNL A   1      42.645  19.788  25.783  1.00  0.00     0.338 C 
ATOM     37  O   UNL A   1      43.364  19.344  24.900  1.00  0.00    -0.246 OA
BRANCH  36  38
ATOM     38  C   UNL A   1      42.700  21.188  26.230  1.00  0.00     0.060 A 
ATOM     39  C   UNL A   1      42.667  22.190  25.250  1.00  0.00     0.016 A 
ATOM     40  C   UNL A   1      42.881  21.507  27.576  1.00  0.00     0.016 A 
ATOM     41  C   UNL A   1      42.863  23.519  25.611  1.00  0.00     0.010 A 
ATOM     42  C   UNL A   1      43.097  22.837  27.934  1.00  0.00     0.010 A 
ATOM     43  C   UNL A   1      43.129  23.840  26.948  1.00  0.00    -0.014 A 
BRANCH  43  44
ATOM     44  C   UNL A   1      43.648  25.186  27.278  1.00  0.00     0.031 A 
ATOM     45  C   UNL A   1      42.716  26.167  27.934  1.00  0.00     0.074 A 
ATOM     46  C   UNL A   1      44.927  25.513  27.025  1.00  0.00     0.049 A 
ATOM     47  N   UNL A   1      42.915  27.416  28.259  1.00  0.00    -0.248 NA
ATOM     48  C   UNL A   1      41.372  25.663  28.261  1.00  0.00     0.031 C 
ATOM     49  C   UNL A   1      45.927  24.616  26.448  1.00  0.00     0.029 A 
ATOM     50  N   UNL A   1      45.598  26.692  27.215  1.00  0.00    -0.354 N 
ATOM     51  C   UNL A   1      41.721  27.852  28.825  1.00  0.00     0.074 A 
ATOM     52  C   UNL A   1      40.793  26.743  28.761  1.00  0.00     0.031 C 
ATOM     53  C   UNL A   1      47.086  25.286  26.317  1.00  0.00     0.029 A 
ATOM     54  C   UNL A   1      46.895  26.666  26.762  1.00  0.00     0.049 A 
ATOM     55  H   UNL A   1      45.189  27.484  27.635  1.00  0.00     0.167 HD
ATOM     56  C   UNL A   1      41.429  29.067  29.352  1.00  0.00     0.034 A 
ATOM     57  C   UNL A   1      47.809  27.654  26.690  1.00  0.00     0.034 A 
ATOM     58  C   UNL A   1      42.366  30.163  29.383  1.00  0.00     0.049 A 
ATOM     59  C   UNL A   1      47.434  29.027  27.194  1.00  0.00     0.074 A 
ATOM     60  C   UNL A   1      42.187  31.440  29.884  1.00  0.00     0.029 A 
ATOM     61  N   UNL A   1      43.659  30.114  28.873  1.00  0.00    -0.354 N 
ATOM     62  N   UNL A   1      46.301  29.435  27.720  1.00  0.00    -0.248 NA
ATOM     63  C   UNL A   1      48.462  30.069  27.099  1.00  0.00     0.031 C 
ATOM     64  C   UNL A   1      43.343  32.181  29.615  1.00  0.00     0.029 A 
ATOM     65  C   UNL A   1      44.277  31.346  29.020  1.00  0.00     0.049 A 
ATOM     66  H   UNL A   1      44.075  29.320  28.467  1.00  0.00     0.167 HD
ATOM     67  C   UNL A   1      46.494  30.774  28.050  1.00  0.00     0.074 A 
ATOM     68  C   UNL A   1      47.854  31.100  27.669  1.00  0.00     0.031 C 
ATOM     69  C   UNL A   1      45.633  31.652  28.625  1.00  0.00     0.034 A 
BRANCH  56  70
ATOM     70  C   UNL A   1      40.026  29.275  29.872  1.00  0.00     0.023 A 
ATOM     71  C   UNL A   1      39.057  29.979  29.133  1.00  0.00     0.031 A 
ATOM     72  C   UNL A   1      39.668  28.815  31.151  1.00  0.00     0.131 A 
ATOM     73  C   UNL A   1      37.812  30.273  29.710  1.00  0.00     0.055 A 
ATOM     74  C   UNL A   1      38.398  29.037  31.687  1.00  0.00     0.041 A 
ATOM     75  F   UNL A   1      40.557  28.160  31.915  1.00  0.00    -0.206 F 
ATOM     76  C   UNL A   1      37.467  29.786  30.973  1.00  0.00     0.022 A 
BRANCH  73  77
ATOM     77  S   UNL A   1      36.714  31.437  28.857  1.00  0.00     0.124 S 
ATOM     78  O   UNL A   1      35.623  31.574  29.819  1.00  0.00    -0.237 OA
ATOM     79  O   UNL A   1      37.567  32.608  28.687  1.00  0.00    -0.237 OA
ATOM     80  O   UNL A   1      36.362  30.736  27.623  1.00  0.00    -0.744 OA
ENDBRANCH  73  77
ENDBRANCH  56  70
BRANCH  57  81
ATOM     81  C   UNL A   1      49.147  27.398  26.087  1.00  0.00     0.023 A 
ATOM     82  C   UNL A   1      49.460  27.845  24.794  1.00  0.00     0.031 A 
ATOM     83  C   UNL A   1      50.125  26.666  26.786  1.00  0.00     0.131 A 
ATOM     84  C   UNL A   1      50.704  27.524  24.225  1.00  0.00     0.055 A 
ATOM     85  C   UNL A   1      51.377  26.390  26.234  1.00  0.00     0.041 A 
ATOM     86  F   UNL A   1      49.879  26.215  28.027  1.00  0.00    -0.206 F 
ATOM     87  C   UNL A   1      51.667  26.811  24.941  1.00  0.00     0.022 A 
BRANCH  84  88
ATOM     88  S   UNL A   1      51.016  27.994  22.501  1.00  0.00     0.124 S 
ATOM     89  O   UNL A   1      51.963  29.092  22.659  1.00  0.00    -0.237 OA
ATOM     90  O   UNL A   1      51.554  26.758  21.945  1.00  0.00    -0.237 OA
ATOM     91  O   UNL A   1      49.695  28.374  22.007  1.00  0.00    -0.744 OA
ENDBRANCH  84  88
ENDBRANCH  57  81
BRANCH  69  92
ATOM     92  C   UNL A   1      46.161  33.034  28.927  1.00  0.00     0.023 A 
ATOM     93  C   UNL A   1      45.990  34.107  28.035  1.00  0.00     0.031 A 
ATOM     94  C   UNL A   1      46.844  33.276  30.132  1.00  0.00     0.131 A 
ATOM     95  C   UNL A   1      46.543  35.360  28.339  1.00  0.00     0.055 A 
ATOM     96  C   UNL A   1      47.339  34.540  30.457  1.00  0.00     0.041 A 
ATOM     97  F   UNL A   1      47.036  32.287  31.020  1.00  0.00    -0.206 F 
ATOM     98  C   UNL A   1      47.200  35.588  29.552  1.00  0.00     0.022 A 
BRANCH  95  99
ATOM     99  S   UNL A   1      46.466  36.674  27.090  1.00  0.00     0.124 S 
ATOM    100  O   UNL A   1      47.430  37.640  27.608  1.00  0.00    -0.237 OA
ATOM    101  O   UNL A   1      46.859  35.972  25.873  1.00  0.00    -0.237 OA
ATOM    102  O   UNL A   1      45.071  37.106  27.132  1.00  0.00    -0.744 OA
ENDBRANCH  95  99
ENDBRANCH  69  92
ENDBRANCH  43  44
ENDBRANCH  36  38
ENDBRANCH  35  36
ENDBRANCH  34  35
ENDBRANCH  33  34
ENDBRANCH  32  33
ENDBRANCH   1  32
TORSDOF 23
ENDMDL
MODEL 3
REMARK VINA RESULT:     -11.3      4.818      8.944
REMARK SMILES CC(C)Cc1ccc(S(=O)(=O)Nc2cnc(N3CCCC3)c(C(=O)OCCOCCOC(=O)c3ccc(-c4c5nc(c(-c6cc(S(=O)(=O)[O-])ccc6F)c6ccc([nH]6)c(-c6cc(S(=O)(=O)[O-])ccc6F)c6nc(c(-c7cc(S(=O)(=O)[O-])ccc7F)c7ccc4[nH]7)C=C6)C=C5)cc3)c2)cc1
REMARK SMILES IDX 27 1 26 2 25 3 23 4 24 5 22 6 13 7 14 8 97 9 15 10 16 11
REMARK SMILES IDX 12 12 9 14 10 15 11 16 8 17 5 18 6 19 99 20 7 21 98 22 4 23
REMARK SMILES IDX 2 24 1 25 3 26 17 27 18 28 21 29 19 30 20 31 28 32 29 33
REMARK SMILES IDX 30 34 31 35 32 36 33 37 34 38 35 39 96 40 36 41 95 42 37 43
REMARK SMILES IDX 38 44 39 45 89 46 40 47 94 48 88 49 90 50 41 51 93 52 87 53
REMARK SMILES IDX 86 54 42 56 74 57 54 58 73 59 55 60 58 61 72 62 91 63 56 64
REMARK SMILES IDX 57 65 71 67 92 68 59 69 43 70 44 71 52 72 45 73 51 74 53 75
REMARK SMILES IDX 50 76 46 77 47 78 48 79 49 80 75 81 76 82 84 83 77 84 83 85
REMARK SMILES IDX 85 86 82 87 78 88 79 89 80 90 81 91 60 92 61 93 69 94 62 95
REMARK SMILES IDX 68 96 70 97 67 98 63 99 64 100 65 101 66 102
REMARK H PARENT 12 13 90 55 58 66
REMARK Flexibility Score: inf
ROOT
ATOM      1  C   UNL A   1      37.790  21.108  24.626  1.00  0.00     0.202 C 
ENDROOT
BRANCH   1   2
ATOM      2  C   UNL A   1      36.343  21.541  24.865  1.00  0.00     0.261 C 
BRANCH   2   3
ATOM      3  O   UNL A   1      35.580  20.633  25.677  1.00  0.00    -0.460 OA
BRANCH   3   4
ATOM      4  C   UNL A   1      34.344  21.077  26.022  1.00  0.00     0.342 C 
ATOM      5  O   UNL A   1      34.016  21.514  27.115  1.00  0.00    -0.246 OA
BRANCH   4   6
ATOM      6  C   UNL A   1      33.402  20.915  24.898  1.00  0.00     0.104 A 
ATOM      7  C   UNL A   1      32.211  22.020  23.120  1.00  0.00     0.068 A 
ATOM      8  C   UNL A   1      32.142  20.785  22.493  1.00  0.00     0.140 A 
ATOM      9  C   UNL A   1      32.840  22.079  24.353  1.00  0.00     0.048 A 
ATOM     10  N   UNL A   1      32.593  19.630  23.049  1.00  0.00    -0.236 NA
ATOM     11  C   UNL A   1      33.212  19.681  24.257  1.00  0.00     0.143 A 
BRANCH   7  12
ATOM     12  N   UNL A   1      31.736  23.233  22.527  1.00  0.00    -0.278 N 
ATOM     13  H   UNL A   1      30.799  23.303  22.232  1.00  0.00     0.180 HD
BRANCH  12  14
ATOM     14  S   UNL A   1      32.796  24.560  22.330  1.00  0.00     0.261 S 
ATOM     15  O   UNL A   1      32.357  25.212  21.124  1.00  0.00    -0.201 OA
ATOM     16  O   UNL A   1      34.145  24.021  22.424  1.00  0.00    -0.201 OA
BRANCH  14  17
ATOM     17  C   UNL A   1      32.567  25.677  23.691  1.00  0.00     0.087 A 
ATOM     18  C   UNL A   1      32.139  27.361  25.898  1.00  0.00    -0.048 A 
ATOM     19  C   UNL A   1      31.285  27.408  24.786  1.00  0.00     0.005 A 
ATOM     20  C   UNL A   1      33.273  26.539  25.838  1.00  0.00     0.005 A 
ATOM     21  C   UNL A   1      31.477  26.549  23.700  1.00  0.00     0.022 A 
ATOM     22  C   UNL A   1      33.511  25.737  24.720  1.00  0.00     0.022 A 
BRANCH  18  23
ATOM     23  C   UNL A   1      31.857  28.174  27.145  1.00  0.00     0.038 C 
BRANCH  23  24
ATOM     24  C   UNL A   1      32.645  29.501  27.247  1.00  0.00    -0.013 C 
ATOM     25  C   UNL A   1      33.921  29.470  26.410  1.00  0.00     0.008 C 
ATOM     26  C   UNL A   1      31.780  30.674  26.776  1.00  0.00     0.008 C 
ENDBRANCH  23  24
ENDBRANCH  18  23
ENDBRANCH  14  17
ENDBRANCH  12  14
ENDBRANCH   7  12
BRANCH  11  27
ATOM     27  N   UNL A   1      33.514  18.461  24.804  1.00  0.00    -0.356 N 
ATOM     28  C   UNL A   1      34.531  17.600  24.227  1.00  0.00     0.118 C 
ATOM     29  C   UNL A   1      32.529  17.697  25.558  1.00  0.00     0.118 C 
ATOM     30  C   UNL A   1      33.829  16.251  24.131  1.00  0.00     0.023 C 
ATOM     31  C   UNL A   1      32.986  16.239  25.400  1.00  0.00     0.023 C 
ENDBRANCH  11  27
ENDBRANCH   4   6
ENDBRANCH   3   4
ENDBRANCH   2   3
ENDBRANCH   1   2
BRANCH   1  32
ATOM     32  O   UNL A   1      38.785  21.461  25.578  1.00  0.00    -0.374 OA
BRANCH  32  33
ATOM     33  C   UNL A   1      39.346  20.422  26.364  1.00  0.00     0.202 C 
BRANCH  33  34
ATOM     34  C   UNL A   1      40.358  19.443  25.753  1.00  0.00     0.261 C 
BRANCH  34  35
ATOM     35  O   UNL A   1      41.558  19.252  26.508  1.00  0.00    -0.460 OA
BRANCH  35  36
ATOM     36  C   UNL A   1      42.607  19.979  26.050  1.00  0.00     0.338 C 
ATOM     37  O   UNL A   1      43.497  19.596  25.306  1.00  0.00    -0.246 OA
BRANCH  36  38
ATOM     38  C   UNL A   1      42.450  21.386  26.451  1.00  0.00     0.060 A 
ATOM     39  C   UNL A   1      42.287  22.342  25.438  1.00  0.00     0.016 A 
ATOM     40  C   UNL A   1      42.563  21.770  27.788  1.00  0.00     0.016 A 
ATOM     41  C   UNL A   1      42.281  23.695  25.757  1.00  0.00     0.010 A 
ATOM     42  C   UNL A   1      42.578  23.128  28.104  1.00  0.00     0.010 A 
ATOM     43  C   UNL A   1      42.477  24.093  27.085  1.00  0.00    -0.014 A 
BRANCH  43  44
ATOM     44  C   UNL A   1      42.790  25.510  27.376  1.00  0.00     0.031 A 
ATOM     45  C   UNL A   1      44.136  26.040  26.966  1.00  0.00     0.074 A 
ATOM     46  C   UNL A   1      41.884  26.309  27.965  1.00  0.00     0.049 A 
ATOM     47  N   UNL A   1      44.665  27.218  27.167  1.00  0.00    -0.248 NA
ATOM     48  C   UNL A   1      45.004  25.105  26.232  1.00  0.00     0.031 C 
ATOM     49  C   UNL A   1      40.531  25.910  28.347  1.00  0.00     0.029 A 
ATOM     50  N   UNL A   1      41.973  27.621  28.351  1.00  0.00    -0.354 N 
ATOM     51  C   UNL A   1      45.930  27.166  26.590  1.00  0.00     0.074 A 
ATOM     52  C   UNL A   1      46.100  25.826  26.067  1.00  0.00     0.031 C 
ATOM     53  C   UNL A   1      39.918  26.956  28.929  1.00  0.00     0.029 A 
ATOM     54  C   UNL A   1      40.849  28.081  28.996  1.00  0.00     0.049 A 
ATOM     55  H   UNL A   1      42.765  28.180  28.184  1.00  0.00     0.167 HD
ATOM     56  C   UNL A   1      46.860  28.148  26.502  1.00  0.00     0.034 A 
ATOM     57  C   UNL A   1      40.617  29.266  29.595  1.00  0.00     0.034 A 
ATOM     58  C   UNL A   1      46.673  29.468  27.052  1.00  0.00     0.049 A 
ATOM     59  C   UNL A   1      41.703  30.315  29.572  1.00  0.00     0.074 A 
ATOM     60  C   UNL A   1      47.542  30.545  27.032  1.00  0.00     0.029 A 
ATOM     61  N   UNL A   1      45.538  29.886  27.739  1.00  0.00    -0.354 N 
ATOM     62  N   UNL A   1      42.899  30.257  29.031  1.00  0.00    -0.248 NA
ATOM     63  C   UNL A   1      41.403  31.591  30.233  1.00  0.00     0.031 C 
ATOM     64  C   UNL A   1      46.962  31.587  27.765  1.00  0.00     0.029 A 
ATOM     65  C   UNL A   1      45.698  31.193  28.174  1.00  0.00     0.049 A 
ATOM     66  H   UNL A   1      44.738  29.334  27.894  1.00  0.00     0.167 HD
ATOM     67  C   UNL A   1      43.481  31.502  29.259  1.00  0.00     0.074 A 
ATOM     68  C   UNL A   1      42.501  32.289  29.980  1.00  0.00     0.031 C 
ATOM     69  C   UNL A   1      44.709  31.957  28.899  1.00  0.00     0.034 A 
BRANCH  56  70
ATOM     70  C   UNL A   1      48.174  27.798  25.843  1.00  0.00     0.023 A 
ATOM     71  C   UNL A   1      48.366  27.930  24.455  1.00  0.00     0.031 A 
ATOM     72  C   UNL A   1      49.230  27.269  26.604  1.00  0.00     0.131 A 
ATOM     73  C   UNL A   1      49.549  27.461  23.864  1.00  0.00     0.055 A 
ATOM     74  C   UNL A   1      50.439  26.883  26.021  1.00  0.00     0.041 A 
ATOM     75  F   UNL A   1      49.098  27.095  27.928  1.00  0.00    -0.206 F 
ATOM     76  C   UNL A   1      50.597  26.961  24.640  1.00  0.00     0.022 A 
BRANCH  73  77
ATOM     77  S   UNL A   1      49.635  27.363  22.054  1.00  0.00     0.124 S 
ATOM     78  O   UNL A   1      51.033  26.995  21.844  1.00  0.00    -0.237 OA
ATOM     79  O   UNL A   1      48.650  26.332  21.748  1.00  0.00    -0.237 OA
ATOM     80  O   UNL A   1      49.282  28.713  21.620  1.00  0.00    -0.744 OA
ENDBRANCH  73  77
ENDBRANCH  56  70
BRANCH  57  81
ATOM     81  C   UNL A   1      39.328  29.513  30.299  1.00  0.00     0.023 A 
ATOM     82  C   UNL A   1      38.359  30.375  29.762  1.00  0.00     0.031 A 
ATOM     83  C   UNL A   1      39.060  28.915  31.544  1.00  0.00     0.131 A 
ATOM     84  C   UNL A   1      37.186  30.645  30.485  1.00  0.00     0.055 A 
ATOM     85  C   UNL A   1      37.871  29.149  32.236  1.00  0.00     0.041 A 
ATOM     86  F   UNL A   1      39.951  28.080  32.102  1.00  0.00    -0.206 F 
ATOM     87  C   UNL A   1      36.930  30.028  31.711  1.00  0.00     0.022 A 
BRANCH  84  88
ATOM     88  S   UNL A   1      36.025  31.875  29.828  1.00  0.00     0.124 S 
ATOM     89  O   UNL A   1      35.158  32.109  30.977  1.00  0.00    -0.237 OA
ATOM     90  O   UNL A   1      36.919  32.969  29.465  1.00  0.00    -0.237 OA
ATOM     91  O   UNL A   1      35.400  31.185  28.703  1.00  0.00    -0.744 OA
ENDBRANCH  84  88
ENDBRANCH  57  81
BRANCH  69  92
ATOM     92  C   UNL A   1      45.032  33.394  29.230  1.00  0.00     0.023 A 
ATOM     93  C   UNL A   1      44.682  34.452  28.373  1.00  0.00     0.031 A 
ATOM     94  C   UNL A   1      45.700  33.705  30.428  1.00  0.00     0.131 A 
ATOM     95  C   UNL A   1      45.048  35.766  28.703  1.00  0.00     0.055 A 
ATOM     96  C   UNL A   1      46.008  35.020  30.779  1.00  0.00     0.041 A 
ATOM     97  F   UNL A   1      46.058  32.733  31.282  1.00  0.00    -0.206 F 
ATOM     98  C   UNL A   1      45.692  36.058  29.908  1.00  0.00     0.022 A 
BRANCH  95  99
ATOM     99  S   UNL A   1      44.746  37.085  27.494  1.00  0.00     0.124 S 
ATOM    100  O   UNL A   1      45.950  37.022  26.671  1.00  0.00    -0.237 OA
ATOM    101  O   UNL A   1      43.512  36.645  26.853  1.00  0.00    -0.237 OA
ATOM    102  O   UNL A   1      44.622  38.285  28.319  1.00  0.00    -0.744 OA
ENDBRANCH  95  99
ENDBRANCH  69  92
ENDBRANCH  43  44
ENDBRANCH  36  38
ENDBRANCH  35  36
ENDBRANCH  34  35
ENDBRANCH  33  34
ENDBRANCH  32  33
ENDBRANCH   1  32
TORSDOF 23
ENDMDL
