MODEL 1
REMARK VINA RESULT:     -10.4      0.000      0.000
REMARK SMILES CC[N@@H+](C[C@@H](C)C(=O)OCCOCCOC(=O)c1ccc(-c2c3nc(c(-c4cc(S(=O)(=O)[O-])ccc4F)c4ccc([nH]4)c(-c4cc(S(=O)(=O)[O-])ccc4F)c4nc(c(-c5cc(S(=O)(=O)[O-])ccc5F)c5ccc2[nH]5)C=C4)C=C3)cc1)[C@@H]1CCC[C@H](S(C)(=O)=O)C1
REMARK SMILES IDX 11 1 10 2 9 3 7 4 8 5 5 6 6 7 4 8 3 9 2 11 1 12 81 13 82 14
REMARK SMILES IDX 90 15 83 16 85 17 84 18 86 19 87 20 88 21 89 22 12 23 13 24
REMARK SMILES IDX 14 25 15 26 16 27 17 28 18 29 19 30 80 31 20 32 79 33 21 34
REMARK SMILES IDX 22 35 23 36 73 37 24 38 78 39 72 40 74 41 25 42 77 43 71 44
REMARK SMILES IDX 70 45 26 47 58 48 38 49 57 50 39 51 42 52 56 53 75 54 40 55
REMARK SMILES IDX 41 56 55 58 76 59 43 60 27 61 28 62 36 63 29 64 35 65 37 66
REMARK SMILES IDX 34 67 30 68 31 69 32 70 33 71 59 72 60 73 68 74 61 75 67 76
REMARK SMILES IDX 69 77 66 78 62 79 63 80 64 81 65 82 44 83 45 84 53 85 46 86
REMARK SMILES IDX 52 87 54 88 51 89 47 90 48 91 49 92 50 93
REMARK H PARENT 3 10 74 46 42 57
REMARK Flexibility Score: inf
ROOT
ATOM      1  C   UNL A   1      42.235  21.729  27.349  1.00  0.00     0.202 C 
ENDROOT
BRANCH   1   2
ATOM      2  C   UNL A   1      40.819  22.127  27.772  1.00  0.00     0.261 C 
BRANCH   2   3
ATOM      3  O   UNL A   1      40.052  22.699  26.699  1.00  0.00    -0.463 OA
BRANCH   3   4
ATOM      4  C   UNL A   1      39.122  21.870  26.162  1.00  0.00     0.314 C 
ATOM      5  O   UNL A   1      39.275  20.668  25.971  1.00  0.00    -0.252 OA
BRANCH   4   6
ATOM      6  C   UNL A   1      37.857  22.587  25.735  1.00  0.00     0.151 C 
ATOM      7  C   UNL A   1      37.780  23.861  26.574  1.00  0.00     0.026 C 
BRANCH   6   8
ATOM      8  C   UNL A   1      36.583  21.699  25.753  1.00  0.00     0.277 C 
BRANCH   8   9
ATOM      9  N   UNL A   1      35.841  21.527  24.469  1.00  0.00    -0.332 N 
ATOM     10  H   UNL A   1      36.397  21.031  23.772  1.00  0.00     0.348 HD
BRANCH   9  11
ATOM     11  C   UNL A   1      35.646  22.820  23.796  1.00  0.00     0.259 C 
ATOM     12  C   UNL A   1      36.466  23.081  22.534  1.00  0.00     0.071 C 
ENDBRANCH   9  11
BRANCH   9  13
ATOM     13  C   UNL A   1      34.719  20.590  24.617  1.00  0.00     0.185 C 
ATOM     14  C   UNL A   1      33.903  20.898  25.884  1.00  0.00     0.065 C 
ATOM     15  C   UNL A   1      35.034  19.094  24.578  1.00  0.00     0.084 C 
ATOM     16  C   UNL A   1      32.595  20.098  25.862  1.00  0.00     0.007 C 
ATOM     17  C   UNL A   1      33.746  18.271  24.501  1.00  0.00     0.114 C 
ATOM     18  C   UNL A   1      32.820  18.594  25.679  1.00  0.00     0.020 C 
BRANCH  17  19
ATOM     19  S   UNL A   1      34.190  16.525  24.422  1.00  0.00     0.150 S 
ATOM     20  C   UNL A   1      32.874  15.695  25.272  1.00  0.00     0.158 C 
ATOM     21  O   UNL A   1      34.112  16.110  23.033  1.00  0.00    -0.229 OA
ATOM     22  O   UNL A   1      35.408  16.317  25.182  1.00  0.00    -0.229 OA
ENDBRANCH  17  19
ENDBRANCH   9  13
ENDBRANCH   8   9
ENDBRANCH   6   8
ENDBRANCH   4   6
ENDBRANCH   3   4
ENDBRANCH   2   3
ENDBRANCH   1   2
BRANCH   1  23
ATOM     23  O   UNL A   1      42.595  21.945  25.986  1.00  0.00    -0.374 OA
BRANCH  23  24
ATOM     24  C   UNL A   1      43.980  21.866  25.651  1.00  0.00     0.202 C 
BRANCH  24  25
ATOM     25  C   UNL A   1      44.482  22.752  24.503  1.00  0.00     0.261 C 
BRANCH  25  26
ATOM     26  O   UNL A   1      43.795  24.016  24.442  1.00  0.00    -0.460 OA
BRANCH  26  27
ATOM     27  C   UNL A   1      44.484  25.056  24.974  1.00  0.00     0.338 C 
ATOM     28  O   UNL A   1      45.597  25.443  24.643  1.00  0.00    -0.246 OA
BRANCH  27  29
ATOM     29  C   UNL A   1      43.627  25.820  25.900  1.00  0.00     0.060 A 
ATOM     30  C   UNL A   1      43.965  27.160  26.130  1.00  0.00     0.016 A 
ATOM     31  C   UNL A   1      42.566  25.230  26.591  1.00  0.00     0.016 A 
ATOM     32  C   UNL A   1      43.279  27.901  27.089  1.00  0.00     0.010 A 
ATOM     33  C   UNL A   1      41.884  25.973  27.562  1.00  0.00     0.010 A 
ATOM     34  C   UNL A   1      42.260  27.300  27.840  1.00  0.00    -0.014 A 
BRANCH  34  35
ATOM     35  C   UNL A   1      41.705  28.019  29.016  1.00  0.00     0.031 A 
ATOM     36  C   UNL A   1      42.465  27.987  30.314  1.00  0.00     0.074 A 
ATOM     37  C   UNL A   1      40.567  28.728  28.914  1.00  0.00     0.049 A 
ATOM     38  N   UNL A   1      42.163  28.522  31.469  1.00  0.00    -0.248 NA
ATOM     39  C   UNL A   1      43.738  27.249  30.307  1.00  0.00     0.031 C 
ATOM     40  C   UNL A   1      39.771  28.875  27.697  1.00  0.00     0.029 A 
ATOM     41  N   UNL A   1      39.882  29.458  29.854  1.00  0.00    -0.354 N 
ATOM     42  C   UNL A   1      43.205  28.186  32.327  1.00  0.00     0.074 A 
ATOM     43  C   UNL A   1      44.126  27.368  31.567  1.00  0.00     0.031 C 
ATOM     44  C   UNL A   1      38.699  29.640  27.966  1.00  0.00     0.029 A 
ATOM     45  C   UNL A   1      38.711  30.005  29.382  1.00  0.00     0.049 A 
ATOM     46  H   UNL A   1      40.197  29.577  30.778  1.00  0.00     0.167 HD
ATOM     47  C   UNL A   1      43.379  28.535  33.627  1.00  0.00     0.034 A 
ATOM     48  C   UNL A   1      37.750  30.699  30.023  1.00  0.00     0.034 A 
ATOM     49  C   UNL A   1      42.445  29.342  34.373  1.00  0.00     0.049 A 
ATOM     50  C   UNL A   1      37.921  30.999  31.494  1.00  0.00     0.074 A 
ATOM     51  C   UNL A   1      42.531  29.769  35.687  1.00  0.00     0.029 A 
ATOM     52  N   UNL A   1      41.243  29.834  33.877  1.00  0.00    -0.354 N 
ATOM     53  N   UNL A   1      38.914  30.682  32.293  1.00  0.00    -0.248 NA
ATOM     54  C   UNL A   1      36.845  31.757  32.145  1.00  0.00     0.031 C 
ATOM     55  C   UNL A   1      41.353  30.452  36.007  1.00  0.00     0.029 A 
ATOM     56  C   UNL A   1      40.564  30.524  34.869  1.00  0.00     0.049 A 
ATOM     57  H   UNL A   1      40.922  29.710  32.956  1.00  0.00     0.167 HD
ATOM     58  C   UNL A   1      38.593  31.227  33.534  1.00  0.00     0.074 A 
ATOM     59  C   UNL A   1      37.322  31.905  33.372  1.00  0.00     0.031 C 
ATOM     60  C   UNL A   1      39.288  31.180  34.700  1.00  0.00     0.034 A 
BRANCH  47  61
ATOM     61  C   UNL A   1      44.601  27.994  34.331  1.00  0.00     0.023 A 
ATOM     62  C   UNL A   1      44.585  26.762  35.009  1.00  0.00     0.031 A 
ATOM     63  C   UNL A   1      45.794  28.739  34.349  1.00  0.00     0.131 A 
ATOM     64  C   UNL A   1      45.713  26.346  35.732  1.00  0.00     0.055 A 
ATOM     65  C   UNL A   1      46.938  28.281  35.005  1.00  0.00     0.041 A 
ATOM     66  F   UNL A   1      45.864  29.933  33.740  1.00  0.00    -0.206 F 
ATOM     67  C   UNL A   1      46.898  27.085  35.715  1.00  0.00     0.022 A 
BRANCH  64  68
ATOM     68  S   UNL A   1      45.566  24.895  36.811  1.00  0.00     0.124 S 
ATOM     69  O   UNL A   1      45.446  25.517  38.128  1.00  0.00    -0.237 OA
ATOM     70  O   UNL A   1      44.366  24.242  36.301  1.00  0.00    -0.237 OA
ATOM     71  O   UNL A   1      46.815  24.172  36.585  1.00  0.00    -0.744 OA
ENDBRANCH  64  68
ENDBRANCH  47  61
BRANCH  48  72
ATOM     72  C   UNL A   1      36.514  31.118  29.302  1.00  0.00     0.023 A 
ATOM     73  C   UNL A   1      36.065  32.448  29.333  1.00  0.00     0.031 A 
ATOM     74  C   UNL A   1      35.732  30.175  28.611  1.00  0.00     0.131 A 
ATOM     75  C   UNL A   1      34.848  32.790  28.724  1.00  0.00     0.055 A 
ATOM     76  C   UNL A   1      34.549  30.530  27.962  1.00  0.00     0.041 A 
ATOM     77  F   UNL A   1      36.114  28.889  28.551  1.00  0.00    -0.206 F 
ATOM     78  C   UNL A   1      34.094  31.843  28.026  1.00  0.00     0.022 A 
BRANCH  75  79
ATOM     79  S   UNL A   1      34.219  34.479  28.921  1.00  0.00     0.124 S 
ATOM     80  O   UNL A   1      32.777  34.257  28.953  1.00  0.00    -0.237 OA
ATOM     81  O   UNL A   1      34.834  34.885  30.180  1.00  0.00    -0.237 OA
ATOM     82  O   UNL A   1      34.719  35.169  27.734  1.00  0.00    -0.744 OA
ENDBRANCH  75  79
ENDBRANCH  48  72
BRANCH  60  83
ATOM     83  C   UNL A   1      38.700  31.916  35.881  1.00  0.00     0.023 A 
ATOM     84  C   UNL A   1      38.071  31.238  36.939  1.00  0.00     0.031 A 
ATOM     85  C   UNL A   1      38.762  33.320  35.941  1.00  0.00     0.131 A 
ATOM     86  C   UNL A   1      37.480  31.966  37.984  1.00  0.00     0.055 A 
ATOM     87  C   UNL A   1      38.226  34.036  37.012  1.00  0.00     0.041 A 
ATOM     88  F   UNL A   1      39.349  34.021  34.956  1.00  0.00    -0.206 F 
ATOM     89  C   UNL A   1      37.569  33.359  38.036  1.00  0.00     0.022 A 
BRANCH  86  90
ATOM     90  S   UNL A   1      36.510  31.072  39.230  1.00  0.00     0.124 S 
ATOM     91  O   UNL A   1      35.364  31.956  39.413  1.00  0.00    -0.237 OA
ATOM     92  O   UNL A   1      36.237  29.804  38.562  1.00  0.00    -0.237 OA
ATOM     93  O   UNL A   1      37.417  30.986  40.373  1.00  0.00    -0.744 OA
ENDBRANCH  86  90
ENDBRANCH  60  83
ENDBRANCH  34  35
ENDBRANCH  27  29
ENDBRANCH  26  27
ENDBRANCH  25  26
ENDBRANCH  24  25
ENDBRANCH  23  24
ENDBRANCH   1  23
TORSDOF 22
ENDMDL
MODEL 2
REMARK VINA RESULT:      -9.7      5.553      8.972
REMARK SMILES CC[N@@H+](C[C@@H](C)C(=O)OCCOCCOC(=O)c1ccc(-c2c3nc(c(-c4cc(S(=O)(=O)[O-])ccc4F)c4ccc([nH]4)c(-c4cc(S(=O)(=O)[O-])ccc4F)c4nc(c(-c5cc(S(=O)(=O)[O-])ccc5F)c5ccc2[nH]5)C=C4)C=C3)cc1)[C@@H]1CCC[C@H](S(C)(=O)=O)C1
REMARK SMILES IDX 11 1 10 2 9 3 7 4 8 5 5 6 6 7 4 8 3 9 2 11 1 12 81 13 82 14
REMARK SMILES IDX 90 15 83 16 85 17 84 18 86 19 87 20 88 21 89 22 12 23 13 24
REMARK SMILES IDX 14 25 15 26 16 27 17 28 18 29 19 30 80 31 20 32 79 33 21 34
REMARK SMILES IDX 22 35 23 36 73 37 24 38 78 39 72 40 74 41 25 42 77 43 71 44
REMARK SMILES IDX 70 45 26 47 58 48 38 49 57 50 39 51 42 52 56 53 75 54 40 55
REMARK SMILES IDX 41 56 55 58 76 59 43 60 27 61 28 62 36 63 29 64 35 65 37 66
REMARK SMILES IDX 34 67 30 68 31 69 32 70 33 71 59 72 60 73 68 74 61 75 67 76
REMARK SMILES IDX 69 77 66 78 62 79 63 80 64 81 65 82 44 83 45 84 53 85 46 86
REMARK SMILES IDX 52 87 54 88 51 89 47 90 48 91 49 92 50 93
REMARK H PARENT 3 10 74 46 42 57
REMARK Flexibility Score: inf
ROOT
ATOM      1  C   UNL A   1      37.921  21.378  25.183  1.00  0.00     0.202 C 
ENDROOT
BRANCH   1   2
ATOM      2  C   UNL A   1      36.521  21.937  24.914  1.00  0.00     0.261 C 
BRANCH   2   3
ATOM      3  O   UNL A   1      35.472  21.049  25.334  1.00  0.00    -0.463 OA
BRANCH   3   4
ATOM      4  C   UNL A   1      34.249  21.628  25.443  1.00  0.00     0.314 C 
ATOM      5  O   UNL A   1      33.184  21.021  25.489  1.00  0.00    -0.252 OA
BRANCH   4   6
ATOM      6  C   UNL A   1      34.301  23.142  25.429  1.00  0.00     0.151 C 
ATOM      7  C   UNL A   1      33.665  23.607  26.737  1.00  0.00     0.026 C 
BRANCH   6   8
ATOM      8  C   UNL A   1      33.721  23.788  24.141  1.00  0.00     0.277 C 
BRANCH   8   9
ATOM      9  N   UNL A   1      32.440  24.545  24.263  1.00  0.00    -0.332 N 
ATOM     10  H   UNL A   1      32.189  24.714  25.238  1.00  0.00     0.348 HD
BRANCH   9  11
ATOM     11  C   UNL A   1      31.300  23.727  23.823  1.00  0.00     0.259 C 
ATOM     12  C   UNL A   1      31.607  22.532  22.921  1.00  0.00     0.071 C 
ENDBRANCH   9  11
BRANCH   9  13
ATOM     13  C   UNL A   1      32.586  25.929  23.793  1.00  0.00     0.185 C 
ATOM     14  C   UNL A   1      33.646  26.685  24.613  1.00  0.00     0.065 C 
ATOM     15  C   UNL A   1      31.322  26.785  23.704  1.00  0.00     0.084 C 
ATOM     16  C   UNL A   1      33.975  28.017  23.927  1.00  0.00     0.007 C 
ATOM     17  C   UNL A   1      31.608  28.101  22.976  1.00  0.00     0.114 C 
ATOM     18  C   UNL A   1      32.733  28.876  23.671  1.00  0.00     0.020 C 
BRANCH  17  19
ATOM     19  S   UNL A   1      30.073  29.041  22.875  1.00  0.00     0.150 S 
ATOM     20  C   UNL A   1      28.805  27.862  23.258  1.00  0.00     0.158 C 
ATOM     21  O   UNL A   1      30.075  30.012  23.955  1.00  0.00    -0.229 OA
ATOM     22  O   UNL A   1      29.877  29.472  21.504  1.00  0.00    -0.229 OA
ENDBRANCH  17  19
ENDBRANCH   9  13
ENDBRANCH   8   9
ENDBRANCH   6   8
ENDBRANCH   4   6
ENDBRANCH   3   4
ENDBRANCH   2   3
ENDBRANCH   1   2
BRANCH   1  23
ATOM     23  O   UNL A   1      38.830  22.211  25.899  1.00  0.00    -0.374 OA
BRANCH  23  24
ATOM     24  C   UNL A   1      39.857  21.568  26.653  1.00  0.00     0.202 C 
BRANCH  24  25
ATOM     25  C   UNL A   1      40.144  20.093  26.343  1.00  0.00     0.261 C 
BRANCH  25  26
ATOM     26  O   UNL A   1      41.168  19.929  25.344  1.00  0.00    -0.460 OA
BRANCH  26  27
ATOM     27  C   UNL A   1      42.423  19.802  25.842  1.00  0.00     0.338 C 
ATOM     28  O   UNL A   1      43.053  18.762  25.984  1.00  0.00    -0.246 OA
BRANCH  27  29
ATOM     29  C   UNL A   1      43.044  21.128  26.018  1.00  0.00     0.060 A 
ATOM     30  C   UNL A   1      43.460  21.477  27.310  1.00  0.00     0.016 A 
ATOM     31  C   UNL A   1      43.148  22.046  24.970  1.00  0.00     0.016 A 
ATOM     32  C   UNL A   1      43.933  22.761  27.571  1.00  0.00     0.010 A 
ATOM     33  C   UNL A   1      43.615  23.339  25.236  1.00  0.00     0.010 A 
ATOM     34  C   UNL A   1      43.975  23.713  26.544  1.00  0.00    -0.014 A 
BRANCH  34  35
ATOM     35  C   UNL A   1      44.249  25.133  26.883  1.00  0.00     0.031 A 
ATOM     36  C   UNL A   1      45.633  25.680  26.665  1.00  0.00     0.074 A 
ATOM     37  C   UNL A   1      43.266  25.935  27.331  1.00  0.00     0.049 A 
ATOM     38  N   UNL A   1      46.103  26.877  26.907  1.00  0.00    -0.248 NA
ATOM     39  C   UNL A   1      46.622  24.748  26.100  1.00  0.00     0.031 C 
ATOM     40  C   UNL A   1      41.875  25.532  27.532  1.00  0.00     0.029 A 
ATOM     41  N   UNL A   1      43.290  27.257  27.700  1.00  0.00    -0.354 N 
ATOM     42  C   UNL A   1      47.440  26.844  26.525  1.00  0.00     0.074 A 
ATOM     43  C   UNL A   1      47.714  25.496  26.073  1.00  0.00     0.031 C 
ATOM     44  C   UNL A   1      41.180  26.584  27.998  1.00  0.00     0.029 A 
ATOM     45  C   UNL A   1      42.082  27.722  28.165  1.00  0.00     0.049 A 
ATOM     46  H   UNL A   1      44.095  27.819  27.639  1.00  0.00     0.167 HD
ATOM     47  C   UNL A   1      48.353  27.848  26.544  1.00  0.00     0.034 A 
ATOM     48  C   UNL A   1      41.749  28.920  28.687  1.00  0.00     0.034 A 
ATOM     49  C   UNL A   1      48.067  29.184  27.008  1.00  0.00     0.049 A 
ATOM     50  C   UNL A   1      42.804  29.996  28.782  1.00  0.00     0.074 A 
ATOM     51  C   UNL A   1      48.910  30.280  27.054  1.00  0.00     0.029 A 
ATOM     52  N   UNL A   1      46.846  29.604  27.523  1.00  0.00    -0.354 N 
ATOM     53  N   UNL A   1      44.063  29.955  28.411  1.00  0.00    -0.248 NA
ATOM     54  C   UNL A   1      42.389  31.281  29.359  1.00  0.00     0.031 C 
ATOM     55  C   UNL A   1      48.226  31.338  27.663  1.00  0.00     0.029 A 
ATOM     56  C   UNL A   1      46.927  30.929  27.924  1.00  0.00     0.049 A 
ATOM     57  H   UNL A   1      46.041  29.042  27.593  1.00  0.00     0.167 HD
ATOM     58  C   UNL A   1      44.582  31.218  28.685  1.00  0.00     0.074 A 
ATOM     59  C   UNL A   1      43.495  32.001  29.238  1.00  0.00     0.031 C 
ATOM     60  C   UNL A   1      45.840  31.693  28.491  1.00  0.00     0.034 A 
BRANCH  47  61
ATOM     61  C   UNL A   1      49.757  27.516  26.098  1.00  0.00     0.023 A 
ATOM     62  C   UNL A   1      50.188  27.726  24.777  1.00  0.00     0.031 A 
ATOM     63  C   UNL A   1      50.672  26.952  27.006  1.00  0.00     0.131 A 
ATOM     64  C   UNL A   1      51.470  27.311  24.384  1.00  0.00     0.055 A 
ATOM     65  C   UNL A   1      51.972  26.614  26.628  1.00  0.00     0.041 A 
ATOM     66  F   UNL A   1      50.311  26.705  28.276  1.00  0.00    -0.206 F 
ATOM     67  C   UNL A   1      52.374  26.780  25.306  1.00  0.00     0.022 A 
BRANCH  64  68
ATOM     68  S   UNL A   1      51.892  27.348  22.619  1.00  0.00     0.124 S 
ATOM     69  O   UNL A   1      53.000  26.396  22.561  1.00  0.00    -0.237 OA
ATOM     70  O   UNL A   1      50.649  26.921  21.989  1.00  0.00    -0.237 OA
ATOM     71  O   UNL A   1      52.265  28.741  22.385  1.00  0.00    -0.744 OA
ENDBRANCH  64  68
ENDBRANCH  47  61
BRANCH  48  72
ATOM     72  C   UNL A   1      40.372  29.158  29.209  1.00  0.00     0.023 A 
ATOM     73  C   UNL A   1      40.082  29.055  30.578  1.00  0.00     0.031 A 
ATOM     74  C   UNL A   1      39.312  29.443  28.330  1.00  0.00     0.131 A 
ATOM     75  C   UNL A   1      38.757  29.192  31.024  1.00  0.00     0.055 A 
ATOM     76  C   UNL A   1      38.005  29.630  28.784  1.00  0.00     0.041 A 
ATOM     77  F   UNL A   1      39.534  29.551  27.009  1.00  0.00    -0.206 F 
ATOM     78  C   UNL A   1      37.720  29.493  30.138  1.00  0.00     0.022 A 
BRANCH  75  79
ATOM     79  S   UNL A   1      38.393  28.893  32.775  1.00  0.00     0.124 S 
ATOM     80  O   UNL A   1      39.106  27.643  33.017  1.00  0.00    -0.237 OA
ATOM     81  O   UNL A   1      38.951  30.083  33.407  1.00  0.00    -0.237 OA
ATOM     82  O   UNL A   1      36.935  28.797  32.808  1.00  0.00    -0.744 OA
ENDBRANCH  75  79
ENDBRANCH  48  72
BRANCH  60  83
ATOM     83  C   UNL A   1      46.092  33.139  28.846  1.00  0.00     0.023 A 
ATOM     84  C   UNL A   1      45.900  34.174  27.913  1.00  0.00     0.031 A 
ATOM     85  C   UNL A   1      46.541  33.484  30.132  1.00  0.00     0.131 A 
ATOM     86  C   UNL A   1      46.210  35.498  28.265  1.00  0.00     0.055 A 
ATOM     87  C   UNL A   1      46.789  34.809  30.496  1.00  0.00     0.041 A 
ATOM     88  F   UNL A   1      46.744  32.537  31.063  1.00  0.00    -0.206 F 
ATOM     89  C   UNL A   1      46.636  35.824  29.555  1.00  0.00     0.022 A 
BRANCH  86  90
ATOM     90  S   UNL A   1      46.137  36.780  26.983  1.00  0.00     0.124 S 
ATOM     91  O   UNL A   1      44.713  37.097  26.951  1.00  0.00    -0.237 OA
ATOM     92  O   UNL A   1      47.009  37.815  27.527  1.00  0.00    -0.237 OA
ATOM     93  O   UNL A   1      46.649  36.103  25.793  1.00  0.00    -0.744 OA
ENDBRANCH  86  90
ENDBRANCH  60  83
ENDBRANCH  34  35
ENDBRANCH  27  29
ENDBRANCH  26  27
ENDBRANCH  25  26
ENDBRANCH  24  25
ENDBRANCH  23  24
ENDBRANCH   1  23
TORSDOF 22
ENDMDL
MODEL 3
REMARK VINA RESULT:      -9.5      5.584     10.331
REMARK SMILES CC[N@@H+](C[C@@H](C)C(=O)OCCOCCOC(=O)c1ccc(-c2c3nc(c(-c4cc(S(=O)(=O)[O-])ccc4F)c4ccc([nH]4)c(-c4cc(S(=O)(=O)[O-])ccc4F)c4nc(c(-c5cc(S(=O)(=O)[O-])ccc5F)c5ccc2[nH]5)C=C4)C=C3)cc1)[C@@H]1CCC[C@H](S(C)(=O)=O)C1
REMARK SMILES IDX 11 1 10 2 9 3 7 4 8 5 5 6 6 7 4 8 3 9 2 11 1 12 81 13 82 14
REMARK SMILES IDX 90 15 83 16 85 17 84 18 86 19 87 20 88 21 89 22 12 23 13 24
REMARK SMILES IDX 14 25 15 26 16 27 17 28 18 29 19 30 80 31 20 32 79 33 21 34
REMARK SMILES IDX 22 35 23 36 73 37 24 38 78 39 72 40 74 41 25 42 77 43 71 44
REMARK SMILES IDX 70 45 26 47 58 48 38 49 57 50 39 51 42 52 56 53 75 54 40 55
REMARK SMILES IDX 41 56 55 58 76 59 43 60 27 61 28 62 36 63 29 64 35 65 37 66
REMARK SMILES IDX 34 67 30 68 31 69 32 70 33 71 59 72 60 73 68 74 61 75 67 76
REMARK SMILES IDX 69 77 66 78 62 79 63 80 64 81 65 82 44 83 45 84 53 85 46 86
REMARK SMILES IDX 52 87 54 88 51 89 47 90 48 91 49 92 50 93
REMARK H PARENT 3 10 74 46 42 57
REMARK Flexibility Score: inf
ROOT
ATOM      1  C   UNL A   1      37.300  21.373  25.177  1.00  0.00     0.202 C 
ENDROOT
BRANCH   1   2
ATOM      2  C   UNL A   1      35.877  21.884  25.418  1.00  0.00     0.261 C 
BRANCH   2   3
ATOM      3  O   UNL A   1      34.877  20.869  25.234  1.00  0.00    -0.463 OA
BRANCH   3   4
ATOM      4  C   UNL A   1      33.645  21.195  25.701  1.00  0.00     0.314 C 
ATOM      5  O   UNL A   1      32.669  20.452  25.693  1.00  0.00    -0.252 OA
BRANCH   4   6
ATOM      6  C   UNL A   1      33.549  22.628  26.186  1.00  0.00     0.151 C 
ATOM      7  C   UNL A   1      33.248  22.557  27.681  1.00  0.00     0.026 C 
BRANCH   6   8
ATOM      8  C   UNL A   1      32.586  23.519  25.354  1.00  0.00     0.277 C 
BRANCH   8   9
ATOM      9  N   UNL A   1      31.309  23.945  26.000  1.00  0.00    -0.332 N 
ATOM     10  H   UNL A   1      31.415  24.076  27.006  1.00  0.00     0.348 HD
BRANCH   9  11
ATOM     11  C   UNL A   1      30.314  22.862  25.966  1.00  0.00     0.259 C 
ATOM     12  C   UNL A   1      29.519  22.605  27.245  1.00  0.00     0.071 C 
ENDBRANCH   9  11
BRANCH   9  13
ATOM     13  C   UNL A   1      30.934  25.309  25.603  1.00  0.00     0.185 C 
ATOM     14  C   UNL A   1      30.279  25.321  24.211  1.00  0.00     0.065 C 
ATOM     15  C   UNL A   1      32.018  26.386  25.652  1.00  0.00     0.084 C 
ATOM     16  C   UNL A   1      29.651  26.695  23.948  1.00  0.00     0.007 C 
ATOM     17  C   UNL A   1      31.412  27.776  25.446  1.00  0.00     0.114 C 
ATOM     18  C   UNL A   1      30.646  27.847  24.120  1.00  0.00     0.020 C 
BRANCH  17  19
ATOM     19  S   UNL A   1      32.735  28.996  25.552  1.00  0.00     0.150 S 
ATOM     20  C   UNL A   1      33.994  28.202  26.517  1.00  0.00     0.158 C 
ATOM     21  O   UNL A   1      33.284  29.172  24.219  1.00  0.00    -0.229 OA
ATOM     22  O   UNL A   1      32.258  30.141  26.304  1.00  0.00    -0.229 OA
ENDBRANCH  17  19
ENDBRANCH   9  13
ENDBRANCH   8   9
ENDBRANCH   6   8
ENDBRANCH   4   6
ENDBRANCH   3   4
ENDBRANCH   2   3
ENDBRANCH   1   2
BRANCH   1  23
ATOM     23  O   UNL A   1      38.362  22.317  25.293  1.00  0.00    -0.374 OA
BRANCH  23  24
ATOM     24  C   UNL A   1      39.405  22.023  26.223  1.00  0.00     0.202 C 
BRANCH  24  25
ATOM     25  C   UNL A   1      39.858  20.562  26.340  1.00  0.00     0.261 C 
BRANCH  25  26
ATOM     26  O   UNL A   1      40.955  20.253  25.460  1.00  0.00    -0.460 OA
BRANCH  26  27
ATOM     27  C   UNL A   1      42.136  20.037  26.090  1.00  0.00     0.338 C 
ATOM     28  O   UNL A   1      42.639  18.952  26.350  1.00  0.00    -0.246 OA
BRANCH  27  29
ATOM     29  C   UNL A   1      42.869  21.306  26.257  1.00  0.00     0.060 A 
ATOM     30  C   UNL A   1      43.179  21.701  27.565  1.00  0.00     0.016 A 
ATOM     31  C   UNL A   1      43.181  22.133  25.176  1.00  0.00     0.016 A 
ATOM     32  C   UNL A   1      43.753  22.948  27.803  1.00  0.00     0.010 A 
ATOM     33  C   UNL A   1      43.749  23.390  25.418  1.00  0.00     0.010 A 
ATOM     34  C   UNL A   1      44.005  23.817  26.734  1.00  0.00    -0.014 A 
BRANCH  34  35
ATOM     35  C   UNL A   1      44.387  25.225  27.018  1.00  0.00     0.031 A 
ATOM     36  C   UNL A   1      43.344  26.168  27.552  1.00  0.00     0.074 A 
ATOM     37  C   UNL A   1      45.654  25.641  26.847  1.00  0.00     0.049 A 
ATOM     38  N   UNL A   1      43.446  27.438  27.851  1.00  0.00    -0.248 NA
ATOM     39  C   UNL A   1      42.005  25.602  27.778  1.00  0.00     0.031 C 
ATOM     40  C   UNL A   1      46.761  24.804  26.385  1.00  0.00     0.029 A 
ATOM     41  N   UNL A   1      46.224  26.874  27.043  1.00  0.00    -0.354 N 
ATOM     42  C   UNL A   1      42.187  27.825  28.298  1.00  0.00     0.074 A 
ATOM     43  C   UNL A   1      41.330  26.663  28.193  1.00  0.00     0.031 C 
ATOM     44  C   UNL A   1      47.876  25.553  26.323  1.00  0.00     0.029 A 
ATOM     45  C   UNL A   1      47.556  26.927  26.704  1.00  0.00     0.049 A 
ATOM     46  H   UNL A   1      45.727  27.648  27.392  1.00  0.00     0.167 HD
ATOM     47  C   UNL A   1      41.786  29.036  28.760  1.00  0.00     0.034 A 
ATOM     48  C   UNL A   1      48.411  27.970  26.679  1.00  0.00     0.034 A 
ATOM     49  C   UNL A   1      42.651  30.188  28.848  1.00  0.00     0.049 A 
ATOM     50  C   UNL A   1      47.919  29.331  27.113  1.00  0.00     0.074 A 
ATOM     51  C   UNL A   1      42.353  31.456  29.316  1.00  0.00     0.029 A 
ATOM     52  N   UNL A   1      43.980  30.219  28.444  1.00  0.00    -0.354 N 
ATOM     53  N   UNL A   1      46.728  29.682  27.541  1.00  0.00    -0.248 NA
ATOM     54  C   UNL A   1      48.889  30.432  27.066  1.00  0.00     0.031 C 
ATOM     55  C   UNL A   1      43.475  32.270  29.127  1.00  0.00     0.029 A 
ATOM     56  C   UNL A   1      44.502  31.492  28.616  1.00  0.00     0.049 A 
ATOM     57  H   UNL A   1      44.478  29.448  28.087  1.00  0.00     0.167 HD
ATOM     58  C   UNL A   1      46.816  31.039  27.841  1.00  0.00     0.074 A 
ATOM     59  C   UNL A   1      48.181  31.438  27.558  1.00  0.00     0.031 C 
ATOM     60  C   UNL A   1      45.860  31.880  28.313  1.00  0.00     0.034 A 
BRANCH  47  61
ATOM     61  C   UNL A   1      40.335  29.182  29.152  1.00  0.00     0.023 A 
ATOM     62  C   UNL A   1      39.921  29.168  30.495  1.00  0.00     0.031 A 
ATOM     63  C   UNL A   1      39.345  29.307  28.160  1.00  0.00     0.131 A 
ATOM     64  C   UNL A   1      38.554  29.208  30.808  1.00  0.00     0.055 A 
ATOM     65  C   UNL A   1      37.991  29.426  28.481  1.00  0.00     0.041 A 
ATOM     66  F   UNL A   1      39.676  29.303  26.859  1.00  0.00    -0.206 F 
ATOM     67  C   UNL A   1      37.587  29.362  29.812  1.00  0.00     0.022 A 
BRANCH  64  68
ATOM     68  S   UNL A   1      38.046  28.915  32.525  1.00  0.00     0.124 S 
ATOM     69  O   UNL A   1      36.651  29.351  32.499  1.00  0.00    -0.237 OA
ATOM     70  O   UNL A   1      38.266  27.482  32.679  1.00  0.00    -0.237 OA
ATOM     71  O   UNL A   1      38.943  29.772  33.298  1.00  0.00    -0.744 OA
ENDBRANCH  64  68
ENDBRANCH  47  61
BRANCH  48  72
ATOM     72  C   UNL A   1      49.806  27.790  26.183  1.00  0.00     0.023 A 
ATOM     73  C   UNL A   1      50.103  27.820  24.812  1.00  0.00     0.031 A 
ATOM     74  C   UNL A   1      50.857  27.530  27.080  1.00  0.00     0.131 A 
ATOM     75  C   UNL A   1      51.410  27.553  24.373  1.00  0.00     0.055 A 
ATOM     76  C   UNL A   1      52.166  27.316  26.642  1.00  0.00     0.041 A 
ATOM     77  F   UNL A   1      50.628  27.487  28.402  1.00  0.00    -0.206 F 
ATOM     78  C   UNL A   1      52.446  27.315  25.280  1.00  0.00     0.022 A 
BRANCH  75  79
ATOM     79  S   UNL A   1      51.724  27.441  22.591  1.00  0.00     0.124 S 
ATOM     80  O   UNL A   1      52.736  26.391  22.534  1.00  0.00    -0.237 OA
ATOM     81  O   UNL A   1      50.406  27.091  22.073  1.00  0.00    -0.237 OA
ATOM     82  O   UNL A   1      52.193  28.781  22.244  1.00  0.00    -0.744 OA
ENDBRANCH  75  79
ENDBRANCH  48  72
BRANCH  60  83
ATOM     83  C   UNL A   1      46.274  33.306  28.591  1.00  0.00     0.023 A 
ATOM     84  C   UNL A   1      46.787  33.698  29.840  1.00  0.00     0.031 A 
ATOM     85  C   UNL A   1      46.143  34.288  27.593  1.00  0.00     0.131 A 
ATOM     86  C   UNL A   1      47.098  35.047  30.076  1.00  0.00     0.055 A 
ATOM     87  C   UNL A   1      46.511  35.616  27.814  1.00  0.00     0.041 A 
ATOM     88  F   UNL A   1      45.657  33.970  26.382  1.00  0.00    -0.206 F 
ATOM     89  C   UNL A   1      46.979  36.005  29.066  1.00  0.00     0.022 A 
BRANCH  86  90
ATOM     90  S   UNL A   1      47.571  35.552  31.753  1.00  0.00     0.124 S 
ATOM     91  O   UNL A   1      46.642  34.784  32.575  1.00  0.00    -0.237 OA
ATOM     92  O   UNL A   1      48.970  35.143  31.819  1.00  0.00    -0.237 OA
ATOM     93  O   UNL A   1      47.349  36.997  31.751  1.00  0.00    -0.744 OA
ENDBRANCH  86  90
ENDBRANCH  60  83
ENDBRANCH  34  35
ENDBRANCH  27  29
ENDBRANCH  26  27
ENDBRANCH  25  26
ENDBRANCH  24  25
ENDBRANCH  23  24
ENDBRANCH   1  23
TORSDOF 22
ENDMDL
