MODEL 1
REMARK VINA RESULT:     -13.2      0.000      0.000
REMARK SMILES CCc1cccc(C)c1Nc1ccccc1CC(=O)OCCOCCOC(=O)c1ccc(-c2c3nc(c(-c4cc(S(=O)(=O)[O-])ccc4F)c4ccc([nH]4)c(-c4cc(S(=O)(=O)[O-])ccc4F)c4nc(c(-c5cc(S(=O)(=O)[O-])ccc5F)c5ccc2[nH]5)C=C4)C=C3)cc1
REMARK SMILES IDX 22 1 21 2 20 3 18 4 19 5 17 6 16 7 11 8 12 9 13 10 15 11
REMARK SMILES IDX 14 12 10 13 9 15 3 16 4 17 5 18 7 19 6 20 8 21 2 22 1 23
REMARK SMILES IDX 23 24 24 25 25 26 26 27 27 28 28 29 29 30 30 31 91 32 31 33
REMARK SMILES IDX 90 34 32 35 33 36 34 37 84 38 35 39 89 40 83 41 85 42 36 43
REMARK SMILES IDX 88 44 82 45 81 46 37 48 69 49 49 50 68 51 50 52 53 53 67 54
REMARK SMILES IDX 86 55 51 56 52 57 66 59 87 60 54 61 38 62 39 63 47 64 40 65
REMARK SMILES IDX 46 66 48 67 45 68 41 69 42 70 43 71 44 72 70 73 71 74 79 75
REMARK SMILES IDX 72 76 78 77 80 78 77 79 73 80 74 81 75 82 76 83 55 84 56 85
REMARK SMILES IDX 64 86 57 87 63 88 65 89 62 90 58 91 59 92 60 93 61 94
REMARK H PARENT 10 14 85 47 53 58
REMARK Flexibility Score: inf
ROOT
ATOM      1  C   UNL A   1      50.149  23.815  40.650  1.00  0.00     0.202 C 
ENDROOT
BRANCH   1   2
ATOM      2  C   UNL A   1      49.634  22.056  39.970  1.00  0.00     0.261 C 
BRANCH   2   3
ATOM      3  O   UNL A   1      48.984  20.744  41.081  1.00  0.00    -0.463 OA
BRANCH   3   4
ATOM      4  C   UNL A   1      49.144  19.404  41.553  1.00  0.00     0.310 C 
ATOM      5  O   UNL A   1      50.323  19.117  41.849  1.00  0.00    -0.252 OA
BRANCH   4   6
ATOM      6  C   UNL A   1      48.097  18.068  41.729  1.00  0.00     0.160 C 
BRANCH   6   7
ATOM      7  C   UNL A   1      46.502  17.425  41.226  1.00  0.00    -0.013 A 
ATOM      8  C   UNL A   1      45.128  16.683  41.872  1.00  0.00     0.042 A 
ATOM      9  C   UNL A   1      44.126  16.261  40.990  1.00  0.00     0.026 A 
ATOM     10  C   UNL A   1      44.304  16.533  39.615  1.00  0.00     0.002 A 
ATOM     11  C   UNL A   1      46.518  17.583  39.828  1.00  0.00     0.006 A 
ATOM     12  C   UNL A   1      45.433  17.180  39.063  1.00  0.00     0.000 A 
BRANCH   8  13
ATOM     13  N   UNL A   1      44.413  16.960  43.509  1.00  0.00    -0.355 N 
ATOM     14  H   UNL A   1      43.436  17.075  43.534  1.00  0.00     0.167 HD
BRANCH  13  15
ATOM     15  C   UNL A   1      45.280  17.058  45.160  1.00  0.00     0.045 A 
ATOM     16  C   UNL A   1      46.400  15.663  45.223  1.00  0.00    -0.024 A 
ATOM     17  C   UNL A   1      48.123  15.916  45.422  1.00  0.00     0.006 A 
ATOM     18  C   UNL A   1      48.912  17.418  45.258  1.00  0.00     0.001 A 
ATOM     19  C   UNL A   1      46.074  18.862  45.363  1.00  0.00    -0.027 A 
ATOM     20  C   UNL A   1      47.974  18.872  45.085  1.00  0.00     0.005 A 
ATOM     21  C   UNL A   1      45.089  20.405  45.593  1.00  0.00     0.046 C 
BRANCH  16  22
ATOM     22  C   UNL A   1      46.362  14.459  44.245  1.00  0.00     0.034 C 
ATOM     23  C   UNL A   1      45.254  13.427  44.460  1.00  0.00     0.009 C 
ENDBRANCH  16  22
ENDBRANCH  13  15
ENDBRANCH   8  13
ENDBRANCH   6   7
ENDBRANCH   4   6
ENDBRANCH   3   4
ENDBRANCH   2   3
ENDBRANCH   1   2
BRANCH   1  24
ATOM     24  O   UNL A   1      49.976  25.167  39.189  1.00  0.00    -0.374 OA
BRANCH  24  25
ATOM     25  C   UNL A   1      48.368  25.820  38.829  1.00  0.00     0.202 C 
BRANCH  25  26
ATOM     26  C   UNL A   1      47.057  24.284  38.201  1.00  0.00     0.261 C 
BRANCH  26  27
ATOM     27  O   UNL A   1      46.148  24.276  36.599  1.00  0.00    -0.460 OA
BRANCH  27  28
ATOM     28  C   UNL A   1      45.729  24.344  35.250  1.00  0.00     0.338 C 
ATOM     29  O   UNL A   1      45.756  23.305  34.580  1.00  0.00    -0.246 OA
BRANCH  28  30
ATOM     30  C   UNL A   1      45.177  25.566  34.397  1.00  0.00     0.060 A 
ATOM     31  C   UNL A   1      43.831  25.748  34.064  1.00  0.00     0.016 A 
ATOM     32  C   UNL A   1      45.943  26.663  33.960  1.00  0.00     0.016 A 
ATOM     33  C   UNL A   1      43.442  26.530  32.917  1.00  0.00     0.010 A 
ATOM     34  C   UNL A   1      45.563  27.424  32.793  1.00  0.00     0.010 A 
ATOM     35  C   UNL A   1      44.400  27.109  32.077  1.00  0.00    -0.014 A 
BRANCH  35  36
ATOM     36  C   UNL A   1      44.405  26.828  30.527  1.00  0.00     0.031 A 
ATOM     37  C   UNL A   1      44.457  25.457  29.859  1.00  0.00     0.074 A 
ATOM     38  C   UNL A   1      43.807  27.746  29.687  1.00  0.00     0.049 A 
ATOM     39  N   UNL A   1      44.894  25.234  28.653  1.00  0.00    -0.248 NA
ATOM     40  C   UNL A   1      43.882  24.242  30.444  1.00  0.00     0.031 C 
ATOM     41  C   UNL A   1      43.172  27.532  28.367  1.00  0.00     0.029 A 
ATOM     42  N   UNL A   1      43.438  29.059  29.959  1.00  0.00    -0.354 N 
ATOM     43  C   UNL A   1      44.456  23.971  28.250  1.00  0.00     0.074 A 
ATOM     44  C   UNL A   1      43.986  23.345  29.457  1.00  0.00     0.031 C 
ATOM     45  C   UNL A   1      42.638  28.680  27.908  1.00  0.00     0.029 A 
ATOM     46  C   UNL A   1      43.014  29.741  28.810  1.00  0.00     0.049 A 
ATOM     47  H   UNL A   1      43.471  29.463  30.857  1.00  0.00     0.167 HD
ATOM     48  C   UNL A   1      44.284  23.616  26.934  1.00  0.00     0.034 A 
ATOM     49  C   UNL A   1      43.676  30.884  28.479  1.00  0.00     0.034 A 
ATOM     50  C   UNL A   1      44.247  24.809  26.071  1.00  0.00     0.049 A 
ATOM     51  C   UNL A   1      44.764  30.476  27.480  1.00  0.00     0.074 A 
ATOM     52  C   UNL A   1      43.283  25.440  25.301  1.00  0.00     0.029 A 
ATOM     53  N   UNL A   1      45.287  25.710  26.143  1.00  0.00    -0.354 N 
ATOM     54  N   UNL A   1      44.640  29.463  26.653  1.00  0.00    -0.248 NA
ATOM     55  C   UNL A   1      46.085  31.083  27.375  1.00  0.00     0.031 C 
ATOM     56  C   UNL A   1      43.764  26.754  24.970  1.00  0.00     0.029 A 
ATOM     57  C   UNL A   1      45.042  26.895  25.483  1.00  0.00     0.049 A 
ATOM     58  H   UNL A   1      46.127  25.525  26.622  1.00  0.00     0.167 HD
ATOM     59  C   UNL A   1      45.862  29.100  26.156  1.00  0.00     0.074 A 
ATOM     60  C   UNL A   1      46.721  30.208  26.573  1.00  0.00     0.031 C 
ATOM     61  C   UNL A   1      46.099  27.905  25.512  1.00  0.00     0.034 A 
BRANCH  48  62
ATOM     62  C   UNL A   1      43.942  22.212  26.393  1.00  0.00     0.023 A 
ATOM     63  C   UNL A   1      44.937  21.449  25.730  1.00  0.00     0.031 A 
ATOM     64  C   UNL A   1      42.724  21.516  26.590  1.00  0.00     0.131 A 
ATOM     65  C   UNL A   1      44.692  20.138  25.252  1.00  0.00     0.055 A 
ATOM     66  C   UNL A   1      42.461  20.234  26.069  1.00  0.00     0.041 A 
ATOM     67  F   UNL A   1      41.744  21.996  27.365  1.00  0.00    -0.206 F 
ATOM     68  C   UNL A   1      43.446  19.537  25.394  1.00  0.00     0.022 A 
BRANCH  65  69
ATOM     69  S   UNL A   1      46.039  19.189  24.479  1.00  0.00     0.124 S 
ATOM     70  O   UNL A   1      47.132  20.154  24.476  1.00  0.00    -0.237 OA
ATOM     71  O   UNL A   1      46.176  18.053  25.382  1.00  0.00    -0.237 OA
ATOM     72  O   UNL A   1      45.509  18.857  23.156  1.00  0.00    -0.744 OA
ENDBRANCH  65  69
ENDBRANCH  48  62
BRANCH  49  73
ATOM     73  C   UNL A   1      43.676  31.768  29.711  1.00  0.00     0.023 A 
ATOM     74  C   UNL A   1      44.927  32.387  30.014  1.00  0.00     0.031 A 
ATOM     75  C   UNL A   1      42.523  32.443  30.151  1.00  0.00     0.131 A 
ATOM     76  C   UNL A   1      44.989  33.695  30.534  1.00  0.00     0.055 A 
ATOM     77  C   UNL A   1      42.597  33.736  30.705  1.00  0.00     0.041 A 
ATOM     78  F   UNL A   1      41.302  31.976  29.847  1.00  0.00    -0.206 F 
ATOM     79  C   UNL A   1      43.822  34.391  30.838  1.00  0.00     0.022 A 
BRANCH  76  80
ATOM     80  S   UNL A   1      46.577  34.593  30.601  1.00  0.00     0.124 S 
ATOM     81  O   UNL A   1      46.321  35.718  29.709  1.00  0.00    -0.237 OA
ATOM     82  O   UNL A   1      46.717  34.915  32.019  1.00  0.00    -0.237 OA
ATOM     83  O   UNL A   1      47.532  33.603  30.107  1.00  0.00    -0.744 OA
ENDBRANCH  76  80
ENDBRANCH  49  73
BRANCH  61  84
ATOM     84  C   UNL A   1      47.441  27.563  24.892  1.00  0.00     0.023 A 
ATOM     85  C   UNL A   1      47.553  27.484  23.504  1.00  0.00     0.031 A 
ATOM     86  C   UNL A   1      48.619  27.237  25.615  1.00  0.00     0.131 A 
ATOM     87  C   UNL A   1      48.796  27.296  22.890  1.00  0.00     0.055 A 
ATOM     88  C   UNL A   1      49.831  26.916  24.999  1.00  0.00     0.041 A 
ATOM     89  F   UNL A   1      48.685  27.249  26.952  1.00  0.00    -0.206 F 
ATOM     90  C   UNL A   1      49.936  26.984  23.624  1.00  0.00     0.022 A 
BRANCH  87  91
ATOM     91  S   UNL A   1      48.897  27.627  21.121  1.00  0.00     0.124 S 
ATOM     92  O   UNL A   1      49.622  26.465  20.619  1.00  0.00    -0.237 OA
ATOM     93  O   UNL A   1      47.482  27.694  20.759  1.00  0.00    -0.237 OA
ATOM     94  O   UNL A   1      49.619  28.894  21.050  1.00  0.00    -0.744 OA
ENDBRANCH  87  91
ENDBRANCH  61  84
ENDBRANCH  35  36
ENDBRANCH  28  30
ENDBRANCH  27  28
ENDBRANCH  26  27
ENDBRANCH  25  26
ENDBRANCH  24  25
ENDBRANCH   1  24
TORSDOF 21
ENDMDL
MODEL 2
REMARK VINA RESULT:     -12.9      7.771     11.013
REMARK SMILES CCc1cccc(C)c1Nc1ccccc1CC(=O)OCCOCCOC(=O)c1ccc(-c2c3nc(c(-c4cc(S(=O)(=O)[O-])ccc4F)c4ccc([nH]4)c(-c4cc(S(=O)(=O)[O-])ccc4F)c4nc(c(-c5cc(S(=O)(=O)[O-])ccc5F)c5ccc2[nH]5)C=C4)C=C3)cc1
REMARK SMILES IDX 22 1 21 2 20 3 18 4 19 5 17 6 16 7 11 8 12 9 13 10 15 11
REMARK SMILES IDX 14 12 10 13 9 15 3 16 4 17 5 18 7 19 6 20 8 21 2 22 1 23
REMARK SMILES IDX 23 24 24 25 25 26 26 27 27 28 28 29 29 30 30 31 91 32 31 33
REMARK SMILES IDX 90 34 32 35 33 36 34 37 84 38 35 39 89 40 83 41 85 42 36 43
REMARK SMILES IDX 88 44 82 45 81 46 37 48 69 49 49 50 68 51 50 52 53 53 67 54
REMARK SMILES IDX 86 55 51 56 52 57 66 59 87 60 54 61 38 62 39 63 47 64 40 65
REMARK SMILES IDX 46 66 48 67 45 68 41 69 42 70 43 71 44 72 70 73 71 74 79 75
REMARK SMILES IDX 72 76 78 77 80 78 77 79 73 80 74 81 75 82 76 83 55 84 56 85
REMARK SMILES IDX 64 86 57 87 63 88 65 89 62 90 58 91 59 92 60 93 61 94
REMARK H PARENT 10 14 85 47 53 58
REMARK Flexibility Score: inf
ROOT
ATOM      1  C   UNL A   1      41.189  34.520  34.966  1.00  0.00     0.202 C 
ENDROOT
BRANCH   1   2
ATOM      2  C   UNL A   1      42.177  35.591  33.663  1.00  0.00     0.261 C 
BRANCH   2   3
ATOM      3  O   UNL A   1      42.588  34.943  31.993  1.00  0.00    -0.463 OA
BRANCH   3   4
ATOM      4  C   UNL A   1      42.073  34.472  30.745  1.00  0.00     0.310 C 
ATOM      5  O   UNL A   1      42.626  34.988  29.751  1.00  0.00    -0.252 OA
BRANCH   4   6
ATOM      6  C   UNL A   1      40.809  33.417  30.297  1.00  0.00     0.160 C 
BRANCH   6   7
ATOM      7  C   UNL A   1      40.269  31.712  30.388  1.00  0.00    -0.013 A 
ATOM      8  C   UNL A   1      39.139  30.737  31.181  1.00  0.00     0.042 A 
ATOM      9  C   UNL A   1      39.185  29.355  30.962  1.00  0.00     0.026 A 
ATOM     10  C   UNL A   1      40.143  28.867  30.045  1.00  0.00     0.002 A 
ATOM     11  C   UNL A   1      41.168  31.044  29.536  1.00  0.00     0.006 A 
ATOM     12  C   UNL A   1      41.074  29.672  29.350  1.00  0.00     0.000 A 
BRANCH   8  13
ATOM     13  N   UNL A   1      37.473  31.210  31.701  1.00  0.00    -0.355 N 
ATOM     14  H   UNL A   1      37.385  31.497  32.639  1.00  0.00     0.167 HD
BRANCH  13  15
ATOM     15  C   UNL A   1      35.898  31.228  30.700  1.00  0.00     0.045 A 
ATOM     16  C   UNL A   1      35.011  32.706  31.185  1.00  0.00    -0.024 A 
ATOM     17  C   UNL A   1      34.608  33.930  29.997  1.00  0.00     0.006 A 
ATOM     18  C   UNL A   1      35.255  34.009  28.422  1.00  0.00     0.001 A 
ATOM     19  C   UNL A   1      36.354  31.040  28.781  1.00  0.00    -0.027 A 
ATOM     20  C   UNL A   1      36.228  32.698  27.822  1.00  0.00     0.005 A 
ATOM     21  C   UNL A   1      37.022  29.495  28.024  1.00  0.00     0.046 C 
BRANCH  16  22
ATOM     22  C   UNL A   1      35.349  33.566  32.431  1.00  0.00     0.034 C 
ATOM     23  C   UNL A   1      34.400  33.455  33.626  1.00  0.00     0.009 C 
ENDBRANCH  16  22
ENDBRANCH  13  15
ENDBRANCH   8  13
ENDBRANCH   6   7
ENDBRANCH   4   6
ENDBRANCH   3   4
ENDBRANCH   2   3
ENDBRANCH   1   2
BRANCH   1  24
ATOM     24  O   UNL A   1      39.925  33.307  34.005  1.00  0.00    -0.374 OA
BRANCH  24  25
ATOM     25  C   UNL A   1      38.474  32.752  34.859  1.00  0.00     0.202 C 
BRANCH  25  26
ATOM     26  C   UNL A   1      38.425  30.640  34.960  1.00  0.00     0.261 C 
BRANCH  26  27
ATOM     27  O   UNL A   1      39.738  29.531  34.299  1.00  0.00    -0.460 OA
BRANCH  27  28
ATOM     28  C   UNL A   1      40.889  28.745  34.061  1.00  0.00     0.338 C 
ATOM     29  O   UNL A   1      40.814  27.527  34.268  1.00  0.00    -0.246 OA
BRANCH  28  30
ATOM     30  C   UNL A   1      42.329  29.150  33.524  1.00  0.00     0.060 A 
ATOM     31  C   UNL A   1      42.594  30.304  32.781  1.00  0.00     0.016 A 
ATOM     32  C   UNL A   1      43.524  28.465  33.811  1.00  0.00     0.016 A 
ATOM     33  C   UNL A   1      43.739  30.385  31.907  1.00  0.00     0.010 A 
ATOM     34  C   UNL A   1      44.657  28.527  32.918  1.00  0.00     0.010 A 
ATOM     35  C   UNL A   1      44.606  29.299  31.749  1.00  0.00    -0.014 A 
BRANCH  35  36
ATOM     36  C   UNL A   1      44.922  28.705  30.324  1.00  0.00     0.031 A 
ATOM     37  C   UNL A   1      44.594  27.294  29.842  1.00  0.00     0.074 A 
ATOM     38  C   UNL A   1      45.001  29.569  29.250  1.00  0.00     0.049 A 
ATOM     39  N   UNL A   1      45.215  26.674  28.880  1.00  0.00    -0.248 NA
ATOM     40  C   UNL A   1      43.440  26.520  30.308  1.00  0.00     0.031 C 
ATOM     41  C   UNL A   1      44.722  29.313  27.818  1.00  0.00     0.029 A 
ATOM     42  N   UNL A   1      45.137  30.954  29.259  1.00  0.00    -0.354 N 
ATOM     43  C   UNL A   1      44.431  25.594  28.472  1.00  0.00     0.074 A 
ATOM     44  C   UNL A   1      43.437  25.452  29.502  1.00  0.00     0.031 C 
ATOM     45  C   UNL A   1      44.847  30.446  27.103  1.00  0.00     0.029 A 
ATOM     46  C   UNL A   1      45.358  31.474  27.976  1.00  0.00     0.049 A 
ATOM     47  H   UNL A   1      45.084  31.505  30.074  1.00  0.00     0.167 HD
ATOM     48  C   UNL A   1      44.498  25.046  27.213  1.00  0.00     0.034 A 
ATOM     49  C   UNL A   1      46.490  32.207  27.783  1.00  0.00     0.034 A 
ATOM     50  C   UNL A   1      45.186  25.956  26.283  1.00  0.00     0.049 A 
ATOM     51  C   UNL A   1      47.546  31.234  27.252  1.00  0.00     0.074 A 
ATOM     52  C   UNL A   1      44.811  26.705  25.177  1.00  0.00     0.029 A 
ATOM     53  N   UNL A   1      46.438  26.423  26.617  1.00  0.00    -0.354 N 
ATOM     54  N   UNL A   1      47.254  30.176  26.529  1.00  0.00    -0.248 NA
ATOM     55  C   UNL A   1      48.973  31.295  27.543  1.00  0.00     0.031 C 
ATOM     56  C   UNL A   1      45.854  27.658  24.908  1.00  0.00     0.029 A 
ATOM     57  C   UNL A   1      46.885  27.445  25.806  1.00  0.00     0.049 A 
ATOM     58  H   UNL A   1      46.965  26.062  27.366  1.00  0.00     0.167 HD
ATOM     59  C   UNL A   1      48.309  29.306  26.509  1.00  0.00     0.074 A 
ATOM     60  C   UNL A   1      49.394  30.100  27.086  1.00  0.00     0.031 C 
ATOM     61  C   UNL A   1      48.208  27.995  26.096  1.00  0.00     0.034 A 
BRANCH  48  62
ATOM     62  C   UNL A   1      43.779  23.772  26.721  1.00  0.00     0.023 A 
ATOM     63  C   UNL A   1      44.523  22.737  26.100  1.00  0.00     0.031 A 
ATOM     64  C   UNL A   1      42.414  23.451  26.929  1.00  0.00     0.131 A 
ATOM     65  C   UNL A   1      43.922  21.528  25.668  1.00  0.00     0.055 A 
ATOM     66  C   UNL A   1      41.806  22.274  26.453  1.00  0.00     0.041 A 
ATOM     67  F   UNL A   1      41.606  24.216  27.673  1.00  0.00    -0.206 F 
ATOM     68  C   UNL A   1      42.558  21.304  25.817  1.00  0.00     0.022 A 
BRANCH  65  69
ATOM     69  S   UNL A   1      44.953  20.212  24.949  1.00  0.00     0.124 S 
ATOM     70  O   UNL A   1      44.445  19.022  25.622  1.00  0.00    -0.237 OA
ATOM     71  O   UNL A   1      44.660  20.330  23.526  1.00  0.00    -0.237 OA
ATOM     72  O   UNL A   1      46.313  20.597  25.327  1.00  0.00    -0.744 OA
ENDBRANCH  65  69
ENDBRANCH  48  62
BRANCH  49  73
ATOM     73  C   UNL A   1      46.510  33.279  28.856  1.00  0.00     0.023 A 
ATOM     74  C   UNL A   1      47.603  33.200  29.772  1.00  0.00     0.031 A 
ATOM     75  C   UNL A   1      45.959  34.557  28.652  1.00  0.00     0.131 A 
ATOM     76  C   UNL A   1      48.222  34.362  30.275  1.00  0.00     0.055 A 
ATOM     77  C   UNL A   1      46.562  35.711  29.189  1.00  0.00     0.041 A 
ATOM     78  F   UNL A   1      44.979  34.741  27.753  1.00  0.00    -0.206 F 
ATOM     79  C   UNL A   1      47.731  35.622  29.947  1.00  0.00     0.022 A 
BRANCH  76  80
ATOM     80  S   UNL A   1      49.810  34.254  31.169  1.00  0.00     0.124 S 
ATOM     81  O   UNL A   1      50.433  33.100  30.531  1.00  0.00    -0.237 OA
ATOM     82  O   UNL A   1      50.430  35.549  30.902  1.00  0.00    -0.237 OA
ATOM     83  O   UNL A   1      49.391  34.057  32.554  1.00  0.00    -0.744 OA
ENDBRANCH  76  80
ENDBRANCH  49  73
BRANCH  61  84
ATOM     84  C   UNL A   1      49.410  27.073  25.999  1.00  0.00     0.023 A 
ATOM     85  C   UNL A   1      50.265  27.177  24.902  1.00  0.00     0.031 A 
ATOM     86  C   UNL A   1      49.722  26.034  26.915  1.00  0.00     0.131 A 
ATOM     87  C   UNL A   1      51.449  26.435  24.838  1.00  0.00     0.055 A 
ATOM     88  C   UNL A   1      50.835  25.202  26.778  1.00  0.00     0.041 A 
ATOM     89  F   UNL A   1      49.001  25.786  28.016  1.00  0.00    -0.206 F 
ATOM     90  C   UNL A   1      51.733  25.427  25.753  1.00  0.00     0.022 A 
BRANCH  87  91
ATOM     91  S   UNL A   1      52.670  26.942  23.612  1.00  0.00     0.124 S 
ATOM     92  O   UNL A   1      52.875  25.721  22.841  1.00  0.00    -0.237 OA
ATOM     93  O   UNL A   1      51.956  28.014  22.920  1.00  0.00    -0.237 OA
ATOM     94  O   UNL A   1      53.808  27.372  24.419  1.00  0.00    -0.744 OA
ENDBRANCH  87  91
ENDBRANCH  61  84
ENDBRANCH  35  36
ENDBRANCH  28  30
ENDBRANCH  27  28
ENDBRANCH  26  27
ENDBRANCH  25  26
ENDBRANCH  24  25
ENDBRANCH   1  24
TORSDOF 21
ENDMDL
MODEL 3
REMARK VINA RESULT:     -12.9      8.083     14.909
REMARK SMILES CCc1cccc(C)c1Nc1ccccc1CC(=O)OCCOCCOC(=O)c1ccc(-c2c3nc(c(-c4cc(S(=O)(=O)[O-])ccc4F)c4ccc([nH]4)c(-c4cc(S(=O)(=O)[O-])ccc4F)c4nc(c(-c5cc(S(=O)(=O)[O-])ccc5F)c5ccc2[nH]5)C=C4)C=C3)cc1
REMARK SMILES IDX 22 1 21 2 20 3 18 4 19 5 17 6 16 7 11 8 12 9 13 10 15 11
REMARK SMILES IDX 14 12 10 13 9 15 3 16 4 17 5 18 7 19 6 20 8 21 2 22 1 23
REMARK SMILES IDX 23 24 24 25 25 26 26 27 27 28 28 29 29 30 30 31 91 32 31 33
REMARK SMILES IDX 90 34 32 35 33 36 34 37 84 38 35 39 89 40 83 41 85 42 36 43
REMARK SMILES IDX 88 44 82 45 81 46 37 48 69 49 49 50 68 51 50 52 53 53 67 54
REMARK SMILES IDX 86 55 51 56 52 57 66 59 87 60 54 61 38 62 39 63 47 64 40 65
REMARK SMILES IDX 46 66 48 67 45 68 41 69 42 70 43 71 44 72 70 73 71 74 79 75
REMARK SMILES IDX 72 76 78 77 80 78 77 79 73 80 74 81 75 82 76 83 55 84 56 85
REMARK SMILES IDX 64 86 57 87 63 88 65 89 62 90 58 91 59 92 60 93 61 94
REMARK H PARENT 10 14 85 47 53 58
REMARK Flexibility Score: inf
ROOT
ATOM      1  C   UNL A   1      52.204  30.575  30.499  1.00  0.00     0.202 C 
ENDROOT
BRANCH   1   2
ATOM      2  C   UNL A   1      51.808  30.453  28.589  1.00  0.00     0.261 C 
BRANCH   2   3
ATOM      3  O   UNL A   1      50.108  30.699  27.937  1.00  0.00    -0.463 OA
BRANCH   3   4
ATOM      4  C   UNL A   1      48.717  30.788  28.257  1.00  0.00     0.310 C 
ATOM      5  O   UNL A   1      48.342  31.948  28.529  1.00  0.00    -0.252 OA
BRANCH   4   6
ATOM      6  C   UNL A   1      47.457  29.651  28.435  1.00  0.00     0.160 C 
BRANCH   6   7
ATOM      7  C   UNL A   1      47.109  27.894  28.453  1.00  0.00    -0.013 A 
ATOM      8  C   UNL A   1      46.035  26.766  27.797  1.00  0.00     0.042 A 
ATOM      9  C   UNL A   1      46.128  25.436  28.224  1.00  0.00     0.026 A 
ATOM     10  C   UNL A   1      47.154  25.110  29.139  1.00  0.00     0.002 A 
ATOM     11  C   UNL A   1      48.044  27.390  29.376  1.00  0.00     0.006 A 
ATOM     12  C   UNL A   1      48.080  26.035  29.673  1.00  0.00     0.000 A 
BRANCH   8  13
ATOM     13  N   UNL A   1      45.268  26.822  26.161  1.00  0.00    -0.355 N 
ATOM     14  H   UNL A   1      45.756  26.355  25.445  1.00  0.00     0.167 HD
BRANCH  13  15
ATOM     15  C   UNL A   1      43.673  27.647  25.648  1.00  0.00     0.045 A 
ATOM     16  C   UNL A   1      42.404  26.388  25.741  1.00  0.00    -0.024 A 
ATOM     17  C   UNL A   1      41.018  26.601  26.792  1.00  0.00     0.006 A 
ATOM     18  C   UNL A   1      40.890  27.790  28.007  1.00  0.00     0.001 A 
ATOM     19  C   UNL A   1      43.410  29.275  26.744  1.00  0.00    -0.027 A 
ATOM     20  C   UNL A   1      42.096  29.037  28.124  1.00  0.00     0.005 A 
ATOM     21  C   UNL A   1      44.445  30.796  26.601  1.00  0.00     0.046 C 
BRANCH  16  22
ATOM     22  C   UNL A   1      42.681  24.867  25.878  1.00  0.00     0.034 C 
ATOM     23  C   UNL A   1      43.457  24.200  24.740  1.00  0.00     0.009 C 
ENDBRANCH  16  22
ENDBRANCH  13  15
ENDBRANCH   8  13
ENDBRANCH   6   7
ENDBRANCH   4   6
ENDBRANCH   3   4
ENDBRANCH   2   3
ENDBRANCH   1   2
BRANCH   1  24
ATOM     24  O   UNL A   1      51.008  29.329  31.505  1.00  0.00    -0.374 OA
BRANCH  24  25
ATOM     25  C   UNL A   1      49.311  29.787  31.733  1.00  0.00     0.202 C 
BRANCH  25  26
ATOM     26  C   UNL A   1      49.152  31.817  32.307  1.00  0.00     0.261 C 
BRANCH  26  27
ATOM     27  O   UNL A   1      47.681  32.879  31.991  1.00  0.00    -0.460 OA
BRANCH  27  28
ATOM     28  C   UNL A   1      46.699  33.761  31.483  1.00  0.00     0.338 C 
ATOM     29  O   UNL A   1      46.808  34.965  31.744  1.00  0.00    -0.246 OA
BRANCH  28  30
ATOM     30  C   UNL A   1      45.427  33.483  30.571  1.00  0.00     0.060 A 
ATOM     31  C   UNL A   1      44.559  34.476  30.110  1.00  0.00     0.016 A 
ATOM     32  C   UNL A   1      45.075  32.232  30.029  1.00  0.00     0.016 A 
ATOM     33  C   UNL A   1      43.198  34.170  29.743  1.00  0.00     0.010 A 
ATOM     34  C   UNL A   1      43.706  31.922  29.691  1.00  0.00     0.010 A 
ATOM     35  C   UNL A   1      42.691  32.872  29.866  1.00  0.00    -0.014 A 
BRANCH  35  36
ATOM     36  C   UNL A   1      41.387  32.579  30.700  1.00  0.00     0.031 A 
ATOM     37  C   UNL A   1      40.089  33.382  30.657  1.00  0.00     0.074 A 
ATOM     38  C   UNL A   1      41.132  31.281  31.095  1.00  0.00     0.049 A 
ATOM     39  N   UNL A   1      39.209  33.425  31.615  1.00  0.00    -0.248 NA
ATOM     40  C   UNL A   1      39.605  34.087  29.466  1.00  0.00     0.031 C 
ATOM     41  C   UNL A   1      39.832  30.619  31.354  1.00  0.00     0.029 A 
ATOM     42  N   UNL A   1      42.003  30.197  31.127  1.00  0.00    -0.354 N 
ATOM     43  C   UNL A   1      38.016  33.932  31.099  1.00  0.00     0.074 A 
ATOM     44  C   UNL A   1      38.376  34.479  29.817  1.00  0.00     0.031 C 
ATOM     45  C   UNL A   1      40.016  29.318  31.648  1.00  0.00     0.029 A 
ATOM     46  C   UNL A   1      41.434  29.077  31.750  1.00  0.00     0.049 A 
ATOM     47  H   UNL A   1      42.914  30.215  30.755  1.00  0.00     0.167 HD
ATOM     48  C   UNL A   1      36.782  33.659  31.639  1.00  0.00     0.034 A 
ATOM     49  C   UNL A   1      42.088  28.559  32.826  1.00  0.00     0.034 A 
ATOM     50  C   UNL A   1      36.855  32.503  32.548  1.00  0.00     0.049 A 
ATOM     51  C   UNL A   1      41.457  29.203  34.064  1.00  0.00     0.074 A 
ATOM     52  C   UNL A   1      36.362  31.206  32.537  1.00  0.00     0.029 A 
ATOM     53  N   UNL A   1      37.780  32.520  33.570  1.00  0.00    -0.354 N 
ATOM     54  N   UNL A   1      40.202  29.589  34.115  1.00  0.00    -0.248 NA
ATOM     55  C   UNL A   1      42.165  29.548  35.290  1.00  0.00     0.031 C 
ATOM     56  C   UNL A   1      37.062  30.454  33.543  1.00  0.00     0.029 A 
ATOM     57  C   UNL A   1      37.929  31.306  34.205  1.00  0.00     0.049 A 
ATOM     58  H   UNL A   1      38.287  33.325  33.822  1.00  0.00     0.167 HD
ATOM     59  C   UNL A   1      40.008  30.444  35.165  1.00  0.00     0.074 A 
ATOM     60  C   UNL A   1      41.253  30.312  35.923  1.00  0.00     0.031 C 
ATOM     61  C   UNL A   1      38.893  31.242  35.302  1.00  0.00     0.034 A 
BRANCH  48  62
ATOM     62  C   UNL A   1      35.433  34.283  31.225  1.00  0.00     0.023 A 
ATOM     63  C   UNL A   1      34.807  35.235  32.069  1.00  0.00     0.031 A 
ATOM     64  C   UNL A   1      34.771  34.092  29.987  1.00  0.00     0.131 A 
ATOM     65  C   UNL A   1      33.590  35.872  31.718  1.00  0.00     0.055 A 
ATOM     66  C   UNL A   1      33.536  34.683  29.661  1.00  0.00     0.041 A 
ATOM     67  F   UNL A   1      35.315  33.388  28.987  1.00  0.00    -0.206 F 
ATOM     68  C   UNL A   1      32.936  35.578  30.528  1.00  0.00     0.022 A 
BRANCH  65  69
ATOM     69  S   UNL A   1      32.884  37.141  32.815  1.00  0.00     0.124 S 
ATOM     70  O   UNL A   1      33.104  38.364  32.052  1.00  0.00    -0.237 OA
ATOM     71  O   UNL A   1      31.502  36.698  32.954  1.00  0.00    -0.237 OA
ATOM     72  O   UNL A   1      33.688  37.025  34.033  1.00  0.00    -0.744 OA
ENDBRANCH  65  69
ENDBRANCH  48  62
BRANCH  49  73
ATOM     73  C   UNL A   1      43.523  28.318  32.398  1.00  0.00     0.023 A 
ATOM     74  C   UNL A   1      44.512  28.658  33.371  1.00  0.00     0.031 A 
ATOM     75  C   UNL A   1      43.875  27.316  31.475  1.00  0.00     0.131 A 
ATOM     76  C   UNL A   1      45.682  27.887  33.525  1.00  0.00     0.055 A 
ATOM     77  C   UNL A   1      45.065  26.575  31.614  1.00  0.00     0.041 A 
ATOM     78  F   UNL A   1      42.983  26.878  30.572  1.00  0.00    -0.206 F 
ATOM     79  C   UNL A   1      45.939  26.815  32.676  1.00  0.00     0.022 A 
BRANCH  76  80
ATOM     80  S   UNL A   1      46.765  28.125  34.975  1.00  0.00     0.124 S 
ATOM     81  O   UNL A   1      45.793  28.243  36.057  1.00  0.00    -0.237 OA
ATOM     82  O   UNL A   1      47.587  26.918  34.978  1.00  0.00    -0.237 OA
ATOM     83  O   UNL A   1      47.489  29.351  34.644  1.00  0.00    -0.744 OA
ENDBRANCH  76  80
ENDBRANCH  49  73
BRANCH  61  84
ATOM     84  C   UNL A   1      38.660  32.118  36.519  1.00  0.00     0.023 A 
ATOM     85  C   UNL A   1      37.741  31.712  37.487  1.00  0.00     0.031 A 
ATOM     86  C   UNL A   1      39.256  33.387  36.743  1.00  0.00     0.131 A 
ATOM     87  C   UNL A   1      37.589  32.426  38.681  1.00  0.00     0.055 A 
ATOM     88  C   UNL A   1      39.001  34.163  37.876  1.00  0.00     0.041 A 
ATOM     89  F   UNL A   1      40.150  33.934  35.909  1.00  0.00    -0.206 F 
ATOM     90  C   UNL A   1      38.191  33.664  38.877  1.00  0.00     0.022 A 
BRANCH  87  91
ATOM     91  S   UNL A   1      36.707  31.605  40.022  1.00  0.00     0.124 S 
ATOM     92  O   UNL A   1      35.660  30.875  39.316  1.00  0.00    -0.237 OA
ATOM     93  O   UNL A   1      37.767  30.783  40.603  1.00  0.00    -0.237 OA
ATOM     94  O   UNL A   1      36.247  32.710  40.857  1.00  0.00    -0.744 OA
ENDBRANCH  87  91
ENDBRANCH  61  84
ENDBRANCH  35  36
ENDBRANCH  28  30
ENDBRANCH  27  28
ENDBRANCH  26  27
ENDBRANCH  25  26
ENDBRANCH  24  25
ENDBRANCH   1  24
TORSDOF 21
ENDMDL
