MODEL 1
REMARK VINA RESULT:     -11.6      0.000      0.000
REMARK SMILES O=C(Nc1cccc(C(=O)OCCOCCOC(=O)c2ccc(-c3c4nc(c(-c5cc(S(=O)(=O)[O-])ccc5F)c5ccc([nH]5)c(-c5cc(S(=O)(=O)[O-])ccc5F)c5nc(c(-c6cc(S(=O)(=O)[O-])ccc6F)c6ccc3[nH]6)C=C5)C=C4)cc2)c1)Nc1cc(Cl)c(Cl)cc1Cl
REMARK SMILES IDX 15 1 14 2 13 3 12 4 11 5 9 6 10 7 8 8 4 9 5 10 83 11 6 12
REMARK SMILES IDX 7 13 3 14 1 15 2 16 84 17 85 20 86 21 92 22 87 23 91 24
REMARK SMILES IDX 93 25 88 26 89 27 90 28 16 29 17 30 18 31 19 32 20 33 21 34
REMARK SMILES IDX 82 35 22 36 81 37 23 38 24 39 25 40 75 41 26 42 80 43 74 44
REMARK SMILES IDX 76 45 27 46 79 47 73 48 72 49 28 51 60 52 40 53 59 54 41 55
REMARK SMILES IDX 44 56 58 57 77 58 42 59 43 60 57 62 78 63 45 64 29 65 30 66
REMARK SMILES IDX 38 67 31 68 37 69 39 70 36 71 32 72 33 73 34 74 35 75 61 76
REMARK SMILES IDX 62 77 70 78 63 79 69 80 71 81 68 82 64 83 65 84 66 85 67 86
REMARK SMILES IDX 46 87 47 88 55 89 48 90 54 91 56 92 53 93 49 94 50 95 51 96
REMARK SMILES IDX 52 97
REMARK H PARENT 3 18 84 19 76 50 44 61
REMARK Flexibility Score: inf
ROOT
ATOM      1  C   UNL A   1      37.061  20.525  24.887  1.00  0.00     0.202 C 
ENDROOT
BRANCH   1   2
ATOM      2  O   UNL A   1      36.495  21.516  25.745  1.00  0.00    -0.374 OA
BRANCH   2   3
ATOM      3  C   UNL A   1      36.604  22.877  25.322  1.00  0.00     0.202 C 
BRANCH   3   4
ATOM      4  C   UNL A   1      36.741  23.104  23.812  1.00  0.00     0.261 C 
BRANCH   4   5
ATOM      5  O   UNL A   1      35.588  22.612  23.109  1.00  0.00    -0.460 OA
BRANCH   5   6
ATOM      6  C   UNL A   1      34.520  23.443  23.083  1.00  0.00     0.338 C 
ATOM      7  O   UNL A   1      34.381  24.448  22.405  1.00  0.00    -0.246 OA
BRANCH   6   8
ATOM      8  C   UNL A   1      33.425  22.873  23.906  1.00  0.00     0.062 A 
ATOM      9  C   UNL A   1      31.517  23.094  25.384  1.00  0.00     0.043 A 
ATOM     10  C   UNL A   1      31.434  21.700  25.463  1.00  0.00     0.026 A 
ATOM     11  C   UNL A   1      32.558  23.677  24.653  1.00  0.00     0.041 A 
ATOM     12  C   UNL A   1      32.316  20.894  24.742  1.00  0.00     0.003 A 
ATOM     13  C   UNL A   1      33.296  21.480  23.944  1.00  0.00     0.016 A 
BRANCH   9  14
ATOM     14  N   UNL A   1      30.524  23.836  26.048  1.00  0.00    -0.308 N 
ATOM     15  O   UNL A   1      29.232  25.568  26.619  1.00  0.00    -0.248 OA
ATOM     16  C   UNL A   1      30.056  25.110  25.835  1.00  0.00     0.323 C 
ATOM     17  N   UNL A   1      30.430  25.686  24.652  1.00  0.00    -0.306 N 
ATOM     18  H   UNL A   1      30.091  23.362  26.794  1.00  0.00     0.171 HD
ATOM     19  H   UNL A   1      30.889  25.095  24.012  1.00  0.00     0.171 HD
BRANCH  17  20
ATOM     20  C   UNL A   1      30.242  27.019  24.233  1.00  0.00     0.063 A 
ATOM     21  C   UNL A   1      28.968  27.293  23.710  1.00  0.00     0.049 A 
ATOM     22  C   UNL A   1      31.192  28.052  24.276  1.00  0.00     0.066 A 
ATOM     23  C   UNL A   1      28.600  28.591  23.357  1.00  0.00     0.061 A 
ATOM     24  C   UNL A   1      30.819  29.358  23.928  1.00  0.00     0.044 A 
ATOM     25  Cl  UNL A   1      32.874  27.792  24.577  1.00  0.00    -0.082 Cl
ATOM     26  Cl  UNL A   1      26.993  28.832  22.770  1.00  0.00    -0.083 Cl
ATOM     27  C   UNL A   1      29.516  29.633  23.506  1.00  0.00     0.061 A 
ATOM     28  Cl  UNL A   1      29.082  31.271  23.204  1.00  0.00    -0.083 Cl
ENDBRANCH  17  20
ENDBRANCH   9  14
ENDBRANCH   6   8
ENDBRANCH   5   6
ENDBRANCH   4   5
ENDBRANCH   3   4
ENDBRANCH   2   3
ENDBRANCH   1   2
BRANCH   1  29
ATOM     29  C   UNL A   1      38.294  19.774  25.407  1.00  0.00     0.261 C 
BRANCH  29  30
ATOM     30  O   UNL A   1      39.456  20.616  25.477  1.00  0.00    -0.460 OA
BRANCH  30  31
ATOM     31  C   UNL A   1      40.110  20.578  26.667  1.00  0.00     0.338 C 
ATOM     32  O   UNL A   1      40.513  19.586  27.250  1.00  0.00    -0.246 OA
BRANCH  31  33
ATOM     33  C   UNL A   1      40.448  21.951  27.090  1.00  0.00     0.060 A 
ATOM     34  C   UNL A   1      39.792  23.007  26.446  1.00  0.00     0.016 A 
ATOM     35  C   UNL A   1      41.419  22.206  28.061  1.00  0.00     0.016 A 
ATOM     36  C   UNL A   1      40.127  24.326  26.749  1.00  0.00     0.010 A 
ATOM     37  C   UNL A   1      41.759  23.531  28.356  1.00  0.00     0.010 A 
ATOM     38  C   UNL A   1      41.131  24.596  27.687  1.00  0.00    -0.014 A 
BRANCH  38  39
ATOM     39  C   UNL A   1      41.595  25.992  27.890  1.00  0.00     0.031 A 
ATOM     40  C   UNL A   1      42.945  26.402  27.367  1.00  0.00     0.074 A 
ATOM     41  C   UNL A   1      40.812  26.887  28.519  1.00  0.00     0.049 A 
ATOM     42  N   UNL A   1      43.571  27.544  27.490  1.00  0.00    -0.248 NA
ATOM     43  C   UNL A   1      43.687  25.385  26.607  1.00  0.00     0.031 C 
ATOM     44  C   UNL A   1      39.466  26.619  29.029  1.00  0.00     0.029 A 
ATOM     45  N   UNL A   1      41.038  28.201  28.843  1.00  0.00    -0.354 N 
ATOM     46  C   UNL A   1      44.784  27.385  26.827  1.00  0.00     0.074 A 
ATOM     47  C   UNL A   1      44.816  26.022  26.336  1.00  0.00     0.031 C 
ATOM     48  C   UNL A   1      38.990  27.734  29.609  1.00  0.00     0.029 A 
ATOM     49  C   UNL A   1      40.012  28.778  29.552  1.00  0.00     0.049 A 
ATOM     50  H   UNL A   1      41.858  28.683  28.590  1.00  0.00     0.167 HD
ATOM     51  C   UNL A   1      45.774  28.294  26.641  1.00  0.00     0.034 A 
ATOM     52  C   UNL A   1      39.923  29.997  30.122  1.00  0.00     0.034 A 
ATOM     53  C   UNL A   1      45.731  29.643  27.151  1.00  0.00     0.049 A 
ATOM     54  C   UNL A   1      41.086  30.952  29.998  1.00  0.00     0.074 A 
ATOM     55  C   UNL A   1      46.669  30.652  27.001  1.00  0.00     0.029 A 
ATOM     56  N   UNL A   1      44.706  30.171  27.925  1.00  0.00    -0.354 N 
ATOM     57  N   UNL A   1      42.225  30.792  29.367  1.00  0.00    -0.248 NA
ATOM     58  C   UNL A   1      40.948  32.250  30.672  1.00  0.00     0.031 C 
ATOM     59  C   UNL A   1      46.250  31.757  27.751  1.00  0.00     0.029 A 
ATOM     60  C   UNL A   1      45.010  31.472  28.298  1.00  0.00     0.049 A 
ATOM     61  H   UNL A   1      43.882  29.691  28.173  1.00  0.00     0.167 HD
ATOM     62  C   UNL A   1      42.928  31.982  29.546  1.00  0.00     0.074 A 
ATOM     63  C   UNL A   1      42.077  32.852  30.331  1.00  0.00     0.031 C 
ATOM     64  C   UNL A   1      44.163  32.325  29.098  1.00  0.00     0.034 A 
BRANCH  51  65
ATOM     65  C   UNL A   1      47.008  27.837  25.898  1.00  0.00     0.023 A 
ATOM     66  C   UNL A   1      47.185  28.088  24.527  1.00  0.00     0.031 A 
ATOM     67  C   UNL A   1      48.014  27.121  26.572  1.00  0.00     0.131 A 
ATOM     68  C   UNL A   1      48.306  27.571  23.859  1.00  0.00     0.055 A 
ATOM     69  C   UNL A   1      49.166  26.679  25.919  1.00  0.00     0.041 A 
ATOM     70  F   UNL A   1      47.891  26.831  27.877  1.00  0.00    -0.206 F 
ATOM     71  C   UNL A   1      49.310  26.889  24.551  1.00  0.00     0.022 A 
BRANCH  68  72
ATOM     72  S   UNL A   1      48.363  27.676  22.050  1.00  0.00     0.124 S 
ATOM     73  O   UNL A   1      48.603  26.284  21.679  1.00  0.00    -0.237 OA
ATOM     74  O   UNL A   1      47.044  28.207  21.723  1.00  0.00    -0.237 OA
ATOM     75  O   UNL A   1      49.481  28.582  21.794  1.00  0.00    -0.744 OA
ENDBRANCH  68  72
ENDBRANCH  51  65
BRANCH  52  76
ATOM     76  C   UNL A   1      38.725  30.375  30.923  1.00  0.00     0.023 A 
ATOM     77  C   UNL A   1      37.643  31.053  30.339  1.00  0.00     0.031 A 
ATOM     78  C   UNL A   1      38.689  30.139  32.308  1.00  0.00     0.131 A 
ATOM     79  C   UNL A   1      36.590  31.512  31.146  1.00  0.00     0.055 A 
ATOM     80  C   UNL A   1      37.620  30.564  33.095  1.00  0.00     0.041 A 
ATOM     81  F   UNL A   1      39.698  29.495  32.917  1.00  0.00    -0.206 F 
ATOM     82  C   UNL A   1      36.564  31.258  32.518  1.00  0.00     0.022 A 
BRANCH  79  83
ATOM     83  S   UNL A   1      35.300  32.540  30.393  1.00  0.00     0.124 S 
ATOM     84  O   UNL A   1      34.297  32.575  31.450  1.00  0.00    -0.237 OA
ATOM     85  O   UNL A   1      36.014  33.788  30.143  1.00  0.00    -0.237 OA
ATOM     86  O   UNL A   1      34.922  31.792  29.196  1.00  0.00    -0.744 OA
ENDBRANCH  79  83
ENDBRANCH  52  76
BRANCH  64  87
ATOM     87  C   UNL A   1      44.647  33.720  29.418  1.00  0.00     0.023 A 
ATOM     88  C   UNL A   1      44.301  34.825  28.621  1.00  0.00     0.031 A 
ATOM     89  C   UNL A   1      45.474  33.943  30.534  1.00  0.00     0.131 A 
ATOM     90  C   UNL A   1      44.824  36.093  28.919  1.00  0.00     0.055 A 
ATOM     91  C   UNL A   1      45.939  35.218  30.862  1.00  0.00     0.041 A 
ATOM     92  F   UNL A   1      45.841  32.924  31.327  1.00  0.00    -0.206 F 
ATOM     93  C   UNL A   1      45.624  36.300  30.046  1.00  0.00     0.022 A 
BRANCH  90  94
ATOM     94  S   UNL A   1      44.515  37.459  27.764  1.00  0.00     0.124 S 
ATOM     95  O   UNL A   1      43.570  36.857  26.830  1.00  0.00    -0.237 OA
ATOM     96  O   UNL A   1      43.975  38.494  28.640  1.00  0.00    -0.237 OA
ATOM     97  O   UNL A   1      45.838  37.745  27.211  1.00  0.00    -0.744 OA
ENDBRANCH  90  94
ENDBRANCH  64  87
ENDBRANCH  38  39
ENDBRANCH  31  33
ENDBRANCH  30  31
ENDBRANCH  29  30
ENDBRANCH   1  29
TORSDOF 19
ENDMDL
MODEL 2
REMARK VINA RESULT:     -11.5      5.554      8.925
REMARK SMILES O=C(Nc1cccc(C(=O)OCCOCCOC(=O)c2ccc(-c3c4nc(c(-c5cc(S(=O)(=O)[O-])ccc5F)c5ccc([nH]5)c(-c5cc(S(=O)(=O)[O-])ccc5F)c5nc(c(-c6cc(S(=O)(=O)[O-])ccc6F)c6ccc3[nH]6)C=C5)C=C4)cc2)c1)Nc1cc(Cl)c(Cl)cc1Cl
REMARK SMILES IDX 15 1 14 2 13 3 12 4 11 5 9 6 10 7 8 8 4 9 5 10 83 11 6 12
REMARK SMILES IDX 7 13 3 14 1 15 2 16 84 17 85 20 86 21 92 22 87 23 91 24
REMARK SMILES IDX 93 25 88 26 89 27 90 28 16 29 17 30 18 31 19 32 20 33 21 34
REMARK SMILES IDX 82 35 22 36 81 37 23 38 24 39 25 40 75 41 26 42 80 43 74 44
REMARK SMILES IDX 76 45 27 46 79 47 73 48 72 49 28 51 60 52 40 53 59 54 41 55
REMARK SMILES IDX 44 56 58 57 77 58 42 59 43 60 57 62 78 63 45 64 29 65 30 66
REMARK SMILES IDX 38 67 31 68 37 69 39 70 36 71 32 72 33 73 34 74 35 75 61 76
REMARK SMILES IDX 62 77 70 78 63 79 69 80 71 81 68 82 64 83 65 84 66 85 67 86
REMARK SMILES IDX 46 87 47 88 55 89 48 90 54 91 56 92 53 93 49 94 50 95 51 96
REMARK SMILES IDX 52 97
REMARK H PARENT 3 18 84 19 76 50 44 61
REMARK Flexibility Score: inf
ROOT
ATOM      1  C   UNL A   1      33.967  31.573  27.318  1.00  0.00     0.202 C 
ENDROOT
BRANCH   1   2
ATOM      2  O   UNL A   1      33.854  30.297  27.948  1.00  0.00    -0.374 OA
BRANCH   2   3
ATOM      3  C   UNL A   1      33.177  29.272  27.219  1.00  0.00     0.202 C 
BRANCH   3   4
ATOM      4  C   UNL A   1      33.655  29.041  25.780  1.00  0.00     0.261 C 
BRANCH   4   5
ATOM      5  O   UNL A   1      32.655  29.453  24.833  1.00  0.00    -0.460 OA
BRANCH   5   6
ATOM      6  C   UNL A   1      32.454  28.610  23.793  1.00  0.00     0.338 C 
ATOM      7  O   UNL A   1      33.198  28.412  22.846  1.00  0.00    -0.246 OA
BRANCH   6   8
ATOM      8  C   UNL A   1      31.230  27.807  24.033  1.00  0.00     0.062 A 
ATOM      9  C   UNL A   1      29.996  26.082  25.206  1.00  0.00     0.043 A 
ATOM     10  C   UNL A   1      28.899  26.318  24.371  1.00  0.00     0.026 A 
ATOM     11  C   UNL A   1      31.185  26.787  24.990  1.00  0.00     0.041 A 
ATOM     12  C   UNL A   1      28.951  27.315  23.395  1.00  0.00     0.003 A 
ATOM     13  C   UNL A   1      30.107  28.076  23.243  1.00  0.00     0.016 A 
BRANCH   9  14
ATOM     14  N   UNL A   1      29.828  25.141  26.237  1.00  0.00    -0.308 N 
ATOM     15  O   UNL A   1      30.023  23.234  27.387  1.00  0.00    -0.248 OA
ATOM     16  C   UNL A   1      30.408  23.913  26.441  1.00  0.00     0.323 C 
ATOM     17  N   UNL A   1      31.498  23.638  25.660  1.00  0.00    -0.306 N 
ATOM     18  H   UNL A   1      29.183  25.407  26.931  1.00  0.00     0.171 HD
ATOM     19  H   UNL A   1      31.840  24.387  25.121  1.00  0.00     0.171 HD
BRANCH  17  20
ATOM     20  C   UNL A   1      32.192  22.418  25.530  1.00  0.00     0.063 A 
ATOM     21  C   UNL A   1      31.879  21.688  24.372  1.00  0.00     0.049 A 
ATOM     22  C   UNL A   1      33.119  21.880  26.437  1.00  0.00     0.066 A 
ATOM     23  C   UNL A   1      32.565  20.517  24.053  1.00  0.00     0.061 A 
ATOM     24  C   UNL A   1      33.814  20.707  26.113  1.00  0.00     0.044 A 
ATOM     25  Cl  UNL A   1      33.354  22.490  28.038  1.00  0.00    -0.082 Cl
ATOM     26  Cl  UNL A   1      32.140  19.721  22.580  1.00  0.00    -0.083 Cl
ATOM     27  C   UNL A   1      33.564  20.048  24.907  1.00  0.00     0.061 A 
ATOM     28  Cl  UNL A   1      34.527  18.678  24.509  1.00  0.00    -0.083 Cl
ENDBRANCH  17  20
ENDBRANCH   9  14
ENDBRANCH   6   8
ENDBRANCH   5   6
ENDBRANCH   4   5
ENDBRANCH   3   4
ENDBRANCH   2   3
ENDBRANCH   1   2
BRANCH   1  29
ATOM     29  C   UNL A   1      32.909  32.624  27.675  1.00  0.00     0.261 C 
BRANCH  29  30
ATOM     30  O   UNL A   1      33.432  33.962  27.632  1.00  0.00    -0.460 OA
BRANCH  30  31
ATOM     31  C   UNL A   1      33.416  34.614  28.823  1.00  0.00     0.338 C 
ATOM     32  O   UNL A   1      32.538  35.347  29.244  1.00  0.00    -0.246 OA
BRANCH  31  33
ATOM     33  C   UNL A   1      34.548  34.159  29.653  1.00  0.00     0.060 A 
ATOM     34  C   UNL A   1      35.839  34.356  29.150  1.00  0.00     0.016 A 
ATOM     35  C   UNL A   1      34.354  33.510  30.875  1.00  0.00     0.016 A 
ATOM     36  C   UNL A   1      36.944  33.877  29.853  1.00  0.00     0.010 A 
ATOM     37  C   UNL A   1      35.464  33.022  31.573  1.00  0.00     0.010 A 
ATOM     38  C   UNL A   1      36.762  33.184  31.056  1.00  0.00    -0.014 A 
BRANCH  38  39
ATOM     39  C   UNL A   1      37.922  32.538  31.719  1.00  0.00     0.031 A 
ATOM     40  C   UNL A   1      38.605  31.380  31.045  1.00  0.00     0.074 A 
ATOM     41  C   UNL A   1      38.372  32.994  32.903  1.00  0.00     0.049 A 
ATOM     42  N   UNL A   1      39.589  30.632  31.473  1.00  0.00    -0.248 NA
ATOM     43  C   UNL A   1      38.107  31.017  29.710  1.00  0.00     0.031 C 
ATOM     44  C   UNL A   1      37.822  34.138  33.631  1.00  0.00     0.029 A 
ATOM     45  N   UNL A   1      39.391  32.545  33.705  1.00  0.00    -0.354 N 
ATOM     46  C   UNL A   1      39.827  29.704  30.464  1.00  0.00     0.074 A 
ATOM     47  C   UNL A   1      38.858  29.965  29.419  1.00  0.00     0.031 C 
ATOM     48  C   UNL A   1      38.506  34.295  34.778  1.00  0.00     0.029 A 
ATOM     49  C   UNL A   1      39.510  33.238  34.886  1.00  0.00     0.049 A 
ATOM     50  H   UNL A   1      39.981  31.797  33.456  1.00  0.00     0.167 HD
ATOM     51  C   UNL A   1      40.772  28.731  30.413  1.00  0.00     0.034 A 
ATOM     52  C   UNL A   1      40.312  33.022  35.948  1.00  0.00     0.034 A 
ATOM     53  C   UNL A   1      41.719  28.475  31.471  1.00  0.00     0.049 A 
ATOM     54  C   UNL A   1      41.277  31.861  35.915  1.00  0.00     0.074 A 
ATOM     55  C   UNL A   1      42.731  27.530  31.513  1.00  0.00     0.029 A 
ATOM     56  N   UNL A   1      41.764  29.153  32.683  1.00  0.00    -0.354 N 
ATOM     57  N   UNL A   1      41.496  30.993  34.955  1.00  0.00    -0.248 NA
ATOM     58  C   UNL A   1      42.097  31.651  37.115  1.00  0.00     0.031 C 
ATOM     59  C   UNL A   1      43.330  27.582  32.776  1.00  0.00     0.029 A 
ATOM     60  C   UNL A   1      42.753  28.617  33.494  1.00  0.00     0.049 A 
ATOM     61  H   UNL A   1      41.178  29.906  32.929  1.00  0.00     0.167 HD
ATOM     62  C   UNL A   1      42.500  30.151  35.427  1.00  0.00     0.074 A 
ATOM     63  C   UNL A   1      42.851  30.625  36.750  1.00  0.00     0.031 C 
ATOM     64  C   UNL A   1      43.082  29.084  34.820  1.00  0.00     0.034 A 
BRANCH  51  65
ATOM     65  C   UNL A   1      40.786  27.839  29.194  1.00  0.00     0.023 A 
ATOM     66  C   UNL A   1      41.709  28.023  28.150  1.00  0.00     0.031 A 
ATOM     67  C   UNL A   1      39.847  26.799  29.067  1.00  0.00     0.131 A 
ATOM     68  C   UNL A   1      41.631  27.226  26.998  1.00  0.00     0.055 A 
ATOM     69  C   UNL A   1      39.827  25.957  27.953  1.00  0.00     0.041 A 
ATOM     70  F   UNL A   1      38.926  26.588  30.020  1.00  0.00    -0.206 F 
ATOM     71  C   UNL A   1      40.712  26.177  26.903  1.00  0.00     0.022 A 
BRANCH  68  72
ATOM     72  S   UNL A   1      42.651  27.669  25.565  1.00  0.00     0.124 S 
ATOM     73  O   UNL A   1      43.959  27.870  26.184  1.00  0.00    -0.237 OA
ATOM     74  O   UNL A   1      42.522  26.495  24.711  1.00  0.00    -0.237 OA
ATOM     75  O   UNL A   1      42.018  28.884  25.056  1.00  0.00    -0.744 OA
ENDBRANCH  68  72
ENDBRANCH  51  65
BRANCH  52  76
ATOM     76  C   UNL A   1      40.202  33.869  37.168  1.00  0.00     0.023 A 
ATOM     77  C   UNL A   1      39.501  33.426  38.301  1.00  0.00     0.031 A 
ATOM     78  C   UNL A   1      40.722  35.175  37.180  1.00  0.00     0.131 A 
ATOM     79  C   UNL A   1      39.302  34.297  39.383  1.00  0.00     0.055 A 
ATOM     80  C   UNL A   1      40.553  36.020  38.275  1.00  0.00     0.041 A 
ATOM     81  F   UNL A   1      41.399  35.649  36.122  1.00  0.00    -0.206 F 
ATOM     82  C   UNL A   1      39.837  35.586  39.385  1.00  0.00     0.022 A 
BRANCH  79  83
ATOM     83  S   UNL A   1      38.241  33.758  40.752  1.00  0.00     0.124 S 
ATOM     84  O   UNL A   1      37.060  33.283  40.041  1.00  0.00    -0.237 OA
ATOM     85  O   UNL A   1      39.064  32.734  41.388  1.00  0.00    -0.237 OA
ATOM     86  O   UNL A   1      38.052  34.976  41.537  1.00  0.00    -0.744 OA
ENDBRANCH  79  83
ENDBRANCH  52  76
BRANCH  64  87
ATOM     87  C   UNL A   1      44.188  28.384  35.574  1.00  0.00     0.023 A 
ATOM     88  C   UNL A   1      45.537  28.744  35.411  1.00  0.00     0.031 A 
ATOM     89  C   UNL A   1      43.886  27.335  36.461  1.00  0.00     0.131 A 
ATOM     90  C   UNL A   1      46.538  28.025  36.085  1.00  0.00     0.055 A 
ATOM     91  C   UNL A   1      44.881  26.666  37.176  1.00  0.00     0.041 A 
ATOM     92  F   UNL A   1      42.615  26.946  36.651  1.00  0.00    -0.206 F 
ATOM     93  C   UNL A   1      46.217  27.002  36.980  1.00  0.00     0.022 A 
BRANCH  90  94
ATOM     94  S   UNL A   1      48.276  28.387  35.707  1.00  0.00     0.124 S 
ATOM     95  O   UNL A   1      48.974  27.612  36.728  1.00  0.00    -0.237 OA
ATOM     96  O   UNL A   1      48.407  27.901  34.337  1.00  0.00    -0.237 OA
ATOM     97  O   UNL A   1      48.366  29.838  35.860  1.00  0.00    -0.744 OA
ENDBRANCH  90  94
ENDBRANCH  64  87
ENDBRANCH  38  39
ENDBRANCH  31  33
ENDBRANCH  30  31
ENDBRANCH  29  30
ENDBRANCH   1  29
TORSDOF 19
ENDMDL
MODEL 3
REMARK VINA RESULT:     -11.4      2.417      7.977
REMARK SMILES O=C(Nc1cccc(C(=O)OCCOCCOC(=O)c2ccc(-c3c4nc(c(-c5cc(S(=O)(=O)[O-])ccc5F)c5ccc([nH]5)c(-c5cc(S(=O)(=O)[O-])ccc5F)c5nc(c(-c6cc(S(=O)(=O)[O-])ccc6F)c6ccc3[nH]6)C=C5)C=C4)cc2)c1)Nc1cc(Cl)c(Cl)cc1Cl
REMARK SMILES IDX 15 1 14 2 13 3 12 4 11 5 9 6 10 7 8 8 4 9 5 10 83 11 6 12
REMARK SMILES IDX 7 13 3 14 1 15 2 16 84 17 85 20 86 21 92 22 87 23 91 24
REMARK SMILES IDX 93 25 88 26 89 27 90 28 16 29 17 30 18 31 19 32 20 33 21 34
REMARK SMILES IDX 82 35 22 36 81 37 23 38 24 39 25 40 75 41 26 42 80 43 74 44
REMARK SMILES IDX 76 45 27 46 79 47 73 48 72 49 28 51 60 52 40 53 59 54 41 55
REMARK SMILES IDX 44 56 58 57 77 58 42 59 43 60 57 62 78 63 45 64 29 65 30 66
REMARK SMILES IDX 38 67 31 68 37 69 39 70 36 71 32 72 33 73 34 74 35 75 61 76
REMARK SMILES IDX 62 77 70 78 63 79 69 80 71 81 68 82 64 83 65 84 66 85 67 86
REMARK SMILES IDX 46 87 47 88 55 89 48 90 54 91 56 92 53 93 49 94 50 95 51 96
REMARK SMILES IDX 52 97
REMARK H PARENT 3 18 84 19 76 50 44 61
REMARK Flexibility Score: inf
ROOT
ATOM      1  C   UNL A   1      35.996  20.846  25.370  1.00  0.00     0.202 C 
ENDROOT
BRANCH   1   2
ATOM      2  O   UNL A   1      35.195  21.781  26.093  1.00  0.00    -0.374 OA
BRANCH   2   3
ATOM      3  C   UNL A   1      33.929  22.124  25.526  1.00  0.00     0.202 C 
BRANCH   3   4
ATOM      4  C   UNL A   1      33.809  21.969  24.006  1.00  0.00     0.261 C 
BRANCH   4   5
ATOM      5  O   UNL A   1      32.697  22.726  23.497  1.00  0.00    -0.460 OA
BRANCH   5   6
ATOM      6  C   UNL A   1      33.017  23.765  22.691  1.00  0.00     0.338 C 
ATOM      7  O   UNL A   1      33.740  23.743  21.708  1.00  0.00    -0.246 OA
BRANCH   6   8
ATOM      8  C   UNL A   1      32.224  24.957  23.078  1.00  0.00     0.062 A 
ATOM      9  C   UNL A   1      31.139  26.367  24.725  1.00  0.00     0.043 A 
ATOM     10  C   UNL A   1      30.685  27.198  23.694  1.00  0.00     0.026 A 
ATOM     11  C   UNL A   1      31.856  25.209  24.404  1.00  0.00     0.041 A 
ATOM     12  C   UNL A   1      31.026  26.933  22.367  1.00  0.00     0.003 A 
ATOM     13  C   UNL A   1      31.816  25.827  22.061  1.00  0.00     0.016 A 
BRANCH   9  14
ATOM     14  N   UNL A   1      30.850  26.761  26.042  1.00  0.00    -0.308 N 
ATOM     15  O   UNL A   1      31.031  27.828  27.999  1.00  0.00    -0.248 OA
ATOM     16  C   UNL A   1      31.406  27.737  26.834  1.00  0.00     0.323 C 
ATOM     17  N   UNL A   1      32.208  28.637  26.188  1.00  0.00    -0.306 N 
ATOM     18  H   UNL A   1      30.127  26.251  26.472  1.00  0.00     0.171 HD
ATOM     19  H   UNL A   1      32.211  28.581  25.205  1.00  0.00     0.171 HD
BRANCH  17  20
ATOM     20  C   UNL A   1      33.030  29.634  26.750  1.00  0.00     0.063 A 
ATOM     21  C   UNL A   1      34.263  29.168  27.235  1.00  0.00     0.049 A 
ATOM     22  C   UNL A   1      32.724  30.998  26.881  1.00  0.00     0.066 A 
ATOM     23  C   UNL A   1      35.226  30.054  27.719  1.00  0.00     0.061 A 
ATOM     24  C   UNL A   1      33.694  31.888  27.361  1.00  0.00     0.044 A 
ATOM     25  Cl  UNL A   1      31.141  31.649  26.640  1.00  0.00    -0.082 Cl
ATOM     26  Cl  UNL A   1      36.731  29.387  28.244  1.00  0.00    -0.083 Cl
ATOM     27  C   UNL A   1      34.954  31.422  27.743  1.00  0.00     0.061 A 
ATOM     28  Cl  UNL A   1      36.144  32.574  28.215  1.00  0.00    -0.083 Cl
ENDBRANCH  17  20
ENDBRANCH   9  14
ENDBRANCH   6   8
ENDBRANCH   5   6
ENDBRANCH   4   5
ENDBRANCH   3   4
ENDBRANCH   2   3
ENDBRANCH   1   2
BRANCH   1  29
ATOM     29  C   UNL A   1      37.375  21.325  24.897  1.00  0.00     0.261 C 
BRANCH  29  30
ATOM     30  O   UNL A   1      37.945  22.304  25.782  1.00  0.00    -0.460 OA
BRANCH  30  31
ATOM     31  C   UNL A   1      39.116  21.930  26.358  1.00  0.00     0.338 C 
ATOM     32  O   UNL A   1      39.613  20.817  26.351  1.00  0.00    -0.246 OA
BRANCH  31  33
ATOM     33  C   UNL A   1      39.829  23.124  26.852  1.00  0.00     0.060 A 
ATOM     34  C   UNL A   1      39.507  24.357  26.270  1.00  0.00     0.016 A 
ATOM     35  C   UNL A   1      40.825  23.039  27.828  1.00  0.00     0.016 A 
ATOM     36  C   UNL A   1      40.202  25.507  26.641  1.00  0.00     0.010 A 
ATOM     37  C   UNL A   1      41.527  24.194  28.191  1.00  0.00     0.010 A 
ATOM     38  C   UNL A   1      41.235  25.428  27.584  1.00  0.00    -0.014 A 
BRANCH  38  39
ATOM     39  C   UNL A   1      42.077  26.620  27.858  1.00  0.00     0.031 A 
ATOM     40  C   UNL A   1      41.525  27.732  28.708  1.00  0.00     0.074 A 
ATOM     41  C   UNL A   1      43.327  26.699  27.368  1.00  0.00     0.049 A 
ATOM     42  N   UNL A   1      42.060  28.885  29.017  1.00  0.00    -0.248 NA
ATOM     43  C   UNL A   1      40.188  27.513  29.281  1.00  0.00     0.031 C 
ATOM     44  C   UNL A   1      43.988  25.665  26.571  1.00  0.00     0.029 A 
ATOM     45  N   UNL A   1      44.263  27.698  27.463  1.00  0.00    -0.354 N 
ATOM     46  C   UNL A   1      41.125  29.534  29.818  1.00  0.00     0.074 A 
ATOM     47  C   UNL A   1      39.976  28.657  29.914  1.00  0.00     0.031 C 
ATOM     48  C   UNL A   1      45.221  26.089  26.243  1.00  0.00     0.029 A 
ATOM     49  C   UNL A   1      45.419  27.439  26.766  1.00  0.00     0.049 A 
ATOM     50  H   UNL A   1      44.119  28.522  27.982  1.00  0.00     0.167 HD
ATOM     51  C   UNL A   1      41.222  30.746  30.422  1.00  0.00     0.034 A 
ATOM     52  C   UNL A   1      46.498  28.217  26.546  1.00  0.00     0.034 A 
ATOM     53  C   UNL A   1      42.369  31.613  30.302  1.00  0.00     0.049 A 
ATOM     54  C   UNL A   1      46.533  29.607  27.133  1.00  0.00     0.074 A 
ATOM     55  C   UNL A   1      42.580  32.850  30.888  1.00  0.00     0.029 A 
ATOM     56  N   UNL A   1      43.493  31.347  29.530  1.00  0.00    -0.354 N 
ATOM     57  N   UNL A   1      45.647  30.208  27.891  1.00  0.00    -0.248 NA
ATOM     58  C   UNL A   1      47.717  30.422  26.828  1.00  0.00     0.031 C 
ATOM     59  C   UNL A   1      43.789  33.365  30.407  1.00  0.00     0.029 A 
ATOM     60  C   UNL A   1      44.377  32.414  29.589  1.00  0.00     0.049 A 
ATOM     61  H   UNL A   1      43.641  30.519  29.016  1.00  0.00     0.167 HD
ATOM     62  C   UNL A   1      46.180  31.464  28.175  1.00  0.00     0.074 A 
ATOM     63  C   UNL A   1      47.469  31.525  27.519  1.00  0.00     0.031 C 
ATOM     64  C   UNL A   1      45.652  32.474  28.914  1.00  0.00     0.034 A 
BRANCH  51  65
ATOM     65  C   UNL A   1      40.031  31.222  31.220  1.00  0.00     0.023 A 
ATOM     66  C   UNL A   1      40.040  31.244  32.625  1.00  0.00     0.031 A 
ATOM     67  C   UNL A   1      38.862  31.644  30.562  1.00  0.00     0.131 A 
ATOM     68  C   UNL A   1      38.882  31.613  33.326  1.00  0.00     0.055 A 
ATOM     69  C   UNL A   1      37.740  32.087  31.265  1.00  0.00     0.041 A 
ATOM     70  F   UNL A   1      38.785  31.624  29.222  1.00  0.00    -0.206 F 
ATOM     71  C   UNL A   1      37.740  32.059  32.656  1.00  0.00     0.022 A 
BRANCH  68  72
ATOM     72  S   UNL A   1      38.840  31.366  35.123  1.00  0.00     0.124 S 
ATOM     73  O   UNL A   1      37.418  31.534  35.412  1.00  0.00    -0.237 OA
ATOM     74  O   UNL A   1      39.367  30.014  35.267  1.00  0.00    -0.237 OA
ATOM     75  O   UNL A   1      39.702  32.429  35.636  1.00  0.00    -0.744 OA
ENDBRANCH  68  72
ENDBRANCH  51  65
BRANCH  52  76
ATOM     76  C   UNL A   1      47.611  27.742  25.677  1.00  0.00     0.023 A 
ATOM     77  C   UNL A   1      47.620  28.007  24.297  1.00  0.00     0.031 A 
ATOM     78  C   UNL A   1      48.637  26.939  26.203  1.00  0.00     0.131 A 
ATOM     79  C   UNL A   1      48.611  27.435  23.484  1.00  0.00     0.055 A 
ATOM     80  C   UNL A   1      49.639  26.408  25.394  1.00  0.00     0.041 A 
ATOM     81  F   UNL A   1      48.676  26.655  27.515  1.00  0.00    -0.206 F 
ATOM     82  C   UNL A   1      49.630  26.650  24.026  1.00  0.00     0.022 A 
BRANCH  79  83
ATOM     83  S   UNL A   1      48.492  27.645  21.687  1.00  0.00     0.124 S 
ATOM     84  O   UNL A   1      47.152  28.203  21.544  1.00  0.00    -0.237 OA
ATOM     85  O   UNL A   1      49.599  28.556  21.414  1.00  0.00    -0.237 OA
ATOM     86  O   UNL A   1      48.664  26.288  21.172  1.00  0.00    -0.744 OA
ENDBRANCH  79  83
ENDBRANCH  52  76
BRANCH  64  87
ATOM     87  C   UNL A   1      46.496  33.716  29.081  1.00  0.00     0.023 A 
ATOM     88  C   UNL A   1      46.449  34.773  28.156  1.00  0.00     0.031 A 
ATOM     89  C   UNL A   1      47.366  33.837  30.180  1.00  0.00     0.131 A 
ATOM     90  C   UNL A   1      47.295  35.881  28.317  1.00  0.00     0.055 A 
ATOM     91  C   UNL A   1      48.159  34.970  30.368  1.00  0.00     0.041 A 
ATOM     92  F   UNL A   1      47.456  32.856  31.092  1.00  0.00    -0.206 F 
ATOM     93  C   UNL A   1      48.135  35.995  29.428  1.00  0.00     0.022 A 
BRANCH  90  94
ATOM     94  S   UNL A   1      47.350  37.136  27.008  1.00  0.00     0.124 S 
ATOM     95  O   UNL A   1      46.029  36.999  26.402  1.00  0.00    -0.237 OA
ATOM     96  O   UNL A   1      47.581  38.365  27.761  1.00  0.00    -0.237 OA
ATOM     97  O   UNL A   1      48.466  36.707  26.167  1.00  0.00    -0.744 OA
ENDBRANCH  90  94
ENDBRANCH  64  87
ENDBRANCH  38  39
ENDBRANCH  31  33
ENDBRANCH  30  31
ENDBRANCH  29  30
ENDBRANCH   1  29
TORSDOF 19
ENDMDL
