MODEL 1
REMARK VINA RESULT:     -11.3      0.000      0.000
REMARK SMILES Cc1cccc(OCC(=O)Nc2cc(C(=O)OCCOCCOC(=O)c3ccc(-c4c5nc(c(-c6cc(S(=O)(=O)[O-])ccc6F)c6ccc([nH]6)c(-c6cc(S(=O)(=O)[O-])ccc6F)c6nc(c(-c7cc(S(=O)(=O)[O-])ccc7F)c7ccc4[nH]7)C=C6)C=C5)cc3)c(Cl)cc2Cl)c1
REMARK SMILES IDX 19 1 18 2 17 3 15 4 16 5 14 6 12 7 13 8 92 9 91 10 93 11
REMARK SMILES IDX 89 12 90 13 11 14 9 15 10 16 8 18 7 19 6 20 1 21 2 22 3 23
REMARK SMILES IDX 94 24 4 25 5 26 20 27 21 28 22 29 23 30 24 31 25 32 26 33
REMARK SMILES IDX 27 34 88 35 28 36 87 37 29 38 30 39 31 40 81 41 32 42 86 43
REMARK SMILES IDX 80 44 82 45 33 46 85 47 79 48 78 49 34 51 66 52 46 53 65 54
REMARK SMILES IDX 47 55 50 56 64 57 83 58 48 59 49 60 63 62 84 63 51 64 35 65
REMARK SMILES IDX 36 66 44 67 37 68 43 69 45 70 42 71 38 72 39 73 40 74 41 75
REMARK SMILES IDX 67 76 68 77 76 78 69 79 75 80 77 81 74 82 70 83 71 84 72 85
REMARK SMILES IDX 73 86 52 87 53 88 61 89 54 90 60 91 62 92 59 93 55 94 56 95
REMARK SMILES IDX 57 96 58 97
REMARK H PARENT 11 17 82 50 50 61
REMARK Flexibility Score: inf
ROOT
ATOM      1  C   UNL A   1      33.032  32.164  27.417  1.00  0.00     0.202 C 
ENDROOT
BRANCH   1   2
ATOM      2  C   UNL A   1      33.664  30.860  27.649  1.00  0.00     0.261 C 
BRANCH   2   3
ATOM      3  O   UNL A   1      33.006  29.840  26.911  1.00  0.00    -0.460 OA
BRANCH   3   4
ATOM      4  C   UNL A   1      33.720  28.773  26.481  1.00  0.00     0.339 C 
ATOM      5  O   UNL A   1      34.880  28.538  26.671  1.00  0.00    -0.246 OA
BRANCH   4   6
ATOM      6  C   UNL A   1      32.711  27.937  25.783  1.00  0.00     0.080 A 
ATOM      7  C   UNL A   1      31.182  26.031  25.952  1.00  0.00     0.061 A 
ATOM      8  C   UNL A   1      31.902  27.049  26.549  1.00  0.00     0.045 A 
ATOM      9  C   UNL A   1      31.227  25.971  24.541  1.00  0.00     0.066 A 
ATOM     10  C   UNL A   1      31.945  26.902  23.771  1.00  0.00     0.044 A 
ATOM     11  Cl  UNL A   1      30.413  24.708  23.676  1.00  0.00    -0.082 Cl
ATOM     12  C   UNL A   1      32.704  27.887  24.392  1.00  0.00     0.057 A 
ATOM     13  Cl  UNL A   1      33.657  28.903  23.369  1.00  0.00    -0.083 Cl
BRANCH   7  14
ATOM     14  N   UNL A   1      30.558  24.977  26.662  1.00  0.00    -0.322 N 
ATOM     15  C   UNL A   1      30.717  23.625  26.860  1.00  0.00     0.262 C 
ATOM     16  O   UNL A   1      29.773  23.085  27.458  1.00  0.00    -0.271 OA
ATOM     17  H   UNL A   1      29.779  25.312  27.163  1.00  0.00     0.170 HD
BRANCH  15  18
ATOM     18  C   UNL A   1      32.060  22.861  26.641  1.00  0.00     0.329 C 
BRANCH  18  19
ATOM     19  O   UNL A   1      33.421  23.300  26.714  1.00  0.00    -0.484 OA
BRANCH  19  20
ATOM     20  C   UNL A   1      34.283  23.109  25.672  1.00  0.00     0.120 A 
ATOM     21  C   UNL A   1      37.543  21.357  24.825  1.00  0.00     0.044 C 
ATOM     22  C   UNL A   1      36.297  22.170  24.690  1.00  0.00    -0.047 A 
ATOM     23  C   UNL A   1      36.049  22.846  23.492  1.00  0.00     0.003 A 
ATOM     24  C   UNL A   1      35.380  22.267  25.755  1.00  0.00     0.049 A 
ATOM     25  C   UNL A   1      35.016  23.768  23.437  1.00  0.00     0.004 A 
ATOM     26  C   UNL A   1      34.207  23.960  24.563  1.00  0.00     0.046 A 
ENDBRANCH  19  20
ENDBRANCH  18  19
ENDBRANCH  15  18
ENDBRANCH   7  14
ENDBRANCH   4   6
ENDBRANCH   3   4
ENDBRANCH   2   3
ENDBRANCH   1   2
BRANCH   1  27
ATOM     27  O   UNL A   1      33.917  33.109  27.996  1.00  0.00    -0.374 OA
BRANCH  27  28
ATOM     28  C   UNL A   1      33.218  34.271  28.373  1.00  0.00     0.202 C 
BRANCH  28  29
ATOM     29  C   UNL A   1      33.744  34.861  29.695  1.00  0.00     0.261 C 
BRANCH  29  30
ATOM     30  O   UNL A   1      33.855  33.809  30.688  1.00  0.00    -0.460 OA
BRANCH  30  31
ATOM     31  C   UNL A   1      34.942  33.850  31.519  1.00  0.00     0.338 C 
ATOM     32  O   UNL A   1      35.259  34.796  32.219  1.00  0.00    -0.246 OA
BRANCH  31  33
ATOM     33  C   UNL A   1      35.785  32.626  31.320  1.00  0.00     0.060 A 
ATOM     34  C   UNL A   1      36.016  31.728  32.386  1.00  0.00     0.016 A 
ATOM     35  C   UNL A   1      36.581  32.556  30.183  1.00  0.00     0.016 A 
ATOM     36  C   UNL A   1      37.152  30.897  32.384  1.00  0.00     0.010 A 
ATOM     37  C   UNL A   1      37.738  31.804  30.226  1.00  0.00     0.010 A 
ATOM     38  C   UNL A   1      38.066  31.011  31.342  1.00  0.00    -0.014 A 
BRANCH  38  39
ATOM     39  C   UNL A   1      39.424  30.448  31.294  1.00  0.00     0.031 A 
ATOM     40  C   UNL A   1      39.564  29.115  30.700  1.00  0.00     0.074 A 
ATOM     41  C   UNL A   1      40.535  31.199  31.506  1.00  0.00     0.049 A 
ATOM     42  N   UNL A   1      40.604  28.377  30.829  1.00  0.00    -0.248 NA
ATOM     43  C   UNL A   1      38.503  28.455  29.939  1.00  0.00     0.031 C 
ATOM     44  C   UNL A   1      41.931  31.024  31.106  1.00  0.00     0.029 A 
ATOM     45  N   UNL A   1      40.622  32.363  32.243  1.00  0.00    -0.354 N 
ATOM     46  C   UNL A   1      40.546  27.468  29.801  1.00  0.00     0.074 A 
ATOM     47  C   UNL A   1      39.151  27.388  29.474  1.00  0.00     0.031 C 
ATOM     48  C   UNL A   1      42.730  31.790  31.884  1.00  0.00     0.029 A 
ATOM     49  C   UNL A   1      41.866  32.436  32.854  1.00  0.00     0.049 A 
ATOM     50  H   UNL A   1      39.910  33.037  32.323  1.00  0.00     0.167 HD
ATOM     51  C   UNL A   1      41.716  27.102  29.207  1.00  0.00     0.034 A 
ATOM     52  C   UNL A   1      41.884  32.494  34.206  1.00  0.00     0.034 A 
ATOM     53  C   UNL A   1      42.871  27.678  29.934  1.00  0.00     0.049 A 
ATOM     54  C   UNL A   1      42.588  31.215  34.599  1.00  0.00     0.074 A 
ATOM     55  C   UNL A   1      43.890  28.560  29.610  1.00  0.00     0.029 A 
ATOM     56  N   UNL A   1      42.914  27.554  31.326  1.00  0.00    -0.354 N 
ATOM     57  N   UNL A   1      42.506  30.108  33.894  1.00  0.00    -0.248 NA
ATOM     58  C   UNL A   1      43.672  31.185  35.574  1.00  0.00     0.031 C 
ATOM     59  C   UNL A   1      44.500  28.999  30.831  1.00  0.00     0.029 A 
ATOM     60  C   UNL A   1      43.844  28.394  31.897  1.00  0.00     0.049 A 
ATOM     61  H   UNL A   1      42.345  26.937  31.838  1.00  0.00     0.167 HD
ATOM     62  C   UNL A   1      43.624  29.351  34.135  1.00  0.00     0.074 A 
ATOM     63  C   UNL A   1      44.280  30.030  35.249  1.00  0.00     0.031 C 
ATOM     64  C   UNL A   1      44.082  28.335  33.335  1.00  0.00     0.034 A 
BRANCH  51  65
ATOM     65  C   UNL A   1      41.838  26.425  27.851  1.00  0.00     0.023 A 
ATOM     66  C   UNL A   1      42.235  25.073  27.820  1.00  0.00     0.031 A 
ATOM     67  C   UNL A   1      41.624  26.998  26.576  1.00  0.00     0.131 A 
ATOM     68  C   UNL A   1      42.414  24.375  26.610  1.00  0.00     0.055 A 
ATOM     69  C   UNL A   1      41.784  26.301  25.372  1.00  0.00     0.041 A 
ATOM     70  F   UNL A   1      41.247  28.263  26.393  1.00  0.00    -0.206 F 
ATOM     71  C   UNL A   1      42.183  24.980  25.381  1.00  0.00     0.022 A 
BRANCH  68  72
ATOM     72  S   UNL A   1      42.941  22.645  26.669  1.00  0.00     0.124 S 
ATOM     73  O   UNL A   1      44.392  22.765  26.573  1.00  0.00    -0.237 OA
ATOM     74  O   UNL A   1      42.411  22.202  27.953  1.00  0.00    -0.237 OA
ATOM     75  O   UNL A   1      42.291  22.054  25.499  1.00  0.00    -0.744 OA
ENDBRANCH  68  72
ENDBRANCH  51  65
BRANCH  52  76
ATOM     76  C   UNL A   1      40.634  33.218  34.688  1.00  0.00     0.023 A 
ATOM     77  C   UNL A   1      39.761  32.502  35.584  1.00  0.00     0.031 A 
ATOM     78  C   UNL A   1      40.428  34.594  34.645  1.00  0.00     0.131 A 
ATOM     79  C   UNL A   1      38.780  33.114  36.394  1.00  0.00     0.055 A 
ATOM     80  C   UNL A   1      39.467  35.223  35.477  1.00  0.00     0.041 A 
ATOM     81  F   UNL A   1      41.211  35.379  33.893  1.00  0.00    -0.206 F 
ATOM     82  C   UNL A   1      38.665  34.496  36.371  1.00  0.00     0.022 A 
BRANCH  79  83
ATOM     83  S   UNL A   1      37.841  32.137  37.642  1.00  0.00     0.124 S 
ATOM     84  O   UNL A   1      37.748  30.806  37.073  1.00  0.00    -0.237 OA
ATOM     85  O   UNL A   1      38.672  32.236  38.837  1.00  0.00    -0.237 OA
ATOM     86  O   UNL A   1      36.568  32.852  37.722  1.00  0.00    -0.744 OA
ENDBRANCH  79  83
ENDBRANCH  52  76
BRANCH  64  87
ATOM     87  C   UNL A   1      44.815  27.129  33.879  1.00  0.00     0.023 A 
ATOM     88  C   UNL A   1      44.166  25.927  34.163  1.00  0.00     0.031 A 
ATOM     89  C   UNL A   1      46.230  27.097  33.983  1.00  0.00     0.131 A 
ATOM     90  C   UNL A   1      44.875  24.798  34.588  1.00  0.00     0.055 A 
ATOM     91  C   UNL A   1      46.944  25.945  34.314  1.00  0.00     0.041 A 
ATOM     92  F   UNL A   1      46.998  28.166  33.734  1.00  0.00    -0.206 F 
ATOM     93  C   UNL A   1      46.264  24.783  34.635  1.00  0.00     0.022 A 
BRANCH  90  94
ATOM     94  S   UNL A   1      43.905  23.378  35.132  1.00  0.00     0.124 S 
ATOM     95  O   UNL A   1      44.768  22.809  36.164  1.00  0.00    -0.237 OA
ATOM     96  O   UNL A   1      42.677  24.004  35.613  1.00  0.00    -0.237 OA
ATOM     97  O   UNL A   1      43.764  22.574  33.921  1.00  0.00    -0.744 OA
ENDBRANCH  90  94
ENDBRANCH  64  87
ENDBRANCH  38  39
ENDBRANCH  31  33
ENDBRANCH  30  31
ENDBRANCH  29  30
ENDBRANCH  28  29
ENDBRANCH  27  28
ENDBRANCH   1  27
TORSDOF 21
ENDMDL
MODEL 2
REMARK VINA RESULT:     -11.1      1.516      2.029
REMARK SMILES Cc1cccc(OCC(=O)Nc2cc(C(=O)OCCOCCOC(=O)c3ccc(-c4c5nc(c(-c6cc(S(=O)(=O)[O-])ccc6F)c6ccc([nH]6)c(-c6cc(S(=O)(=O)[O-])ccc6F)c6nc(c(-c7cc(S(=O)(=O)[O-])ccc7F)c7ccc4[nH]7)C=C6)C=C5)cc3)c(Cl)cc2Cl)c1
REMARK SMILES IDX 19 1 18 2 17 3 15 4 16 5 14 6 12 7 13 8 92 9 91 10 93 11
REMARK SMILES IDX 89 12 90 13 11 14 9 15 10 16 8 18 7 19 6 20 1 21 2 22 3 23
REMARK SMILES IDX 94 24 4 25 5 26 20 27 21 28 22 29 23 30 24 31 25 32 26 33
REMARK SMILES IDX 27 34 88 35 28 36 87 37 29 38 30 39 31 40 81 41 32 42 86 43
REMARK SMILES IDX 80 44 82 45 33 46 85 47 79 48 78 49 34 51 66 52 46 53 65 54
REMARK SMILES IDX 47 55 50 56 64 57 83 58 48 59 49 60 63 62 84 63 51 64 35 65
REMARK SMILES IDX 36 66 44 67 37 68 43 69 45 70 42 71 38 72 39 73 40 74 41 75
REMARK SMILES IDX 67 76 68 77 76 78 69 79 75 80 77 81 74 82 70 83 71 84 72 85
REMARK SMILES IDX 73 86 52 87 53 88 61 89 54 90 60 91 62 92 59 93 55 94 56 95
REMARK SMILES IDX 57 96 58 97
REMARK H PARENT 11 17 82 50 50 61
REMARK Flexibility Score: inf
ROOT
ATOM      1  C   UNL A   1      33.204  30.696  26.702  1.00  0.00     0.202 C 
ENDROOT
BRANCH   1   2
ATOM      2  C   UNL A   1      32.381  29.495  26.882  1.00  0.00     0.261 C 
BRANCH   2   3
ATOM      3  O   UNL A   1      32.540  28.604  25.787  1.00  0.00    -0.460 OA
BRANCH   3   4
ATOM      4  C   UNL A   1      31.616  28.607  24.797  1.00  0.00     0.339 C 
ATOM      5  O   UNL A   1      30.899  29.507  24.462  1.00  0.00    -0.246 OA
BRANCH   4   6
ATOM      6  C   UNL A   1      31.756  27.261  24.187  1.00  0.00     0.080 A 
ATOM      7  C   UNL A   1      31.230  24.877  24.380  1.00  0.00     0.061 A 
ATOM      8  C   UNL A   1      30.939  26.198  24.668  1.00  0.00     0.045 A 
ATOM      9  C   UNL A   1      32.327  24.645  23.520  1.00  0.00     0.066 A 
ATOM     10  C   UNL A   1      33.079  25.693  22.963  1.00  0.00     0.044 A 
ATOM     11  Cl  UNL A   1      32.827  23.033  23.127  1.00  0.00    -0.082 Cl
ATOM     12  C   UNL A   1      32.804  27.012  23.305  1.00  0.00     0.057 A 
ATOM     13  Cl  UNL A   1      33.865  28.223  22.676  1.00  0.00    -0.083 Cl
BRANCH   7  14
ATOM     14  N   UNL A   1      30.612  23.771  25.013  1.00  0.00    -0.322 N 
ATOM     15  C   UNL A   1      30.854  22.906  26.054  1.00  0.00     0.262 C 
ATOM     16  O   UNL A   1      30.063  21.953  26.118  1.00  0.00    -0.271 OA
ATOM     17  H   UNL A   1      29.753  23.560  24.578  1.00  0.00     0.170 HD
BRANCH  15  18
ATOM     18  C   UNL A   1      31.825  23.212  27.238  1.00  0.00     0.329 C 
BRANCH  18  19
ATOM     19  O   UNL A   1      33.060  22.603  27.629  1.00  0.00    -0.484 OA
BRANCH  19  20
ATOM     20  C   UNL A   1      33.979  22.206  26.699  1.00  0.00     0.120 A 
ATOM     21  C   UNL A   1      36.864  23.563  24.638  1.00  0.00     0.044 C 
ATOM     22  C   UNL A   1      35.856  22.624  25.215  1.00  0.00    -0.047 A 
ATOM     23  C   UNL A   1      35.776  21.319  24.719  1.00  0.00     0.003 A 
ATOM     24  C   UNL A   1      34.988  23.039  26.243  1.00  0.00     0.049 A 
ATOM     25  C   UNL A   1      34.709  20.518  25.093  1.00  0.00     0.004 A 
ATOM     26  C   UNL A   1      33.767  21.010  26.004  1.00  0.00     0.046 A 
ENDBRANCH  19  20
ENDBRANCH  18  19
ENDBRANCH  15  18
ENDBRANCH   7  14
ENDBRANCH   4   6
ENDBRANCH   3   4
ENDBRANCH   2   3
ENDBRANCH   1   2
BRANCH   1  27
ATOM     27  O   UNL A   1      33.653  31.033  28.005  1.00  0.00    -0.374 OA
BRANCH  27  28
ATOM     28  C   UNL A   1      34.682  31.992  27.939  1.00  0.00     0.202 C 
BRANCH  28  29
ATOM     29  C   UNL A   1      34.139  33.431  28.033  1.00  0.00     0.261 C 
BRANCH  29  30
ATOM     30  O   UNL A   1      34.971  34.209  28.932  1.00  0.00    -0.460 OA
BRANCH  30  31
ATOM     31  C   UNL A   1      35.039  33.792  30.234  1.00  0.00     0.338 C 
ATOM     32  O   UNL A   1      34.100  33.741  31.008  1.00  0.00    -0.246 OA
BRANCH  31  33
ATOM     33  C   UNL A   1      36.470  33.567  30.626  1.00  0.00     0.060 A 
ATOM     34  C   UNL A   1      37.514  33.778  29.699  1.00  0.00     0.016 A 
ATOM     35  C   UNL A   1      36.726  32.857  31.793  1.00  0.00     0.016 A 
ATOM     36  C   UNL A   1      38.750  33.124  29.855  1.00  0.00     0.010 A 
ATOM     37  C   UNL A   1      37.907  32.149  31.895  1.00  0.00     0.010 A 
ATOM     38  C   UNL A   1      38.906  32.228  30.907  1.00  0.00    -0.014 A 
BRANCH  38  39
ATOM     39  C   UNL A   1      39.995  31.254  31.083  1.00  0.00     0.031 A 
ATOM     40  C   UNL A   1      39.857  29.978  30.376  1.00  0.00     0.074 A 
ATOM     41  C   UNL A   1      41.198  31.590  31.615  1.00  0.00     0.049 A 
ATOM     42  N   UNL A   1      40.557  28.935  30.634  1.00  0.00    -0.248 NA
ATOM     43  C   UNL A   1      38.861  29.736  29.332  1.00  0.00     0.031 C 
ATOM     44  C   UNL A   1      42.526  30.987  31.503  1.00  0.00     0.029 A 
ATOM     45  N   UNL A   1      41.459  32.627  32.488  1.00  0.00    -0.354 N 
ATOM     46  C   UNL A   1      40.472  28.143  29.515  1.00  0.00     0.074 A 
ATOM     47  C   UNL A   1      39.241  28.538  28.891  1.00  0.00     0.031 C 
ATOM     48  C   UNL A   1      43.309  31.414  32.520  1.00  0.00     0.029 A 
ATOM     49  C   UNL A   1      42.479  32.262  33.355  1.00  0.00     0.049 A 
ATOM     50  H   UNL A   1      40.991  33.493  32.496  1.00  0.00     0.167 HD
ATOM     51  C   UNL A   1      41.579  27.442  29.145  1.00  0.00     0.034 A 
ATOM     52  C   UNL A   1      42.188  32.250  34.676  1.00  0.00     0.034 A 
ATOM     53  C   UNL A   1      42.645  27.575  30.165  1.00  0.00     0.049 A 
ATOM     54  C   UNL A   1      42.350  30.794  35.053  1.00  0.00     0.074 A 
ATOM     55  C   UNL A   1      43.932  28.089  30.174  1.00  0.00     0.029 A 
ATOM     56  N   UNL A   1      42.312  27.380  31.508  1.00  0.00    -0.354 N 
ATOM     57  N   UNL A   1      42.103  29.808  34.218  1.00  0.00    -0.248 NA
ATOM     58  C   UNL A   1      43.104  30.367  36.226  1.00  0.00     0.031 C 
ATOM     59  C   UNL A   1      44.334  28.248  31.541  1.00  0.00     0.029 A 
ATOM     60  C   UNL A   1      43.288  27.843  32.361  1.00  0.00     0.049 A 
ATOM     61  H   UNL A   1      41.475  26.960  31.810  1.00  0.00     0.167 HD
ATOM     62  C   UNL A   1      42.842  28.717  34.600  1.00  0.00     0.074 A 
ATOM     63  C   UNL A   1      43.386  29.093  35.902  1.00  0.00     0.031 C 
ATOM     64  C   UNL A   1      43.144  27.645  33.799  1.00  0.00     0.034 A 
BRANCH  51  65
ATOM     65  C   UNL A   1      41.810  26.824  27.774  1.00  0.00     0.023 A 
ATOM     66  C   UNL A   1      42.124  25.451  27.712  1.00  0.00     0.031 A 
ATOM     67  C   UNL A   1      41.774  27.471  26.517  1.00  0.00     0.131 A 
ATOM     68  C   UNL A   1      42.393  24.802  26.491  1.00  0.00     0.055 A 
ATOM     69  C   UNL A   1      42.024  26.824  25.300  1.00  0.00     0.041 A 
ATOM     70  F   UNL A   1      41.498  28.766  26.364  1.00  0.00    -0.206 F 
ATOM     71  C   UNL A   1      42.337  25.480  25.279  1.00  0.00     0.022 A 
BRANCH  68  72
ATOM     72  S   UNL A   1      42.802  23.040  26.510  1.00  0.00     0.124 S 
ATOM     73  O   UNL A   1      42.675  22.683  25.102  1.00  0.00    -0.237 OA
ATOM     74  O   UNL A   1      44.153  23.041  27.059  1.00  0.00    -0.237 OA
ATOM     75  O   UNL A   1      41.783  22.467  27.388  1.00  0.00    -0.744 OA
ENDBRANCH  68  72
ENDBRANCH  51  65
BRANCH  52  76
ATOM     76  C   UNL A   1      41.144  33.320  34.965  1.00  0.00     0.023 A 
ATOM     77  C   UNL A   1      39.865  32.878  35.461  1.00  0.00     0.031 A 
ATOM     78  C   UNL A   1      41.402  34.677  35.139  1.00  0.00     0.131 A 
ATOM     79  C   UNL A   1      38.930  33.716  36.105  1.00  0.00     0.055 A 
ATOM     80  C   UNL A   1      40.485  35.522  35.812  1.00  0.00     0.041 A 
ATOM     81  F   UNL A   1      42.579  35.201  34.770  1.00  0.00    -0.206 F 
ATOM     82  C   UNL A   1      39.267  35.044  36.322  1.00  0.00     0.022 A 
BRANCH  79  83
ATOM     83  S   UNL A   1      37.406  33.020  36.869  1.00  0.00     0.124 S 
ATOM     84  O   UNL A   1      36.313  33.649  36.150  1.00  0.00    -0.237 OA
ATOM     85  O   UNL A   1      37.543  31.585  36.643  1.00  0.00    -0.237 OA
ATOM     86  O   UNL A   1      37.526  33.433  38.266  1.00  0.00    -0.744 OA
ENDBRANCH  79  83
ENDBRANCH  52  76
BRANCH  64  87
ATOM     87  C   UNL A   1      43.317  26.242  34.338  1.00  0.00     0.023 A 
ATOM     88  C   UNL A   1      44.548  25.586  34.330  1.00  0.00     0.031 A 
ATOM     89  C   UNL A   1      42.274  25.571  35.028  1.00  0.00     0.131 A 
ATOM     90  C   UNL A   1      44.705  24.321  34.907  1.00  0.00     0.055 A 
ATOM     91  C   UNL A   1      42.455  24.355  35.687  1.00  0.00     0.041 A 
ATOM     92  F   UNL A   1      41.036  26.074  35.134  1.00  0.00    -0.206 F 
ATOM     93  C   UNL A   1      43.677  23.710  35.617  1.00  0.00     0.022 A 
BRANCH  90  94
ATOM     94  S   UNL A   1      46.281  23.487  34.639  1.00  0.00     0.124 S 
ATOM     95  O   UNL A   1      46.904  24.349  33.638  1.00  0.00    -0.237 OA
ATOM     96  O   UNL A   1      46.886  23.526  35.967  1.00  0.00    -0.237 OA
ATOM     97  O   UNL A   1      45.892  22.161  34.167  1.00  0.00    -0.744 OA
ENDBRANCH  90  94
ENDBRANCH  64  87
ENDBRANCH  38  39
ENDBRANCH  31  33
ENDBRANCH  30  31
ENDBRANCH  29  30
ENDBRANCH  28  29
ENDBRANCH  27  28
ENDBRANCH   1  27
TORSDOF 21
ENDMDL
MODEL 3
REMARK VINA RESULT:     -11.0      2.066      2.454
REMARK SMILES Cc1cccc(OCC(=O)Nc2cc(C(=O)OCCOCCOC(=O)c3ccc(-c4c5nc(c(-c6cc(S(=O)(=O)[O-])ccc6F)c6ccc([nH]6)c(-c6cc(S(=O)(=O)[O-])ccc6F)c6nc(c(-c7cc(S(=O)(=O)[O-])ccc7F)c7ccc4[nH]7)C=C6)C=C5)cc3)c(Cl)cc2Cl)c1
REMARK SMILES IDX 19 1 18 2 17 3 15 4 16 5 14 6 12 7 13 8 92 9 91 10 93 11
REMARK SMILES IDX 89 12 90 13 11 14 9 15 10 16 8 18 7 19 6 20 1 21 2 22 3 23
REMARK SMILES IDX 94 24 4 25 5 26 20 27 21 28 22 29 23 30 24 31 25 32 26 33
REMARK SMILES IDX 27 34 88 35 28 36 87 37 29 38 30 39 31 40 81 41 32 42 86 43
REMARK SMILES IDX 80 44 82 45 33 46 85 47 79 48 78 49 34 51 66 52 46 53 65 54
REMARK SMILES IDX 47 55 50 56 64 57 83 58 48 59 49 60 63 62 84 63 51 64 35 65
REMARK SMILES IDX 36 66 44 67 37 68 43 69 45 70 42 71 38 72 39 73 40 74 41 75
REMARK SMILES IDX 67 76 68 77 76 78 69 79 75 80 77 81 74 82 70 83 71 84 72 85
REMARK SMILES IDX 73 86 52 87 53 88 61 89 54 90 60 91 62 92 59 93 55 94 56 95
REMARK SMILES IDX 57 96 58 97
REMARK H PARENT 11 17 82 50 50 61
REMARK Flexibility Score: inf
ROOT
ATOM      1  C   UNL A   1      31.917  30.949  26.691  1.00  0.00     0.202 C 
ENDROOT
BRANCH   1   2
ATOM      2  C   UNL A   1      32.086  29.563  27.141  1.00  0.00     0.261 C 
BRANCH   2   3
ATOM      3  O   UNL A   1      32.426  28.716  26.052  1.00  0.00    -0.460 OA
BRANCH   3   4
ATOM      4  C   UNL A   1      33.716  28.333  25.894  1.00  0.00     0.339 C 
ATOM      5  O   UNL A   1      34.701  28.875  26.309  1.00  0.00    -0.246 OA
BRANCH   4   6
ATOM      6  C   UNL A   1      33.610  27.053  25.150  1.00  0.00     0.080 A 
ATOM      7  C   UNL A   1      34.079  24.648  25.164  1.00  0.00     0.061 A 
ATOM      8  C   UNL A   1      33.849  25.831  25.843  1.00  0.00     0.045 A 
ATOM      9  C   UNL A   1      33.984  24.702  23.755  1.00  0.00     0.066 A 
ATOM     10  C   UNL A   1      33.653  25.883  23.068  1.00  0.00     0.044 A 
ATOM     11  Cl  UNL A   1      34.305  23.302  22.786  1.00  0.00    -0.082 Cl
ATOM     12  C   UNL A   1      33.475  27.072  23.765  1.00  0.00     0.057 A 
ATOM     13  Cl  UNL A   1      33.203  28.497  22.826  1.00  0.00    -0.083 Cl
BRANCH   7  14
ATOM     14  N   UNL A   1      34.555  23.462  25.772  1.00  0.00    -0.322 N 
ATOM     15  C   UNL A   1      34.063  22.256  26.215  1.00  0.00     0.262 C 
ATOM     16  O   UNL A   1      34.878  21.580  26.861  1.00  0.00    -0.271 OA
ATOM     17  H   UNL A   1      35.526  23.517  25.924  1.00  0.00     0.170 HD
BRANCH  15  18
ATOM     18  C   UNL A   1      32.721  21.626  25.725  1.00  0.00     0.329 C 
BRANCH  18  19
ATOM     19  O   UNL A   1      32.322  21.130  24.443  1.00  0.00    -0.484 OA
BRANCH  19  20
ATOM     20  C   UNL A   1      32.645  19.865  24.041  1.00  0.00     0.120 A 
ATOM     21  C   UNL A   1      35.127  17.085  24.765  1.00  0.00     0.044 C 
ATOM     22  C   UNL A   1      33.991  17.847  24.164  1.00  0.00    -0.047 A 
ATOM     23  C   UNL A   1      33.295  17.296  23.083  1.00  0.00     0.003 A 
ATOM     24  C   UNL A   1      33.622  19.109  24.668  1.00  0.00     0.049 A 
ATOM     25  C   UNL A   1      32.392  18.085  22.388  1.00  0.00     0.004 A 
ATOM     26  C   UNL A   1      32.153  19.396  22.818  1.00  0.00     0.046 A 
ENDBRANCH  19  20
ENDBRANCH  18  19
ENDBRANCH  15  18
ENDBRANCH   7  14
ENDBRANCH   4   6
ENDBRANCH   3   4
ENDBRANCH   2   3
ENDBRANCH   1   2
BRANCH   1  27
ATOM     27  O   UNL A   1      32.855  31.697  27.447  1.00  0.00    -0.374 OA
BRANCH  27  28
ATOM     28  C   UNL A   1      32.578  33.075  27.350  1.00  0.00     0.202 C 
BRANCH  28  29
ATOM     29  C   UNL A   1      33.597  33.926  28.130  1.00  0.00     0.261 C 
BRANCH  29  30
ATOM     30  O   UNL A   1      34.424  33.065  28.955  1.00  0.00    -0.460 OA
BRANCH  30  31
ATOM     31  C   UNL A   1      34.670  33.479  30.236  1.00  0.00     0.338 C 
ATOM     32  O   UNL A   1      33.869  34.042  30.962  1.00  0.00    -0.246 OA
BRANCH  31  33
ATOM     33  C   UNL A   1      36.122  33.294  30.565  1.00  0.00     0.060 A 
ATOM     34  C   UNL A   1      37.114  33.466  29.574  1.00  0.00     0.016 A 
ATOM     35  C   UNL A   1      36.449  32.654  31.755  1.00  0.00     0.016 A 
ATOM     36  C   UNL A   1      38.365  32.836  29.701  1.00  0.00     0.010 A 
ATOM     37  C   UNL A   1      37.643  31.968  31.834  1.00  0.00     0.010 A 
ATOM     38  C   UNL A   1      38.590  32.003  30.793  1.00  0.00    -0.014 A 
BRANCH  38  39
ATOM     39  C   UNL A   1      39.701  31.054  30.965  1.00  0.00     0.031 A 
ATOM     40  C   UNL A   1      39.543  29.736  30.344  1.00  0.00     0.074 A 
ATOM     41  C   UNL A   1      40.926  31.436  31.408  1.00  0.00     0.049 A 
ATOM     42  N   UNL A   1      40.271  28.718  30.625  1.00  0.00    -0.248 NA
ATOM     43  C   UNL A   1      38.494  29.420  29.375  1.00  0.00     0.031 C 
ATOM     44  C   UNL A   1      42.255  30.842  31.258  1.00  0.00     0.029 A 
ATOM     45  N   UNL A   1      41.219  32.527  32.201  1.00  0.00    -0.354 N 
ATOM     46  C   UNL A   1      40.136  27.859  29.563  1.00  0.00     0.074 A 
ATOM     47  C   UNL A   1      38.867  28.201  28.986  1.00  0.00     0.031 C 
ATOM     48  C   UNL A   1      43.087  31.339  32.202  1.00  0.00     0.029 A 
ATOM     49  C   UNL A   1      42.291  32.226  33.030  1.00  0.00     0.049 A 
ATOM     50  H   UNL A   1      40.740  33.386  32.183  1.00  0.00     0.167 HD
ATOM     51  C   UNL A   1      41.231  27.150  29.173  1.00  0.00     0.034 A 
ATOM     52  C   UNL A   1      42.074  32.291  34.363  1.00  0.00     0.034 A 
ATOM     53  C   UNL A   1      42.349  27.356  30.122  1.00  0.00     0.049 A 
ATOM     54  C   UNL A   1      42.278  30.863  34.818  1.00  0.00     0.074 A 
ATOM     55  C   UNL A   1      43.628  27.884  30.029  1.00  0.00     0.029 A 
ATOM     56  N   UNL A   1      42.094  27.240  31.491  1.00  0.00    -0.354 N 
ATOM     57  N   UNL A   1      42.000  29.826  34.059  1.00  0.00    -0.248 NA
ATOM     58  C   UNL A   1      43.102  30.517  35.970  1.00  0.00     0.031 C 
ATOM     59  C   UNL A   1      44.102  28.131  31.359  1.00  0.00     0.029 A 
ATOM     60  C   UNL A   1      43.110  27.765  32.259  1.00  0.00     0.049 A 
ATOM     61  H   UNL A   1      41.281  26.829  31.864  1.00  0.00     0.167 HD
ATOM     62  C   UNL A   1      42.775  28.768  34.463  1.00  0.00     0.074 A 
ATOM     63  C   UNL A   1      43.385  29.228  35.707  1.00  0.00     0.031 C 
ATOM     64  C   UNL A   1      43.048  27.653  33.712  1.00  0.00     0.034 A 
BRANCH  51  65
ATOM     65  C   UNL A   1      41.395  26.452  27.832  1.00  0.00     0.023 A 
ATOM     66  C   UNL A   1      41.537  25.050  27.828  1.00  0.00     0.031 A 
ATOM     67  C   UNL A   1      41.450  27.047  26.550  1.00  0.00     0.131 A 
ATOM     68  C   UNL A   1      41.734  24.323  26.637  1.00  0.00     0.055 A 
ATOM     69  C   UNL A   1      41.628  26.324  25.363  1.00  0.00     0.041 A 
ATOM     70  F   UNL A   1      41.338  28.358  26.342  1.00  0.00    -0.206 F 
ATOM     71  C   UNL A   1      41.773  24.952  25.399  1.00  0.00     0.022 A 
BRANCH  68  72
ATOM     72  S   UNL A   1      41.921  22.526  26.732  1.00  0.00     0.124 S 
ATOM     73  O   UNL A   1      42.402  22.200  25.394  1.00  0.00    -0.237 OA
ATOM     74  O   UNL A   1      42.879  22.370  27.820  1.00  0.00    -0.237 OA
ATOM     75  O   UNL A   1      40.568  22.061  27.034  1.00  0.00    -0.744 OA
ENDBRANCH  68  72
ENDBRANCH  51  65
BRANCH  52  76
ATOM     76  C   UNL A   1      41.032  33.365  34.646  1.00  0.00     0.023 A 
ATOM     77  C   UNL A   1      39.745  32.926  35.122  1.00  0.00     0.031 A 
ATOM     78  C   UNL A   1      41.295  34.719  34.831  1.00  0.00     0.131 A 
ATOM     79  C   UNL A   1      38.806  33.766  35.760  1.00  0.00     0.055 A 
ATOM     80  C   UNL A   1      40.373  35.565  35.499  1.00  0.00     0.041 A 
ATOM     81  F   UNL A   1      42.479  35.240  34.481  1.00  0.00    -0.206 F 
ATOM     82  C   UNL A   1      39.146  35.090  35.990  1.00  0.00     0.022 A 
BRANCH  79  83
ATOM     83  S   UNL A   1      37.268  33.073  36.500  1.00  0.00     0.124 S 
ATOM     84  O   UNL A   1      37.512  31.645  36.587  1.00  0.00    -0.237 OA
ATOM     85  O   UNL A   1      37.176  33.759  37.784  1.00  0.00    -0.237 OA
ATOM     86  O   UNL A   1      36.242  33.453  35.530  1.00  0.00    -0.744 OA
ENDBRANCH  79  83
ENDBRANCH  52  76
BRANCH  64  87
ATOM     87  C   UNL A   1      43.271  26.287  34.323  1.00  0.00     0.023 A 
ATOM     88  C   UNL A   1      44.520  25.665  34.324  1.00  0.00     0.031 A 
ATOM     89  C   UNL A   1      42.261  25.628  35.073  1.00  0.00     0.131 A 
ATOM     90  C   UNL A   1      44.723  24.438  34.967  1.00  0.00     0.055 A 
ATOM     91  C   UNL A   1      42.490  24.456  35.793  1.00  0.00     0.041 A 
ATOM     92  F   UNL A   1      41.013  26.103  35.179  1.00  0.00    -0.206 F 
ATOM     93  C   UNL A   1      43.728  23.841  35.732  1.00  0.00     0.022 A 
BRANCH  90  94
ATOM     94  S   UNL A   1      46.316  23.634  34.710  1.00  0.00     0.124 S 
ATOM     95  O   UNL A   1      47.029  24.635  33.920  1.00  0.00    -0.237 OA
ATOM     96  O   UNL A   1      46.799  23.450  36.075  1.00  0.00    -0.237 OA
ATOM     97  O   UNL A   1      45.970  22.406  33.998  1.00  0.00    -0.744 OA
ENDBRANCH  90  94
ENDBRANCH  64  87
ENDBRANCH  38  39
ENDBRANCH  31  33
ENDBRANCH  30  31
ENDBRANCH  29  30
ENDBRANCH  28  29
ENDBRANCH  27  28
ENDBRANCH   1  27
TORSDOF 21
ENDMDL
