MODEL 1
REMARK VINA RESULT:     -10.8      0.000      0.000
REMARK SMILES O=C(OCCOCCOC(=O)[C@H]1CCC[C@@H]1C[NH2+][C@@H]1CCOC2(CCC2)C1)c1ccc(-c2c3nc(c(-c4cc(S(=O)(=O)[O-])ccc4F)c4ccc([nH]4)c(-c4cc(S(=O)(=O)[O-])ccc4F)c4nc(c(-c5cc(S(=O)(=O)[O-])ccc5F)c5ccc2[nH]5)C=C4)C=C3)cc1
REMARK SMILES IDX 6 1 5 2 4 3 3 4 2 5 1 6 28 7 29 8 90 9 30 10 89 11 31 12
REMARK SMILES IDX 32 13 33 14 83 15 34 16 88 17 82 18 84 19 35 20 87 21 81 22
REMARK SMILES IDX 80 23 36 25 68 26 48 27 67 28 49 29 52 30 66 31 85 32 50 33
REMARK SMILES IDX 51 34 65 36 86 37 53 38 37 39 38 40 46 41 39 42 45 43 47 44
REMARK SMILES IDX 44 45 40 46 41 47 42 48 43 49 69 50 70 51 78 52 71 53 77 54
REMARK SMILES IDX 79 55 76 56 72 57 73 58 74 59 75 60 54 61 55 62 63 63 56 64
REMARK SMILES IDX 62 65 64 66 61 67 57 68 58 69 59 70 60 71 7 72 8 73 9 74
REMARK SMILES IDX 10 75 11 76 12 77 13 78 16 79 14 80 15 81 17 82 18 83 19 86
REMARK SMILES IDX 20 87 27 88 21 89 23 90 22 91 24 92 26 93 25 94
REMARK H PARENT 84 24 52 35 18 84 18 85
REMARK Flexibility Score: inf
ROOT
ATOM      1  O   UNL A   1      31.386  27.547  26.515  1.00  0.00    -0.374 OA
ENDROOT
BRANCH   1   2
ATOM      2  C   UNL A   1      32.330  28.404  27.146  1.00  0.00     0.202 C 
BRANCH   2   3
ATOM      3  C   UNL A   1      33.544  28.812  26.311  1.00  0.00     0.261 C 
BRANCH   3   4
ATOM      4  O   UNL A   1      33.606  30.239  26.223  1.00  0.00    -0.460 OA
BRANCH   4   5
ATOM      5  C   UNL A   1      33.968  31.056  27.243  1.00  0.00     0.338 C 
ATOM      6  O   UNL A   1      33.229  31.988  27.556  1.00  0.00    -0.246 OA
BRANCH   5   7
ATOM      7  C   UNL A   1      35.203  30.818  28.044  1.00  0.00     0.060 A 
ATOM      8  C   UNL A   1      35.431  29.678  28.813  1.00  0.00     0.016 A 
ATOM      9  C   UNL A   1      36.231  31.762  27.954  1.00  0.00     0.016 A 
ATOM     10  C   UNL A   1      36.616  29.426  29.438  1.00  0.00     0.010 A 
ATOM     11  C   UNL A   1      37.457  31.519  28.577  1.00  0.00     0.010 A 
ATOM     12  C   UNL A   1      37.647  30.325  29.279  1.00  0.00    -0.014 A 
BRANCH  12  13
ATOM     13  C   UNL A   1      38.873  29.941  29.959  1.00  0.00     0.031 A 
ATOM     14  C   UNL A   1      39.808  29.052  29.225  1.00  0.00     0.074 A 
ATOM     15  C   UNL A   1      39.193  30.592  31.092  1.00  0.00     0.049 A 
ATOM     16  N   UNL A   1      40.886  28.474  29.656  1.00  0.00    -0.248 NA
ATOM     17  C   UNL A   1      39.495  28.791  27.806  1.00  0.00     0.031 C 
ATOM     18  C   UNL A   1      38.405  31.677  31.699  1.00  0.00     0.029 A 
ATOM     19  N   UNL A   1      40.275  30.476  31.914  1.00  0.00    -0.354 N 
ATOM     20  C   UNL A   1      41.342  27.715  28.590  1.00  0.00     0.074 A 
ATOM     21  C   UNL A   1      40.458  27.946  27.472  1.00  0.00     0.031 C 
ATOM     22  C   UNL A   1      39.030  32.111  32.803  1.00  0.00     0.029 A 
ATOM     23  C   UNL A   1      40.182  31.258  33.042  1.00  0.00     0.049 A 
ATOM     24  H   UNL A   1      41.043  29.891  31.722  1.00  0.00     0.167 HD
ATOM     25  C   UNL A   1      42.390  26.865  28.603  1.00  0.00     0.034 A 
ATOM     26  C   UNL A   1      40.902  31.196  34.177  1.00  0.00     0.034 A 
ATOM     27  C   UNL A   1      43.212  26.700  29.772  1.00  0.00     0.049 A 
ATOM     28  C   UNL A   1      41.977  30.139  34.215  1.00  0.00     0.074 A 
ATOM     29  C   UNL A   1      44.266  25.835  29.977  1.00  0.00     0.029 A 
ATOM     30  N   UNL A   1      43.048  27.427  30.950  1.00  0.00    -0.354 N 
ATOM     31  N   UNL A   1      42.362  29.324  33.254  1.00  0.00    -0.248 NA
ATOM     32  C   UNL A   1      42.688  29.961  35.481  1.00  0.00     0.031 C 
ATOM     33  C   UNL A   1      44.688  25.987  31.303  1.00  0.00     0.029 A 
ATOM     34  C   UNL A   1      43.950  27.001  31.903  1.00  0.00     0.049 A 
ATOM     35  H   UNL A   1      42.383  28.142  31.082  1.00  0.00     0.167 HD
ATOM     36  C   UNL A   1      43.367  28.539  33.799  1.00  0.00     0.074 A 
ATOM     37  C   UNL A   1      43.550  29.005  35.163  1.00  0.00     0.031 C 
ATOM     38  C   UNL A   1      44.070  27.517  33.247  1.00  0.00     0.034 A 
BRANCH  25  39
ATOM     39  C   UNL A   1      42.566  25.975  27.406  1.00  0.00     0.023 A 
ATOM     40  C   UNL A   1      42.058  24.666  27.353  1.00  0.00     0.031 A 
ATOM     41  C   UNL A   1      43.343  26.428  26.324  1.00  0.00     0.131 A 
ATOM     42  C   UNL A   1      42.377  23.841  26.262  1.00  0.00     0.055 A 
ATOM     43  C   UNL A   1      43.598  25.627  25.213  1.00  0.00     0.041 A 
ATOM     44  F   UNL A   1      43.895  27.652  26.347  1.00  0.00    -0.206 F 
ATOM     45  C   UNL A   1      43.121  24.321  25.181  1.00  0.00     0.022 A 
BRANCH  42  46
ATOM     46  S   UNL A   1      41.909  22.089  26.327  1.00  0.00     0.124 S 
ATOM     47  O   UNL A   1      42.319  21.725  27.681  1.00  0.00    -0.237 OA
ATOM     48  O   UNL A   1      40.471  22.135  26.086  1.00  0.00    -0.237 OA
ATOM     49  O   UNL A   1      42.700  21.482  25.258  1.00  0.00    -0.744 OA
ENDBRANCH  42  46
ENDBRANCH  25  39
BRANCH  26  50
ATOM     50  C   UNL A   1      40.540  32.010  35.375  1.00  0.00     0.023 A 
ATOM     51  C   UNL A   1      39.516  31.608  36.243  1.00  0.00     0.031 A 
ATOM     52  C   UNL A   1      41.155  33.255  35.627  1.00  0.00     0.131 A 
ATOM     53  C   UNL A   1      39.095  32.463  37.277  1.00  0.00     0.055 A 
ATOM     54  C   UNL A   1      40.785  34.066  36.700  1.00  0.00     0.041 A 
ATOM     55  F   UNL A   1      42.131  33.710  34.825  1.00  0.00    -0.206 F 
ATOM     56  C   UNL A   1      39.732  33.681  37.521  1.00  0.00     0.022 A 
BRANCH  53  57
ATOM     57  S   UNL A   1      37.603  32.022  38.209  1.00  0.00     0.124 S 
ATOM     58  O   UNL A   1      37.343  30.669  37.731  1.00  0.00    -0.237 OA
ATOM     59  O   UNL A   1      38.063  32.138  39.589  1.00  0.00    -0.237 OA
ATOM     60  O   UNL A   1      36.630  33.030  37.789  1.00  0.00    -0.744 OA
ENDBRANCH  53  57
ENDBRANCH  26  50
BRANCH  38  61
ATOM     61  C   UNL A   1      45.106  26.879  34.127  1.00  0.00     0.023 A 
ATOM     62  C   UNL A   1      44.822  25.708  34.846  1.00  0.00     0.031 A 
ATOM     63  C   UNL A   1      46.389  27.438  34.221  1.00  0.00     0.131 A 
ATOM     64  C   UNL A   1      45.807  25.151  35.669  1.00  0.00     0.055 A 
ATOM     65  C   UNL A   1      47.385  26.843  34.990  1.00  0.00     0.041 A 
ATOM     66  F   UNL A   1      46.698  28.559  33.549  1.00  0.00    -0.206 F 
ATOM     67  C   UNL A   1      47.093  25.698  35.728  1.00  0.00     0.022 A 
BRANCH  64  68
ATOM     68  S   UNL A   1      45.363  23.742  36.714  1.00  0.00     0.124 S 
ATOM     69  O   UNL A   1      44.754  24.400  37.865  1.00  0.00    -0.237 OA
ATOM     70  O   UNL A   1      44.454  22.987  35.857  1.00  0.00    -0.237 OA
ATOM     71  O   UNL A   1      46.647  23.093  36.976  1.00  0.00    -0.744 OA
ENDBRANCH  64  68
ENDBRANCH  38  61
ENDBRANCH  12  13
ENDBRANCH   5   7
ENDBRANCH   4   5
ENDBRANCH   3   4
ENDBRANCH   2   3
ENDBRANCH   1   2
BRANCH   1  72
ATOM     72  C   UNL A   1      31.669  26.159  26.491  1.00  0.00     0.202 C 
BRANCH  72  73
ATOM     73  C   UNL A   1      30.401  25.401  26.112  1.00  0.00     0.261 C 
BRANCH  73  74
ATOM     74  O   UNL A   1      30.640  24.722  24.868  1.00  0.00    -0.463 OA
BRANCH  74  75
ATOM     75  C   UNL A   1      30.439  25.436  23.723  1.00  0.00     0.309 C 
ATOM     76  O   UNL A   1      29.559  26.253  23.547  1.00  0.00    -0.252 OA
BRANCH  75  77
ATOM     77  C   UNL A   1      31.496  25.108  22.670  1.00  0.00     0.108 C 
ATOM     78  C   UNL A   1      31.802  26.117  21.556  1.00  0.00     0.016 C 
ATOM     79  C   UNL A   1      32.884  24.900  23.274  1.00  0.00     0.058 C 
ATOM     80  C   UNL A   1      33.009  26.954  22.022  1.00  0.00     0.001 C 
ATOM     81  C   UNL A   1      33.495  26.305  23.311  1.00  0.00     0.010 C 
BRANCH  79  82
ATOM     82  C   UNL A   1      33.708  23.984  22.370  1.00  0.00     0.265 C 
BRANCH  82  83
ATOM     83  N   UNL A   1      34.363  23.000  23.219  1.00  0.00    -0.343 N 
ATOM     84  H   UNL A   1      34.631  22.207  22.635  1.00  0.00     0.346 HD
ATOM     85  H   UNL A   1      33.691  22.759  23.946  1.00  0.00     0.346 HD
BRANCH  83  86
ATOM     86  C   UNL A   1      35.554  23.476  23.906  1.00  0.00     0.187 C 
ATOM     87  C   UNL A   1      36.655  22.407  23.795  1.00  0.00     0.093 C 
ATOM     88  C   UNL A   1      35.303  23.795  25.381  1.00  0.00     0.100 C 
ATOM     89  C   UNL A   1      36.393  21.203  24.700  1.00  0.00     0.167 C 
ATOM     90  C   UNL A   1      34.926  22.519  26.134  1.00  0.00     0.074 C 
ATOM     91  O   UNL A   1      36.060  21.613  26.035  1.00  0.00    -0.375 OA
ATOM     92  C   UNL A   1      34.442  22.872  27.570  1.00  0.00     0.036 C 
ATOM     93  C   UNL A   1      33.526  21.802  25.984  1.00  0.00     0.036 C 
ATOM     94  C   UNL A   1      33.516  21.645  27.509  1.00  0.00     0.006 C 
ENDBRANCH  83  86
ENDBRANCH  82  83
ENDBRANCH  79  82
ENDBRANCH  75  77
ENDBRANCH  74  75
ENDBRANCH  73  74
ENDBRANCH  72  73
ENDBRANCH   1  72
TORSDOF 20
ENDMDL
MODEL 2
REMARK VINA RESULT:     -10.6      4.582      7.598
REMARK SMILES O=C(OCCOCCOC(=O)[C@H]1CCC[C@@H]1C[NH2+][C@@H]1CCOC2(CCC2)C1)c1ccc(-c2c3nc(c(-c4cc(S(=O)(=O)[O-])ccc4F)c4ccc([nH]4)c(-c4cc(S(=O)(=O)[O-])ccc4F)c4nc(c(-c5cc(S(=O)(=O)[O-])ccc5F)c5ccc2[nH]5)C=C4)C=C3)cc1
REMARK SMILES IDX 6 1 5 2 4 3 3 4 2 5 1 6 28 7 29 8 90 9 30 10 89 11 31 12
REMARK SMILES IDX 32 13 33 14 83 15 34 16 88 17 82 18 84 19 35 20 87 21 81 22
REMARK SMILES IDX 80 23 36 25 68 26 48 27 67 28 49 29 52 30 66 31 85 32 50 33
REMARK SMILES IDX 51 34 65 36 86 37 53 38 37 39 38 40 46 41 39 42 45 43 47 44
REMARK SMILES IDX 44 45 40 46 41 47 42 48 43 49 69 50 70 51 78 52 71 53 77 54
REMARK SMILES IDX 79 55 76 56 72 57 73 58 74 59 75 60 54 61 55 62 63 63 56 64
REMARK SMILES IDX 62 65 64 66 61 67 57 68 58 69 59 70 60 71 7 72 8 73 9 74
REMARK SMILES IDX 10 75 11 76 12 77 13 78 16 79 14 80 15 81 17 82 18 83 19 86
REMARK SMILES IDX 20 87 27 88 21 89 23 90 22 91 24 92 26 93 25 94
REMARK H PARENT 84 24 52 35 18 84 18 85
REMARK Flexibility Score: inf
ROOT
ATOM      1  O   UNL A   1      37.950  21.176  24.701  1.00  0.00    -0.374 OA
ENDROOT
BRANCH   1   2
ATOM      2  C   UNL A   1      37.967  19.756  24.779  1.00  0.00     0.202 C 
BRANCH   2   3
ATOM      3  C   UNL A   1      38.969  19.139  25.755  1.00  0.00     0.261 C 
BRANCH   3   4
ATOM      4  O   UNL A   1      40.108  19.996  25.877  1.00  0.00    -0.460 OA
BRANCH   4   5
ATOM      5  C   UNL A   1      40.605  20.448  27.055  1.00  0.00     0.338 C 
ATOM      6  O   UNL A   1      40.924  19.636  27.922  1.00  0.00    -0.246 OA
BRANCH   5   7
ATOM      7  C   UNL A   1      40.842  21.898  27.307  1.00  0.00     0.060 A 
ATOM      8  C   UNL A   1      41.793  22.393  28.198  1.00  0.00     0.016 A 
ATOM      9  C   UNL A   1      40.121  22.821  26.542  1.00  0.00     0.016 A 
ATOM     10  C   UNL A   1      42.077  23.721  28.322  1.00  0.00     0.010 A 
ATOM     11  C   UNL A   1      40.404  24.184  26.644  1.00  0.00     0.010 A 
ATOM     12  C   UNL A   1      41.415  24.613  27.509  1.00  0.00    -0.014 A 
BRANCH  12  13
ATOM     13  C   UNL A   1      41.820  25.997  27.700  1.00  0.00     0.031 A 
ATOM     14  C   UNL A   1      43.064  26.442  27.024  1.00  0.00     0.074 A 
ATOM     15  C   UNL A   1      40.936  26.836  28.270  1.00  0.00     0.049 A 
ATOM     16  N   UNL A   1      43.694  27.569  27.142  1.00  0.00    -0.248 NA
ATOM     17  C   UNL A   1      43.674  25.493  26.072  1.00  0.00     0.031 C 
ATOM     18  C   UNL A   1      39.579  26.470  28.707  1.00  0.00     0.029 A 
ATOM     19  N   UNL A   1      41.018  28.170  28.542  1.00  0.00    -0.354 N 
ATOM     20  C   UNL A   1      44.819  27.442  26.343  1.00  0.00     0.074 A 
ATOM     21  C   UNL A   1      44.761  26.150  25.700  1.00  0.00     0.031 C 
ATOM     22  C   UNL A   1      38.969  27.556  29.204  1.00  0.00     0.029 A 
ATOM     23  C   UNL A   1      39.928  28.647  29.232  1.00  0.00     0.049 A 
ATOM     24  H   UNL A   1      41.780  28.733  28.274  1.00  0.00     0.167 HD
ATOM     25  C   UNL A   1      45.823  28.336  26.226  1.00  0.00     0.034 A 
ATOM     26  C   UNL A   1      39.789  29.809  29.896  1.00  0.00     0.034 A 
ATOM     27  C   UNL A   1      45.791  29.599  26.914  1.00  0.00     0.049 A 
ATOM     28  C   UNL A   1      40.983  30.730  29.864  1.00  0.00     0.074 A 
ATOM     29  C   UNL A   1      46.751  30.588  26.959  1.00  0.00     0.029 A 
ATOM     30  N   UNL A   1      44.721  30.035  27.695  1.00  0.00    -0.354 N 
ATOM     31  N   UNL A   1      42.113  30.586  29.202  1.00  0.00    -0.248 NA
ATOM     32  C   UNL A   1      40.911  31.941  30.683  1.00  0.00     0.031 C 
ATOM     33  C   UNL A   1      46.293  31.585  27.829  1.00  0.00     0.029 A 
ATOM     34  C   UNL A   1      45.015  31.257  28.265  1.00  0.00     0.049 A 
ATOM     35  H   UNL A   1      43.878  29.541  27.822  1.00  0.00     0.167 HD
ATOM     36  C   UNL A   1      42.886  31.693  29.522  1.00  0.00     0.074 A 
ATOM     37  C   UNL A   1      42.075  32.511  30.408  1.00  0.00     0.031 C 
ATOM     38  C   UNL A   1      44.150  32.012  29.142  1.00  0.00     0.034 A 
BRANCH  25  39
ATOM     39  C   UNL A   1      47.051  27.894  25.484  1.00  0.00     0.023 A 
ATOM     40  C   UNL A   1      47.234  28.130  24.111  1.00  0.00     0.031 A 
ATOM     41  C   UNL A   1      48.024  27.136  26.161  1.00  0.00     0.131 A 
ATOM     42  C   UNL A   1      48.339  27.570  23.451  1.00  0.00     0.055 A 
ATOM     43  C   UNL A   1      49.155  26.640  25.513  1.00  0.00     0.041 A 
ATOM     44  F   UNL A   1      47.872  26.837  27.461  1.00  0.00    -0.206 F 
ATOM     45  C   UNL A   1      49.314  26.849  24.147  1.00  0.00     0.022 A 
BRANCH  42  46
ATOM     46  S   UNL A   1      48.430  27.690  21.642  1.00  0.00     0.124 S 
ATOM     47  O   UNL A   1      47.107  28.219  21.316  1.00  0.00    -0.237 OA
ATOM     48  O   UNL A   1      49.550  28.603  21.439  1.00  0.00    -0.237 OA
ATOM     49  O   UNL A   1      48.665  26.312  21.217  1.00  0.00    -0.744 OA
ENDBRANCH  42  46
ENDBRANCH  25  39
BRANCH  26  50
ATOM     50  C   UNL A   1      38.592  30.084  30.745  1.00  0.00     0.023 A 
ATOM     51  C   UNL A   1      37.539  30.883  30.279  1.00  0.00     0.031 A 
ATOM     52  C   UNL A   1      38.519  29.623  32.077  1.00  0.00     0.131 A 
ATOM     53  C   UNL A   1      36.497  31.248  31.148  1.00  0.00     0.055 A 
ATOM     54  C   UNL A   1      37.444  29.927  32.913  1.00  0.00     0.041 A 
ATOM     55  F   UNL A   1      39.502  28.868  32.595  1.00  0.00    -0.206 F 
ATOM     56  C   UNL A   1      36.434  30.764  32.457  1.00  0.00     0.022 A 
BRANCH  53  57
ATOM     57  S   UNL A   1      35.298  32.488  30.587  1.00  0.00     0.124 S 
ATOM     58  O   UNL A   1      36.153  33.648  30.365  1.00  0.00    -0.237 OA
ATOM     59  O   UNL A   1      34.748  31.857  29.391  1.00  0.00    -0.237 OA
ATOM     60  O   UNL A   1      34.373  32.600  31.713  1.00  0.00    -0.744 OA
ENDBRANCH  53  57
ENDBRANCH  26  50
BRANCH  38  61
ATOM     61  C   UNL A   1      44.690  33.308  29.673  1.00  0.00     0.023 A 
ATOM     62  C   UNL A   1      45.309  33.374  30.931  1.00  0.00     0.031 A 
ATOM     63  C   UNL A   1      44.604  34.475  28.899  1.00  0.00     0.131 A 
ATOM     64  C   UNL A   1      45.785  34.603  31.399  1.00  0.00     0.055 A 
ATOM     65  C   UNL A   1      45.139  35.682  29.343  1.00  0.00     0.041 A 
ATOM     66  F   UNL A   1      44.018  34.453  27.690  1.00  0.00    -0.206 F 
ATOM     67  C   UNL A   1      45.724  35.752  30.604  1.00  0.00     0.022 A 
BRANCH  64  68
ATOM     68  S   UNL A   1      46.423  34.693  33.091  1.00  0.00     0.124 S 
ATOM     69  O   UNL A   1      46.529  33.283  33.450  1.00  0.00    -0.237 OA
ATOM     70  O   UNL A   1      47.686  35.402  32.914  1.00  0.00    -0.237 OA
ATOM     71  O   UNL A   1      45.390  35.441  33.806  1.00  0.00    -0.744 OA
ENDBRANCH  64  68
ENDBRANCH  38  61
ENDBRANCH  12  13
ENDBRANCH   5   7
ENDBRANCH   4   5
ENDBRANCH   3   4
ENDBRANCH   2   3
ENDBRANCH   1   2
BRANCH   1  72
ATOM     72  C   UNL A   1      36.710  21.807  24.433  1.00  0.00     0.202 C 
BRANCH  72  73
ATOM     73  C   UNL A   1      35.589  20.987  25.065  1.00  0.00     0.261 C 
BRANCH  73  74
ATOM     74  O   UNL A   1      34.435  21.833  25.195  1.00  0.00    -0.463 OA
BRANCH  74  75
ATOM     75  C   UNL A   1      33.228  21.217  25.350  1.00  0.00     0.309 C 
ATOM     76  O   UNL A   1      33.061  20.087  25.760  1.00  0.00    -0.252 OA
BRANCH  75  77
ATOM     77  C   UNL A   1      32.076  22.146  24.973  1.00  0.00     0.108 C 
ATOM     78  C   UNL A   1      30.827  22.214  25.862  1.00  0.00     0.016 C 
ATOM     79  C   UNL A   1      32.494  23.616  24.935  1.00  0.00     0.058 C 
ATOM     80  C   UNL A   1      31.023  23.397  26.830  1.00  0.00     0.001 C 
ATOM     81  C   UNL A   1      32.291  24.105  26.372  1.00  0.00     0.010 C 
BRANCH  79  82
ATOM     82  C   UNL A   1      31.585  24.386  23.977  1.00  0.00     0.265 C 
BRANCH  82  83
ATOM     83  N   UNL A   1      31.944  25.793  24.064  1.00  0.00    -0.343 N 
ATOM     84  H   UNL A   1      32.337  26.076  23.165  1.00  0.00     0.346 HD
ATOM     85  H   UNL A   1      32.604  25.872  24.837  1.00  0.00     0.346 HD
BRANCH  83  86
ATOM     86  C   UNL A   1      30.842  26.691  24.376  1.00  0.00     0.187 C 
ATOM     87  C   UNL A   1      30.784  27.799  23.311  1.00  0.00     0.093 C 
ATOM     88  C   UNL A   1      30.965  27.325  25.763  1.00  0.00     0.100 C 
ATOM     89  C   UNL A   1      31.905  28.826  23.474  1.00  0.00     0.167 C 
ATOM     90  C   UNL A   1      32.201  28.224  25.818  1.00  0.00     0.074 C 
ATOM     91  O   UNL A   1      32.008  29.277  24.833  1.00  0.00    -0.375 OA
ATOM     92  C   UNL A   1      32.463  28.680  27.282  1.00  0.00     0.036 C 
ATOM     93  C   UNL A   1      33.680  27.668  25.870  1.00  0.00     0.036 C 
ATOM     94  C   UNL A   1      33.966  28.714  26.954  1.00  0.00     0.006 C 
ENDBRANCH  83  86
ENDBRANCH  82  83
ENDBRANCH  79  82
ENDBRANCH  75  77
ENDBRANCH  74  75
ENDBRANCH  73  74
ENDBRANCH  72  73
ENDBRANCH   1  72
TORSDOF 20
ENDMDL
MODEL 3
REMARK VINA RESULT:     -10.6      4.943     10.066
REMARK SMILES O=C(OCCOCCOC(=O)[C@H]1CCC[C@@H]1C[NH2+][C@@H]1CCOC2(CCC2)C1)c1ccc(-c2c3nc(c(-c4cc(S(=O)(=O)[O-])ccc4F)c4ccc([nH]4)c(-c4cc(S(=O)(=O)[O-])ccc4F)c4nc(c(-c5cc(S(=O)(=O)[O-])ccc5F)c5ccc2[nH]5)C=C4)C=C3)cc1
REMARK SMILES IDX 6 1 5 2 4 3 3 4 2 5 1 6 28 7 29 8 90 9 30 10 89 11 31 12
REMARK SMILES IDX 32 13 33 14 83 15 34 16 88 17 82 18 84 19 35 20 87 21 81 22
REMARK SMILES IDX 80 23 36 25 68 26 48 27 67 28 49 29 52 30 66 31 85 32 50 33
REMARK SMILES IDX 51 34 65 36 86 37 53 38 37 39 38 40 46 41 39 42 45 43 47 44
REMARK SMILES IDX 44 45 40 46 41 47 42 48 43 49 69 50 70 51 78 52 71 53 77 54
REMARK SMILES IDX 79 55 76 56 72 57 73 58 74 59 75 60 54 61 55 62 63 63 56 64
REMARK SMILES IDX 62 65 64 66 61 67 57 68 58 69 59 70 60 71 7 72 8 73 9 74
REMARK SMILES IDX 10 75 11 76 12 77 13 78 16 79 14 80 15 81 17 82 18 83 19 86
REMARK SMILES IDX 20 87 27 88 21 89 23 90 22 91 24 92 26 93 25 94
REMARK H PARENT 84 24 52 35 18 84 18 85
REMARK Flexibility Score: inf
ROOT
ATOM      1  O   UNL A   1      35.174  18.989  24.730  1.00  0.00    -0.374 OA
ENDROOT
BRANCH   1   2
ATOM      2  C   UNL A   1      35.716  20.277  24.995  1.00  0.00     0.202 C 
BRANCH   2   3
ATOM      3  C   UNL A   1      37.220  20.442  24.778  1.00  0.00     0.261 C 
BRANCH   3   4
ATOM      4  O   UNL A   1      37.719  21.466  25.644  1.00  0.00    -0.460 OA
BRANCH   4   5
ATOM      5  C   UNL A   1      38.990  21.524  26.112  1.00  0.00     0.338 C 
ATOM      6  O   UNL A   1      39.697  20.520  26.053  1.00  0.00    -0.246 OA
BRANCH   5   7
ATOM      7  C   UNL A   1      39.581  22.789  26.635  1.00  0.00     0.060 A 
ATOM      8  C   UNL A   1      40.632  22.843  27.548  1.00  0.00     0.016 A 
ATOM      9  C   UNL A   1      39.103  23.997  26.116  1.00  0.00     0.016 A 
ATOM     10  C   UNL A   1      41.238  24.008  27.919  1.00  0.00     0.010 A 
ATOM     11  C   UNL A   1      39.716  25.200  26.473  1.00  0.00     0.010 A 
ATOM     12  C   UNL A   1      40.810  25.182  27.343  1.00  0.00    -0.014 A 
BRANCH  12  13
ATOM     13  C   UNL A   1      41.546  26.357  27.783  1.00  0.00     0.031 A 
ATOM     14  C   UNL A   1      40.848  27.292  28.701  1.00  0.00     0.074 A 
ATOM     15  C   UNL A   1      42.866  26.402  27.531  1.00  0.00     0.049 A 
ATOM     16  N   UNL A   1      41.235  28.455  29.124  1.00  0.00    -0.248 NA
ATOM     17  C   UNL A   1      39.543  26.849  29.229  1.00  0.00     0.031 C 
ATOM     18  C   UNL A   1      43.636  25.348  26.850  1.00  0.00     0.029 A 
ATOM     19  N   UNL A   1      43.805  27.339  27.845  1.00  0.00    -0.354 N 
ATOM     20  C   UNL A   1      40.190  28.924  29.904  1.00  0.00     0.074 A 
ATOM     21  C   UNL A   1      39.174  27.900  29.944  1.00  0.00     0.031 C 
ATOM     22  C   UNL A   1      44.925  25.712  26.792  1.00  0.00     0.029 A 
ATOM     23  C   UNL A   1      45.043  27.063  27.313  1.00  0.00     0.049 A 
ATOM     24  H   UNL A   1      43.616  28.133  28.396  1.00  0.00     0.167 HD
ATOM     25  C   UNL A   1      40.105  30.142  30.480  1.00  0.00     0.034 A 
ATOM     26  C   UNL A   1      46.108  27.875  27.181  1.00  0.00     0.034 A 
ATOM     27  C   UNL A   1      41.174  31.099  30.378  1.00  0.00     0.049 A 
ATOM     28  C   UNL A   1      45.933  29.277  27.709  1.00  0.00     0.074 A 
ATOM     29  C   UNL A   1      41.224  32.397  30.842  1.00  0.00     0.029 A 
ATOM     30  N   UNL A   1      42.392  30.846  29.748  1.00  0.00    -0.354 N 
ATOM     31  N   UNL A   1      44.907  29.788  28.358  1.00  0.00    -0.248 NA
ATOM     32  C   UNL A   1      47.025  30.220  27.463  1.00  0.00     0.031 C 
ATOM     33  C   UNL A   1      42.440  32.951  30.424  1.00  0.00     0.029 A 
ATOM     34  C   UNL A   1      43.183  31.976  29.768  1.00  0.00     0.049 A 
ATOM     35  H   UNL A   1      42.649  29.984  29.346  1.00  0.00     0.167 HD
ATOM     36  C   UNL A   1      45.234  31.114  28.604  1.00  0.00     0.074 A 
ATOM     37  C   UNL A   1      46.568  31.310  28.063  1.00  0.00     0.031 C 
ATOM     38  C   UNL A   1      44.508  32.093  29.203  1.00  0.00     0.034 A 
BRANCH  25  39
ATOM     39  C   UNL A   1      38.786  30.522  31.088  1.00  0.00     0.023 A 
ATOM     40  C   UNL A   1      37.849  31.330  30.423  1.00  0.00     0.031 A 
ATOM     41  C   UNL A   1      38.504  30.131  32.409  1.00  0.00     0.131 A 
ATOM     42  C   UNL A   1      36.698  31.761  31.101  1.00  0.00     0.055 A 
ATOM     43  C   UNL A   1      37.326  30.506  33.054  1.00  0.00     0.041 A 
ATOM     44  F   UNL A   1      39.389  29.402  33.108  1.00  0.00    -0.206 F 
ATOM     45  C   UNL A   1      36.418  31.334  32.402  1.00  0.00     0.022 A 
BRANCH  42  46
ATOM     46  S   UNL A   1      35.624  32.989  30.307  1.00  0.00     0.124 S 
ATOM     47  O   UNL A   1      34.327  32.318  30.351  1.00  0.00    -0.237 OA
ATOM     48  O   UNL A   1      35.772  34.152  31.176  1.00  0.00    -0.237 OA
ATOM     49  O   UNL A   1      36.198  33.135  28.970  1.00  0.00    -0.744 OA
ENDBRANCH  42  46
ENDBRANCH  25  39
BRANCH  26  50
ATOM     50  C   UNL A   1      47.316  27.457  26.410  1.00  0.00     0.023 A 
ATOM     51  C   UNL A   1      47.464  27.789  25.056  1.00  0.00     0.031 A 
ATOM     52  C   UNL A   1      48.309  26.640  26.991  1.00  0.00     0.131 A 
ATOM     53  C   UNL A   1      48.534  27.260  24.316  1.00  0.00     0.055 A 
ATOM     54  C   UNL A   1      49.410  26.178  26.270  1.00  0.00     0.041 A 
ATOM     55  F   UNL A   1      48.222  26.268  28.279  1.00  0.00    -0.206 F 
ATOM     56  C   UNL A   1      49.517  26.470  24.916  1.00  0.00     0.022 A 
BRANCH  53  57
ATOM     57  S   UNL A   1      48.544  27.500  22.518  1.00  0.00     0.124 S 
ATOM     58  O   UNL A   1      48.556  26.124  22.035  1.00  0.00    -0.237 OA
ATOM     59  O   UNL A   1      47.307  28.245  22.306  1.00  0.00    -0.237 OA
ATOM     60  O   UNL A   1      49.774  28.255  22.283  1.00  0.00    -0.744 OA
ENDBRANCH  53  57
ENDBRANCH  26  50
BRANCH  38  61
ATOM     61  C   UNL A   1      45.175  33.433  29.314  1.00  0.00     0.023 A 
ATOM     62  C   UNL A   1      44.947  34.436  28.359  1.00  0.00     0.031 A 
ATOM     63  C   UNL A   1      46.022  33.710  30.398  1.00  0.00     0.131 A 
ATOM     64  C   UNL A   1      45.600  35.667  28.486  1.00  0.00     0.055 A 
ATOM     65  C   UNL A   1      46.616  34.959  30.554  1.00  0.00     0.041 A 
ATOM     66  F   UNL A   1      46.265  32.776  31.332  1.00  0.00    -0.206 F 
ATOM     67  C   UNL A   1      46.414  35.942  29.589  1.00  0.00     0.022 A 
BRANCH  64  68
ATOM     68  S   UNL A   1      45.423  36.879  27.153  1.00  0.00     0.124 S 
ATOM     69  O   UNL A   1      46.247  36.293  26.101  1.00  0.00    -0.237 OA
ATOM     70  O   UNL A   1      43.984  36.875  26.912  1.00  0.00    -0.237 OA
ATOM     71  O   UNL A   1      45.948  38.111  27.740  1.00  0.00    -0.744 OA
ENDBRANCH  64  68
ENDBRANCH  38  61
ENDBRANCH  12  13
ENDBRANCH   5   7
ENDBRANCH   4   5
ENDBRANCH   3   4
ENDBRANCH   2   3
ENDBRANCH   1   2
BRANCH   1  72
ATOM     72  C   UNL A   1      33.799  18.908  24.396  1.00  0.00     0.202 C 
BRANCH  72  73
ATOM     73  C   UNL A   1      32.969  19.275  25.622  1.00  0.00     0.261 C 
BRANCH  73  74
ATOM     74  O   UNL A   1      31.898  20.134  25.196  1.00  0.00    -0.463 OA
BRANCH  74  75
ATOM     75  C   UNL A   1      32.243  21.362  24.712  1.00  0.00     0.309 C 
ATOM     76  O   UNL A   1      32.549  21.606  23.563  1.00  0.00    -0.252 OA
BRANCH  75  77
ATOM     77  C   UNL A   1      32.164  22.431  25.800  1.00  0.00     0.108 C 
ATOM     78  C   UNL A   1      32.937  22.243  27.112  1.00  0.00     0.016 C 
ATOM     79  C   UNL A   1      32.696  23.786  25.333  1.00  0.00     0.058 C 
ATOM     80  C   UNL A   1      34.282  22.977  26.956  1.00  0.00     0.001 C 
ATOM     81  C   UNL A   1      34.197  23.727  25.634  1.00  0.00     0.010 C 
BRANCH  79  82
ATOM     82  C   UNL A   1      32.035  24.904  26.138  1.00  0.00     0.265 C 
BRANCH  82  83
ATOM     83  N   UNL A   1      32.658  26.159  25.743  1.00  0.00    -0.343 N 
ATOM     84  H   UNL A   1      33.562  25.944  25.322  1.00  0.00     0.346 HD
ATOM     85  H   UNL A   1      32.729  26.721  26.591  1.00  0.00     0.346 HD
BRANCH  83  86
ATOM     86  C   UNL A   1      31.895  26.952  24.792  1.00  0.00     0.187 C 
ATOM     87  C   UNL A   1      32.797  27.301  23.596  1.00  0.00     0.093 C 
ATOM     88  C   UNL A   1      31.338  28.240  25.401  1.00  0.00     0.100 C 
ATOM     89  C   UNL A   1      33.830  28.375  23.938  1.00  0.00     0.167 C 
ATOM     90  C   UNL A   1      32.487  29.161  25.813  1.00  0.00     0.074 C 
ATOM     91  O   UNL A   1      33.223  29.492  24.604  1.00  0.00    -0.375 OA
ATOM     92  C   UNL A   1      31.938  30.358  26.643  1.00  0.00     0.036 C 
ATOM     93  C   UNL A   1      33.412  28.892  27.066  1.00  0.00     0.036 C 
ATOM     94  C   UNL A   1      33.274  30.380  27.406  1.00  0.00     0.006 C 
ENDBRANCH  83  86
ENDBRANCH  82  83
ENDBRANCH  79  82
ENDBRANCH  75  77
ENDBRANCH  74  75
ENDBRANCH  73  74
ENDBRANCH  72  73
ENDBRANCH   1  72
TORSDOF 20
ENDMDL
