MODEL 1
REMARK VINA RESULT:     -10.1      0.000      0.000
REMARK SMILES COC[C@@H](C)CC(=O)Nc1cccc(/C=C/C(=O)OCCOCCOC(=O)c2ccc(-c3c4nc(c(-c5cc(S(=O)(=O)[O-])ccc5F)c5ccc([nH]5)c(-c5cc(S(=O)(=O)[O-])ccc5F)c5nc(c(-c6cc(S(=O)(=O)[O-])ccc6F)c6ccc3[nH]6)C=C5)C=C4)cc2)c1
REMARK SMILES IDX 20 1 19 2 17 3 18 4 16 5 15 6 14 7 10 8 11 9 91 10 12 11
REMARK SMILES IDX 13 12 9 13 7 14 8 15 6 17 4 18 5 19 3 20 2 21 1 22 21 23
REMARK SMILES IDX 22 24 23 25 24 26 25 27 26 28 27 29 28 30 29 31 90 32 30 33
REMARK SMILES IDX 89 34 31 35 32 36 33 37 83 38 34 39 88 40 82 41 84 42 35 43
REMARK SMILES IDX 87 44 81 45 80 46 36 48 68 49 48 50 67 51 49 52 52 53 66 54
REMARK SMILES IDX 85 55 50 56 51 57 65 59 86 60 53 61 37 62 38 63 46 64 39 65
REMARK SMILES IDX 45 66 47 67 44 68 40 69 41 70 42 71 43 72 69 73 70 74 78 75
REMARK SMILES IDX 71 76 77 77 79 78 76 79 72 80 73 81 74 82 75 83 54 84 55 85
REMARK SMILES IDX 63 86 56 87 62 88 64 89 61 90 57 91 58 92 59 93 60 94
REMARK H PARENT 9 16 84 47 52 58
REMARK Flexibility Score: inf
ROOT
ATOM      1  C   UNL A   1      40.207  21.854  27.155  1.00  0.00     0.261 C 
ENDROOT
BRANCH   1   2
ATOM      2  O   UNL A   1      39.334  22.434  26.165  1.00  0.00    -0.460 OA
BRANCH   2   3
ATOM      3  C   UNL A   1      38.688  23.560  26.546  1.00  0.00     0.330 C 
ATOM      4  O   UNL A   1      39.098  24.415  27.315  1.00  0.00    -0.247 OA
BRANCH   3   5
ATOM      5  C   UNL A   1      37.338  23.663  25.954  1.00  0.00     0.094 C 
ATOM      6  C   UNL A   1      36.949  23.199  24.755  1.00  0.00     0.015 C 
BRANCH   6   7
ATOM      7  C   UNL A   1      35.541  23.266  24.332  1.00  0.00    -0.023 A 
ATOM      8  C   UNL A   1      33.280  23.972  24.922  1.00  0.00     0.041 A 
ATOM      9  C   UNL A   1      32.847  23.681  23.632  1.00  0.00     0.026 A 
ATOM     10  C   UNL A   1      34.593  23.666  25.275  1.00  0.00     0.034 A 
ATOM     11  C   UNL A   1      33.760  23.192  22.690  1.00  0.00     0.003 A 
ATOM     12  C   UNL A   1      35.104  23.004  23.033  1.00  0.00     0.008 A 
BRANCH   8  13
ATOM     13  N   UNL A   1      32.390  24.518  25.860  1.00  0.00    -0.326 N 
ATOM     14  C   UNL A   1      32.102  25.842  26.108  1.00  0.00     0.224 C 
ATOM     15  O   UNL A   1      31.593  26.150  27.187  1.00  0.00    -0.275 OA
ATOM     16  H   UNL A   1      31.906  23.865  26.416  1.00  0.00     0.169 HD
BRANCH  14  17
ATOM     17  C   UNL A   1      32.189  26.847  24.959  1.00  0.00     0.106 C 
BRANCH  17  18
ATOM     18  C   UNL A   1      30.916  27.046  24.112  1.00  0.00     0.021 C 
ATOM     19  C   UNL A   1      29.819  26.106  24.637  1.00  0.00     0.010 C 
BRANCH  18  20
ATOM     20  C   UNL A   1      31.179  26.757  22.629  1.00  0.00     0.163 C 
BRANCH  20  21
ATOM     21  O   UNL A   1      30.599  27.746  21.784  1.00  0.00    -0.384 OA
ATOM     22  C   UNL A   1      30.424  28.987  22.461  1.00  0.00     0.194 C 
ENDBRANCH  20  21
ENDBRANCH  18  20
ENDBRANCH  17  18
ENDBRANCH  14  17
ENDBRANCH   8  13
ENDBRANCH   6   7
ENDBRANCH   3   5
ENDBRANCH   2   3
ENDBRANCH   1   2
BRANCH   1  23
ATOM     23  C   UNL A   1      41.665  22.238  26.895  1.00  0.00     0.202 C 
BRANCH  23  24
ATOM     24  O   UNL A   1      42.015  22.360  25.514  1.00  0.00    -0.374 OA
BRANCH  24  25
ATOM     25  C   UNL A   1      43.379  22.106  25.182  1.00  0.00     0.202 C 
BRANCH  25  26
ATOM     26  C   UNL A   1      44.206  23.320  24.742  1.00  0.00     0.261 C 
BRANCH  26  27
ATOM     27  O   UNL A   1      43.447  24.542  24.745  1.00  0.00    -0.460 OA
BRANCH  27  28
ATOM     28  C   UNL A   1      44.125  25.617  25.226  1.00  0.00     0.338 C 
ATOM     29  O   UNL A   1      45.177  26.062  24.803  1.00  0.00    -0.246 OA
BRANCH  28  30
ATOM     30  C   UNL A   1      43.333  26.304  26.268  1.00  0.00     0.060 A 
ATOM     31  C   UNL A   1      43.602  27.661  26.490  1.00  0.00     0.016 A 
ATOM     32  C   UNL A   1      42.400  25.632  27.063  1.00  0.00     0.016 A 
ATOM     33  C   UNL A   1      42.980  28.336  27.540  1.00  0.00     0.010 A 
ATOM     34  C   UNL A   1      41.778  26.312  28.118  1.00  0.00     0.010 A 
ATOM     35  C   UNL A   1      42.090  27.658  28.382  1.00  0.00    -0.014 A 
BRANCH  35  36
ATOM     36  C   UNL A   1      41.584  28.330  29.608  1.00  0.00     0.031 A 
ATOM     37  C   UNL A   1      40.270  29.062  29.558  1.00  0.00     0.074 A 
ATOM     38  C   UNL A   1      42.272  28.256  30.762  1.00  0.00     0.049 A 
ATOM     39  N   UNL A   1      39.656  29.734  30.499  1.00  0.00    -0.248 NA
ATOM     40  C   UNL A   1      39.556  29.036  28.273  1.00  0.00     0.031 C 
ATOM     41  C   UNL A   1      43.536  27.545  30.945  1.00  0.00     0.029 A 
ATOM     42  N   UNL A   1      42.006  28.791  31.998  1.00  0.00    -0.354 N 
ATOM     43  C   UNL A   1      38.483  30.212  29.922  1.00  0.00     0.074 A 
ATOM     44  C   UNL A   1      38.496  29.784  28.538  1.00  0.00     0.031 C 
ATOM     45  C   UNL A   1      43.938  27.691  32.219  1.00  0.00     0.029 A 
ATOM     46  C   UNL A   1      42.984  28.539  32.931  1.00  0.00     0.049 A 
ATOM     47  H   UNL A   1      41.191  29.306  32.198  1.00  0.00     0.167 HD
ATOM     48  C   UNL A   1      37.486  30.930  30.494  1.00  0.00     0.034 A 
ATOM     49  C   UNL A   1      43.109  28.964  34.205  1.00  0.00     0.034 A 
ATOM     50  C   UNL A   1      37.494  31.362  31.873  1.00  0.00     0.049 A 
ATOM     51  C   UNL A   1      42.029  29.839  34.795  1.00  0.00     0.074 A 
ATOM     52  C   UNL A   1      36.527  32.079  32.558  1.00  0.00     0.029 A 
ATOM     53  N   UNL A   1      38.526  31.131  32.773  1.00  0.00    -0.354 N 
ATOM     54  N   UNL A   1      40.919  30.272  34.243  1.00  0.00    -0.248 NA
ATOM     55  C   UNL A   1      42.219  30.276  36.185  1.00  0.00     0.031 C 
ATOM     56  C   UNL A   1      37.006  32.344  33.846  1.00  0.00     0.029 A 
ATOM     57  C   UNL A   1      38.236  31.723  33.994  1.00  0.00     0.049 A 
ATOM     58  H   UNL A   1      39.345  30.622  32.574  1.00  0.00     0.167 HD
ATOM     59  C   UNL A   1      40.266  31.007  35.229  1.00  0.00     0.074 A 
ATOM     60  C   UNL A   1      41.098  30.945  36.413  1.00  0.00     0.031 C 
ATOM     61  C   UNL A   1      39.081  31.669  35.165  1.00  0.00     0.034 A 
BRANCH  48  62
ATOM     62  C   UNL A   1      36.330  31.338  29.612  1.00  0.00     0.023 A 
ATOM     63  C   UNL A   1      35.886  32.671  29.539  1.00  0.00     0.031 A 
ATOM     64  C   UNL A   1      35.644  30.375  28.850  1.00  0.00     0.131 A 
ATOM     65  C   UNL A   1      34.750  32.990  28.779  1.00  0.00     0.055 A 
ATOM     66  C   UNL A   1      34.562  30.713  28.035  1.00  0.00     0.041 A 
ATOM     67  F   UNL A   1      36.008  29.083  28.894  1.00  0.00    -0.206 F 
ATOM     68  C   UNL A   1      34.100  32.025  28.007  1.00  0.00     0.022 A 
BRANCH  65  69
ATOM     69  S   UNL A   1      34.049  34.657  28.924  1.00  0.00     0.124 S 
ATOM     70  O   UNL A   1      34.293  34.959  30.333  1.00  0.00    -0.237 OA
ATOM     71  O   UNL A   1      34.839  35.417  27.962  1.00  0.00    -0.237 OA
ATOM     72  O   UNL A   1      32.643  34.471  28.569  1.00  0.00    -0.744 OA
ENDBRANCH  65  69
ENDBRANCH  48  62
BRANCH  49  73
ATOM     73  C   UNL A   1      44.317  28.609  35.004  1.00  0.00     0.023 A 
ATOM     74  C   UNL A   1      45.468  29.412  34.982  1.00  0.00     0.031 A 
ATOM     75  C   UNL A   1      44.355  27.424  35.760  1.00  0.00     0.131 A 
ATOM     76  C   UNL A   1      46.622  29.000  35.664  1.00  0.00     0.055 A 
ATOM     77  C   UNL A   1      45.488  27.044  36.482  1.00  0.00     0.041 A 
ATOM     78  F   UNL A   1      43.283  26.618  35.814  1.00  0.00    -0.206 F 
ATOM     79  C   UNL A   1      46.636  27.828  36.425  1.00  0.00     0.022 A 
BRANCH  76  80
ATOM     80  S   UNL A   1      48.140  29.976  35.476  1.00  0.00     0.124 S 
ATOM     81  O   UNL A   1      48.083  30.843  36.647  1.00  0.00    -0.237 OA
ATOM     82  O   UNL A   1      49.169  28.941  35.492  1.00  0.00    -0.237 OA
ATOM     83  O   UNL A   1      47.955  30.647  34.192  1.00  0.00    -0.744 OA
ENDBRANCH  76  80
ENDBRANCH  49  73
BRANCH  61  84
ATOM     84  C   UNL A   1      38.599  32.339  36.430  1.00  0.00     0.023 A 
ATOM     85  C   UNL A   1      37.788  31.670  37.363  1.00  0.00     0.031 A 
ATOM     86  C   UNL A   1      38.946  33.676  36.697  1.00  0.00     0.131 A 
ATOM     87  C   UNL A   1      37.303  32.355  38.488  1.00  0.00     0.055 A 
ATOM     88  C   UNL A   1      38.512  34.334  37.850  1.00  0.00     0.041 A 
ATOM     89  F   UNL A   1      39.717  34.367  35.841  1.00  0.00    -0.206 F 
ATOM     90  C   UNL A   1      37.674  33.678  38.746  1.00  0.00     0.022 A 
BRANCH  87  91
ATOM     91  S   UNL A   1      36.101  31.526  39.566  1.00  0.00     0.124 S 
ATOM     92  O   UNL A   1      36.078  30.177  39.013  1.00  0.00    -0.237 OA
ATOM     93  O   UNL A   1      36.715  31.666  40.883  1.00  0.00    -0.237 OA
ATOM     94  O   UNL A   1      34.875  32.298  39.370  1.00  0.00    -0.744 OA
ENDBRANCH  87  91
ENDBRANCH  61  84
ENDBRANCH  35  36
ENDBRANCH  28  30
ENDBRANCH  27  28
ENDBRANCH  26  27
ENDBRANCH  25  26
ENDBRANCH  24  25
ENDBRANCH  23  24
ENDBRANCH   1  23
TORSDOF 23
ENDMDL
MODEL 2
REMARK VINA RESULT:      -9.7      4.885      7.324
REMARK SMILES COC[C@@H](C)CC(=O)Nc1cccc(/C=C/C(=O)OCCOCCOC(=O)c2ccc(-c3c4nc(c(-c5cc(S(=O)(=O)[O-])ccc5F)c5ccc([nH]5)c(-c5cc(S(=O)(=O)[O-])ccc5F)c5nc(c(-c6cc(S(=O)(=O)[O-])ccc6F)c6ccc3[nH]6)C=C5)C=C4)cc2)c1
REMARK SMILES IDX 20 1 19 2 17 3 18 4 16 5 15 6 14 7 10 8 11 9 91 10 12 11
REMARK SMILES IDX 13 12 9 13 7 14 8 15 6 17 4 18 5 19 3 20 2 21 1 22 21 23
REMARK SMILES IDX 22 24 23 25 24 26 25 27 26 28 27 29 28 30 29 31 90 32 30 33
REMARK SMILES IDX 89 34 31 35 32 36 33 37 83 38 34 39 88 40 82 41 84 42 35 43
REMARK SMILES IDX 87 44 81 45 80 46 36 48 68 49 48 50 67 51 49 52 52 53 66 54
REMARK SMILES IDX 85 55 50 56 51 57 65 59 86 60 53 61 37 62 38 63 46 64 39 65
REMARK SMILES IDX 45 66 47 67 44 68 40 69 41 70 42 71 43 72 69 73 70 74 78 75
REMARK SMILES IDX 71 76 77 77 79 78 76 79 72 80 73 81 74 82 75 83 54 84 55 85
REMARK SMILES IDX 63 86 56 87 62 88 64 89 61 90 57 91 58 92 59 93 60 94
REMARK H PARENT 9 16 84 47 52 58
REMARK Flexibility Score: inf
ROOT
ATOM      1  C   UNL A   1      42.360  21.779  26.868  1.00  0.00     0.261 C 
ENDROOT
BRANCH   1   2
ATOM      2  O   UNL A   1      42.314  23.212  26.727  1.00  0.00    -0.460 OA
BRANCH   2   3
ATOM      3  C   UNL A   1      42.207  23.909  27.882  1.00  0.00     0.330 C 
ATOM      4  O   UNL A   1      42.760  23.658  28.942  1.00  0.00    -0.247 OA
BRANCH   3   5
ATOM      5  C   UNL A   1      41.274  25.049  27.769  1.00  0.00     0.094 C 
ATOM      6  C   UNL A   1      41.231  26.133  28.561  1.00  0.00     0.015 C 
BRANCH   6   7
ATOM      7  C   UNL A   1      40.322  27.253  28.268  1.00  0.00    -0.023 A 
ATOM      8  C   UNL A   1      38.457  28.611  29.065  1.00  0.00     0.041 A 
ATOM      9  C   UNL A   1      38.630  29.486  27.998  1.00  0.00     0.026 A 
ATOM     10  C   UNL A   1      39.240  27.460  29.125  1.00  0.00     0.034 A 
ATOM     11  C   UNL A   1      39.653  29.252  27.071  1.00  0.00     0.003 A 
ATOM     12  C   UNL A   1      40.506  28.152  27.217  1.00  0.00     0.008 A 
BRANCH   8  13
ATOM     13  N   UNL A   1      37.474  28.864  30.034  1.00  0.00    -0.326 N 
ATOM     14  C   UNL A   1      37.545  29.680  31.143  1.00  0.00     0.224 C 
ATOM     15  O   UNL A   1      36.747  29.503  32.065  1.00  0.00    -0.275 OA
ATOM     16  H   UNL A   1      36.618  28.395  29.905  1.00  0.00     0.169 HD
BRANCH  14  17
ATOM     17  C   UNL A   1      38.434  30.923  31.093  1.00  0.00     0.106 C 
BRANCH  17  18
ATOM     18  C   UNL A   1      39.817  30.815  31.765  1.00  0.00     0.021 C 
ATOM     19  C   UNL A   1      40.003  29.383  32.292  1.00  0.00     0.010 C 
BRANCH  18  20
ATOM     20  C   UNL A   1      39.957  31.813  32.921  1.00  0.00     0.163 C 
BRANCH  20  21
ATOM     21  O   UNL A   1      39.512  31.262  34.156  1.00  0.00    -0.384 OA
ATOM     22  C   UNL A   1      38.435  32.008  34.715  1.00  0.00     0.194 C 
ENDBRANCH  20  21
ENDBRANCH  18  20
ENDBRANCH  17  18
ENDBRANCH  14  17
ENDBRANCH   8  13
ENDBRANCH   6   7
ENDBRANCH   3   5
ENDBRANCH   2   3
ENDBRANCH   1   2
BRANCH   1  23
ATOM     23  C   UNL A   1      43.212  21.145  25.766  1.00  0.00     0.202 C 
BRANCH  23  24
ATOM     24  O   UNL A   1      43.504  22.008  24.664  1.00  0.00    -0.374 OA
BRANCH  24  25
ATOM     25  C   UNL A   1      44.679  21.701  23.914  1.00  0.00     0.202 C 
BRANCH  25  26
ATOM     26  C   UNL A   1      46.001  22.225  24.486  1.00  0.00     0.261 C 
BRANCH  26  27
ATOM     27  O   UNL A   1      45.819  23.316  25.405  1.00  0.00    -0.460 OA
BRANCH  27  28
ATOM     28  C   UNL A   1      46.440  24.466  25.035  1.00  0.00     0.338 C 
ATOM     29  O   UNL A   1      47.143  24.629  24.052  1.00  0.00    -0.246 OA
BRANCH  28  30
ATOM     30  C   UNL A   1      46.030  25.582  25.912  1.00  0.00     0.060 A 
ATOM     31  C   UNL A   1      47.015  26.157  26.725  1.00  0.00     0.016 A 
ATOM     32  C   UNL A   1      44.704  26.016  25.999  1.00  0.00     0.016 A 
ATOM     33  C   UNL A   1      46.670  27.129  27.664  1.00  0.00     0.010 A 
ATOM     34  C   UNL A   1      44.359  26.991  26.944  1.00  0.00     0.010 A 
ATOM     35  C   UNL A   1      45.334  27.528  27.804  1.00  0.00    -0.014 A 
BRANCH  35  36
ATOM     36  C   UNL A   1      44.948  28.415  28.932  1.00  0.00     0.031 A 
ATOM     37  C   UNL A   1      45.024  29.908  28.755  1.00  0.00     0.074 A 
ATOM     38  C   UNL A   1      44.501  27.895  30.090  1.00  0.00     0.049 A 
ATOM     39  N   UNL A   1      44.758  30.862  29.610  1.00  0.00    -0.248 NA
ATOM     40  C   UNL A   1      45.462  30.387  27.436  1.00  0.00     0.031 C 
ATOM     41  C   UNL A   1      44.347  26.468  30.369  1.00  0.00     0.029 A 
ATOM     42  N   UNL A   1      44.098  28.509  31.250  1.00  0.00    -0.354 N 
ATOM     43  C   UNL A   1      44.996  32.056  28.936  1.00  0.00     0.074 A 
ATOM     44  C   UNL A   1      45.467  31.700  27.613  1.00  0.00     0.031 C 
ATOM     45  C   UNL A   1      43.888  26.316  31.622  1.00  0.00     0.029 A 
ATOM     46  C   UNL A   1      43.753  27.629  32.249  1.00  0.00     0.049 A 
ATOM     47  H   UNL A   1      44.060  29.487  31.357  1.00  0.00     0.167 HD
ATOM     48  C   UNL A   1      44.829  33.328  29.375  1.00  0.00     0.034 A 
ATOM     49  C   UNL A   1      43.395  27.856  33.529  1.00  0.00     0.034 A 
ATOM     50  C   UNL A   1      44.373  33.668  30.703  1.00  0.00     0.049 A 
ATOM     51  C   UNL A   1      43.301  29.280  34.024  1.00  0.00     0.074 A 
ATOM     52  C   UNL A   1      44.152  34.923  31.245  1.00  0.00     0.029 A 
ATOM     53  N   UNL A   1      44.082  32.749  31.704  1.00  0.00    -0.354 N 
ATOM     54  N   UNL A   1      43.516  30.399  33.372  1.00  0.00    -0.248 NA
ATOM     55  C   UNL A   1      42.911  29.467  35.428  1.00  0.00     0.031 C 
ATOM     56  C   UNL A   1      43.801  34.766  32.590  1.00  0.00     0.029 A 
ATOM     57  C   UNL A   1      43.720  33.411  32.869  1.00  0.00     0.049 A 
ATOM     58  H   UNL A   1      44.126  31.771  31.602  1.00  0.00     0.167 HD
ATOM     59  C   UNL A   1      43.257  31.423  34.280  1.00  0.00     0.074 A 
ATOM     60  C   UNL A   1      42.855  30.788  35.518  1.00  0.00     0.031 C 
ATOM     61  C   UNL A   1      43.337  32.768  34.105  1.00  0.00     0.034 A 
BRANCH  48  62
ATOM     62  C   UNL A   1      45.194  34.443  28.425  1.00  0.00     0.023 A 
ATOM     63  C   UNL A   1      46.509  34.931  28.323  1.00  0.00     0.031 A 
ATOM     64  C   UNL A   1      44.206  35.046  27.625  1.00  0.00     0.131 A 
ATOM     65  C   UNL A   1      46.787  36.031  27.496  1.00  0.00     0.055 A 
ATOM     66  C   UNL A   1      44.504  36.089  26.746  1.00  0.00     0.041 A 
ATOM     67  F   UNL A   1      42.929  34.639  27.694  1.00  0.00    -0.206 F 
ATOM     68  C   UNL A   1      45.798  36.597  26.688  1.00  0.00     0.022 A 
BRANCH  65  69
ATOM     69  S   UNL A   1      48.426  36.800  27.595  1.00  0.00     0.124 S 
ATOM     70  O   UNL A   1      48.632  36.873  29.040  1.00  0.00    -0.237 OA
ATOM     71  O   UNL A   1      49.266  35.848  26.877  1.00  0.00    -0.237 OA
ATOM     72  O   UNL A   1      48.241  38.091  26.935  1.00  0.00    -0.744 OA
ENDBRANCH  65  69
ENDBRANCH  48  62
BRANCH  49  73
ATOM     73  C   UNL A   1      43.135  26.714  34.454  1.00  0.00     0.023 A 
ATOM     74  C   UNL A   1      44.188  25.969  35.005  1.00  0.00     0.031 A 
ATOM     75  C   UNL A   1      41.820  26.319  34.754  1.00  0.00     0.131 A 
ATOM     76  C   UNL A   1      43.910  24.840  35.790  1.00  0.00     0.055 A 
ATOM     77  C   UNL A   1      41.547  25.227  35.579  1.00  0.00     0.041 A 
ATOM     78  F   UNL A   1      40.775  26.996  34.250  1.00  0.00    -0.206 F 
ATOM     79  C   UNL A   1      42.596  24.472  36.092  1.00  0.00     0.022 A 
BRANCH  76  80
ATOM     80  S   UNL A   1      45.292  23.804  36.346  1.00  0.00     0.124 S 
ATOM     81  O   UNL A   1      46.423  24.431  35.673  1.00  0.00    -0.237 OA
ATOM     82  O   UNL A   1      45.233  23.971  37.794  1.00  0.00    -0.237 OA
ATOM     83  O   UNL A   1      44.936  22.473  35.860  1.00  0.00    -0.744 OA
ENDBRANCH  76  80
ENDBRANCH  49  73
BRANCH  61  84
ATOM     84  C   UNL A   1      42.937  33.638  35.272  1.00  0.00     0.023 A 
ATOM     85  C   UNL A   1      41.608  34.052  35.470  1.00  0.00     0.031 A 
ATOM     86  C   UNL A   1      43.906  34.072  36.195  1.00  0.00     0.131 A 
ATOM     87  C   UNL A   1      41.295  34.920  36.528  1.00  0.00     0.055 A 
ATOM     88  C   UNL A   1      43.579  34.885  37.281  1.00  0.00     0.041 A 
ATOM     89  F   UNL A   1      45.193  33.710  36.056  1.00  0.00    -0.206 F 
ATOM     90  C   UNL A   1      42.268  35.326  37.444  1.00  0.00     0.022 A 
BRANCH  87  91
ATOM     91  S   UNL A   1      39.613  35.593  36.637  1.00  0.00     0.124 S 
ATOM     92  O   UNL A   1      39.279  35.806  35.234  1.00  0.00    -0.237 OA
ATOM     93  O   UNL A   1      38.890  34.517  37.310  1.00  0.00    -0.237 OA
ATOM     94  O   UNL A   1      39.782  36.812  37.427  1.00  0.00    -0.744 OA
ENDBRANCH  87  91
ENDBRANCH  61  84
ENDBRANCH  35  36
ENDBRANCH  28  30
ENDBRANCH  27  28
ENDBRANCH  26  27
ENDBRANCH  25  26
ENDBRANCH  24  25
ENDBRANCH  23  24
ENDBRANCH   1  23
TORSDOF 23
ENDMDL
MODEL 3
REMARK VINA RESULT:      -9.6      4.628      6.254
REMARK SMILES COC[C@@H](C)CC(=O)Nc1cccc(/C=C/C(=O)OCCOCCOC(=O)c2ccc(-c3c4nc(c(-c5cc(S(=O)(=O)[O-])ccc5F)c5ccc([nH]5)c(-c5cc(S(=O)(=O)[O-])ccc5F)c5nc(c(-c6cc(S(=O)(=O)[O-])ccc6F)c6ccc3[nH]6)C=C5)C=C4)cc2)c1
REMARK SMILES IDX 20 1 19 2 17 3 18 4 16 5 15 6 14 7 10 8 11 9 91 10 12 11
REMARK SMILES IDX 13 12 9 13 7 14 8 15 6 17 4 18 5 19 3 20 2 21 1 22 21 23
REMARK SMILES IDX 22 24 23 25 24 26 25 27 26 28 27 29 28 30 29 31 90 32 30 33
REMARK SMILES IDX 89 34 31 35 32 36 33 37 83 38 34 39 88 40 82 41 84 42 35 43
REMARK SMILES IDX 87 44 81 45 80 46 36 48 68 49 48 50 67 51 49 52 52 53 66 54
REMARK SMILES IDX 85 55 50 56 51 57 65 59 86 60 53 61 37 62 38 63 46 64 39 65
REMARK SMILES IDX 45 66 47 67 44 68 40 69 41 70 42 71 43 72 69 73 70 74 78 75
REMARK SMILES IDX 71 76 77 77 79 78 76 79 72 80 73 81 74 82 75 83 54 84 55 85
REMARK SMILES IDX 63 86 56 87 62 88 64 89 61 90 57 91 58 92 59 93 60 94
REMARK H PARENT 9 16 84 47 52 58
REMARK Flexibility Score: inf
ROOT
ATOM      1  C   UNL A   1      42.589  21.381  26.360  1.00  0.00     0.261 C 
ENDROOT
BRANCH   1   2
ATOM      2  O   UNL A   1      42.385  22.722  26.846  1.00  0.00    -0.460 OA
BRANCH   2   3
ATOM      3  C   UNL A   1      41.108  23.038  27.165  1.00  0.00     0.330 C 
ATOM      4  O   UNL A   1      40.183  22.261  27.338  1.00  0.00    -0.247 OA
BRANCH   3   5
ATOM      5  C   UNL A   1      40.894  24.498  27.251  1.00  0.00     0.094 C 
ATOM      6  C   UNL A   1      40.109  25.143  28.129  1.00  0.00     0.015 C 
BRANCH   6   7
ATOM      7  C   UNL A   1      40.073  26.614  28.180  1.00  0.00    -0.023 A 
ATOM      8  C   UNL A   1      39.862  28.588  29.600  1.00  0.00     0.041 A 
ATOM      9  C   UNL A   1      40.186  29.405  28.522  1.00  0.00     0.026 A 
ATOM     10  C   UNL A   1      39.714  27.219  29.386  1.00  0.00     0.034 A 
ATOM     11  C   UNL A   1      40.463  28.830  27.277  1.00  0.00     0.003 A 
ATOM     12  C   UNL A   1      40.425  27.440  27.112  1.00  0.00     0.008 A 
BRANCH   8  13
ATOM     13  N   UNL A   1      39.639  29.145  30.869  1.00  0.00    -0.326 N 
ATOM     14  C   UNL A   1      39.596  30.474  31.232  1.00  0.00     0.224 C 
ATOM     15  O   UNL A   1      39.758  30.774  32.416  1.00  0.00    -0.275 OA
ATOM     16  H   UNL A   1      39.495  28.499  31.598  1.00  0.00     0.169 HD
BRANCH  14  17
ATOM     17  C   UNL A   1      39.107  31.505  30.215  1.00  0.00     0.106 C 
BRANCH  17  18
ATOM     18  C   UNL A   1      37.815  32.270  30.567  1.00  0.00     0.021 C 
ATOM     19  C   UNL A   1      37.088  32.643  29.265  1.00  0.00     0.010 C 
BRANCH  18  20
ATOM     20  C   UNL A   1      38.119  33.540  31.372  1.00  0.00     0.163 C 
BRANCH  20  21
ATOM     21  O   UNL A   1      37.992  33.324  32.773  1.00  0.00    -0.384 OA
ATOM     22  C   UNL A   1      37.353  34.418  33.424  1.00  0.00     0.194 C 
ENDBRANCH  20  21
ENDBRANCH  18  20
ENDBRANCH  17  18
ENDBRANCH  14  17
ENDBRANCH   8  13
ENDBRANCH   6   7
ENDBRANCH   3   5
ENDBRANCH   2   3
ENDBRANCH   1   2
BRANCH   1  23
ATOM     23  C   UNL A   1      43.680  21.345  25.288  1.00  0.00     0.202 C 
BRANCH  23  24
ATOM     24  O   UNL A   1      43.773  22.527  24.488  1.00  0.00    -0.374 OA
BRANCH  24  25
ATOM     25  C   UNL A   1      44.930  22.640  23.660  1.00  0.00     0.202 C 
BRANCH  25  26
ATOM     26  C   UNL A   1      46.186  23.214  24.328  1.00  0.00     0.261 C 
BRANCH  26  27
ATOM     27  O   UNL A   1      45.881  24.144  25.383  1.00  0.00    -0.460 OA
BRANCH  27  28
ATOM     28  C   UNL A   1      46.240  25.427  25.114  1.00  0.00     0.338 C 
ATOM     29  O   UNL A   1      46.867  25.819  24.146  1.00  0.00    -0.246 OA
BRANCH  28  30
ATOM     30  C   UNL A   1      45.630  26.351  26.094  1.00  0.00     0.060 A 
ATOM     31  C   UNL A   1      46.497  27.101  26.896  1.00  0.00     0.016 A 
ATOM     32  C   UNL A   1      44.247  26.435  26.280  1.00  0.00     0.016 A 
ATOM     33  C   UNL A   1      45.990  27.898  27.923  1.00  0.00     0.010 A 
ATOM     34  C   UNL A   1      43.740  27.234  27.313  1.00  0.00     0.010 A 
ATOM     35  C   UNL A   1      44.610  27.944  28.161  1.00  0.00    -0.014 A 
BRANCH  35  36
ATOM     36  C   UNL A   1      44.097  28.637  29.371  1.00  0.00     0.031 A 
ATOM     37  C   UNL A   1      43.753  30.100  29.292  1.00  0.00     0.074 A 
ATOM     38  C   UNL A   1      43.905  27.960  30.518  1.00  0.00     0.049 A 
ATOM     39  N   UNL A   1      43.313  30.903  30.227  1.00  0.00    -0.248 NA
ATOM     40  C   UNL A   1      43.933  30.743  27.982  1.00  0.00     0.031 C 
ATOM     41  C   UNL A   1      44.165  26.534  30.708  1.00  0.00     0.029 A 
ATOM     42  N   UNL A   1      43.452  28.384  31.742  1.00  0.00    -0.354 N 
ATOM     43  C   UNL A   1      43.164  32.147  29.621  1.00  0.00     0.074 A 
ATOM     44  C   UNL A   1      43.599  31.997  28.248  1.00  0.00     0.031 C 
ATOM     45  C   UNL A   1      43.871  26.202  31.976  1.00  0.00     0.029 A 
ATOM     46  C   UNL A   1      43.441  27.397  32.700  1.00  0.00     0.049 A 
ATOM     47  H   UNL A   1      43.161  29.308  31.918  1.00  0.00     0.167 HD
ATOM     48  C   UNL A   1      42.698  33.302  30.158  1.00  0.00     0.034 A 
ATOM     49  C   UNL A   1      43.145  27.456  34.014  1.00  0.00     0.034 A 
ATOM     50  C   UNL A   1      42.282  33.441  31.534  1.00  0.00     0.049 A 
ATOM     51  C   UNL A   1      42.715  28.775  34.611  1.00  0.00     0.074 A 
ATOM     52  C   UNL A   1      41.778  34.561  32.174  1.00  0.00     0.029 A 
ATOM     53  N   UNL A   1      42.334  32.432  32.487  1.00  0.00    -0.354 N 
ATOM     54  N   UNL A   1      42.564  29.940  34.024  1.00  0.00    -0.248 NA
ATOM     55  C   UNL A   1      42.408  28.782  36.047  1.00  0.00     0.031 C 
ATOM     56  C   UNL A   1      41.597  34.250  33.527  1.00  0.00     0.029 A 
ATOM     57  C   UNL A   1      41.908  32.913  33.716  1.00  0.00     0.049 A 
ATOM     58  H   UNL A   1      42.631  31.509  32.315  1.00  0.00     0.167 HD
ATOM     59  C   UNL A   1      42.117  30.810  35.016  1.00  0.00     0.074 A 
ATOM     60  C   UNL A   1      42.007  30.031  36.232  1.00  0.00     0.031 C 
ATOM     61  C   UNL A   1      41.818  32.132  34.928  1.00  0.00     0.034 A 
BRANCH  48  62
ATOM     62  C   UNL A   1      42.668  34.519  29.263  1.00  0.00     0.023 A 
ATOM     63  C   UNL A   1      43.836  35.237  28.947  1.00  0.00     0.031 A 
ATOM     64  C   UNL A   1      41.449  34.985  28.738  1.00  0.00     0.131 A 
ATOM     65  C   UNL A   1      43.750  36.415  28.189  1.00  0.00     0.055 A 
ATOM     66  C   UNL A   1      41.381  36.114  27.921  1.00  0.00     0.041 A 
ATOM     67  F   UNL A   1      40.298  34.355  29.023  1.00  0.00    -0.206 F 
ATOM     68  C   UNL A   1      42.534  36.845  27.653  1.00  0.00     0.022 A 
BRANCH  65  69
ATOM     69  S   UNL A   1      45.228  37.455  28.030  1.00  0.00     0.124 S 
ATOM     70  O   UNL A   1      46.296  36.458  28.061  1.00  0.00    -0.237 OA
ATOM     71  O   UNL A   1      45.011  38.119  26.750  1.00  0.00    -0.237 OA
ATOM     72  O   UNL A   1      45.164  38.325  29.203  1.00  0.00    -0.744 OA
ENDBRANCH  65  69
ENDBRANCH  48  62
BRANCH  49  73
ATOM     73  C   UNL A   1      43.282  26.245  34.874  1.00  0.00     0.023 A 
ATOM     74  C   UNL A   1      44.538  25.800  35.314  1.00  0.00     0.031 A 
ATOM     75  C   UNL A   1      42.153  25.480  35.220  1.00  0.00     0.131 A 
ATOM     76  C   UNL A   1      44.642  24.602  36.036  1.00  0.00     0.055 A 
ATOM     77  C   UNL A   1      42.256  24.317  35.985  1.00  0.00     0.041 A 
ATOM     78  F   UNL A   1      40.928  25.858  34.822  1.00  0.00    -0.206 F 
ATOM     79  C   UNL A   1      43.508  23.865  36.386  1.00  0.00     0.022 A 
BRANCH  76  80
ATOM     80  S   UNL A   1      46.294  23.972  36.443  1.00  0.00     0.124 S 
ATOM     81  O   UNL A   1      45.980  22.685  37.051  1.00  0.00    -0.237 OA
ATOM     82  O   UNL A   1      46.932  23.926  35.131  1.00  0.00    -0.237 OA
ATOM     83  O   UNL A   1      46.827  24.981  37.356  1.00  0.00    -0.744 OA
ENDBRANCH  76  80
ENDBRANCH  49  73
BRANCH  61  84
ATOM     84  C   UNL A   1      41.299  32.803  36.178  1.00  0.00     0.023 A 
ATOM     85  C   UNL A   1      40.029  32.510  36.707  1.00  0.00     0.031 A 
ATOM     86  C   UNL A   1      42.083  33.764  36.842  1.00  0.00     0.131 A 
ATOM     87  C   UNL A   1      39.559  33.211  37.828  1.00  0.00     0.055 A 
ATOM     88  C   UNL A   1      41.635  34.413  37.993  1.00  0.00     0.041 A 
ATOM     89  F   UNL A   1      43.303  34.086  36.381  1.00  0.00    -0.206 F 
ATOM     90  C   UNL A   1      40.360  34.148  38.485  1.00  0.00     0.022 A 
BRANCH  87  91
ATOM     91  S   UNL A   1      37.845  32.951  38.365  1.00  0.00     0.124 S 
ATOM     92  O   UNL A   1      37.792  31.503  38.524  1.00  0.00    -0.237 OA
ATOM     93  O   UNL A   1      37.782  33.733  39.596  1.00  0.00    -0.237 OA
ATOM     94  O   UNL A   1      37.054  33.482  37.255  1.00  0.00    -0.744 OA
ENDBRANCH  87  91
ENDBRANCH  61  84
ENDBRANCH  35  36
ENDBRANCH  28  30
ENDBRANCH  27  28
ENDBRANCH  26  27
ENDBRANCH  25  26
ENDBRANCH  24  25
ENDBRANCH  23  24
ENDBRANCH   1  23
TORSDOF 23
ENDMDL
