MODEL 1
REMARK VINA RESULT:     -10.8      0.000      0.000
REMARK SMILES Cc1nc2scc(C)n2c1CNc1ccc(C(=O)OCCOCCOC(=O)c2ccc(-c3c4nc(c(-c5cc(S(=O)(=O)[O-])ccc5F)c5ccc([nH]5)c(-c5cc(S(=O)(=O)[O-])ccc5F)c5nc(c(-c6cc(S(=O)(=O)[O-])ccc6F)c6ccc3[nH]6)C=C5)C=C4)cc2)cc1
REMARK SMILES IDX 22 1 21 2 20 3 19 4 17 5 18 6 16 7 13 8 14 9 92 10 15 11
REMARK SMILES IDX 91 12 12 13 11 15 10 16 1 17 2 18 3 19 4 20 9 21 5 22 7 23
REMARK SMILES IDX 6 24 8 25 23 26 24 27 25 28 26 29 27 30 28 31 29 32 90 33
REMARK SMILES IDX 30 34 89 35 31 36 32 37 33 38 83 39 34 40 88 41 82 42 84 43
REMARK SMILES IDX 35 44 87 45 81 46 80 47 36 49 68 50 48 51 67 52 49 53 52 54
REMARK SMILES IDX 66 55 85 56 50 57 51 58 65 60 86 61 53 62 37 63 38 64 46 65
REMARK SMILES IDX 39 66 45 67 47 68 44 69 40 70 41 71 42 72 43 73 69 74 70 75
REMARK SMILES IDX 78 76 71 77 77 78 79 79 76 80 72 81 73 82 74 83 75 84 54 85
REMARK SMILES IDX 55 86 63 87 56 88 62 89 64 90 61 91 57 92 58 93 59 94 60 95
REMARK H PARENT 12 14 84 48 52 59
REMARK Flexibility Score: inf
ROOT
ATOM      1  O   UNL A   1      33.102  34.308  28.447  1.00  0.00    -0.374 OA
ENDROOT
BRANCH   1   2
ATOM      2  C   UNL A   1      34.246  33.460  28.375  1.00  0.00     0.202 C 
BRANCH   2   3
ATOM      3  C   UNL A   1      34.061  31.965  28.645  1.00  0.00     0.261 C 
BRANCH   3   4
ATOM      4  O   UNL A   1      33.685  31.233  27.469  1.00  0.00    -0.460 OA
BRANCH   4   5
ATOM      5  C   UNL A   1      34.416  30.116  27.253  1.00  0.00     0.338 C 
ATOM      6  O   UNL A   1      35.629  29.998  27.335  1.00  0.00    -0.246 OA
BRANCH   5   7
ATOM      7  C   UNL A   1      33.534  28.953  27.040  1.00  0.00     0.060 A 
ATOM      8  C   UNL A   1      31.907  26.858  26.154  1.00  0.00     0.034 A 
ATOM      9  C   UNL A   1      33.297  26.751  26.068  1.00  0.00     0.026 A 
ATOM     10  C   UNL A   1      31.358  27.959  26.833  1.00  0.00     0.026 A 
ATOM     11  C   UNL A   1      34.108  27.806  26.478  1.00  0.00     0.018 A 
ATOM     12  C   UNL A   1      32.166  29.004  27.289  1.00  0.00     0.018 A 
BRANCH   8  13
ATOM     13  N   UNL A   1      31.129  26.001  25.391  1.00  0.00    -0.379 N 
ATOM     14  H   UNL A   1      30.498  25.382  25.826  1.00  0.00     0.160 HD
BRANCH  13  15
ATOM     15  C   UNL A   1      31.253  26.025  23.945  1.00  0.00     0.169 C 
BRANCH  15  16
ATOM     16  C   UNL A   1      31.057  27.366  23.335  1.00  0.00     0.066 A 
ATOM     17  C   UNL A   1      33.474  28.105  22.692  1.00  0.00     0.069 C 
ATOM     18  C   UNL A   1      32.000  28.242  22.789  1.00  0.00     0.062 A 
ATOM     19  N   UNL A   1      31.404  29.367  22.260  1.00  0.00    -0.224 NA
ATOM     20  C   UNL A   1      30.138  29.169  22.482  1.00  0.00     0.194 A 
ATOM     21  N   UNL A   1      29.844  27.993  23.119  1.00  0.00    -0.290 N 
ATOM     22  S   UNL A   1      28.719  30.092  22.107  1.00  0.00    -0.105 S 
ATOM     23  C   UNL A   1      28.479  27.793  23.328  1.00  0.00     0.032 A 
ATOM     24  C   UNL A   1      27.752  28.822  22.843  1.00  0.00     0.090 A 
ATOM     25  C   UNL A   1      27.856  26.613  23.978  1.00  0.00     0.066 C 
ENDBRANCH  15  16
ENDBRANCH  13  15
ENDBRANCH   8  13
ENDBRANCH   5   7
ENDBRANCH   4   5
ENDBRANCH   3   4
ENDBRANCH   2   3
ENDBRANCH   1   2
BRANCH   1  26
ATOM     26  C   UNL A   1      33.259  35.689  28.756  1.00  0.00     0.202 C 
BRANCH  26  27
ATOM     27  C   UNL A   1      32.918  36.183  30.154  1.00  0.00     0.261 C 
BRANCH  27  28
ATOM     28  O   UNL A   1      32.624  35.126  31.052  1.00  0.00    -0.460 OA
BRANCH  28  29
ATOM     29  C   UNL A   1      32.892  35.439  32.345  1.00  0.00     0.338 C 
ATOM     30  O   UNL A   1      32.351  36.294  33.018  1.00  0.00    -0.246 OA
BRANCH  29  31
ATOM     31  C   UNL A   1      34.080  34.692  32.765  1.00  0.00     0.060 A 
ATOM     32  C   UNL A   1      35.224  35.450  33.010  1.00  0.00     0.016 A 
ATOM     33  C   UNL A   1      34.126  33.301  32.586  1.00  0.00     0.016 A 
ATOM     34  C   UNL A   1      36.446  34.845  32.835  1.00  0.00     0.010 A 
ATOM     35  C   UNL A   1      35.348  32.704  32.394  1.00  0.00     0.010 A 
ATOM     36  C   UNL A   1      36.485  33.504  32.430  1.00  0.00    -0.014 A 
BRANCH  36  37
ATOM     37  C   UNL A   1      37.781  32.886  32.245  1.00  0.00     0.031 A 
ATOM     38  C   UNL A   1      38.521  32.854  33.524  1.00  0.00     0.074 A 
ATOM     39  C   UNL A   1      38.196  32.340  31.085  1.00  0.00     0.049 A 
ATOM     40  N   UNL A   1      39.499  33.621  33.868  1.00  0.00    -0.248 NA
ATOM     41  C   UNL A   1      37.941  32.088  34.643  1.00  0.00     0.031 C 
ATOM     42  C   UNL A   1      37.442  32.144  29.847  1.00  0.00     0.029 A 
ATOM     43  N   UNL A   1      39.394  31.767  30.795  1.00  0.00    -0.354 N 
ATOM     44  C   UNL A   1      39.846  33.204  35.144  1.00  0.00     0.074 A 
ATOM     45  C   UNL A   1      38.708  32.493  35.655  1.00  0.00     0.031 C 
ATOM     46  C   UNL A   1      38.125  31.302  29.032  1.00  0.00     0.029 A 
ATOM     47  C   UNL A   1      39.416  30.998  29.631  1.00  0.00     0.049 A 
ATOM     48  H   UNL A   1      40.189  31.886  31.365  1.00  0.00     0.167 HD
ATOM     49  C   UNL A   1      41.152  33.178  35.518  1.00  0.00     0.034 A 
ATOM     50  C   UNL A   1      40.404  30.145  29.230  1.00  0.00     0.034 A 
ATOM     51  C   UNL A   1      41.947  34.048  34.675  1.00  0.00     0.049 A 
ATOM     52  C   UNL A   1      41.641  30.571  29.938  1.00  0.00     0.074 A 
ATOM     53  C   UNL A   1      41.870  35.388  34.342  1.00  0.00     0.029 A 
ATOM     54  N   UNL A   1      42.721  33.470  33.693  1.00  0.00    -0.354 N 
ATOM     55  N   UNL A   1      42.228  31.714  29.709  1.00  0.00    -0.248 NA
ATOM     56  C   UNL A   1      41.905  29.994  31.248  1.00  0.00     0.031 C 
ATOM     57  C   UNL A   1      42.153  35.439  32.945  1.00  0.00     0.029 A 
ATOM     58  C   UNL A   1      42.501  34.156  32.519  1.00  0.00     0.049 A 
ATOM     59  H   UNL A   1      43.327  32.702  33.809  1.00  0.00     0.167 HD
ATOM     60  C   UNL A   1      42.543  32.214  30.963  1.00  0.00     0.074 A 
ATOM     61  C   UNL A   1      42.391  31.073  31.870  1.00  0.00     0.031 C 
ATOM     62  C   UNL A   1      42.600  33.559  31.197  1.00  0.00     0.034 A 
BRANCH  49  63
ATOM     63  C   UNL A   1      41.743  32.063  36.349  1.00  0.00     0.023 A 
ATOM     64  C   UNL A   1      42.434  32.426  37.516  1.00  0.00     0.031 A 
ATOM     65  C   UNL A   1      41.905  30.717  35.932  1.00  0.00     0.131 A 
ATOM     66  C   UNL A   1      43.286  31.511  38.159  1.00  0.00     0.055 A 
ATOM     67  C   UNL A   1      42.698  29.794  36.614  1.00  0.00     0.041 A 
ATOM     68  F   UNL A   1      41.396  30.236  34.793  1.00  0.00    -0.206 F 
ATOM     69  C   UNL A   1      43.418  30.196  37.720  1.00  0.00     0.022 A 
BRANCH  66  70
ATOM     70  S   UNL A   1      44.355  32.121  39.483  1.00  0.00     0.124 S 
ATOM     71  O   UNL A   1      44.472  30.940  40.332  1.00  0.00    -0.237 OA
ATOM     72  O   UNL A   1      45.552  32.508  38.745  1.00  0.00    -0.237 OA
ATOM     73  O   UNL A   1      43.589  33.227  40.053  1.00  0.00    -0.744 OA
ENDBRANCH  66  70
ENDBRANCH  49  63
BRANCH  50  74
ATOM     74  C   UNL A   1      40.255  28.792  28.602  1.00  0.00     0.023 A 
ATOM     75  C   UNL A   1      40.996  28.365  27.471  1.00  0.00     0.031 A 
ATOM     76  C   UNL A   1      39.544  27.787  29.295  1.00  0.00     0.131 A 
ATOM     77  C   UNL A   1      41.003  26.997  27.088  1.00  0.00     0.055 A 
ATOM     78  C   UNL A   1      39.559  26.441  28.917  1.00  0.00     0.041 A 
ATOM     79  F   UNL A   1      38.876  28.061  30.426  1.00  0.00    -0.206 F 
ATOM     80  C   UNL A   1      40.297  26.039  27.818  1.00  0.00     0.022 A 
BRANCH  77  81
ATOM     81  S   UNL A   1      41.997  26.410  25.669  1.00  0.00     0.124 S 
ATOM     82  O   UNL A   1      42.298  27.650  24.964  1.00  0.00    -0.237 OA
ATOM     83  O   UNL A   1      43.118  25.743  26.322  1.00  0.00    -0.237 OA
ATOM     84  O   UNL A   1      41.083  25.511  24.959  1.00  0.00    -0.744 OA
ENDBRANCH  77  81
ENDBRANCH  50  74
BRANCH  62  85
ATOM     85  C   UNL A   1      42.598  34.502  30.001  1.00  0.00     0.023 A 
ATOM     86  C   UNL A   1      43.741  34.924  29.279  1.00  0.00     0.031 A 
ATOM     87  C   UNL A   1      41.343  34.922  29.523  1.00  0.00     0.131 A 
ATOM     88  C   UNL A   1      43.596  35.752  28.143  1.00  0.00     0.055 A 
ATOM     89  C   UNL A   1      41.203  35.715  28.386  1.00  0.00     0.041 A 
ATOM     90  F   UNL A   1      40.215  34.543  30.148  1.00  0.00    -0.206 F 
ATOM     91  C   UNL A   1      42.330  36.142  27.696  1.00  0.00     0.022 A 
BRANCH  88  92
ATOM     92  S   UNL A   1      45.054  36.378  27.243  1.00  0.00     0.124 S 
ATOM     93  O   UNL A   1      44.648  37.712  26.816  1.00  0.00    -0.237 OA
ATOM     94  O   UNL A   1      46.101  36.324  28.261  1.00  0.00    -0.237 OA
ATOM     95  O   UNL A   1      45.219  35.414  26.152  1.00  0.00    -0.744 OA
ENDBRANCH  88  92
ENDBRANCH  62  85
ENDBRANCH  36  37
ENDBRANCH  29  31
ENDBRANCH  28  29
ENDBRANCH  27  28
ENDBRANCH  26  27
ENDBRANCH   1  26
TORSDOF 20
ENDMDL
MODEL 2
REMARK VINA RESULT:     -10.6      1.637      2.685
REMARK SMILES Cc1nc2scc(C)n2c1CNc1ccc(C(=O)OCCOCCOC(=O)c2ccc(-c3c4nc(c(-c5cc(S(=O)(=O)[O-])ccc5F)c5ccc([nH]5)c(-c5cc(S(=O)(=O)[O-])ccc5F)c5nc(c(-c6cc(S(=O)(=O)[O-])ccc6F)c6ccc3[nH]6)C=C5)C=C4)cc2)cc1
REMARK SMILES IDX 22 1 21 2 20 3 19 4 17 5 18 6 16 7 13 8 14 9 92 10 15 11
REMARK SMILES IDX 91 12 12 13 11 15 10 16 1 17 2 18 3 19 4 20 9 21 5 22 7 23
REMARK SMILES IDX 6 24 8 25 23 26 24 27 25 28 26 29 27 30 28 31 29 32 90 33
REMARK SMILES IDX 30 34 89 35 31 36 32 37 33 38 83 39 34 40 88 41 82 42 84 43
REMARK SMILES IDX 35 44 87 45 81 46 80 47 36 49 68 50 48 51 67 52 49 53 52 54
REMARK SMILES IDX 66 55 85 56 50 57 51 58 65 60 86 61 53 62 37 63 38 64 46 65
REMARK SMILES IDX 39 66 45 67 47 68 44 69 40 70 41 71 42 72 43 73 69 74 70 75
REMARK SMILES IDX 78 76 71 77 77 78 79 79 76 80 72 81 73 82 74 83 75 84 54 85
REMARK SMILES IDX 55 86 63 87 56 88 62 89 64 90 61 91 57 92 58 93 59 94 60 95
REMARK H PARENT 12 14 84 48 52 59
REMARK Flexibility Score: inf
ROOT
ATOM      1  O   UNL A   1      33.451  33.633  28.552  1.00  0.00    -0.374 OA
ENDROOT
BRANCH   1   2
ATOM      2  C   UNL A   1      34.086  32.370  28.741  1.00  0.00     0.202 C 
BRANCH   2   3
ATOM      3  C   UNL A   1      34.166  31.411  27.551  1.00  0.00     0.261 C 
BRANCH   3   4
ATOM      4  O   UNL A   1      33.137  30.411  27.578  1.00  0.00    -0.460 OA
BRANCH   4   5
ATOM      5  C   UNL A   1      32.310  30.436  26.508  1.00  0.00     0.338 C 
ATOM      6  O   UNL A   1      31.421  31.241  26.279  1.00  0.00    -0.246 OA
BRANCH   5   7
ATOM      7  C   UNL A   1      32.714  29.421  25.517  1.00  0.00     0.060 A 
ATOM      8  C   UNL A   1      33.111  27.227  23.830  1.00  0.00     0.034 A 
ATOM      9  C   UNL A   1      32.073  28.126  23.577  1.00  0.00     0.026 A 
ATOM     10  C   UNL A   1      34.036  27.533  24.842  1.00  0.00     0.026 A 
ATOM     11  C   UNL A   1      31.854  29.201  24.435  1.00  0.00     0.018 A 
ATOM     12  C   UNL A   1      33.851  28.635  25.682  1.00  0.00     0.018 A 
BRANCH   8  13
ATOM     13  N   UNL A   1      33.067  25.979  23.228  1.00  0.00    -0.379 N 
ATOM     14  H   UNL A   1      33.771  25.705  22.595  1.00  0.00     0.160 HD
BRANCH  13  15
ATOM     15  C   UNL A   1      31.971  25.078  23.538  1.00  0.00     0.169 C 
BRANCH  15  16
ATOM     16  C   UNL A   1      31.969  24.573  24.936  1.00  0.00     0.066 A 
ATOM     17  C   UNL A   1      29.969  25.832  26.038  1.00  0.00     0.069 C 
ATOM     18  C   UNL A   1      31.108  24.883  25.992  1.00  0.00     0.062 A 
ATOM     19  N   UNL A   1      31.401  24.147  27.121  1.00  0.00    -0.224 NA
ATOM     20  C   UNL A   1      32.410  23.415  26.749  1.00  0.00     0.194 A 
ATOM     21  N   UNL A   1      32.812  23.607  25.453  1.00  0.00    -0.290 N 
ATOM     22  S   UNL A   1      33.350  22.207  27.562  1.00  0.00    -0.105 S 
ATOM     23  C   UNL A   1      33.881  22.797  25.071  1.00  0.00     0.032 A 
ATOM     24  C   UNL A   1      34.277  21.997  26.083  1.00  0.00     0.090 A 
ATOM     25  C   UNL A   1      34.524  22.769  23.734  1.00  0.00     0.066 C 
ENDBRANCH  15  16
ENDBRANCH  13  15
ENDBRANCH   8  13
ENDBRANCH   5   7
ENDBRANCH   4   5
ENDBRANCH   3   4
ENDBRANCH   2   3
ENDBRANCH   1   2
BRANCH   1  26
ATOM     26  C   UNL A   1      34.014  34.806  29.128  1.00  0.00     0.202 C 
BRANCH  26  27
ATOM     27  C   UNL A   1      33.154  35.678  30.031  1.00  0.00     0.261 C 
BRANCH  27  28
ATOM     28  O   UNL A   1      32.597  34.960  31.118  1.00  0.00    -0.460 OA
BRANCH  28  29
ATOM     29  C   UNL A   1      32.994  35.433  32.326  1.00  0.00     0.338 C 
ATOM     30  O   UNL A   1      32.556  36.403  32.912  1.00  0.00    -0.246 OA
BRANCH  29  31
ATOM     31  C   UNL A   1      34.179  34.683  32.749  1.00  0.00     0.060 A 
ATOM     32  C   UNL A   1      35.337  35.433  32.950  1.00  0.00     0.016 A 
ATOM     33  C   UNL A   1      34.204  33.286  32.613  1.00  0.00     0.016 A 
ATOM     34  C   UNL A   1      36.548  34.806  32.773  1.00  0.00     0.010 A 
ATOM     35  C   UNL A   1      35.414  32.667  32.419  1.00  0.00     0.010 A 
ATOM     36  C   UNL A   1      36.563  33.453  32.411  1.00  0.00    -0.014 A 
BRANCH  36  37
ATOM     37  C   UNL A   1      37.847  32.812  32.223  1.00  0.00     0.031 A 
ATOM     38  C   UNL A   1      38.603  32.798  33.492  1.00  0.00     0.074 A 
ATOM     39  C   UNL A   1      38.238  32.233  31.070  1.00  0.00     0.049 A 
ATOM     40  N   UNL A   1      39.597  33.558  33.806  1.00  0.00    -0.248 NA
ATOM     41  C   UNL A   1      38.027  32.066  34.636  1.00  0.00     0.031 C 
ATOM     42  C   UNL A   1      37.465  32.021  29.847  1.00  0.00     0.029 A 
ATOM     43  N   UNL A   1      39.424  31.637  30.777  1.00  0.00    -0.354 N 
ATOM     44  C   UNL A   1      39.955  33.166  35.086  1.00  0.00     0.074 A 
ATOM     45  C   UNL A   1      38.814  32.483  35.628  1.00  0.00     0.031 C 
ATOM     46  C   UNL A   1      38.124  31.151  29.042  1.00  0.00     0.029 A 
ATOM     47  C   UNL A   1      39.419  30.841  29.631  1.00  0.00     0.049 A 
ATOM     48  H   UNL A   1      40.228  31.756  31.334  1.00  0.00     0.167 HD
ATOM     49  C   UNL A   1      41.265  33.128  35.443  1.00  0.00     0.034 A 
ATOM     50  C   UNL A   1      40.389  29.965  29.237  1.00  0.00     0.034 A 
ATOM     51  C   UNL A   1      42.061  33.967  34.571  1.00  0.00     0.049 A 
ATOM     52  C   UNL A   1      41.642  30.388  29.918  1.00  0.00     0.074 A 
ATOM     53  C   UNL A   1      41.999  35.301  34.208  1.00  0.00     0.029 A 
ATOM     54  N   UNL A   1      42.814  33.355  33.592  1.00  0.00    -0.354 N 
ATOM     55  N   UNL A   1      42.242  31.517  29.655  1.00  0.00    -0.248 NA
ATOM     56  C   UNL A   1      41.915  29.838  31.238  1.00  0.00     0.031 C 
ATOM     57  C   UNL A   1      42.264  35.315  32.807  1.00  0.00     0.029 A 
ATOM     58  C   UNL A   1      42.588  34.018  32.406  1.00  0.00     0.049 A 
ATOM     59  H   UNL A   1      43.410  32.582  33.718  1.00  0.00     0.167 HD
ATOM     60  C   UNL A   1      42.581  32.041  30.894  1.00  0.00     0.074 A 
ATOM     61  C   UNL A   1      42.425  30.924  31.829  1.00  0.00     0.031 C 
ATOM     62  C   UNL A   1      42.661  33.390  31.096  1.00  0.00     0.034 A 
BRANCH  49  63
ATOM     63  C   UNL A   1      41.851  32.024  36.292  1.00  0.00     0.023 A 
ATOM     64  C   UNL A   1      42.588  32.404  37.425  1.00  0.00     0.031 A 
ATOM     65  C   UNL A   1      41.963  30.662  35.914  1.00  0.00     0.131 A 
ATOM     66  C   UNL A   1      43.435  31.486  38.071  1.00  0.00     0.055 A 
ATOM     67  C   UNL A   1      42.751  29.738  36.602  1.00  0.00     0.041 A 
ATOM     68  F   UNL A   1      41.404  30.159  34.808  1.00  0.00    -0.206 F 
ATOM     69  C   UNL A   1      43.517  30.155  37.671  1.00  0.00     0.022 A 
BRANCH  66  70
ATOM     70  S   UNL A   1      44.562  32.107  39.341  1.00  0.00     0.124 S 
ATOM     71  O   UNL A   1      45.157  33.256  38.667  1.00  0.00    -0.237 OA
ATOM     72  O   UNL A   1      43.643  32.404  40.434  1.00  0.00    -0.237 OA
ATOM     73  O   UNL A   1      45.463  30.981  39.573  1.00  0.00    -0.744 OA
ENDBRANCH  66  70
ENDBRANCH  49  63
BRANCH  50  74
ATOM     74  C   UNL A   1      40.212  28.600  28.642  1.00  0.00     0.023 A 
ATOM     75  C   UNL A   1      41.045  28.074  27.622  1.00  0.00     0.031 A 
ATOM     76  C   UNL A   1      39.353  27.678  29.280  1.00  0.00     0.131 A 
ATOM     77  C   UNL A   1      40.993  26.694  27.289  1.00  0.00     0.055 A 
ATOM     78  C   UNL A   1      39.310  26.320  28.952  1.00  0.00     0.041 A 
ATOM     79  F   UNL A   1      38.581  28.047  30.314  1.00  0.00    -0.206 F 
ATOM     80  C   UNL A   1      40.137  25.820  27.962  1.00  0.00     0.022 A 
BRANCH  77  81
ATOM     81  S   UNL A   1      42.098  25.978  26.019  1.00  0.00     0.124 S 
ATOM     82  O   UNL A   1      43.406  26.067  26.656  1.00  0.00    -0.237 OA
ATOM     83  O   UNL A   1      41.549  24.639  25.840  1.00  0.00    -0.237 OA
ATOM     84  O   UNL A   1      41.918  26.868  24.868  1.00  0.00    -0.744 OA
ENDBRANCH  77  81
ENDBRANCH  50  74
BRANCH  62  85
ATOM     85  C   UNL A   1      42.655  34.305  29.879  1.00  0.00     0.023 A 
ATOM     86  C   UNL A   1      43.775  34.604  29.065  1.00  0.00     0.031 A 
ATOM     87  C   UNL A   1      41.413  34.833  29.484  1.00  0.00     0.131 A 
ATOM     88  C   UNL A   1      43.623  35.419  27.921  1.00  0.00     0.055 A 
ATOM     89  C   UNL A   1      41.262  35.613  28.339  1.00  0.00     0.041 A 
ATOM     90  F   UNL A   1      40.305  34.575  30.198  1.00  0.00    -0.206 F 
ATOM     91  C   UNL A   1      42.369  35.918  27.557  1.00  0.00     0.022 A 
BRANCH  88  92
ATOM     92  S   UNL A   1      45.061  35.887  26.900  1.00  0.00     0.124 S 
ATOM     93  O   UNL A   1      44.833  37.298  26.610  1.00  0.00    -0.237 OA
ATOM     94  O   UNL A   1      46.186  35.589  27.784  1.00  0.00    -0.237 OA
ATOM     95  O   UNL A   1      44.954  35.002  25.737  1.00  0.00    -0.744 OA
ENDBRANCH  88  92
ENDBRANCH  62  85
ENDBRANCH  36  37
ENDBRANCH  29  31
ENDBRANCH  28  29
ENDBRANCH  27  28
ENDBRANCH  26  27
ENDBRANCH   1  26
TORSDOF 20
ENDMDL
MODEL 3
REMARK VINA RESULT:     -10.6      4.385      6.126
REMARK SMILES Cc1nc2scc(C)n2c1CNc1ccc(C(=O)OCCOCCOC(=O)c2ccc(-c3c4nc(c(-c5cc(S(=O)(=O)[O-])ccc5F)c5ccc([nH]5)c(-c5cc(S(=O)(=O)[O-])ccc5F)c5nc(c(-c6cc(S(=O)(=O)[O-])ccc6F)c6ccc3[nH]6)C=C5)C=C4)cc2)cc1
REMARK SMILES IDX 22 1 21 2 20 3 19 4 17 5 18 6 16 7 13 8 14 9 92 10 15 11
REMARK SMILES IDX 91 12 12 13 11 15 10 16 1 17 2 18 3 19 4 20 9 21 5 22 7 23
REMARK SMILES IDX 6 24 8 25 23 26 24 27 25 28 26 29 27 30 28 31 29 32 90 33
REMARK SMILES IDX 30 34 89 35 31 36 32 37 33 38 83 39 34 40 88 41 82 42 84 43
REMARK SMILES IDX 35 44 87 45 81 46 80 47 36 49 68 50 48 51 67 52 49 53 52 54
REMARK SMILES IDX 66 55 85 56 50 57 51 58 65 60 86 61 53 62 37 63 38 64 46 65
REMARK SMILES IDX 39 66 45 67 47 68 44 69 40 70 41 71 42 72 43 73 69 74 70 75
REMARK SMILES IDX 78 76 71 77 77 78 79 79 76 80 72 81 73 82 74 83 75 84 54 85
REMARK SMILES IDX 55 86 63 87 56 88 62 89 64 90 61 91 57 92 58 93 59 94 60 95
REMARK H PARENT 12 14 84 48 52 59
REMARK Flexibility Score: inf
ROOT
ATOM      1  O   UNL A   1      33.410  29.852  27.171  1.00  0.00    -0.374 OA
ENDROOT
BRANCH   1   2
ATOM      2  C   UNL A   1      32.242  30.058  26.380  1.00  0.00     0.202 C 
BRANCH   2   3
ATOM      3  C   UNL A   1      32.085  29.249  25.090  1.00  0.00     0.261 C 
BRANCH   3   4
ATOM      4  O   UNL A   1      30.711  29.032  24.738  1.00  0.00    -0.460 OA
BRANCH   4   5
ATOM      5  C   UNL A   1      30.500  28.846  23.415  1.00  0.00     0.338 C 
ATOM      6  O   UNL A   1      30.333  29.706  22.564  1.00  0.00    -0.246 OA
BRANCH   5   7
ATOM      7  C   UNL A   1      30.647  27.422  23.062  1.00  0.00     0.060 A 
ATOM      8  C   UNL A   1      31.198  24.692  22.807  1.00  0.00     0.034 A 
ATOM      9  C   UNL A   1      30.222  25.129  23.706  1.00  0.00     0.026 A 
ATOM     10  C   UNL A   1      31.774  25.628  21.932  1.00  0.00     0.026 A 
ATOM     11  C   UNL A   1      29.969  26.490  23.858  1.00  0.00     0.018 A 
ATOM     12  C   UNL A   1      31.495  26.993  22.046  1.00  0.00     0.018 A 
BRANCH   8  13
ATOM     13  N   UNL A   1      31.710  23.412  22.956  1.00  0.00    -0.379 N 
ATOM     14  H   UNL A   1      32.037  22.912  22.173  1.00  0.00     0.160 HD
BRANCH  13  15
ATOM     15  C   UNL A   1      31.758  22.816  24.279  1.00  0.00     0.169 C 
BRANCH  15  16
ATOM     16  C   UNL A   1      33.052  22.164  24.611  1.00  0.00     0.066 A 
ATOM     17  C   UNL A   1      32.585  19.632  24.198  1.00  0.00     0.069 C 
ATOM     18  C   UNL A   1      33.406  20.813  24.562  1.00  0.00     0.062 A 
ATOM     19  N   UNL A   1      34.732  20.622  24.887  1.00  0.00    -0.224 NA
ATOM     20  C   UNL A   1      35.160  21.827  25.124  1.00  0.00     0.194 A 
ATOM     21  N   UNL A   1      34.218  22.811  24.978  1.00  0.00    -0.290 N 
ATOM     22  S   UNL A   1      36.713  22.458  25.567  1.00  0.00    -0.105 S 
ATOM     23  C   UNL A   1      34.705  24.095  25.217  1.00  0.00     0.032 A 
ATOM     24  C   UNL A   1      36.016  24.072  25.539  1.00  0.00     0.090 A 
ATOM     25  C   UNL A   1      33.929  25.357  25.125  1.00  0.00     0.066 C 
ENDBRANCH  15  16
ENDBRANCH  13  15
ENDBRANCH   8  13
ENDBRANCH   5   7
ENDBRANCH   4   5
ENDBRANCH   3   4
ENDBRANCH   2   3
ENDBRANCH   1   2
BRANCH   1  26
ATOM     26  C   UNL A   1      34.368  30.896  27.312  1.00  0.00     0.202 C 
BRANCH  26  27
ATOM     27  C   UNL A   1      34.089  32.037  28.279  1.00  0.00     0.261 C 
BRANCH  27  28
ATOM     28  O   UNL A   1      34.969  32.042  29.390  1.00  0.00    -0.460 OA
BRANCH  28  29
ATOM     29  C   UNL A   1      36.224  32.445  29.070  1.00  0.00     0.338 C 
ATOM     30  O   UNL A   1      36.535  33.287  28.251  1.00  0.00    -0.246 OA
BRANCH  29  31
ATOM     31  C   UNL A   1      37.179  31.569  29.752  1.00  0.00     0.060 A 
ATOM     32  C   UNL A   1      38.407  32.142  30.081  1.00  0.00     0.016 A 
ATOM     33  C   UNL A   1      36.978  30.180  29.746  1.00  0.00     0.016 A 
ATOM     34  C   UNL A   1      39.501  31.313  30.168  1.00  0.00     0.010 A 
ATOM     35  C   UNL A   1      38.074  29.357  29.815  1.00  0.00     0.010 A 
ATOM     36  C   UNL A   1      39.331  29.943  29.933  1.00  0.00    -0.014 A 
BRANCH  36  37
ATOM     37  C   UNL A   1      40.495  29.087  30.023  1.00  0.00     0.031 A 
ATOM     38  C   UNL A   1      40.845  28.844  31.438  1.00  0.00     0.074 A 
ATOM     39  C   UNL A   1      41.101  28.527  28.958  1.00  0.00     0.049 A 
ATOM     40  N   UNL A   1      41.815  29.382  32.095  1.00  0.00    -0.248 NA
ATOM     41  C   UNL A   1      39.856  28.156  32.289  1.00  0.00     0.031 C 
ATOM     42  C   UNL A   1      40.687  28.547  27.555  1.00  0.00     0.029 A 
ATOM     43  N   UNL A   1      42.211  27.740  28.926  1.00  0.00    -0.354 N 
ATOM     44  C   UNL A   1      41.725  28.842  33.369  1.00  0.00     0.074 A 
ATOM     45  C   UNL A   1      40.382  28.349  33.499  1.00  0.00     0.031 C 
ATOM     46  C   UNL A   1      41.401  27.627  26.861  1.00  0.00     0.029 A 
ATOM     47  C   UNL A   1      42.406  27.041  27.735  1.00  0.00     0.049 A 
ATOM     48  H   UNL A   1      42.830  27.669  29.689  1.00  0.00     0.167 HD
ATOM     49  C   UNL A   1      42.855  28.535  34.058  1.00  0.00     0.034 A 
ATOM     50  C   UNL A   1      43.295  26.027  27.515  1.00  0.00     0.034 A 
ATOM     51  C   UNL A   1      43.991  29.268  33.538  1.00  0.00     0.049 A 
ATOM     52  C   UNL A   1      44.351  26.161  28.554  1.00  0.00     0.074 A 
ATOM     53  C   UNL A   1      44.249  30.612  33.333  1.00  0.00     0.029 A 
ATOM     54  N   UNL A   1      44.884  28.596  32.732  1.00  0.00    -0.354 N 
ATOM     55  N   UNL A   1      45.174  27.173  28.598  1.00  0.00    -0.248 NA
ATOM     56  C   UNL A   1      44.143  25.479  29.824  1.00  0.00     0.031 C 
ATOM     57  C   UNL A   1      44.903  30.673  32.067  1.00  0.00     0.029 A 
ATOM     58  C   UNL A   1      45.116  29.369  31.617  1.00  0.00     0.049 A 
ATOM     59  H   UNL A   1      45.286  27.717  32.921  1.00  0.00     0.167 HD
ATOM     60  C   UNL A   1      45.224  27.537  29.935  1.00  0.00     0.074 A 
ATOM     61  C   UNL A   1      44.630  26.407  30.655  1.00  0.00     0.031 C 
ATOM     62  C   UNL A   1      45.458  28.831  30.310  1.00  0.00     0.034 A 
BRANCH  49  63
ATOM     63  C   UNL A   1      42.989  27.284  34.896  1.00  0.00     0.023 A 
ATOM     64  C   UNL A   1      43.784  26.248  34.384  1.00  0.00     0.031 A 
ATOM     65  C   UNL A   1      42.180  26.946  36.011  1.00  0.00     0.131 A 
ATOM     66  C   UNL A   1      43.699  24.949  34.915  1.00  0.00     0.055 A 
ATOM     67  C   UNL A   1      42.153  25.672  36.578  1.00  0.00     0.041 A 
ATOM     68  F   UNL A   1      41.296  27.786  36.558  1.00  0.00    -0.206 F 
ATOM     69  C   UNL A   1      42.895  24.655  36.012  1.00  0.00     0.022 A 
BRANCH  66  70
ATOM     70  S   UNL A   1      44.533  23.607  34.036  1.00  0.00     0.124 S 
ATOM     71  O   UNL A   1      43.401  22.875  33.477  1.00  0.00    -0.237 OA
ATOM     72  O   UNL A   1      45.360  24.343  33.085  1.00  0.00    -0.237 OA
ATOM     73  O   UNL A   1      45.266  22.915  35.093  1.00  0.00    -0.744 OA
ENDBRANCH  66  70
ENDBRANCH  49  63
BRANCH  50  74
ATOM     74  C   UNL A   1      43.079  24.765  26.737  1.00  0.00     0.023 A 
ATOM     75  C   UNL A   1      44.076  24.157  25.933  1.00  0.00     0.031 A 
ATOM     76  C   UNL A   1      41.930  23.984  26.997  1.00  0.00     0.131 A 
ATOM     77  C   UNL A   1      43.898  22.838  25.437  1.00  0.00     0.055 A 
ATOM     78  C   UNL A   1      41.762  22.684  26.511  1.00  0.00     0.041 A 
ATOM     79  F   UNL A   1      40.959  24.426  27.812  1.00  0.00    -0.206 F 
ATOM     80  C   UNL A   1      42.751  22.102  25.738  1.00  0.00     0.022 A 
BRANCH  77  81
ATOM     81  S   UNL A   1      45.195  22.009  24.448  1.00  0.00     0.124 S 
ATOM     82  O   UNL A   1      44.463  20.910  23.830  1.00  0.00    -0.237 OA
ATOM     83  O   UNL A   1      45.644  23.074  23.559  1.00  0.00    -0.237 OA
ATOM     84  O   UNL A   1      46.180  21.598  25.451  1.00  0.00    -0.744 OA
ENDBRANCH  77  81
ENDBRANCH  50  74
BRANCH  62  85
ATOM     85  C   UNL A   1      45.948  29.812  29.254  1.00  0.00     0.023 A 
ATOM     86  C   UNL A   1      45.132  30.694  28.504  1.00  0.00     0.031 A 
ATOM     87  C   UNL A   1      47.339  29.907  29.068  1.00  0.00     0.131 A 
ATOM     88  C   UNL A   1      45.719  31.605  27.597  1.00  0.00     0.055 A 
ATOM     89  C   UNL A   1      47.915  30.826  28.194  1.00  0.00     0.041 A 
ATOM     90  F   UNL A   1      48.174  29.114  29.761  1.00  0.00    -0.206 F 
ATOM     91  C   UNL A   1      47.107  31.673  27.447  1.00  0.00     0.022 A 
BRANCH  88  92
ATOM     92  S   UNL A   1      44.689  32.695  26.558  1.00  0.00     0.124 S 
ATOM     93  O   UNL A   1      45.645  33.295  25.635  1.00  0.00    -0.237 OA
ATOM     94  O   UNL A   1      43.733  31.760  25.970  1.00  0.00    -0.237 OA
ATOM     95  O   UNL A   1      44.106  33.631  27.523  1.00  0.00    -0.744 OA
ENDBRANCH  88  92
ENDBRANCH  62  85
ENDBRANCH  36  37
ENDBRANCH  29  31
ENDBRANCH  28  29
ENDBRANCH  27  28
ENDBRANCH  26  27
ENDBRANCH   1  26
TORSDOF 20
ENDMDL
