MODEL 1
REMARK VINA RESULT:     -10.5      0.000      0.000
REMARK SMILES Cc1ncccc1C(=O)N1CC[C@H](C(=O)OCCOCCOC(=O)c2ccc(-c3c4nc(c(-c5cc(S(=O)(=O)[O-])ccc5F)c5ccc([nH]5)c(-c5cc(S(=O)(=O)[O-])ccc5F)c5nc(c(-c6cc(S(=O)(=O)[O-])ccc6F)c6ccc3[nH]6)C=C5)C=C4)cc2)C1
REMARK SMILES IDX 20 1 19 2 18 3 17 4 16 5 14 6 15 7 13 8 10 9 11 10 88 11
REMARK SMILES IDX 12 12 8 13 9 14 7 15 1 16 2 17 3 18 4 19 6 20 5 21 21 22
REMARK SMILES IDX 22 23 23 24 24 25 25 26 26 27 87 28 27 29 86 30 28 31 29 32
REMARK SMILES IDX 30 33 80 34 31 35 85 36 79 37 81 38 32 39 84 40 78 41 77 42
REMARK SMILES IDX 33 44 65 45 45 46 64 47 46 48 49 49 63 50 82 51 47 52 48 53
REMARK SMILES IDX 62 55 83 56 50 57 34 58 35 59 43 60 36 61 42 62 44 63 41 64
REMARK SMILES IDX 37 65 38 66 39 67 40 68 66 69 67 70 75 71 68 72 74 73 76 74
REMARK SMILES IDX 73 75 69 76 70 77 71 78 72 79 51 80 52 81 60 82 53 83 59 84
REMARK SMILES IDX 61 85 58 86 54 87 55 88 56 89 57 90
REMARK H PARENT 81 43 49 54
REMARK Flexibility Score: inf
ROOT
ATOM      1  C   UNL A   1      35.936  20.928  25.140  1.00  0.00     0.202 C 
ENDROOT
BRANCH   1   2
ATOM      2  O   UNL A   1      35.879  22.339  25.325  1.00  0.00    -0.374 OA
BRANCH   2   3
ATOM      3  C   UNL A   1      34.878  22.843  26.210  1.00  0.00     0.202 C 
BRANCH   3   4
ATOM      4  C   UNL A   1      33.948  21.811  26.856  1.00  0.00     0.261 C 
BRANCH   4   5
ATOM      5  O   UNL A   1      32.561  22.085  26.591  1.00  0.00    -0.463 OA
BRANCH   5   6
ATOM      6  C   UNL A   1      32.109  21.748  25.354  1.00  0.00     0.310 C 
ATOM      7  O   UNL A   1      32.320  20.679  24.792  1.00  0.00    -0.252 OA
BRANCH   6   8
ATOM      8  C   UNL A   1      31.334  22.862  24.689  1.00  0.00     0.120 C 
ATOM      9  N   UNL A   1      32.123  25.011  24.106  1.00  0.00    -0.338 N 
ATOM     10  C   UNL A   1      30.867  25.220  24.794  1.00  0.00     0.121 C 
ATOM     11  C   UNL A   1      32.264  23.612  23.745  1.00  0.00     0.135 C 
ATOM     12  C   UNL A   1      30.722  23.940  25.603  1.00  0.00     0.039 C 
BRANCH   9  13
ATOM     13  C   UNL A   1      33.099  25.898  23.707  1.00  0.00     0.255 C 
ATOM     14  O   UNL A   1      33.812  25.633  22.736  1.00  0.00    -0.269 OA
BRANCH  13  15
ATOM     15  C   UNL A   1      33.380  27.166  24.428  1.00  0.00     0.061 A 
ATOM     16  C   UNL A   1      32.152  28.757  22.821  1.00  0.00     0.067 C 
ATOM     17  C   UNL A   1      32.922  28.439  24.066  1.00  0.00     0.050 A 
ATOM     18  N   UNL A   1      33.090  29.526  24.875  1.00  0.00    -0.261 NA
ATOM     19  C   UNL A   1      33.604  29.338  26.107  1.00  0.00     0.111 A 
ATOM     20  C   UNL A   1      33.938  27.023  25.711  1.00  0.00     0.017 A 
ATOM     21  C   UNL A   1      34.036  28.113  26.570  1.00  0.00     0.021 A 
ENDBRANCH  13  15
ENDBRANCH   9  13
ENDBRANCH   6   8
ENDBRANCH   5   6
ENDBRANCH   4   5
ENDBRANCH   3   4
ENDBRANCH   2   3
ENDBRANCH   1   2
BRANCH   1  22
ATOM     22  C   UNL A   1      37.325  20.286  25.026  1.00  0.00     0.261 C 
BRANCH  22  23
ATOM     23  O   UNL A   1      38.396  21.239  25.139  1.00  0.00    -0.460 OA
BRANCH  23  24
ATOM     24  C   UNL A   1      39.278  20.979  26.136  1.00  0.00     0.338 C 
ATOM     25  O   UNL A   1      39.714  19.882  26.461  1.00  0.00    -0.246 OA
BRANCH  24  26
ATOM     26  C   UNL A   1      39.807  22.237  26.694  1.00  0.00     0.060 A 
ATOM     27  C   UNL A   1      39.332  23.438  26.150  1.00  0.00     0.016 A 
ATOM     28  C   UNL A   1      40.793  22.249  27.683  1.00  0.00     0.016 A 
ATOM     29  C   UNL A   1      39.862  24.655  26.574  1.00  0.00     0.010 A 
ATOM     30  C   UNL A   1      41.330  23.473  28.099  1.00  0.00     0.010 A 
ATOM     31  C   UNL A   1      40.884  24.681  27.532  1.00  0.00    -0.014 A 
BRANCH  31  32
ATOM     32  C   UNL A   1      41.543  25.966  27.875  1.00  0.00     0.031 A 
ATOM     33  C   UNL A   1      40.765  27.027  28.603  1.00  0.00     0.074 A 
ATOM     34  C   UNL A   1      42.833  26.176  27.550  1.00  0.00     0.049 A 
ATOM     35  N   UNL A   1      41.131  28.235  28.948  1.00  0.00    -0.248 NA
ATOM     36  C   UNL A   1      39.392  26.676  28.991  1.00  0.00     0.031 C 
ATOM     37  C   UNL A   1      43.700  25.205  26.884  1.00  0.00     0.029 A 
ATOM     38  N   UNL A   1      43.634  27.276  27.727  1.00  0.00    -0.354 N 
ATOM     39  C   UNL A   1      40.032  28.795  29.593  1.00  0.00     0.074 A 
ATOM     40  C   UNL A   1      38.978  27.800  29.560  1.00  0.00     0.031 C 
ATOM     41  C   UNL A   1      44.909  25.761  26.692  1.00  0.00     0.029 A 
ATOM     42  C   UNL A   1      44.888  27.137  27.180  1.00  0.00     0.049 A 
ATOM     43  H   UNL A   1      43.338  28.088  28.199  1.00  0.00     0.167 HD
ATOM     44  C   UNL A   1      39.918  30.020  30.161  1.00  0.00     0.034 A 
ATOM     45  C   UNL A   1      45.891  28.030  27.056  1.00  0.00     0.034 A 
ATOM     46  C   UNL A   1      40.974  31.005  30.170  1.00  0.00     0.049 A 
ATOM     47  C   UNL A   1      45.705  29.424  27.605  1.00  0.00     0.074 A 
ATOM     48  C   UNL A   1      40.975  32.263  30.747  1.00  0.00     0.029 A 
ATOM     49  N   UNL A   1      42.210  30.852  29.555  1.00  0.00    -0.354 N 
ATOM     50  N   UNL A   1      44.669  29.934  28.230  1.00  0.00    -0.248 NA
ATOM     51  C   UNL A   1      46.823  30.360  27.430  1.00  0.00     0.031 C 
ATOM     52  C   UNL A   1      42.176  32.899  30.412  1.00  0.00     0.029 A 
ATOM     53  C   UNL A   1      42.961  32.010  29.696  1.00  0.00     0.049 A 
ATOM     54  H   UNL A   1      42.510  30.040  29.085  1.00  0.00     0.167 HD
ATOM     55  C   UNL A   1      45.021  31.245  28.542  1.00  0.00     0.074 A 
ATOM     56  C   UNL A   1      46.370  31.440  28.051  1.00  0.00     0.031 C 
ATOM     57  C   UNL A   1      44.296  32.202  29.179  1.00  0.00     0.034 A 
BRANCH  44  58
ATOM     58  C   UNL A   1      38.583  30.384  30.767  1.00  0.00     0.023 A 
ATOM     59  C   UNL A   1      37.631  31.147  30.067  1.00  0.00     0.031 A 
ATOM     60  C   UNL A   1      38.265  29.976  32.075  1.00  0.00     0.131 A 
ATOM     61  C   UNL A   1      36.440  31.532  30.700  1.00  0.00     0.055 A 
ATOM     62  C   UNL A   1      37.047  30.300  32.674  1.00  0.00     0.041 A 
ATOM     63  F   UNL A   1      39.143  29.265  32.801  1.00  0.00    -0.206 F 
ATOM     64  C   UNL A   1      36.130  31.095  31.990  1.00  0.00     0.022 A 
BRANCH  61  65
ATOM     65  S   UNL A   1      35.360  32.729  29.867  1.00  0.00     0.124 S 
ATOM     66  O   UNL A   1      34.226  32.795  30.784  1.00  0.00    -0.237 OA
ATOM     67  O   UNL A   1      36.201  33.919  29.803  1.00  0.00    -0.237 OA
ATOM     68  O   UNL A   1      35.075  32.096  28.580  1.00  0.00    -0.744 OA
ENDBRANCH  61  65
ENDBRANCH  44  58
BRANCH  45  69
ATOM     69  C   UNL A   1      47.140  27.661  26.330  1.00  0.00     0.023 A 
ATOM     70  C   UNL A   1      47.278  27.888  24.952  1.00  0.00     0.031 A 
ATOM     71  C   UNL A   1      48.200  27.027  27.004  1.00  0.00     0.131 A 
ATOM     72  C   UNL A   1      48.432  27.448  24.284  1.00  0.00     0.055 A 
ATOM     73  C   UNL A   1      49.368  26.639  26.345  1.00  0.00     0.041 A 
ATOM     74  F   UNL A   1      48.117  26.780  28.321  1.00  0.00    -0.206 F 
ATOM     75  C   UNL A   1      49.484  26.839  24.973  1.00  0.00     0.022 A 
BRANCH  72  76
ATOM     76  S   UNL A   1      48.506  27.612  22.479  1.00  0.00     0.124 S 
ATOM     77  O   UNL A   1      48.598  26.218  22.058  1.00  0.00    -0.237 OA
ATOM     78  O   UNL A   1      47.249  28.289  22.184  1.00  0.00    -0.237 OA
ATOM     79  O   UNL A   1      49.709  28.411  22.259  1.00  0.00    -0.744 OA
ENDBRANCH  72  76
ENDBRANCH  45  69
BRANCH  57  80
ATOM     80  C   UNL A   1      44.967  33.537  29.399  1.00  0.00     0.023 A 
ATOM     81  C   UNL A   1      44.765  34.619  28.525  1.00  0.00     0.031 A 
ATOM     82  C   UNL A   1      45.827  33.725  30.496  1.00  0.00     0.131 A 
ATOM     83  C   UNL A   1      45.453  35.824  28.732  1.00  0.00     0.055 A 
ATOM     84  C   UNL A   1      46.462  34.946  30.730  1.00  0.00     0.041 A 
ATOM     85  F   UNL A   1      46.061  32.726  31.362  1.00  0.00    -0.206 F 
ATOM     86  C   UNL A   1      46.286  36.000  29.839  1.00  0.00     0.022 A 
BRANCH  83  87
ATOM     87  S   UNL A   1      45.308  37.136  27.488  1.00  0.00     0.124 S 
ATOM     88  O   UNL A   1      44.073  36.771  26.803  1.00  0.00    -0.237 OA
ATOM     89  O   UNL A   1      45.250  38.341  28.308  1.00  0.00    -0.237 OA
ATOM     90  O   UNL A   1      46.525  36.990  26.691  1.00  0.00    -0.744 OA
ENDBRANCH  83  87
ENDBRANCH  57  80
ENDBRANCH  31  32
ENDBRANCH  24  26
ENDBRANCH  23  24
ENDBRANCH  22  23
ENDBRANCH   1  22
TORSDOF 19
ENDMDL
MODEL 2
REMARK VINA RESULT:     -10.4      1.987      2.605
REMARK SMILES Cc1ncccc1C(=O)N1CC[C@H](C(=O)OCCOCCOC(=O)c2ccc(-c3c4nc(c(-c5cc(S(=O)(=O)[O-])ccc5F)c5ccc([nH]5)c(-c5cc(S(=O)(=O)[O-])ccc5F)c5nc(c(-c6cc(S(=O)(=O)[O-])ccc6F)c6ccc3[nH]6)C=C5)C=C4)cc2)C1
REMARK SMILES IDX 20 1 19 2 18 3 17 4 16 5 14 6 15 7 13 8 10 9 11 10 88 11
REMARK SMILES IDX 12 12 8 13 9 14 7 15 1 16 2 17 3 18 4 19 6 20 5 21 21 22
REMARK SMILES IDX 22 23 23 24 24 25 25 26 26 27 87 28 27 29 86 30 28 31 29 32
REMARK SMILES IDX 30 33 80 34 31 35 85 36 79 37 81 38 32 39 84 40 78 41 77 42
REMARK SMILES IDX 33 44 65 45 45 46 64 47 46 48 49 49 63 50 82 51 47 52 48 53
REMARK SMILES IDX 62 55 83 56 50 57 34 58 35 59 43 60 36 61 42 62 44 63 41 64
REMARK SMILES IDX 37 65 38 66 39 67 40 68 66 69 67 70 75 71 68 72 74 73 76 74
REMARK SMILES IDX 73 75 69 76 70 77 71 78 72 79 51 80 52 81 60 82 53 83 59 84
REMARK SMILES IDX 61 85 58 86 54 87 55 88 56 89 57 90
REMARK H PARENT 81 43 49 54
REMARK Flexibility Score: inf
ROOT
ATOM      1  C   UNL A   1      35.046  20.756  24.895  1.00  0.00     0.202 C 
ENDROOT
BRANCH   1   2
ATOM      2  O   UNL A   1      34.680  22.048  24.415  1.00  0.00    -0.374 OA
BRANCH   2   3
ATOM      3  C   UNL A   1      33.364  22.200  23.884  1.00  0.00     0.202 C 
BRANCH   3   4
ATOM      4  C   UNL A   1      32.283  22.687  24.856  1.00  0.00     0.261 C 
BRANCH   4   5
ATOM      5  O   UNL A   1      32.505  24.043  25.283  1.00  0.00    -0.463 OA
BRANCH   5   6
ATOM      6  C   UNL A   1      31.910  24.406  26.450  1.00  0.00     0.310 C 
ATOM      7  O   UNL A   1      31.736  23.670  27.414  1.00  0.00    -0.252 OA
BRANCH   6   8
ATOM      8  C   UNL A   1      31.423  25.838  26.438  1.00  0.00     0.120 C 
ATOM      9  N   UNL A   1      30.884  27.155  24.553  1.00  0.00    -0.338 N 
ATOM     10  C   UNL A   1      31.739  27.977  25.383  1.00  0.00     0.121 C 
ATOM     11  C   UNL A   1      30.418  26.005  25.307  1.00  0.00     0.135 C 
ATOM     12  C   UNL A   1      32.476  26.940  26.218  1.00  0.00     0.039 C 
BRANCH   9  13
ATOM     13  C   UNL A   1      30.422  27.335  23.267  1.00  0.00     0.255 C 
ATOM     14  O   UNL A   1      30.900  26.672  22.344  1.00  0.00    -0.269 OA
BRANCH  13  15
ATOM     15  C   UNL A   1      29.389  28.342  22.915  1.00  0.00     0.061 A 
ATOM     16  C   UNL A   1      27.352  27.097  23.873  1.00  0.00     0.067 C 
ATOM     17  C   UNL A   1      28.025  28.267  23.223  1.00  0.00     0.050 A 
ATOM     18  N   UNL A   1      27.175  29.312  23.006  1.00  0.00    -0.261 NA
ATOM     19  C   UNL A   1      27.692  30.488  22.596  1.00  0.00     0.111 A 
ATOM     20  C   UNL A   1      29.879  29.580  22.461  1.00  0.00     0.017 A 
ATOM     21  C   UNL A   1      29.029  30.672  22.317  1.00  0.00     0.021 A 
ENDBRANCH  13  15
ENDBRANCH   9  13
ENDBRANCH   6   8
ENDBRANCH   5   6
ENDBRANCH   4   5
ENDBRANCH   3   4
ENDBRANCH   2   3
ENDBRANCH   1   2
BRANCH   1  22
ATOM     22  C   UNL A   1      36.544  20.454  25.037  1.00  0.00     0.261 C 
BRANCH  22  23
ATOM     23  O   UNL A   1      37.292  21.558  25.575  1.00  0.00    -0.460 OA
BRANCH  23  24
ATOM     24  C   UNL A   1      38.584  21.272  25.870  1.00  0.00     0.338 C 
ATOM     25  O   UNL A   1      39.188  20.243  25.595  1.00  0.00    -0.246 OA
BRANCH  24  26
ATOM     26  C   UNL A   1      39.259  22.459  26.427  1.00  0.00     0.060 A 
ATOM     27  C   UNL A   1      38.740  23.717  26.092  1.00  0.00     0.016 A 
ATOM     28  C   UNL A   1      40.411  22.355  27.209  1.00  0.00     0.016 A 
ATOM     29  C   UNL A   1      39.389  24.876  26.514  1.00  0.00     0.010 A 
ATOM     30  C   UNL A   1      41.066  23.520  27.623  1.00  0.00     0.010 A 
ATOM     31  C   UNL A   1      40.571  24.787  27.260  1.00  0.00    -0.014 A 
BRANCH  31  32
ATOM     32  C   UNL A   1      41.334  26.018  27.585  1.00  0.00     0.031 A 
ATOM     33  C   UNL A   1      40.660  27.131  28.339  1.00  0.00     0.074 A 
ATOM     34  C   UNL A   1      42.625  26.134  27.220  1.00  0.00     0.049 A 
ATOM     35  N   UNL A   1      41.124  28.306  28.675  1.00  0.00    -0.248 NA
ATOM     36  C   UNL A   1      39.277  26.880  28.770  1.00  0.00     0.031 C 
ATOM     37  C   UNL A   1      43.396  25.104  26.524  1.00  0.00     0.029 A 
ATOM     38  N   UNL A   1      43.510  27.171  27.374  1.00  0.00    -0.354 N 
ATOM     39  C   UNL A   1      40.091  28.943  29.356  1.00  0.00     0.074 A 
ATOM     40  C   UNL A   1      38.966  28.029  29.354  1.00  0.00     0.031 C 
ATOM     41  C   UNL A   1      44.636  25.570  26.295  1.00  0.00     0.029 A 
ATOM     42  C   UNL A   1      44.733  26.942  26.787  1.00  0.00     0.049 A 
ATOM     43  H   UNL A   1      43.290  28.000  27.857  1.00  0.00     0.167 HD
ATOM     44  C   UNL A   1      40.086  30.171  29.930  1.00  0.00     0.034 A 
ATOM     45  C   UNL A   1      45.795  27.758  26.633  1.00  0.00     0.034 A 
ATOM     46  C   UNL A   1      41.211  31.075  29.907  1.00  0.00     0.049 A 
ATOM     47  C   UNL A   1      45.730  29.160  27.191  1.00  0.00     0.074 A 
ATOM     48  C   UNL A   1      41.324  32.326  30.487  1.00  0.00     0.029 A 
ATOM     49  N   UNL A   1      42.413  30.833  29.253  1.00  0.00    -0.354 N 
ATOM     50  N   UNL A   1      44.754  29.742  27.850  1.00  0.00    -0.248 NA
ATOM     51  C   UNL A   1      46.908  30.012  26.983  1.00  0.00     0.031 C 
ATOM     52  C   UNL A   1      42.558  32.873  30.116  1.00  0.00     0.029 A 
ATOM     53  C   UNL A   1      43.252  31.932  29.374  1.00  0.00     0.049 A 
ATOM     54  H   UNL A   1      42.637  30.004  28.773  1.00  0.00     0.167 HD
ATOM     55  C   UNL A   1      45.212  31.023  28.153  1.00  0.00     0.074 A 
ATOM     56  C   UNL A   1      46.556  31.119  27.620  1.00  0.00     0.031 C 
ATOM     57  C   UNL A   1      44.581  32.027  28.814  1.00  0.00     0.034 A 
BRANCH  44  58
ATOM     58  C   UNL A   1      38.801  30.630  30.579  1.00  0.00     0.023 A 
ATOM     59  C   UNL A   1      37.808  31.317  29.859  1.00  0.00     0.031 A 
ATOM     60  C   UNL A   1      38.575  30.391  31.946  1.00  0.00     0.131 A 
ATOM     61  C   UNL A   1      36.669  31.798  30.521  1.00  0.00     0.055 A 
ATOM     62  C   UNL A   1      37.405  30.807  32.584  1.00  0.00     0.041 A 
ATOM     63  F   UNL A   1      39.496  29.759  32.691  1.00  0.00    -0.206 F 
ATOM     64  C   UNL A   1      36.449  31.528  31.874  1.00  0.00     0.022 A 
BRANCH  61  65
ATOM     65  S   UNL A   1      35.543  32.902  29.624  1.00  0.00     0.124 S 
ATOM     66  O   UNL A   1      34.291  32.702  30.349  1.00  0.00    -0.237 OA
ATOM     67  O   UNL A   1      36.179  34.204  29.792  1.00  0.00    -0.237 OA
ATOM     68  O   UNL A   1      35.556  32.372  28.262  1.00  0.00    -0.744 OA
ENDBRANCH  61  65
ENDBRANCH  44  58
BRANCH  45  69
ATOM     69  C   UNL A   1      46.990  27.301  25.867  1.00  0.00     0.023 A 
ATOM     70  C   UNL A   1      47.198  27.693  24.536  1.00  0.00     0.031 A 
ATOM     71  C   UNL A   1      47.920  26.420  26.448  1.00  0.00     0.131 A 
ATOM     72  C   UNL A   1      48.286  27.174  23.817  1.00  0.00     0.055 A 
ATOM     73  C   UNL A   1      49.030  25.949  25.746  1.00  0.00     0.041 A 
ATOM     74  F   UNL A   1      47.765  26.009  27.717  1.00  0.00    -0.206 F 
ATOM     75  C   UNL A   1      49.211  26.317  24.417  1.00  0.00     0.022 A 
BRANCH  72  76
ATOM     76  S   UNL A   1      48.432  27.574  22.054  1.00  0.00     0.124 S 
ATOM     77  O   UNL A   1      47.148  28.213  21.787  1.00  0.00    -0.237 OA
ATOM     78  O   UNL A   1      49.599  28.448  22.037  1.00  0.00    -0.237 OA
ATOM     79  O   UNL A   1      48.624  26.270  21.423  1.00  0.00    -0.744 OA
ENDBRANCH  72  76
ENDBRANCH  45  69
BRANCH  57  80
ATOM     80  C   UNL A   1      45.355  33.308  29.017  1.00  0.00     0.023 A 
ATOM     81  C   UNL A   1      46.181  33.503  30.137  1.00  0.00     0.031 A 
ATOM     82  C   UNL A   1      45.256  34.351  28.079  1.00  0.00     0.131 A 
ATOM     83  C   UNL A   1      46.837  34.730  30.318  1.00  0.00     0.055 A 
ATOM     84  C   UNL A   1      45.959  35.548  28.234  1.00  0.00     0.041 A 
ATOM     85  F   UNL A   1      44.479  34.222  26.991  1.00  0.00    -0.206 F 
ATOM     86  C   UNL A   1      46.745  35.747  29.364  1.00  0.00     0.022 A 
BRANCH  83  87
ATOM     87  S   UNL A   1      47.749  35.013  31.860  1.00  0.00     0.124 S 
ATOM     88  O   UNL A   1      48.953  34.216  31.651  1.00  0.00    -0.237 OA
ATOM     89  O   UNL A   1      47.935  36.460  31.853  1.00  0.00    -0.237 OA
ATOM     90  O   UNL A   1      46.845  34.511  32.892  1.00  0.00    -0.744 OA
ENDBRANCH  83  87
ENDBRANCH  57  80
ENDBRANCH  31  32
ENDBRANCH  24  26
ENDBRANCH  23  24
ENDBRANCH  22  23
ENDBRANCH   1  22
TORSDOF 19
ENDMDL
MODEL 3
REMARK VINA RESULT:     -10.4      1.289      7.663
REMARK SMILES Cc1ncccc1C(=O)N1CC[C@H](C(=O)OCCOCCOC(=O)c2ccc(-c3c4nc(c(-c5cc(S(=O)(=O)[O-])ccc5F)c5ccc([nH]5)c(-c5cc(S(=O)(=O)[O-])ccc5F)c5nc(c(-c6cc(S(=O)(=O)[O-])ccc6F)c6ccc3[nH]6)C=C5)C=C4)cc2)C1
REMARK SMILES IDX 20 1 19 2 18 3 17 4 16 5 14 6 15 7 13 8 10 9 11 10 88 11
REMARK SMILES IDX 12 12 8 13 9 14 7 15 1 16 2 17 3 18 4 19 6 20 5 21 21 22
REMARK SMILES IDX 22 23 23 24 24 25 25 26 26 27 87 28 27 29 86 30 28 31 29 32
REMARK SMILES IDX 30 33 80 34 31 35 85 36 79 37 81 38 32 39 84 40 78 41 77 42
REMARK SMILES IDX 33 44 65 45 45 46 64 47 46 48 49 49 63 50 82 51 47 52 48 53
REMARK SMILES IDX 62 55 83 56 50 57 34 58 35 59 43 60 36 61 42 62 44 63 41 64
REMARK SMILES IDX 37 65 38 66 39 67 40 68 66 69 67 70 75 71 68 72 74 73 76 74
REMARK SMILES IDX 73 75 69 76 70 77 71 78 72 79 51 80 52 81 60 82 53 83 59 84
REMARK SMILES IDX 61 85 58 86 54 87 55 88 56 89 57 90
REMARK H PARENT 81 43 49 54
REMARK Flexibility Score: inf
ROOT
ATOM      1  C   UNL A   1      37.748  19.572  24.716  1.00  0.00     0.202 C 
ENDROOT
BRANCH   1   2
ATOM      2  O   UNL A   1      36.667  20.374  25.185  1.00  0.00    -0.374 OA
BRANCH   2   3
ATOM      3  C   UNL A   1      36.962  21.721  25.551  1.00  0.00     0.202 C 
BRANCH   3   4
ATOM      4  C   UNL A   1      35.795  22.560  26.084  1.00  0.00     0.261 C 
BRANCH   4   5
ATOM      5  O   UNL A   1      34.828  21.763  26.790  1.00  0.00    -0.463 OA
BRANCH   5   6
ATOM      6  C   UNL A   1      33.611  22.335  26.987  1.00  0.00     0.310 C 
ATOM      7  O   UNL A   1      32.995  22.340  28.047  1.00  0.00    -0.252 OA
BRANCH   6   8
ATOM      8  C   UNL A   1      33.041  22.949  25.728  1.00  0.00     0.120 C 
ATOM      9  N   UNL A   1      31.350  24.589  25.569  1.00  0.00    -0.338 N 
ATOM     10  C   UNL A   1      30.986  23.549  24.631  1.00  0.00     0.121 C 
ATOM     11  C   UNL A   1      32.726  24.414  25.996  1.00  0.00     0.135 C 
ATOM     12  C   UNL A   1      31.737  22.343  25.175  1.00  0.00     0.039 C 
BRANCH   9  13
ATOM     13  C   UNL A   1      30.651  25.687  26.024  1.00  0.00     0.255 C 
ATOM     14  O   UNL A   1      29.538  25.538  26.534  1.00  0.00    -0.269 OA
BRANCH  13  15
ATOM     15  C   UNL A   1      31.156  27.077  25.890  1.00  0.00     0.061 A 
ATOM     16  C   UNL A   1      30.548  27.427  23.414  1.00  0.00     0.067 C 
ATOM     17  C   UNL A   1      31.072  27.877  24.744  1.00  0.00     0.050 A 
ATOM     18  N   UNL A   1      31.413  29.199  24.757  1.00  0.00    -0.261 NA
ATOM     19  C   UNL A   1      31.724  29.771  25.938  1.00  0.00     0.111 A 
ATOM     20  C   UNL A   1      31.514  27.711  27.092  1.00  0.00     0.017 A 
ATOM     21  C   UNL A   1      31.784  29.075  27.126  1.00  0.00     0.021 A 
ENDBRANCH  13  15
ENDBRANCH   9  13
ENDBRANCH   6   8
ENDBRANCH   5   6
ENDBRANCH   4   5
ENDBRANCH   3   4
ENDBRANCH   2   3
ENDBRANCH   1   2
BRANCH   1  22
ATOM     22  C   UNL A   1      38.815  19.157  25.737  1.00  0.00     0.261 C 
BRANCH  22  23
ATOM     23  O   UNL A   1      40.046  19.887  25.592  1.00  0.00    -0.460 OA
BRANCH  23  24
ATOM     24  C   UNL A   1      40.794  19.961  26.721  1.00  0.00     0.338 C 
ATOM     25  O   UNL A   1      41.345  19.031  27.297  1.00  0.00    -0.246 OA
BRANCH  24  26
ATOM     26  C   UNL A   1      41.021  21.368  27.096  1.00  0.00     0.060 A 
ATOM     27  C   UNL A   1      40.578  22.356  26.206  1.00  0.00     0.016 A 
ATOM     28  C   UNL A   1      41.707  21.721  28.260  1.00  0.00     0.016 A 
ATOM     29  C   UNL A   1      40.846  23.699  26.462  1.00  0.00     0.010 A 
ATOM     30  C   UNL A   1      41.982  23.071  28.510  1.00  0.00     0.010 A 
ATOM     31  C   UNL A   1      41.573  24.065  27.602  1.00  0.00    -0.014 A 
BRANCH  31  32
ATOM     32  C   UNL A   1      41.978  25.480  27.797  1.00  0.00     0.031 A 
ATOM     33  C   UNL A   1      43.337  25.931  27.339  1.00  0.00     0.074 A 
ATOM     34  C   UNL A   1      41.130  26.358  28.366  1.00  0.00     0.049 A 
ATOM     35  N   UNL A   1      43.908  27.101  27.463  1.00  0.00    -0.248 NA
ATOM     36  C   UNL A   1      44.160  24.925  26.653  1.00  0.00     0.031 C 
ATOM     37  C   UNL A   1      39.772  26.047  28.809  1.00  0.00     0.029 A 
ATOM     38  N   UNL A   1      41.290  27.684  28.678  1.00  0.00    -0.354 N 
ATOM     39  C   UNL A   1      45.162  26.976  26.872  1.00  0.00     0.074 A 
ATOM     40  C   UNL A   1      45.275  25.604  26.421  1.00  0.00     0.031 C 
ATOM     41  C   UNL A   1      39.228  27.149  29.353  1.00  0.00     0.029 A 
ATOM     42  C   UNL A   1      40.212  28.229  29.336  1.00  0.00     0.049 A 
ATOM     43  H   UNL A   1      42.100  28.197  28.453  1.00  0.00     0.167 HD
ATOM     44  C   UNL A   1      46.124  27.920  26.718  1.00  0.00     0.034 A 
ATOM     45  C   UNL A   1      40.052  29.446  29.894  1.00  0.00     0.034 A 
ATOM     46  C   UNL A   1      46.000  29.279  27.189  1.00  0.00     0.049 A 
ATOM     47  C   UNL A   1      41.176  30.449  29.801  1.00  0.00     0.074 A 
ATOM     48  C   UNL A   1      46.898  30.323  27.055  1.00  0.00     0.029 A 
ATOM     49  N   UNL A   1      44.918  29.779  27.904  1.00  0.00    -0.354 N 
ATOM     50  N   UNL A   1      42.348  30.325  29.222  1.00  0.00    -0.248 NA
ATOM     51  C   UNL A   1      40.954  31.754  30.437  1.00  0.00     0.031 C 
ATOM     52  C   UNL A   1      46.398  31.426  27.757  1.00  0.00     0.029 A 
ATOM     53  C   UNL A   1      45.149  31.100  28.259  1.00  0.00     0.049 A 
ATOM     54  H   UNL A   1      44.106  29.269  28.127  1.00  0.00     0.167 HD
ATOM     55  C   UNL A   1      42.995  31.545  29.408  1.00  0.00     0.074 A 
ATOM     56  C   UNL A   1      42.074  32.395  30.136  1.00  0.00     0.031 C 
ATOM     57  C   UNL A   1      44.235  31.929  29.010  1.00  0.00     0.034 A 
BRANCH  44  58
ATOM     58  C   UNL A   1      47.417  27.494  26.064  1.00  0.00     0.023 A 
ATOM     59  C   UNL A   1      47.662  27.704  24.696  1.00  0.00     0.031 A 
ATOM     60  C   UNL A   1      48.413  26.850  26.819  1.00  0.00     0.131 A 
ATOM     61  C   UNL A   1      48.842  27.217  24.113  1.00  0.00     0.055 A 
ATOM     62  C   UNL A   1      49.617  26.433  26.250  1.00  0.00     0.041 A 
ATOM     63  F   UNL A   1      48.227  26.602  28.126  1.00  0.00    -0.206 F 
ATOM     64  C   UNL A   1      49.832  26.603  24.885  1.00  0.00     0.022 A 
BRANCH  61  65
ATOM     65  S   UNL A   1      49.007  27.271  22.307  1.00  0.00     0.124 S 
ATOM     66  O   UNL A   1      48.502  25.955  21.923  1.00  0.00    -0.237 OA
ATOM     67  O   UNL A   1      48.165  28.408  21.949  1.00  0.00    -0.237 OA
ATOM     68  O   UNL A   1      50.440  27.466  22.098  1.00  0.00    -0.744 OA
ENDBRANCH  61  65
ENDBRANCH  44  58
BRANCH  45  69
ATOM     69  C   UNL A   1      38.805  29.771  30.644  1.00  0.00     0.023 A 
ATOM     70  C   UNL A   1      37.803  30.576  30.082  1.00  0.00     0.031 A 
ATOM     71  C   UNL A   1      38.622  29.316  31.963  1.00  0.00     0.131 A 
ATOM     72  C   UNL A   1      36.682  30.935  30.848  1.00  0.00     0.055 A 
ATOM     73  C   UNL A   1      37.481  29.631  32.702  1.00  0.00     0.041 A 
ATOM     74  F   UNL A   1      39.553  28.547  32.551  1.00  0.00    -0.206 F 
ATOM     75  C   UNL A   1      36.507  30.456  32.148  1.00  0.00     0.022 A 
BRANCH  72  76
ATOM     76  S   UNL A   1      35.489  32.107  30.146  1.00  0.00     0.124 S 
ATOM     77  O   UNL A   1      34.987  31.365  28.995  1.00  0.00    -0.237 OA
ATOM     78  O   UNL A   1      34.554  32.285  31.251  1.00  0.00    -0.237 OA
ATOM     79  O   UNL A   1      36.306  33.275  29.828  1.00  0.00    -0.744 OA
ENDBRANCH  72  76
ENDBRANCH  45  69
BRANCH  57  80
ATOM     80  C   UNL A   1      44.652  33.343  29.336  1.00  0.00     0.023 A 
ATOM     81  C   UNL A   1      44.291  34.428  28.518  1.00  0.00     0.031 A 
ATOM     82  C   UNL A   1      45.430  33.607  30.478  1.00  0.00     0.131 A 
ATOM     83  C   UNL A   1      44.748  35.719  28.825  1.00  0.00     0.055 A 
ATOM     84  C   UNL A   1      45.833  34.902  30.810  1.00  0.00     0.041 A 
ATOM     85  F   UNL A   1      45.809  32.610  31.293  1.00  0.00    -0.206 F 
ATOM     86  C   UNL A   1      45.502  35.965  29.975  1.00  0.00     0.022 A 
BRANCH  83  87
ATOM     87  S   UNL A   1      44.415  37.064  27.655  1.00  0.00     0.124 S 
ATOM     88  O   UNL A   1      43.434  36.455  26.763  1.00  0.00    -0.237 OA
ATOM     89  O   UNL A   1      43.914  38.121  28.526  1.00  0.00    -0.237 OA
ATOM     90  O   UNL A   1      45.721  37.327  27.052  1.00  0.00    -0.744 OA
ENDBRANCH  83  87
ENDBRANCH  57  80
ENDBRANCH  31  32
ENDBRANCH  24  26
ENDBRANCH  23  24
ENDBRANCH  22  23
ENDBRANCH   1  22
TORSDOF 19
ENDMDL
