MODEL 1
REMARK VINA RESULT:     -10.9      0.000      0.000
REMARK SMILES Cc1cc(C)c(C(N)=O)c(N[C@H]2C=C[C@H](C(=O)OCCOCCOC(=O)c3ccc(-c4c5nc(c(-c6cc(S(=O)(=O)[O-])ccc6F)c6ccc([nH]6)c(-c6cc(S(=O)(=O)[O-])ccc6F)c6nc(c(-c7cc(S(=O)(=O)[O-])ccc7F)c7ccc4[nH]7)C=C6)C=C5)cc3)C2)n1
REMARK SMILES IDX 21 1 20 2 19 3 18 4 16 5 17 6 15 7 12 8 13 9 90 10 14 11
REMARK SMILES IDX 11 12 10 14 1 15 2 16 3 17 91 18 4 19 5 20 6 21 7 22 8 23
REMARK SMILES IDX 9 24 22 27 23 28 24 29 25 30 26 31 27 32 28 33 89 34 29 35
REMARK SMILES IDX 88 36 30 37 31 38 32 39 82 40 33 41 87 42 81 43 83 44 34 45
REMARK SMILES IDX 86 46 80 47 79 48 35 50 67 51 47 52 66 53 48 54 51 55 65 56
REMARK SMILES IDX 84 57 49 58 50 59 64 61 85 62 52 63 36 64 37 65 45 66 38 67
REMARK SMILES IDX 44 68 46 69 43 70 39 71 40 72 41 73 42 74 68 75 69 76 77 77
REMARK SMILES IDX 70 78 76 79 78 80 75 81 71 82 72 83 73 84 74 85 53 86 54 87
REMARK SMILES IDX 62 88 55 89 61 90 63 91 60 92 56 93 57 94 58 95 59 96
REMARK H PARENT 11 13 8 25 8 26 83 49 51 60
REMARK Flexibility Score: inf
ROOT
ATOM      1  O   UNL A   1      34.493  34.455  28.699  1.00  0.00    -0.374 OA
ENDROOT
BRANCH   1   2
ATOM      2  C   UNL A   1      34.598  33.236  27.960  1.00  0.00     0.202 C 
BRANCH   2   3
ATOM      3  C   UNL A   1      33.364  32.330  27.995  1.00  0.00     0.261 C 
BRANCH   3   4
ATOM      4  O   UNL A   1      33.706  31.017  27.529  1.00  0.00    -0.463 OA
BRANCH   4   5
ATOM      5  C   UNL A   1      32.678  30.284  27.024  1.00  0.00     0.312 C 
ATOM      6  O   UNL A   1      31.882  30.663  26.171  1.00  0.00    -0.252 OA
BRANCH   5   7
ATOM      7  C   UNL A   1      32.725  28.869  27.580  1.00  0.00     0.124 C 
ATOM      8  C   UNL A   1      33.261  27.360  25.761  1.00  0.00     0.104 C 
ATOM      9  C   UNL A   1      31.819  27.253  26.144  1.00  0.00    -0.006 C 
ATOM     10  C   UNL A   1      33.898  28.117  26.930  1.00  0.00     0.048 C 
ATOM     11  C   UNL A   1      31.523  28.085  27.150  1.00  0.00    -0.014 C 
BRANCH   8  12
ATOM     12  N   UNL A   1      33.880  26.081  25.478  1.00  0.00    -0.363 N 
ATOM     13  H   UNL A   1      34.729  25.874  25.932  1.00  0.00     0.162 HD
BRANCH  12  14
ATOM     14  C   UNL A   1      33.364  25.127  24.611  1.00  0.00     0.139 A 
ATOM     15  C   UNL A   1      32.903  24.935  20.960  1.00  0.00     0.067 C 
ATOM     16  C   UNL A   1      32.897  24.523  22.401  1.00  0.00     0.040 A 
ATOM     17  C   UNL A   1      32.396  23.293  22.787  1.00  0.00     0.028 A 
ATOM     18  N   UNL A   1      33.386  25.410  23.289  1.00  0.00    -0.236 NA
ATOM     19  C   UNL A   1      32.393  22.950  24.146  1.00  0.00    -0.033 A 
ATOM     20  C   UNL A   1      31.856  21.595  24.515  1.00  0.00     0.045 C 
ATOM     21  C   UNL A   1      32.865  23.895  25.081  1.00  0.00     0.084 A 
BRANCH  21  22
ATOM     22  C   UNL A   1      32.807  23.603  26.545  1.00  0.00     0.252 C 
ATOM     23  N   UNL A   1      33.949  23.138  27.139  1.00  0.00    -0.365 N 
ATOM     24  O   UNL A   1      31.792  23.769  27.209  1.00  0.00    -0.269 OA
ATOM     25  H   UNL A   1      34.764  23.006  26.602  1.00  0.00     0.159 HD
ATOM     26  H   UNL A   1      33.956  22.938  28.102  1.00  0.00     0.159 HD
ENDBRANCH  21  22
ENDBRANCH  12  14
ENDBRANCH   8  12
ENDBRANCH   5   7
ENDBRANCH   4   5
ENDBRANCH   3   4
ENDBRANCH   2   3
ENDBRANCH   1   2
BRANCH   1  27
ATOM     27  C   UNL A   1      33.781  34.422  29.937  1.00  0.00     0.202 C 
BRANCH  27  28
ATOM     28  C   UNL A   1      34.595  34.152  31.208  1.00  0.00     0.261 C 
BRANCH  28  29
ATOM     29  O   UNL A   1      34.494  32.784  31.639  1.00  0.00    -0.460 OA
BRANCH  29  30
ATOM     30  C   UNL A   1      35.466  32.388  32.495  1.00  0.00     0.338 C 
ATOM     31  O   UNL A   1      35.491  32.567  33.707  1.00  0.00    -0.246 OA
BRANCH  30  32
ATOM     32  C   UNL A   1      36.433  31.517  31.805  1.00  0.00     0.060 A 
ATOM     33  C   UNL A   1      37.584  31.144  32.512  1.00  0.00     0.016 A 
ATOM     34  C   UNL A   1      36.267  31.141  30.470  1.00  0.00     0.016 A 
ATOM     35  C   UNL A   1      38.603  30.446  31.869  1.00  0.00     0.010 A 
ATOM     36  C   UNL A   1      37.297  30.448  29.823  1.00  0.00     0.010 A 
ATOM     37  C   UNL A   1      38.486  30.136  30.509  1.00  0.00    -0.014 A 
BRANCH  37  38
ATOM     38  C   UNL A   1      39.682  29.660  29.770  1.00  0.00     0.031 A 
ATOM     39  C   UNL A   1      40.859  30.590  29.634  1.00  0.00     0.074 A 
ATOM     40  C   UNL A   1      39.739  28.413  29.272  1.00  0.00     0.049 A 
ATOM     41  N   UNL A   1      41.996  30.409  29.013  1.00  0.00    -0.248 NA
ATOM     42  C   UNL A   1      40.731  31.901  30.287  1.00  0.00     0.031 C 
ATOM     43  C   UNL A   1      38.684  27.409  29.390  1.00  0.00     0.029 A 
ATOM     44  N   UNL A   1      40.731  27.779  28.566  1.00  0.00    -0.354 N 
ATOM     45  C   UNL A   1      42.718  31.584  29.195  1.00  0.00     0.074 A 
ATOM     46  C   UNL A   1      41.872  32.483  29.951  1.00  0.00     0.031 C 
ATOM     47  C   UNL A   1      39.080  26.286  28.766  1.00  0.00     0.029 A 
ATOM     48  C   UNL A   1      40.401  26.502  28.177  1.00  0.00     0.049 A 
ATOM     49  H   UNL A   1      41.596  28.198  28.357  1.00  0.00     0.167 HD
ATOM     50  C   UNL A   1      43.974  31.881  28.779  1.00  0.00     0.034 A 
ATOM     51  C   UNL A   1      41.077  25.622  27.412  1.00  0.00     0.034 A 
ATOM     52  C   UNL A   1      44.800  30.977  28.017  1.00  0.00     0.049 A 
ATOM     53  C   UNL A   1      42.440  26.005  26.886  1.00  0.00     0.074 A 
ATOM     54  C   UNL A   1      46.086  31.171  27.545  1.00  0.00     0.029 A 
ATOM     55  N   UNL A   1      44.414  29.707  27.604  1.00  0.00    -0.354 N 
ATOM     56  N   UNL A   1      43.113  27.119  27.065  1.00  0.00    -0.248 NA
ATOM     57  C   UNL A   1      43.140  25.008  26.065  1.00  0.00     0.031 C 
ATOM     58  C   UNL A   1      46.452  30.051  26.792  1.00  0.00     0.029 A 
ATOM     59  C   UNL A   1      45.426  29.121  26.858  1.00  0.00     0.049 A 
ATOM     60  H   UNL A   1      43.549  29.285  27.809  1.00  0.00     0.167 HD
ATOM     61  C   UNL A   1      44.328  26.939  26.407  1.00  0.00     0.074 A 
ATOM     62  C   UNL A   1      44.297  25.609  25.838  1.00  0.00     0.031 C 
ATOM     63  C   UNL A   1      45.378  27.794  26.291  1.00  0.00     0.034 A 
BRANCH  50  64
ATOM     64  C   UNL A   1      44.497  33.262  29.095  1.00  0.00     0.023 A 
ATOM     65  C   UNL A   1      45.184  33.540  30.290  1.00  0.00     0.031 A 
ATOM     66  C   UNL A   1      44.273  34.325  28.203  1.00  0.00     0.131 A 
ATOM     67  C   UNL A   1      45.556  34.860  30.593  1.00  0.00     0.055 A 
ATOM     68  C   UNL A   1      44.716  35.622  28.474  1.00  0.00     0.041 A 
ATOM     69  F   UNL A   1      43.602  34.127  27.057  1.00  0.00    -0.206 F 
ATOM     70  C   UNL A   1      45.348  35.898  29.683  1.00  0.00     0.022 A 
BRANCH  67  71
ATOM     71  S   UNL A   1      46.180  35.223  32.257  1.00  0.00     0.124 S 
ATOM     72  O   UNL A   1      45.194  36.187  32.739  1.00  0.00    -0.237 OA
ATOM     73  O   UNL A   1      46.160  33.912  32.895  1.00  0.00    -0.237 OA
ATOM     74  O   UNL A   1      47.512  35.775  32.010  1.00  0.00    -0.744 OA
ENDBRANCH  67  71
ENDBRANCH  50  64
BRANCH  51  75
ATOM     75  C   UNL A   1      40.470  24.307  27.056  1.00  0.00     0.023 A 
ATOM     76  C   UNL A   1      39.256  24.229  26.356  1.00  0.00     0.031 A 
ATOM     77  C   UNL A   1      41.074  23.103  27.464  1.00  0.00     0.131 A 
ATOM     78  C   UNL A   1      38.660  22.979  26.126  1.00  0.00     0.055 A 
ATOM     79  C   UNL A   1      40.503  21.860  27.185  1.00  0.00     0.041 A 
ATOM     80  F   UNL A   1      42.236  23.119  28.136  1.00  0.00    -0.206 F 
ATOM     81  C   UNL A   1      39.282  21.794  26.524  1.00  0.00     0.022 A 
BRANCH  78  82
ATOM     82  S   UNL A   1      37.011  22.928  25.370  1.00  0.00     0.124 S 
ATOM     83  O   UNL A   1      36.481  24.239  25.726  1.00  0.00    -0.237 OA
ATOM     84  O   UNL A   1      37.331  22.726  23.961  1.00  0.00    -0.237 OA
ATOM     85  O   UNL A   1      36.370  21.794  26.030  1.00  0.00    -0.744 OA
ENDBRANCH  78  82
ENDBRANCH  51  75
BRANCH  63  86
ATOM     86  C   UNL A   1      46.601  27.286  25.564  1.00  0.00     0.023 A 
ATOM     87  C   UNL A   1      46.932  27.722  24.270  1.00  0.00     0.031 A 
ATOM     88  C   UNL A   1      47.444  26.343  26.181  1.00  0.00     0.131 A 
ATOM     89  C   UNL A   1      48.045  27.176  23.612  1.00  0.00     0.055 A 
ATOM     90  C   UNL A   1      48.583  25.848  25.545  1.00  0.00     0.041 A 
ATOM     91  F   UNL A   1      47.175  25.891  27.416  1.00  0.00    -0.206 F 
ATOM     92  C   UNL A   1      48.881  26.254  24.248  1.00  0.00     0.022 A 
BRANCH  89  93
ATOM     93  S   UNL A   1      48.337  27.619  21.877  1.00  0.00     0.124 S 
ATOM     94  O   UNL A   1      48.652  26.324  21.282  1.00  0.00    -0.237 OA
ATOM     95  O   UNL A   1      47.061  28.207  21.486  1.00  0.00    -0.237 OA
ATOM     96  O   UNL A   1      49.456  28.557  21.947  1.00  0.00    -0.744 OA
ENDBRANCH  89  93
ENDBRANCH  63  86
ENDBRANCH  37  38
ENDBRANCH  30  32
ENDBRANCH  29  30
ENDBRANCH  28  29
ENDBRANCH  27  28
ENDBRANCH   1  27
TORSDOF 20
ENDMDL
MODEL 2
REMARK VINA RESULT:     -10.6      4.872      7.412
REMARK SMILES Cc1cc(C)c(C(N)=O)c(N[C@H]2C=C[C@H](C(=O)OCCOCCOC(=O)c3ccc(-c4c5nc(c(-c6cc(S(=O)(=O)[O-])ccc6F)c6ccc([nH]6)c(-c6cc(S(=O)(=O)[O-])ccc6F)c6nc(c(-c7cc(S(=O)(=O)[O-])ccc7F)c7ccc4[nH]7)C=C6)C=C5)cc3)C2)n1
REMARK SMILES IDX 21 1 20 2 19 3 18 4 16 5 17 6 15 7 12 8 13 9 90 10 14 11
REMARK SMILES IDX 11 12 10 14 1 15 2 16 3 17 91 18 4 19 5 20 6 21 7 22 8 23
REMARK SMILES IDX 9 24 22 27 23 28 24 29 25 30 26 31 27 32 28 33 89 34 29 35
REMARK SMILES IDX 88 36 30 37 31 38 32 39 82 40 33 41 87 42 81 43 83 44 34 45
REMARK SMILES IDX 86 46 80 47 79 48 35 50 67 51 47 52 66 53 48 54 51 55 65 56
REMARK SMILES IDX 84 57 49 58 50 59 64 61 85 62 52 63 36 64 37 65 45 66 38 67
REMARK SMILES IDX 44 68 46 69 43 70 39 71 40 72 41 73 42 74 68 75 69 76 77 77
REMARK SMILES IDX 70 78 76 79 78 80 75 81 71 82 72 83 73 84 74 85 53 86 54 87
REMARK SMILES IDX 62 88 55 89 61 90 63 91 60 92 56 93 57 94 58 95 59 96
REMARK H PARENT 11 13 8 25 8 26 83 49 51 60
REMARK Flexibility Score: inf
ROOT
ATOM      1  O   UNL A   1      32.312  29.709  25.244  1.00  0.00    -0.374 OA
ENDROOT
BRANCH   1   2
ATOM      2  C   UNL A   1      31.328  29.142  24.375  1.00  0.00     0.202 C 
BRANCH   2   3
ATOM      3  C   UNL A   1      31.487  27.649  24.076  1.00  0.00     0.261 C 
BRANCH   3   4
ATOM      4  O   UNL A   1      30.401  26.914  24.658  1.00  0.00    -0.463 OA
BRANCH   4   5
ATOM      5  C   UNL A   1      30.664  26.319  25.852  1.00  0.00     0.312 C 
ATOM      6  O   UNL A   1      31.056  26.891  26.863  1.00  0.00    -0.252 OA
BRANCH   5   7
ATOM      7  C   UNL A   1      30.284  24.847  25.795  1.00  0.00     0.124 C 
ATOM      8  C   UNL A   1      32.322  23.538  25.862  1.00  0.00     0.104 C 
ATOM      9  C   UNL A   1      31.729  23.542  24.490  1.00  0.00    -0.006 C 
ATOM     10  C   UNL A   1      31.193  24.060  26.754  1.00  0.00     0.048 C 
ATOM     11  C   UNL A   1      30.602  24.264  24.453  1.00  0.00    -0.014 C 
BRANCH   8  12
ATOM     12  N   UNL A   1      32.841  22.245  26.263  1.00  0.00    -0.363 N 
ATOM     13  H   UNL A   1      32.320  21.726  26.918  1.00  0.00     0.162 HD
BRANCH  12  14
ATOM     14  C   UNL A   1      34.023  21.687  25.792  1.00  0.00     0.139 A 
ATOM     15  C   UNL A   1      37.422  22.970  25.180  1.00  0.00     0.067 C 
ATOM     16  C   UNL A   1      36.281  22.004  25.277  1.00  0.00     0.040 A 
ATOM     17  C   UNL A   1      36.436  20.681  24.904  1.00  0.00     0.028 A 
ATOM     18  N   UNL A   1      35.108  22.490  25.728  1.00  0.00    -0.236 NA
ATOM     19  C   UNL A   1      35.341  19.810  24.994  1.00  0.00    -0.033 A 
ATOM     20  C   UNL A   1      35.562  18.378  24.594  1.00  0.00     0.045 C 
ATOM     21  C   UNL A   1      34.102  20.328  25.425  1.00  0.00     0.084 A 
BRANCH  21  22
ATOM     22  C   UNL A   1      32.890  19.455  25.460  1.00  0.00     0.252 C 
ATOM     23  N   UNL A   1      32.805  18.539  26.474  1.00  0.00    -0.365 N 
ATOM     24  O   UNL A   1      31.993  19.540  24.631  1.00  0.00    -0.269 OA
ATOM     25  H   UNL A   1      33.527  18.473  27.139  1.00  0.00     0.159 HD
ATOM     26  H   UNL A   1      32.021  17.948  26.538  1.00  0.00     0.159 HD
ENDBRANCH  21  22
ENDBRANCH  12  14
ENDBRANCH   8  12
ENDBRANCH   5   7
ENDBRANCH   4   5
ENDBRANCH   3   4
ENDBRANCH   2   3
ENDBRANCH   1   2
BRANCH   1  27
ATOM     27  C   UNL A   1      31.861  30.276  26.475  1.00  0.00     0.202 C 
BRANCH  27  28
ATOM     28  C   UNL A   1      32.253  31.731  26.763  1.00  0.00     0.261 C 
BRANCH  28  29
ATOM     29  O   UNL A   1      33.076  31.850  27.937  1.00  0.00    -0.460 OA
BRANCH  29  30
ATOM     30  C   UNL A   1      34.076  32.758  27.834  1.00  0.00     0.338 C 
ATOM     31  O   UNL A   1      33.955  33.956  27.611  1.00  0.00    -0.246 OA
BRANCH  30  32
ATOM     32  C   UNL A   1      35.360  32.153  28.228  1.00  0.00     0.060 A 
ATOM     33  C   UNL A   1      35.356  30.790  28.556  1.00  0.00     0.016 A 
ATOM     34  C   UNL A   1      36.525  32.912  28.360  1.00  0.00     0.016 A 
ATOM     35  C   UNL A   1      36.502  30.194  29.076  1.00  0.00     0.010 A 
ATOM     36  C   UNL A   1      37.672  32.313  28.892  1.00  0.00     0.010 A 
ATOM     37  C   UNL A   1      37.652  30.963  29.291  1.00  0.00    -0.014 A 
BRANCH  37  38
ATOM     38  C   UNL A   1      38.757  30.399  30.107  1.00  0.00     0.031 A 
ATOM     39  C   UNL A   1      38.901  30.856  31.535  1.00  0.00     0.074 A 
ATOM     40  C   UNL A   1      39.584  29.467  29.604  1.00  0.00     0.049 A 
ATOM     41  N   UNL A   1      39.799  30.527  32.427  1.00  0.00    -0.248 NA
ATOM     42  C   UNL A   1      37.894  31.813  32.017  1.00  0.00     0.031 C 
ATOM     43  C   UNL A   1      39.507  28.911  28.255  1.00  0.00     0.029 A 
ATOM     44  N   UNL A   1      40.654  28.823  30.173  1.00  0.00    -0.354 N 
ATOM     45  C   UNL A   1      39.470  31.242  33.575  1.00  0.00     0.074 A 
ATOM     46  C   UNL A   1      38.313  32.049  33.250  1.00  0.00     0.031 C 
ATOM     47  C   UNL A   1      40.497  28.016  28.096  1.00  0.00     0.029 A 
ATOM     48  C   UNL A   1      41.297  27.960  29.318  1.00  0.00     0.049 A 
ATOM     49  H   UNL A   1      40.936  28.967  31.105  1.00  0.00     0.167 HD
ATOM     50  C   UNL A   1      40.071  31.217  34.791  1.00  0.00     0.034 A 
ATOM     51  C   UNL A   1      42.417  27.230  29.495  1.00  0.00     0.034 A 
ATOM     52  C   UNL A   1      41.230  30.415  35.095  1.00  0.00     0.049 A 
ATOM     53  C   UNL A   1      43.121  27.283  30.831  1.00  0.00     0.074 A 
ATOM     54  C   UNL A   1      41.919  30.310  36.291  1.00  0.00     0.029 A 
ATOM     55  N   UNL A   1      41.880  29.585  34.190  1.00  0.00    -0.354 N 
ATOM     56  N   UNL A   1      42.801  27.962  31.909  1.00  0.00    -0.248 NA
ATOM     57  C   UNL A   1      44.331  26.463  30.976  1.00  0.00     0.031 C 
ATOM     58  C   UNL A   1      43.022  29.473  36.091  1.00  0.00     0.029 A 
ATOM     59  C   UNL A   1      42.978  28.989  34.792  1.00  0.00     0.049 A 
ATOM     60  H   UNL A   1      41.603  29.440  33.257  1.00  0.00     0.167 HD
ATOM     61  C   UNL A   1      43.751  27.621  32.869  1.00  0.00     0.074 A 
ATOM     62  C   UNL A   1      44.648  26.671  32.245  1.00  0.00     0.031 C 
ATOM     63  C   UNL A   1      43.868  28.049  34.154  1.00  0.00     0.034 A 
BRANCH  50  64
ATOM     64  C   UNL A   1      39.513  32.132  35.856  1.00  0.00     0.023 A 
ATOM     65  C   UNL A   1      40.023  33.426  36.064  1.00  0.00     0.031 A 
ATOM     66  C   UNL A   1      38.479  31.688  36.699  1.00  0.00     0.131 A 
ATOM     67  C   UNL A   1      39.550  34.200  37.135  1.00  0.00     0.055 A 
ATOM     68  C   UNL A   1      37.958  32.495  37.713  1.00  0.00     0.041 A 
ATOM     69  F   UNL A   1      37.969  30.454  36.564  1.00  0.00    -0.206 F 
ATOM     70  C   UNL A   1      38.504  33.753  37.946  1.00  0.00     0.022 A 
BRANCH  67  71
ATOM     71  S   UNL A   1      40.422  35.737  37.545  1.00  0.00     0.124 S 
ATOM     72  O   UNL A   1      39.879  36.660  36.551  1.00  0.00    -0.237 OA
ATOM     73  O   UNL A   1      40.017  35.972  38.926  1.00  0.00    -0.237 OA
ATOM     74  O   UNL A   1      41.831  35.391  37.359  1.00  0.00    -0.744 OA
ENDBRANCH  67  71
ENDBRANCH  50  64
BRANCH  51  75
ATOM     75  C   UNL A   1      42.974  26.416  28.377  1.00  0.00     0.023 A 
ATOM     76  C   UNL A   1      44.075  26.861  27.630  1.00  0.00     0.031 A 
ATOM     77  C   UNL A   1      42.372  25.200  28.004  1.00  0.00     0.131 A 
ATOM     78  C   UNL A   1      44.512  26.121  26.519  1.00  0.00     0.055 A 
ATOM     79  C   UNL A   1      42.844  24.441  26.932  1.00  0.00     0.041 A 
ATOM     80  F   UNL A   1      41.316  24.728  28.685  1.00  0.00    -0.206 F 
ATOM     81  C   UNL A   1      43.912  24.908  26.174  1.00  0.00     0.022 A 
BRANCH  78  82
ATOM     82  S   UNL A   1      45.827  26.811  25.477  1.00  0.00     0.124 S 
ATOM     83  O   UNL A   1      46.079  25.713  24.551  1.00  0.00    -0.237 OA
ATOM     84  O   UNL A   1      45.178  27.990  24.914  1.00  0.00    -0.237 OA
ATOM     85  O   UNL A   1      46.903  27.087  26.426  1.00  0.00    -0.744 OA
ENDBRANCH  78  82
ENDBRANCH  51  75
BRANCH  63  86
ATOM     86  C   UNL A   1      44.977  27.443  34.982  1.00  0.00     0.023 A 
ATOM     87  C   UNL A   1      44.793  26.261  35.720  1.00  0.00     0.031 A 
ATOM     88  C   UNL A   1      46.237  28.067  35.034  1.00  0.00     0.131 A 
ATOM     89  C   UNL A   1      45.835  25.769  36.522  1.00  0.00     0.055 A 
ATOM     90  C   UNL A   1      47.288  27.541  35.786  1.00  0.00     0.041 A 
ATOM     91  F   UNL A   1      46.467  29.199  34.350  1.00  0.00    -0.206 F 
ATOM     92  C   UNL A   1      47.085  26.393  36.547  1.00  0.00     0.022 A 
BRANCH  89  93
ATOM     93  S   UNL A   1      45.507  24.352  37.605  1.00  0.00     0.124 S 
ATOM     94  O   UNL A   1      44.328  24.797  38.340  1.00  0.00    -0.237 OA
ATOM     95  O   UNL A   1      45.292  23.272  36.649  1.00  0.00    -0.237 OA
ATOM     96  O   UNL A   1      46.728  24.240  38.402  1.00  0.00    -0.744 OA
ENDBRANCH  89  93
ENDBRANCH  63  86
ENDBRANCH  37  38
ENDBRANCH  30  32
ENDBRANCH  29  30
ENDBRANCH  28  29
ENDBRANCH  27  28
ENDBRANCH   1  27
TORSDOF 20
ENDMDL
MODEL 3
REMARK VINA RESULT:     -10.5      4.817      7.193
REMARK SMILES Cc1cc(C)c(C(N)=O)c(N[C@H]2C=C[C@H](C(=O)OCCOCCOC(=O)c3ccc(-c4c5nc(c(-c6cc(S(=O)(=O)[O-])ccc6F)c6ccc([nH]6)c(-c6cc(S(=O)(=O)[O-])ccc6F)c6nc(c(-c7cc(S(=O)(=O)[O-])ccc7F)c7ccc4[nH]7)C=C6)C=C5)cc3)C2)n1
REMARK SMILES IDX 21 1 20 2 19 3 18 4 16 5 17 6 15 7 12 8 13 9 90 10 14 11
REMARK SMILES IDX 11 12 10 14 1 15 2 16 3 17 91 18 4 19 5 20 6 21 7 22 8 23
REMARK SMILES IDX 9 24 22 27 23 28 24 29 25 30 26 31 27 32 28 33 89 34 29 35
REMARK SMILES IDX 88 36 30 37 31 38 32 39 82 40 33 41 87 42 81 43 83 44 34 45
REMARK SMILES IDX 86 46 80 47 79 48 35 50 67 51 47 52 66 53 48 54 51 55 65 56
REMARK SMILES IDX 84 57 49 58 50 59 64 61 85 62 52 63 36 64 37 65 45 66 38 67
REMARK SMILES IDX 44 68 46 69 43 70 39 71 40 72 41 73 42 74 68 75 69 76 77 77
REMARK SMILES IDX 70 78 76 79 78 80 75 81 71 82 72 83 73 84 74 85 53 86 54 87
REMARK SMILES IDX 62 88 55 89 61 90 63 91 60 92 56 93 57 94 58 95 59 96
REMARK H PARENT 11 13 8 25 8 26 83 49 51 60
REMARK Flexibility Score: inf
ROOT
ATOM      1  O   UNL A   1      31.005  29.787  24.685  1.00  0.00    -0.374 OA
ENDROOT
BRANCH   1   2
ATOM      2  C   UNL A   1      30.692  28.857  23.645  1.00  0.00     0.202 C 
BRANCH   2   3
ATOM      3  C   UNL A   1      31.831  27.927  23.219  1.00  0.00     0.261 C 
BRANCH   3   4
ATOM      4  O   UNL A   1      31.299  26.679  22.754  1.00  0.00    -0.463 OA
BRANCH   4   5
ATOM      5  C   UNL A   1      30.848  25.833  23.719  1.00  0.00     0.312 C 
ATOM      6  O   UNL A   1      29.679  25.508  23.893  1.00  0.00    -0.252 OA
BRANCH   5   7
ATOM      7  C   UNL A   1      32.023  25.245  24.485  1.00  0.00     0.124 C 
ATOM      8  C   UNL A   1      31.222  23.338  25.748  1.00  0.00     0.104 C 
ATOM      9  C   UNL A   1      31.479  24.509  26.642  1.00  0.00    -0.006 C 
ATOM     10  C   UNL A   1      31.928  23.710  24.441  1.00  0.00     0.048 C 
ATOM     11  C   UNL A   1      31.923  25.562  25.945  1.00  0.00    -0.014 C 
BRANCH   8  12
ATOM     12  N   UNL A   1      31.653  22.074  26.312  1.00  0.00    -0.363 N 
ATOM     13  H   UNL A   1      31.257  21.799  27.171  1.00  0.00     0.162 HD
BRANCH  12  14
ATOM     14  C   UNL A   1      32.585  21.225  25.730  1.00  0.00     0.139 A 
ATOM     15  C   UNL A   1      32.372  18.161  23.696  1.00  0.00     0.067 C 
ATOM     16  C   UNL A   1      32.971  19.324  24.426  1.00  0.00     0.040 A 
ATOM     17  C   UNL A   1      34.343  19.489  24.498  1.00  0.00     0.028 A 
ATOM     18  N   UNL A   1      32.114  20.182  25.012  1.00  0.00    -0.236 NA
ATOM     19  C   UNL A   1      34.867  20.581  25.202  1.00  0.00    -0.033 A 
ATOM     20  C   UNL A   1      36.362  20.728  25.238  1.00  0.00     0.045 C 
ATOM     21  C   UNL A   1      33.971  21.456  25.853  1.00  0.00     0.084 A 
BRANCH  21  22
ATOM     22  C   UNL A   1      34.487  22.587  26.680  1.00  0.00     0.252 C 
ATOM     23  N   UNL A   1      35.182  23.573  26.033  1.00  0.00    -0.365 N 
ATOM     24  O   UNL A   1      34.304  22.655  27.889  1.00  0.00    -0.269 OA
ATOM     25  H   UNL A   1      35.328  23.515  25.061  1.00  0.00     0.159 HD
ATOM     26  H   UNL A   1      35.536  24.339  26.540  1.00  0.00     0.159 HD
ENDBRANCH  21  22
ENDBRANCH  12  14
ENDBRANCH   8  12
ENDBRANCH   5   7
ENDBRANCH   4   5
ENDBRANCH   3   4
ENDBRANCH   2   3
ENDBRANCH   1   2
BRANCH   1  27
ATOM     27  C   UNL A   1      31.746  29.303  25.806  1.00  0.00     0.202 C 
BRANCH  27  28
ATOM     28  C   UNL A   1      32.129  30.322  26.887  1.00  0.00     0.261 C 
BRANCH  28  29
ATOM     29  O   UNL A   1      33.235  31.150  26.485  1.00  0.00    -0.460 OA
BRANCH  29  30
ATOM     30  C   UNL A   1      33.727  31.947  27.463  1.00  0.00     0.338 C 
ATOM     31  O   UNL A   1      33.124  32.833  28.057  1.00  0.00    -0.246 OA
BRANCH  30  32
ATOM     32  C   UNL A   1      35.061  31.483  27.880  1.00  0.00     0.060 A 
ATOM     33  C   UNL A   1      35.231  30.106  28.080  1.00  0.00     0.016 A 
ATOM     34  C   UNL A   1      36.101  32.374  28.155  1.00  0.00     0.016 A 
ATOM     35  C   UNL A   1      36.421  29.620  28.615  1.00  0.00     0.010 A 
ATOM     36  C   UNL A   1      37.292  31.883  28.701  1.00  0.00     0.010 A 
ATOM     37  C   UNL A   1      37.440  30.510  28.972  1.00  0.00    -0.014 A 
BRANCH  37  38
ATOM     38  C   UNL A   1      38.570  30.021  29.801  1.00  0.00     0.031 A 
ATOM     39  C   UNL A   1      38.701  30.533  31.211  1.00  0.00     0.074 A 
ATOM     40  C   UNL A   1      39.433  29.105  29.327  1.00  0.00     0.049 A 
ATOM     41  N   UNL A   1      39.616  30.273  32.110  1.00  0.00    -0.248 NA
ATOM     42  C   UNL A   1      37.659  31.466  31.665  1.00  0.00     0.031 C 
ATOM     43  C   UNL A   1      39.372  28.499  27.998  1.00  0.00     0.029 A 
ATOM     44  N   UNL A   1      40.530  28.526  29.913  1.00  0.00    -0.354 N 
ATOM     45  C   UNL A   1      39.263  31.014  33.234  1.00  0.00     0.074 A 
ATOM     46  C   UNL A   1      38.073  31.762  32.887  1.00  0.00     0.031 C 
ATOM     47  C   UNL A   1      40.397  27.639  27.866  1.00  0.00     0.029 A 
ATOM     48  C   UNL A   1      41.204  27.659  29.085  1.00  0.00     0.049 A 
ATOM     49  H   UNL A   1      40.809  28.714  30.837  1.00  0.00     0.167 HD
ATOM     50  C   UNL A   1      39.870  31.057  34.446  1.00  0.00     0.034 A 
ATOM     51  C   UNL A   1      42.352  26.981  29.282  1.00  0.00     0.034 A 
ATOM     52  C   UNL A   1      41.062  30.313  34.771  1.00  0.00     0.049 A 
ATOM     53  C   UNL A   1      43.060  27.110  30.610  1.00  0.00     0.074 A 
ATOM     54  C   UNL A   1      41.759  30.278  35.966  1.00  0.00     0.029 A 
ATOM     55  N   UNL A   1      41.741  29.478  33.893  1.00  0.00    -0.354 N 
ATOM     56  N   UNL A   1      42.717  27.813  31.666  1.00  0.00    -0.248 NA
ATOM     57  C   UNL A   1      44.302  26.344  30.778  1.00  0.00     0.031 C 
ATOM     58  C   UNL A   1      42.894  29.480  35.790  1.00  0.00     0.029 A 
ATOM     59  C   UNL A   1      42.865  28.949  34.509  1.00  0.00     0.049 A 
ATOM     60  H   UNL A   1      41.466  29.289  32.967  1.00  0.00     0.167 HD
ATOM     61  C   UNL A   1      43.684  27.545  32.632  1.00  0.00     0.074 A 
ATOM     62  C   UNL A   1      44.616  26.611  32.037  1.00  0.00     0.031 C 
ATOM     63  C   UNL A   1      43.789  28.022  33.900  1.00  0.00     0.034 A 
BRANCH  50  64
ATOM     64  C   UNL A   1      39.280  31.986  35.481  1.00  0.00     0.023 A 
ATOM     65  C   UNL A   1      39.686  33.327  35.591  1.00  0.00     0.031 A 
ATOM     66  C   UNL A   1      38.323  31.510  36.394  1.00  0.00     0.131 A 
ATOM     67  C   UNL A   1      39.193  34.124  36.636  1.00  0.00     0.055 A 
ATOM     68  C   UNL A   1      37.777  32.332  37.383  1.00  0.00     0.041 A 
ATOM     69  F   UNL A   1      37.915  30.233  36.354  1.00  0.00    -0.206 F 
ATOM     70  C   UNL A   1      38.223  33.643  37.518  1.00  0.00     0.022 A 
BRANCH  67  71
ATOM     71  S   UNL A   1      39.947  35.750  36.916  1.00  0.00     0.124 S 
ATOM     72  O   UNL A   1      39.601  36.453  35.684  1.00  0.00    -0.237 OA
ATOM     73  O   UNL A   1      39.273  36.207  38.125  1.00  0.00    -0.237 OA
ATOM     74  O   UNL A   1      41.369  35.446  37.073  1.00  0.00    -0.744 OA
ENDBRANCH  67  71
ENDBRANCH  50  64
BRANCH  51  75
ATOM     75  C   UNL A   1      42.937  26.151  28.190  1.00  0.00     0.023 A 
ATOM     76  C   UNL A   1      42.516  24.830  27.972  1.00  0.00     0.031 A 
ATOM     77  C   UNL A   1      43.973  26.653  27.381  1.00  0.00     0.131 A 
ATOM     78  C   UNL A   1      43.158  24.041  27.003  1.00  0.00     0.055 A 
ATOM     79  C   UNL A   1      44.572  25.882  26.383  1.00  0.00     0.041 A 
ATOM     80  F   UNL A   1      44.415  27.910  27.547  1.00  0.00    -0.206 F 
ATOM     81  C   UNL A   1      44.173  24.563  26.200  1.00  0.00     0.022 A 
BRANCH  78  82
ATOM     82  S   UNL A   1      42.702  22.290  26.867  1.00  0.00     0.124 S 
ATOM     83  O   UNL A   1      42.677  21.881  28.266  1.00  0.00    -0.237 OA
ATOM     84  O   UNL A   1      41.408  22.367  26.197  1.00  0.00    -0.237 OA
ATOM     85  O   UNL A   1      43.782  21.719  26.067  1.00  0.00    -0.744 OA
ENDBRANCH  78  82
ENDBRANCH  51  75
BRANCH  63  86
ATOM     86  C   UNL A   1      44.925  27.491  34.742  1.00  0.00     0.023 A 
ATOM     87  C   UNL A   1      44.815  26.293  35.468  1.00  0.00     0.031 A 
ATOM     88  C   UNL A   1      46.135  28.205  34.821  1.00  0.00     0.131 A 
ATOM     89  C   UNL A   1      45.876  25.871  36.285  1.00  0.00     0.055 A 
ATOM     90  C   UNL A   1      47.209  27.749  35.587  1.00  0.00     0.041 A 
ATOM     91  F   UNL A   1      46.294  29.356  34.150  1.00  0.00    -0.206 F 
ATOM     92  C   UNL A   1      47.077  26.584  36.336  1.00  0.00     0.022 A 
BRANCH  89  93
ATOM     93  S   UNL A   1      45.634  24.425  37.352  1.00  0.00     0.124 S 
ATOM     94  O   UNL A   1      44.992  25.014  38.522  1.00  0.00    -0.237 OA
ATOM     95  O   UNL A   1      44.792  23.566  36.527  1.00  0.00    -0.237 OA
ATOM     96  O   UNL A   1      46.993  23.931  37.573  1.00  0.00    -0.744 OA
ENDBRANCH  89  93
ENDBRANCH  63  86
ENDBRANCH  37  38
ENDBRANCH  30  32
ENDBRANCH  29  30
ENDBRANCH  28  29
ENDBRANCH  27  28
ENDBRANCH   1  27
TORSDOF 20
ENDMDL
