MODEL 1
REMARK VINA RESULT:     -12.3      0.000      0.000
REMARK SMILES O=C(OCCOCCOC(=O)[C@H]1CCCN(c2cc(-c3ccccn3)nc(-c3ccccc3F)n2)C1)c1ccc(-c2c3nc(c(-c4cc(S(=O)(=O)[O-])ccc4F)c4ccc([nH]4)c(-c4cc(S(=O)(=O)[O-])ccc4F)c4nc(c(-c5cc(S(=O)(=O)[O-])ccc5F)c5ccc2[nH]5)C=C4)C=C3)cc1
REMARK SMILES IDX 5 1 4 2 3 3 2 4 1 5 37 6 38 7 99 8 39 9 98 10 40 11 41 12
REMARK SMILES IDX 42 13 92 14 43 15 97 16 91 17 93 18 44 19 96 20 90 21 89 22
REMARK SMILES IDX 45 24 77 25 57 26 76 27 58 28 61 29 75 30 94 31 59 32 60 33
REMARK SMILES IDX 74 35 95 36 62 37 46 38 47 39 55 40 48 41 54 42 56 43 53 44
REMARK SMILES IDX 49 45 50 46 51 47 52 48 78 49 79 50 87 51 80 52 86 53 88 54
REMARK SMILES IDX 85 55 81 56 82 57 83 58 84 59 63 60 64 61 72 62 65 63 71 64
REMARK SMILES IDX 73 65 70 66 66 67 67 68 68 69 69 70 6 71 7 72 8 73 9 74
REMARK SMILES IDX 10 75 11 76 12 77 13 78 36 79 14 80 16 81 15 82 17 83 18 84
REMARK SMILES IDX 35 85 19 86 27 87 26 88 20 89 21 90 25 91 22 92 24 93 23 94
REMARK SMILES IDX 28 95 29 96 33 97 30 98 32 99 34 100 31 101
REMARK H PARENT 93 23 61 34
REMARK Flexibility Score: inf
ROOT
ATOM      1  C   UNL A   1      35.839  21.827  24.461  1.00  0.00     0.202 C 
ENDROOT
BRANCH   1   2
ATOM      2  C   UNL A   1      37.366  21.882  24.537  1.00  0.00     0.261 C 
BRANCH   2   3
ATOM      3  O   UNL A   1      37.806  21.620  25.881  1.00  0.00    -0.460 OA
BRANCH   3   4
ATOM      4  C   UNL A   1      39.084  21.624  26.328  1.00  0.00     0.338 C 
ATOM      5  O   UNL A   1      39.667  20.555  26.491  1.00  0.00    -0.246 OA
BRANCH   4   6
ATOM      6  C   UNL A   1      39.800  22.888  26.658  1.00  0.00     0.060 A 
ATOM      7  C   UNL A   1      39.426  24.137  26.161  1.00  0.00     0.016 A 
ATOM      8  C   UNL A   1      40.844  22.828  27.590  1.00  0.00     0.016 A 
ATOM      9  C   UNL A   1      40.099  25.287  26.499  1.00  0.00     0.010 A 
ATOM     10  C   UNL A   1      41.493  23.997  27.992  1.00  0.00     0.010 A 
ATOM     11  C   UNL A   1      41.116  25.227  27.439  1.00  0.00    -0.014 A 
BRANCH  11  12
ATOM     12  C   UNL A   1      41.791  26.490  27.748  1.00  0.00     0.031 A 
ATOM     13  C   UNL A   1      43.112  26.755  27.111  1.00  0.00     0.074 A 
ATOM     14  C   UNL A   1      41.110  27.432  28.426  1.00  0.00     0.049 A 
ATOM     15  N   UNL A   1      43.902  27.779  27.256  1.00  0.00    -0.248 NA
ATOM     16  C   UNL A   1      43.601  25.735  26.167  1.00  0.00     0.031 C 
ATOM     17  C   UNL A   1      39.731  27.288  28.912  1.00  0.00     0.029 A 
ATOM     18  N   UNL A   1      41.450  28.707  28.773  1.00  0.00    -0.354 N 
ATOM     19  C   UNL A   1      44.998  27.519  26.445  1.00  0.00     0.074 A 
ATOM     20  C   UNL A   1      44.775  26.237  25.816  1.00  0.00     0.031 C 
ATOM     21  C   UNL A   1      39.332  28.449  29.453  1.00  0.00     0.029 A 
ATOM     22  C   UNL A   1      40.453  29.379  29.439  1.00  0.00     0.049 A 
ATOM     23  H   UNL A   1      42.326  29.108  28.567  1.00  0.00     0.167 HD
ATOM     24  C   UNL A   1      46.091  28.294  26.264  1.00  0.00     0.034 A 
ATOM     25  C   UNL A   1      40.470  30.597  30.011  1.00  0.00     0.034 A 
ATOM     26  C   UNL A   1      46.257  29.558  26.932  1.00  0.00     0.049 A 
ATOM     27  C   UNL A   1      41.753  31.375  29.926  1.00  0.00     0.074 A 
ATOM     28  C   UNL A   1      47.350  30.401  26.932  1.00  0.00     0.029 A 
ATOM     29  N   UNL A   1      45.284  30.159  27.727  1.00  0.00    -0.354 N 
ATOM     30  N   UNL A   1      42.859  31.061  29.286  1.00  0.00    -0.248 NA
ATOM     31  C   UNL A   1      41.811  32.644  30.653  1.00  0.00     0.031 C 
ATOM     32  C   UNL A   1      47.062  31.479  27.778  1.00  0.00     0.029 A 
ATOM     33  C   UNL A   1      45.760  31.350  28.243  1.00  0.00     0.049 A 
ATOM     34  H   UNL A   1      44.388  29.789  27.898  1.00  0.00     0.167 HD
ATOM     35  C   UNL A   1      43.745  32.103  29.524  1.00  0.00     0.074 A 
ATOM     36  C   UNL A   1      43.039  33.056  30.363  1.00  0.00     0.031 C 
ATOM     37  C   UNL A   1      45.020  32.263  29.087  1.00  0.00     0.034 A 
BRANCH  24  38
ATOM     38  C   UNL A   1      47.194  27.727  25.413  1.00  0.00     0.023 A 
ATOM     39  C   UNL A   1      47.377  28.115  24.074  1.00  0.00     0.031 A 
ATOM     40  C   UNL A   1      48.019  26.710  25.924  1.00  0.00     0.131 A 
ATOM     41  C   UNL A   1      48.313  27.440  23.273  1.00  0.00     0.055 A 
ATOM     42  C   UNL A   1      48.999  26.094  25.144  1.00  0.00     0.041 A 
ATOM     43  F   UNL A   1      47.863  26.273  27.185  1.00  0.00    -0.206 F 
ATOM     44  C   UNL A   1      49.140  26.449  23.806  1.00  0.00     0.022 A 
BRANCH  41  45
ATOM     45  S   UNL A   1      48.341  27.778  21.490  1.00  0.00     0.124 S 
ATOM     46  O   UNL A   1      49.394  28.787  21.401  1.00  0.00    -0.237 OA
ATOM     47  O   UNL A   1      48.658  26.472  20.924  1.00  0.00    -0.237 OA
ATOM     48  O   UNL A   1      46.993  28.267  21.213  1.00  0.00    -0.744 OA
ENDBRANCH  41  45
ENDBRANCH  24  38
BRANCH  25  49
ATOM     49  C   UNL A   1      39.278  31.087  30.757  1.00  0.00     0.023 A 
ATOM     50  C   UNL A   1      39.262  31.139  32.158  1.00  0.00     0.031 A 
ATOM     51  C   UNL A   1      38.146  31.562  30.065  1.00  0.00     0.131 A 
ATOM     52  C   UNL A   1      38.135  31.653  32.823  1.00  0.00     0.055 A 
ATOM     53  C   UNL A   1      37.046  32.105  30.727  1.00  0.00     0.041 A 
ATOM     54  F   UNL A   1      38.114  31.541  28.722  1.00  0.00    -0.206 F 
ATOM     55  C   UNL A   1      37.036  32.150  32.117  1.00  0.00     0.022 A 
BRANCH  52  56
ATOM     56  S   UNL A   1      38.116  31.661  34.637  1.00  0.00     0.124 S 
ATOM     57  O   UNL A   1      38.126  30.234  34.939  1.00  0.00    -0.237 OA
ATOM     58  O   UNL A   1      39.338  32.393  34.954  1.00  0.00    -0.237 OA
ATOM     59  O   UNL A   1      36.874  32.359  34.962  1.00  0.00    -0.744 OA
ENDBRANCH  52  56
ENDBRANCH  25  49
BRANCH  37  60
ATOM     60  C   UNL A   1      45.719  33.532  29.483  1.00  0.00     0.023 A 
ATOM     61  C   UNL A   1      45.564  34.714  28.742  1.00  0.00     0.031 A 
ATOM     62  C   UNL A   1      46.492  33.568  30.655  1.00  0.00     0.131 A 
ATOM     63  C   UNL A   1      46.195  35.887  29.175  1.00  0.00     0.055 A 
ATOM     64  C   UNL A   1      47.074  34.748  31.109  1.00  0.00     0.041 A 
ATOM     65  F   UNL A   1      46.662  32.459  31.394  1.00  0.00    -0.206 F 
ATOM     66  C   UNL A   1      46.931  35.917  30.365  1.00  0.00     0.022 A 
BRANCH  63  67
ATOM     67  S   UNL A   1      46.067  37.374  28.148  1.00  0.00     0.124 S 
ATOM     68  O   UNL A   1      45.711  38.390  29.133  1.00  0.00    -0.237 OA
ATOM     69  O   UNL A   1      47.406  37.481  27.578  1.00  0.00    -0.237 OA
ATOM     70  O   UNL A   1      45.013  37.039  27.193  1.00  0.00    -0.744 OA
ENDBRANCH  63  67
ENDBRANCH  37  60
ENDBRANCH  11  12
ENDBRANCH   4   6
ENDBRANCH   3   4
ENDBRANCH   2   3
ENDBRANCH   1   2
BRANCH   1  71
ATOM     71  O   UNL A   1      35.100  21.640  25.674  1.00  0.00    -0.374 OA
BRANCH  71  72
ATOM     72  C   UNL A   1      33.800  21.044  25.595  1.00  0.00     0.202 C 
BRANCH  72  73
ATOM     73  C   UNL A   1      32.890  21.651  26.673  1.00  0.00     0.261 C 
BRANCH  73  74
ATOM     74  O   UNL A   1      31.566  21.799  26.144  1.00  0.00    -0.463 OA
BRANCH  74  75
ATOM     75  C   UNL A   1      30.994  22.997  26.446  1.00  0.00     0.310 C 
ATOM     76  O   UNL A   1      30.369  23.217  27.475  1.00  0.00    -0.252 OA
BRANCH  75  77
ATOM     77  C   UNL A   1      31.274  24.025  25.368  1.00  0.00     0.118 C 
ATOM     78  C   UNL A   1      31.199  23.430  23.942  1.00  0.00     0.019 C 
ATOM     79  C   UNL A   1      30.354  25.219  25.564  1.00  0.00     0.133 C 
ATOM     80  C   UNL A   1      31.322  24.490  22.859  1.00  0.00     0.022 C 
ATOM     81  N   UNL A   1      30.419  26.083  24.396  1.00  0.00    -0.356 N 
ATOM     82  C   UNL A   1      30.236  25.525  23.073  1.00  0.00     0.118 C 
BRANCH  81  83
ATOM     83  C   UNL A   1      30.645  27.432  24.530  1.00  0.00     0.133 A 
ATOM     84  C   UNL A   1      29.900  28.282  23.754  1.00  0.00     0.077 A 
ATOM     85  N   UNL A   1      31.594  27.880  25.366  1.00  0.00    -0.211 NA
ATOM     86  C   UNL A   1      30.141  29.630  23.873  1.00  0.00     0.095 A 
ATOM     87  C   UNL A   1      31.777  29.217  25.412  1.00  0.00     0.165 A 
ATOM     88  N   UNL A   1      31.088  30.121  24.692  1.00  0.00    -0.226 NA
BRANCH  86  89
ATOM     89  C   UNL A   1      29.325  30.565  23.100  1.00  0.00     0.089 A 
ATOM     90  C   UNL A   1      28.786  30.178  21.870  1.00  0.00     0.030 A 
ATOM     91  N   UNL A   1      29.259  31.842  23.553  1.00  0.00    -0.255 NA
ATOM     92  C   UNL A   1      28.162  31.133  21.075  1.00  0.00     0.004 A 
ATOM     93  C   UNL A   1      28.632  32.743  22.768  1.00  0.00     0.112 A 
ATOM     94  C   UNL A   1      28.085  32.442  21.531  1.00  0.00     0.020 A 
ENDBRANCH  86  89
BRANCH  87  95
ATOM     95  C   UNL A   1      32.860  29.739  26.245  1.00  0.00     0.055 A 
ATOM     96  C   UNL A   1      32.735  30.958  26.939  1.00  0.00     0.015 A 
ATOM     97  C   UNL A   1      34.042  29.011  26.425  1.00  0.00     0.134 A 
ATOM     98  C   UNL A   1      33.746  31.406  27.799  1.00  0.00     0.001 A 
ATOM     99  C   UNL A   1      35.058  29.456  27.271  1.00  0.00     0.040 A 
ATOM    100  F   UNL A   1      34.231  27.854  25.771  1.00  0.00    -0.206 F 
ATOM    101  C   UNL A   1      34.907  30.653  27.967  1.00  0.00     0.003 A 
ENDBRANCH  87  95
ENDBRANCH  81  83
ENDBRANCH  75  77
ENDBRANCH  74  75
ENDBRANCH  73  74
ENDBRANCH  72  73
ENDBRANCH  71  72
ENDBRANCH   1  71
TORSDOF 20
ENDMDL
MODEL 2
REMARK VINA RESULT:     -11.9      1.934      7.219
REMARK SMILES O=C(OCCOCCOC(=O)[C@H]1CCCN(c2cc(-c3ccccn3)nc(-c3ccccc3F)n2)C1)c1ccc(-c2c3nc(c(-c4cc(S(=O)(=O)[O-])ccc4F)c4ccc([nH]4)c(-c4cc(S(=O)(=O)[O-])ccc4F)c4nc(c(-c5cc(S(=O)(=O)[O-])ccc5F)c5ccc2[nH]5)C=C4)C=C3)cc1
REMARK SMILES IDX 5 1 4 2 3 3 2 4 1 5 37 6 38 7 99 8 39 9 98 10 40 11 41 12
REMARK SMILES IDX 42 13 92 14 43 15 97 16 91 17 93 18 44 19 96 20 90 21 89 22
REMARK SMILES IDX 45 24 77 25 57 26 76 27 58 28 61 29 75 30 94 31 59 32 60 33
REMARK SMILES IDX 74 35 95 36 62 37 46 38 47 39 55 40 48 41 54 42 56 43 53 44
REMARK SMILES IDX 49 45 50 46 51 47 52 48 78 49 79 50 87 51 80 52 86 53 88 54
REMARK SMILES IDX 85 55 81 56 82 57 83 58 84 59 63 60 64 61 72 62 65 63 71 64
REMARK SMILES IDX 73 65 70 66 66 67 67 68 68 69 69 70 6 71 7 72 8 73 9 74
REMARK SMILES IDX 10 75 11 76 12 77 13 78 36 79 14 80 16 81 15 82 17 83 18 84
REMARK SMILES IDX 35 85 19 86 27 87 26 88 20 89 21 90 25 91 22 92 24 93 23 94
REMARK SMILES IDX 28 95 29 96 33 97 30 98 32 99 34 100 31 101
REMARK H PARENT 93 23 61 34
REMARK Flexibility Score: inf
ROOT
ATOM      1  C   UNL A   1      36.185  21.322  24.446  1.00  0.00     0.202 C 
ENDROOT
BRANCH   1   2
ATOM      2  C   UNL A   1      37.695  21.497  24.619  1.00  0.00     0.261 C 
BRANCH   2   3
ATOM      3  O   UNL A   1      38.003  21.828  25.984  1.00  0.00    -0.460 OA
BRANCH   3   4
ATOM      4  C   UNL A   1      39.230  21.832  26.558  1.00  0.00     0.338 C 
ATOM      5  O   UNL A   1      39.738  20.766  26.898  1.00  0.00    -0.246 OA
BRANCH   4   6
ATOM      6  C   UNL A   1      39.974  23.096  26.819  1.00  0.00     0.060 A 
ATOM      7  C   UNL A   1      39.650  24.316  26.225  1.00  0.00     0.016 A 
ATOM      8  C   UNL A   1      40.992  23.072  27.781  1.00  0.00     0.016 A 
ATOM      9  C   UNL A   1      40.347  25.468  26.500  1.00  0.00     0.010 A 
ATOM     10  C   UNL A   1      41.664  24.249  28.118  1.00  0.00     0.010 A 
ATOM     11  C   UNL A   1      41.338  25.447  27.470  1.00  0.00    -0.014 A 
BRANCH  11  12
ATOM     12  C   UNL A   1      42.042  26.710  27.708  1.00  0.00     0.031 A 
ATOM     13  C   UNL A   1      41.398  27.717  28.598  1.00  0.00     0.074 A 
ATOM     14  C   UNL A   1      43.311  26.827  27.278  1.00  0.00     0.049 A 
ATOM     15  N   UNL A   1      41.813  28.905  28.927  1.00  0.00    -0.248 NA
ATOM     16  C   UNL A   1      40.121  27.323  29.218  1.00  0.00     0.031 C 
ATOM     17  C   UNL A   1      44.056  25.784  26.559  1.00  0.00     0.029 A 
ATOM     18  N   UNL A   1      44.218  27.834  27.430  1.00  0.00    -0.354 N 
ATOM     19  C   UNL A   1      40.837  29.418  29.771  1.00  0.00     0.074 A 
ATOM     20  C   UNL A   1      39.805  28.414  29.898  1.00  0.00     0.031 C 
ATOM     21  C   UNL A   1      45.319  26.195  26.375  1.00  0.00     0.029 A 
ATOM     22  C   UNL A   1      45.444  27.558  26.874  1.00  0.00     0.049 A 
ATOM     23  H   UNL A   1      44.015  28.679  27.895  1.00  0.00     0.167 HD
ATOM     24  C   UNL A   1      40.820  30.630  30.369  1.00  0.00     0.034 A 
ATOM     25  C   UNL A   1      46.528  28.344  26.746  1.00  0.00     0.034 A 
ATOM     26  C   UNL A   1      41.877  31.591  30.191  1.00  0.00     0.049 A 
ATOM     27  C   UNL A   1      46.426  29.743  27.286  1.00  0.00     0.074 A 
ATOM     28  C   UNL A   1      41.949  32.893  30.643  1.00  0.00     0.029 A 
ATOM     29  N   UNL A   1      43.056  31.340  29.494  1.00  0.00    -0.354 N 
ATOM     30  N   UNL A   1      45.434  30.292  27.955  1.00  0.00    -0.248 NA
ATOM     31  C   UNL A   1      47.559  30.637  27.037  1.00  0.00     0.031 C 
ATOM     32  C   UNL A   1      43.142  33.449  30.166  1.00  0.00     0.029 A 
ATOM     33  C   UNL A   1      43.852  32.471  29.483  1.00  0.00     0.049 A 
ATOM     34  H   UNL A   1      43.289  30.483  29.071  1.00  0.00     0.167 HD
ATOM     35  C   UNL A   1      45.828  31.596  28.218  1.00  0.00     0.074 A 
ATOM     36  C   UNL A   1      47.151  31.748  27.639  1.00  0.00     0.031 C 
ATOM     37  C   UNL A   1      45.163  32.577  28.881  1.00  0.00     0.034 A 
BRANCH  24  38
ATOM     38  C   UNL A   1      39.584  30.986  31.150  1.00  0.00     0.023 A 
ATOM     39  C   UNL A   1      38.576  31.810  30.616  1.00  0.00     0.031 A 
ATOM     40  C   UNL A   1      39.457  30.570  32.486  1.00  0.00     0.131 A 
ATOM     41  C   UNL A   1      37.525  32.247  31.437  1.00  0.00     0.055 A 
ATOM     42  C   UNL A   1      38.370  30.948  33.275  1.00  0.00     0.041 A 
ATOM     43  F   UNL A   1      40.408  29.815  33.059  1.00  0.00    -0.206 F 
ATOM     44  C   UNL A   1      37.403  31.803  32.756  1.00  0.00     0.022 A 
BRANCH  41  45
ATOM     45  S   UNL A   1      36.391  33.514  30.802  1.00  0.00     0.124 S 
ATOM     46  O   UNL A   1      36.421  34.500  31.881  1.00  0.00    -0.237 OA
ATOM     47  O   UNL A   1      37.028  33.915  29.553  1.00  0.00    -0.237 OA
ATOM     48  O   UNL A   1      35.126  32.799  30.655  1.00  0.00    -0.744 OA
ENDBRANCH  41  45
ENDBRANCH  24  38
BRANCH  25  49
ATOM     49  C   UNL A   1      47.731  27.846  26.024  1.00  0.00     0.023 A 
ATOM     50  C   UNL A   1      48.844  27.346  26.714  1.00  0.00     0.031 A 
ATOM     51  C   UNL A   1      47.759  27.818  24.615  1.00  0.00     0.131 A 
ATOM     52  C   UNL A   1      49.941  26.840  25.994  1.00  0.00     0.055 A 
ATOM     53  C   UNL A   1      48.834  27.282  23.906  1.00  0.00     0.041 A 
ATOM     54  F   UNL A   1      46.715  28.278  23.906  1.00  0.00    -0.206 F 
ATOM     55  C   UNL A   1      49.936  26.791  24.597  1.00  0.00     0.022 A 
BRANCH  52  56
ATOM     56  S   UNL A   1      51.392  26.248  26.909  1.00  0.00     0.124 S 
ATOM     57  O   UNL A   1      50.937  26.359  28.289  1.00  0.00    -0.237 OA
ATOM     58  O   UNL A   1      51.550  24.894  26.390  1.00  0.00    -0.237 OA
ATOM     59  O   UNL A   1      52.444  27.186  26.522  1.00  0.00    -0.744 OA
ENDBRANCH  52  56
ENDBRANCH  25  49
BRANCH  37  60
ATOM     60  C   UNL A   1      45.875  33.889  29.043  1.00  0.00     0.023 A 
ATOM     61  C   UNL A   1      45.715  34.928  28.114  1.00  0.00     0.031 A 
ATOM     62  C   UNL A   1      46.668  34.118  30.180  1.00  0.00     0.131 A 
ATOM     63  C   UNL A   1      46.360  36.153  28.331  1.00  0.00     0.055 A 
ATOM     64  C   UNL A   1      47.265  35.354  30.416  1.00  0.00     0.041 A 
ATOM     65  F   UNL A   1      46.845  33.150  31.095  1.00  0.00    -0.206 F 
ATOM     66  C   UNL A   1      47.116  36.379  29.486  1.00  0.00     0.022 A 
BRANCH  63  67
ATOM     67  S   UNL A   1      46.223  37.443  27.066  1.00  0.00     0.124 S 
ATOM     68  O   UNL A   1      44.782  37.674  27.027  1.00  0.00    -0.237 OA
ATOM     69  O   UNL A   1      47.026  38.524  27.628  1.00  0.00    -0.237 OA
ATOM     70  O   UNL A   1      46.783  36.813  25.873  1.00  0.00    -0.744 OA
ENDBRANCH  63  67
ENDBRANCH  37  60
ENDBRANCH  11  12
ENDBRANCH   4   6
ENDBRANCH   3   4
ENDBRANCH   2   3
ENDBRANCH   1   2
BRANCH   1  71
ATOM     71  O   UNL A   1      35.354  21.364  25.611  1.00  0.00    -0.374 OA
BRANCH  71  72
ATOM     72  C   UNL A   1      34.063  20.747  25.549  1.00  0.00     0.202 C 
BRANCH  72  73
ATOM     73  C   UNL A   1      33.180  21.286  26.686  1.00  0.00     0.261 C 
BRANCH  73  74
ATOM     74  O   UNL A   1      31.876  21.582  26.171  1.00  0.00    -0.463 OA
BRANCH  74  75
ATOM     75  C   UNL A   1      31.414  22.807  26.541  1.00  0.00     0.310 C 
ATOM     76  O   UNL A   1      30.898  23.045  27.626  1.00  0.00    -0.252 OA
BRANCH  75  77
ATOM     77  C   UNL A   1      31.666  23.839  25.460  1.00  0.00     0.118 C 
ATOM     78  C   UNL A   1      31.612  23.236  24.036  1.00  0.00     0.019 C 
ATOM     79  C   UNL A   1      30.711  25.006  25.649  1.00  0.00     0.133 C 
ATOM     80  C   UNL A   1      31.707  24.294  22.949  1.00  0.00     0.022 C 
ATOM     81  N   UNL A   1      30.754  25.867  24.477  1.00  0.00    -0.356 N 
ATOM     82  C   UNL A   1      30.590  25.298  23.155  1.00  0.00     0.118 C 
BRANCH  81  83
ATOM     83  C   UNL A   1      30.940  27.222  24.605  1.00  0.00     0.133 A 
ATOM     84  C   UNL A   1      30.189  28.046  23.807  1.00  0.00     0.077 A 
ATOM     85  N   UNL A   1      31.858  27.702  25.458  1.00  0.00    -0.211 NA
ATOM     86  C   UNL A   1      30.391  29.401  23.921  1.00  0.00     0.095 A 
ATOM     87  C   UNL A   1      32.004  29.044  25.498  1.00  0.00     0.165 A 
ATOM     88  N   UNL A   1      31.306  29.924  24.756  1.00  0.00    -0.226 NA
BRANCH  86  89
ATOM     89  C   UNL A   1      29.566  30.308  23.123  1.00  0.00     0.089 A 
ATOM     90  C   UNL A   1      28.870  31.351  23.739  1.00  0.00     0.030 A 
ATOM     91  N   UNL A   1      29.392  29.990  21.815  1.00  0.00    -0.255 NA
ATOM     92  C   UNL A   1      27.960  32.090  22.992  1.00  0.00     0.004 A 
ATOM     93  C   UNL A   1      28.516  30.737  21.111  1.00  0.00     0.112 A 
ATOM     94  C   UNL A   1      27.778  31.777  21.652  1.00  0.00     0.020 A 
ENDBRANCH  86  89
BRANCH  87  95
ATOM     95  C   UNL A   1      33.053  29.602  26.351  1.00  0.00     0.055 A 
ATOM     96  C   UNL A   1      34.286  28.946  26.528  1.00  0.00     0.015 A 
ATOM     97  C   UNL A   1      32.884  30.842  26.977  1.00  0.00     0.134 A 
ATOM     98  C   UNL A   1      35.313  29.532  27.280  1.00  0.00     0.001 A 
ATOM     99  C   UNL A   1      33.898  31.427  27.736  1.00  0.00     0.040 A 
ATOM    100  F   UNL A   1      31.721  31.505  26.866  1.00  0.00    -0.206 F 
ATOM    101  C   UNL A   1      35.120  30.774  27.882  1.00  0.00     0.003 A 
ENDBRANCH  87  95
ENDBRANCH  81  83
ENDBRANCH  75  77
ENDBRANCH  74  75
ENDBRANCH  73  74
ENDBRANCH  72  73
ENDBRANCH  71  72
ENDBRANCH   1  71
TORSDOF 20
ENDMDL
MODEL 3
REMARK VINA RESULT:     -11.8      2.303      2.805
REMARK SMILES O=C(OCCOCCOC(=O)[C@H]1CCCN(c2cc(-c3ccccn3)nc(-c3ccccc3F)n2)C1)c1ccc(-c2c3nc(c(-c4cc(S(=O)(=O)[O-])ccc4F)c4ccc([nH]4)c(-c4cc(S(=O)(=O)[O-])ccc4F)c4nc(c(-c5cc(S(=O)(=O)[O-])ccc5F)c5ccc2[nH]5)C=C4)C=C3)cc1
REMARK SMILES IDX 5 1 4 2 3 3 2 4 1 5 37 6 38 7 99 8 39 9 98 10 40 11 41 12
REMARK SMILES IDX 42 13 92 14 43 15 97 16 91 17 93 18 44 19 96 20 90 21 89 22
REMARK SMILES IDX 45 24 77 25 57 26 76 27 58 28 61 29 75 30 94 31 59 32 60 33
REMARK SMILES IDX 74 35 95 36 62 37 46 38 47 39 55 40 48 41 54 42 56 43 53 44
REMARK SMILES IDX 49 45 50 46 51 47 52 48 78 49 79 50 87 51 80 52 86 53 88 54
REMARK SMILES IDX 85 55 81 56 82 57 83 58 84 59 63 60 64 61 72 62 65 63 71 64
REMARK SMILES IDX 73 65 70 66 66 67 67 68 68 69 69 70 6 71 7 72 8 73 9 74
REMARK SMILES IDX 10 75 11 76 12 77 13 78 36 79 14 80 16 81 15 82 17 83 18 84
REMARK SMILES IDX 35 85 19 86 27 87 26 88 20 89 21 90 25 91 22 92 24 93 23 94
REMARK SMILES IDX 28 95 29 96 33 97 30 98 32 99 34 100 31 101
REMARK H PARENT 93 23 61 34
REMARK Flexibility Score: inf
ROOT
ATOM      1  C   UNL A   1      36.746  21.716  24.316  1.00  0.00     0.202 C 
ENDROOT
BRANCH   1   2
ATOM      2  C   UNL A   1      37.783  21.191  25.311  1.00  0.00     0.261 C 
BRANCH   2   3
ATOM      3  O   UNL A   1      38.292  22.269  26.114  1.00  0.00    -0.460 OA
BRANCH   3   4
ATOM      4  C   UNL A   1      39.578  22.457  26.495  1.00  0.00     0.338 C 
ATOM      5  O   UNL A   1      40.360  21.511  26.458  1.00  0.00    -0.246 OA
BRANCH   4   6
ATOM      6  C   UNL A   1      40.070  23.775  26.987  1.00  0.00     0.060 A 
ATOM      7  C   UNL A   1      39.714  24.993  26.409  1.00  0.00     0.016 A 
ATOM      8  C   UNL A   1      40.855  23.791  28.146  1.00  0.00     0.016 A 
ATOM      9  C   UNL A   1      40.173  26.194  26.898  1.00  0.00     0.010 A 
ATOM     10  C   UNL A   1      41.274  25.007  28.692  1.00  0.00     0.010 A 
ATOM     11  C   UNL A   1      40.930  26.208  28.060  1.00  0.00    -0.014 A 
BRANCH  11  12
ATOM     12  C   UNL A   1      41.388  27.521  28.520  1.00  0.00     0.031 A 
ATOM     13  C   UNL A   1      42.828  27.865  28.345  1.00  0.00     0.074 A 
ATOM     14  C   UNL A   1      40.466  28.426  28.895  1.00  0.00     0.049 A 
ATOM     15  N   UNL A   1      43.462  28.944  28.699  1.00  0.00    -0.248 NA
ATOM     16  C   UNL A   1      43.663  26.863  27.660  1.00  0.00     0.031 C 
ATOM     17  C   UNL A   1      39.016  28.196  28.904  1.00  0.00     0.029 A 
ATOM     18  N   UNL A   1      40.596  29.729  29.281  1.00  0.00    -0.354 N 
ATOM     19  C   UNL A   1      44.779  28.745  28.308  1.00  0.00     0.074 A 
ATOM     20  C   UNL A   1      44.855  27.438  27.695  1.00  0.00     0.031 C 
ATOM     21  C   UNL A   1      38.391  29.337  29.233  1.00  0.00     0.029 A 
ATOM     22  C   UNL A   1      39.396  30.343  29.551  1.00  0.00     0.049 A 
ATOM     23  H   UNL A   1      41.465  30.186  29.359  1.00  0.00     0.167 HD
ATOM     24  C   UNL A   1      45.822  29.590  28.467  1.00  0.00     0.034 A 
ATOM     25  C   UNL A   1      39.149  31.570  30.044  1.00  0.00     0.034 A 
ATOM     26  C   UNL A   1      45.682  30.876  29.098  1.00  0.00     0.049 A 
ATOM     27  C   UNL A   1      40.340  32.434  30.355  1.00  0.00     0.074 A 
ATOM     28  C   UNL A   1      46.660  31.793  29.423  1.00  0.00     0.029 A 
ATOM     29  N   UNL A   1      44.466  31.423  29.501  1.00  0.00    -0.354 N 
ATOM     30  N   UNL A   1      41.612  32.186  30.131  1.00  0.00    -0.248 NA
ATOM     31  C   UNL A   1      40.076  33.719  31.007  1.00  0.00     0.031 C 
ATOM     32  C   UNL A   1      46.045  32.865  30.080  1.00  0.00     0.029 A 
ATOM     33  C   UNL A   1      44.672  32.655  30.094  1.00  0.00     0.049 A 
ATOM     34  H   UNL A   1      43.588  30.996  29.381  1.00  0.00     0.167 HD
ATOM     35  C   UNL A   1      42.305  33.291  30.604  1.00  0.00     0.074 A 
ATOM     36  C   UNL A   1      41.305  34.209  31.121  1.00  0.00     0.031 C 
ATOM     37  C   UNL A   1      43.641  33.531  30.607  1.00  0.00     0.034 A 
BRANCH  24  38
ATOM     38  C   UNL A   1      47.177  29.084  28.053  1.00  0.00     0.023 A 
ATOM     39  C   UNL A   1      47.502  28.837  26.707  1.00  0.00     0.031 A 
ATOM     40  C   UNL A   1      48.130  28.755  29.032  1.00  0.00     0.131 A 
ATOM     41  C   UNL A   1      48.717  28.212  26.385  1.00  0.00     0.055 A 
ATOM     42  C   UNL A   1      49.368  28.203  28.700  1.00  0.00     0.041 A 
ATOM     43  F   UNL A   1      47.859  28.934  30.335  1.00  0.00    -0.206 F 
ATOM     44  C   UNL A   1      49.661  27.914  27.370  1.00  0.00     0.022 A 
BRANCH  41  45
ATOM     45  S   UNL A   1      48.993  27.666  24.676  1.00  0.00     0.124 S 
ATOM     46  O   UNL A   1      49.157  26.225  24.852  1.00  0.00    -0.237 OA
ATOM     47  O   UNL A   1      47.770  28.092  24.005  1.00  0.00    -0.237 OA
ATOM     48  O   UNL A   1      50.203  28.381  24.279  1.00  0.00    -0.744 OA
ENDBRANCH  41  45
ENDBRANCH  24  38
BRANCH  25  49
ATOM     49  C   UNL A   1      37.751  31.991  30.333  1.00  0.00     0.023 A 
ATOM     50  C   UNL A   1      37.030  32.795  29.440  1.00  0.00     0.031 A 
ATOM     51  C   UNL A   1      37.096  31.545  31.498  1.00  0.00     0.131 A 
ATOM     52  C   UNL A   1      35.695  33.132  29.727  1.00  0.00     0.055 A 
ATOM     53  C   UNL A   1      35.760  31.851  31.761  1.00  0.00     0.041 A 
ATOM     54  F   UNL A   1      37.740  30.766  32.383  1.00  0.00    -0.206 F 
ATOM     55  C   UNL A   1      35.052  32.652  30.872  1.00  0.00     0.022 A 
BRANCH  52  56
ATOM     56  S   UNL A   1      34.799  34.218  28.582  1.00  0.00     0.124 S 
ATOM     57  O   UNL A   1      33.417  33.814  28.811  1.00  0.00    -0.237 OA
ATOM     58  O   UNL A   1      35.169  35.544  29.065  1.00  0.00    -0.237 OA
ATOM     59  O   UNL A   1      35.346  33.860  27.275  1.00  0.00    -0.744 OA
ENDBRANCH  52  56
ENDBRANCH  25  49
BRANCH  37  60
ATOM     60  C   UNL A   1      44.092  34.853  31.157  1.00  0.00     0.023 A 
ATOM     61  C   UNL A   1      44.023  36.027  30.390  1.00  0.00     0.031 A 
ATOM     62  C   UNL A   1      44.529  34.943  32.489  1.00  0.00     0.131 A 
ATOM     63  C   UNL A   1      44.409  37.247  30.961  1.00  0.00     0.055 A 
ATOM     64  C   UNL A   1      44.862  36.166  33.066  1.00  0.00     0.041 A 
ATOM     65  F   UNL A   1      44.606  33.844  33.258  1.00  0.00    -0.206 F 
ATOM     66  C   UNL A   1      44.807  37.327  32.299  1.00  0.00     0.022 A 
BRANCH  63  67
ATOM     67  S   UNL A   1      44.412  38.730  29.920  1.00  0.00     0.124 S 
ATOM     68  O   UNL A   1      45.810  38.804  29.507  1.00  0.00    -0.237 OA
ATOM     69  O   UNL A   1      43.456  38.385  28.874  1.00  0.00    -0.237 OA
ATOM     70  O   UNL A   1      43.978  39.787  30.831  1.00  0.00    -0.744 OA
ENDBRANCH  63  67
ENDBRANCH  37  60
ENDBRANCH  11  12
ENDBRANCH   4   6
ENDBRANCH   3   4
ENDBRANCH   2   3
ENDBRANCH   1   2
BRANCH   1  71
ATOM     71  O   UNL A   1      35.481  22.160  24.819  1.00  0.00    -0.374 OA
BRANCH  71  72
ATOM     72  C   UNL A   1      34.839  21.378  25.834  1.00  0.00     0.202 C 
BRANCH  72  73
ATOM     73  C   UNL A   1      33.607  22.131  26.359  1.00  0.00     0.261 C 
BRANCH  73  74
ATOM     74  O   UNL A   1      32.424  21.404  26.006  1.00  0.00    -0.463 OA
BRANCH  74  75
ATOM     75  C   UNL A   1      31.371  22.205  25.689  1.00  0.00     0.310 C 
ATOM     76  O   UNL A   1      30.232  22.035  26.105  1.00  0.00    -0.252 OA
BRANCH  75  77
ATOM     77  C   UNL A   1      31.803  23.355  24.801  1.00  0.00     0.118 C 
ATOM     78  C   UNL A   1      32.087  22.910  23.346  1.00  0.00     0.019 C 
ATOM     79  C   UNL A   1      30.776  24.471  24.892  1.00  0.00     0.133 C 
ATOM     80  C   UNL A   1      32.366  24.082  22.420  1.00  0.00     0.022 C 
ATOM     81  N   UNL A   1      31.032  25.456  23.852  1.00  0.00    -0.356 N 
ATOM     82  C   UNL A   1      31.185  25.032  22.476  1.00  0.00     0.118 C 
BRANCH  81  83
ATOM     83  C   UNL A   1      31.123  26.793  24.155  1.00  0.00     0.133 A 
ATOM     84  C   UNL A   1      30.333  27.661  23.446  1.00  0.00     0.077 A 
ATOM     85  N   UNL A   1      31.989  27.219  25.087  1.00  0.00    -0.211 NA
ATOM     86  C   UNL A   1      30.439  29.000  23.736  1.00  0.00     0.095 A 
ATOM     87  C   UNL A   1      32.041  28.551  25.300  1.00  0.00     0.165 A 
ATOM     88  N   UNL A   1      31.300  29.471  24.655  1.00  0.00    -0.226 NA
BRANCH  86  89
ATOM     89  C   UNL A   1      29.570  29.946  23.035  1.00  0.00     0.089 A 
ATOM     90  C   UNL A   1      29.009  31.028  23.721  1.00  0.00     0.030 A 
ATOM     91  N   UNL A   1      29.219  29.632  21.763  1.00  0.00    -0.255 NA
ATOM     92  C   UNL A   1      28.054  31.810  23.084  1.00  0.00     0.004 A 
ATOM     93  C   UNL A   1      28.302  30.421  21.164  1.00  0.00     0.112 A 
ATOM     94  C   UNL A   1      27.691  31.500  21.780  1.00  0.00     0.020 A 
ENDBRANCH  86  89
BRANCH  87  95
ATOM     95  C   UNL A   1      33.033  29.063  26.245  1.00  0.00     0.055 A 
ATOM     96  C   UNL A   1      34.281  28.436  26.417  1.00  0.00     0.015 A 
ATOM     97  C   UNL A   1      32.792  30.234  26.973  1.00  0.00     0.134 A 
ATOM     98  C   UNL A   1      35.254  28.985  27.263  1.00  0.00     0.001 A 
ATOM     99  C   UNL A   1      33.751  30.781  27.826  1.00  0.00     0.040 A 
ATOM    100  F   UNL A   1      31.611  30.865  26.871  1.00  0.00    -0.206 F 
ATOM    101  C   UNL A   1      34.990  30.158  27.966  1.00  0.00     0.003 A 
ENDBRANCH  87  95
ENDBRANCH  81  83
ENDBRANCH  75  77
ENDBRANCH  74  75
ENDBRANCH  73  74
ENDBRANCH  72  73
ENDBRANCH  71  72
ENDBRANCH   1  71
TORSDOF 20
ENDMDL
