MODEL 1
REMARK VINA RESULT:     -10.0      0.000      0.000
REMARK SMILES O=C(CSc1nc(-c2ccccc2)c(-c2ccccc2)n1-c1ccccc1)OCCOCCOC(=O)c1ccc(-c2c3nc(c(-c4cc(S(=O)(=O)[O-])ccc4F)c4ccc([nH]4)c(-c4cc(S(=O)(=O)[O-])ccc4F)c4nc(c(-c5cc(S(=O)(=O)[O-])ccc5F)c5ccc2[nH]5)C=C4)C=C3)cc1
REMARK SMILES IDX 31 1 30 2 29 3 28 4 2 5 1 6 3 7 4 8 5 9 6 10 21 11 7 12
REMARK SMILES IDX 14 13 22 14 23 15 27 16 24 17 26 18 25 19 8 20 9 21 13 22
REMARK SMILES IDX 10 23 12 24 11 25 15 26 16 27 20 28 17 29 19 30 18 31 32 32
REMARK SMILES IDX 33 33 34 34 35 35 36 36 37 37 38 38 99 39 39 40 98 41 40 42
REMARK SMILES IDX 41 43 42 44 92 45 43 46 97 47 91 48 93 49 44 50 96 51 90 52
REMARK SMILES IDX 89 53 45 55 77 56 57 57 76 58 58 59 61 60 75 61 94 62 59 63
REMARK SMILES IDX 60 64 74 66 95 67 62 68 46 69 47 70 55 71 48 72 54 73 56 74
REMARK SMILES IDX 53 75 49 76 50 77 51 78 52 79 78 80 79 81 87 82 80 83 86 84
REMARK SMILES IDX 88 85 85 86 81 87 82 88 83 89 84 90 63 91 64 92 72 93 65 94
REMARK SMILES IDX 71 95 73 96 70 97 66 98 67 99 68 100 69 101
REMARK H PARENT 93 54 61 65
REMARK Flexibility Score: inf
ROOT
ATOM      1  O   UNL A   1      44.282  28.683  36.305  1.00  0.00    -0.374 OA
ENDROOT
BRANCH   1   2
ATOM      2  C   UNL A   1      43.333  29.702  36.656  1.00  0.00     0.202 C 
BRANCH   2   3
ATOM      3  C   UNL A   1      42.129  29.801  35.715  1.00  0.00     0.261 C 
BRANCH   3   4
ATOM      4  O   UNL A   1      42.349  29.093  34.485  1.00  0.00    -0.463 OA
BRANCH   4   5
ATOM      5  C   UNL A   1      42.188  29.712  33.301  1.00  0.00     0.316 C 
ATOM      6  O   UNL A   1      42.935  29.414  32.372  1.00  0.00    -0.251 OA
BRANCH   5   7
ATOM      7  C   UNL A   1      41.105  30.767  33.172  1.00  0.00     0.200 C 
BRANCH   7   8
ATOM      8  S   UNL A   1      41.294  31.903  31.815  1.00  0.00    -0.076 SA
BRANCH   8   9
ATOM      9  C   UNL A   1      39.693  32.430  31.473  1.00  0.00     0.174 A 
ATOM     10  N   UNL A   1      39.120  32.084  30.344  1.00  0.00    -0.221 NA
ATOM     11  N   UNL A   1      38.822  33.080  32.330  1.00  0.00    -0.287 N 
ATOM     12  C   UNL A   1      37.832  32.513  30.454  1.00  0.00     0.098 A 
ATOM     13  C   UNL A   1      37.597  33.115  31.678  1.00  0.00     0.082 A 
BRANCH  11  14
ATOM     14  C   UNL A   1      39.044  33.584  33.632  1.00  0.00     0.048 A 
ATOM     15  C   UNL A   1      38.517  32.929  34.745  1.00  0.00     0.027 A 
ATOM     16  C   UNL A   1      39.665  34.829  33.774  1.00  0.00     0.027 A 
ATOM     17  C   UNL A   1      38.675  33.507  36.009  1.00  0.00     0.002 A 
ATOM     18  C   UNL A   1      39.866  35.373  35.039  1.00  0.00     0.002 A 
ATOM     19  C   UNL A   1      39.369  34.712  36.157  1.00  0.00     0.000 A 
ENDBRANCH  11  14
BRANCH  12  20
ATOM     20  C   UNL A   1      36.840  32.269  29.434  1.00  0.00     0.002 A 
ATOM     21  C   UNL A   1      36.558  30.956  29.043  1.00  0.00     0.010 A 
ATOM     22  C   UNL A   1      36.129  33.332  28.868  1.00  0.00     0.010 A 
ATOM     23  C   UNL A   1      35.530  30.707  28.133  1.00  0.00     0.001 A 
ATOM     24  C   UNL A   1      35.107  33.081  27.956  1.00  0.00     0.001 A 
ATOM     25  C   UNL A   1      34.799  31.768  27.600  1.00  0.00     0.000 A 
ENDBRANCH  12  20
BRANCH  13  26
ATOM     26  C   UNL A   1      36.369  33.609  32.284  1.00  0.00     0.001 A 
ATOM     27  C   UNL A   1      35.381  32.708  32.693  1.00  0.00     0.010 A 
ATOM     28  C   UNL A   1      36.182  34.980  32.478  1.00  0.00     0.010 A 
ATOM     29  C   UNL A   1      34.225  33.178  33.314  1.00  0.00     0.001 A 
ATOM     30  C   UNL A   1      35.035  35.447  33.112  1.00  0.00     0.001 A 
ATOM     31  C   UNL A   1      34.058  34.545  33.529  1.00  0.00     0.000 A 
ENDBRANCH  13  26
ENDBRANCH   8   9
ENDBRANCH   7   8
ENDBRANCH   5   7
ENDBRANCH   4   5
ENDBRANCH   3   4
ENDBRANCH   2   3
ENDBRANCH   1   2
BRANCH   1  32
ATOM     32  C   UNL A   1      45.630  28.798  36.778  1.00  0.00     0.202 C 
BRANCH  32  33
ATOM     33  C   UNL A   1      46.382  27.529  37.115  1.00  0.00     0.261 C 
BRANCH  33  34
ATOM     34  O   UNL A   1      46.585  26.770  35.943  1.00  0.00    -0.460 OA
BRANCH  34  35
ATOM     35  C   UNL A   1      46.166  25.498  36.038  1.00  0.00     0.338 C 
ATOM     36  O   UNL A   1      46.392  24.704  36.954  1.00  0.00    -0.246 OA
BRANCH  35  37
ATOM     37  C   UNL A   1      45.543  25.140  34.777  1.00  0.00     0.060 A 
ATOM     38  C   UNL A   1      46.208  24.168  34.035  1.00  0.00     0.016 A 
ATOM     39  C   UNL A   1      44.596  26.016  34.218  1.00  0.00     0.016 A 
ATOM     40  C   UNL A   1      46.117  24.248  32.671  1.00  0.00     0.010 A 
ATOM     41  C   UNL A   1      44.536  26.116  32.857  1.00  0.00     0.010 A 
ATOM     42  C   UNL A   1      45.358  25.282  32.108  1.00  0.00    -0.014 A 
BRANCH  42  43
ATOM     43  C   UNL A   1      45.251  25.322  30.673  1.00  0.00     0.031 A 
ATOM     44  C   UNL A   1      46.313  26.177  30.114  1.00  0.00     0.074 A 
ATOM     45  C   UNL A   1      44.355  24.619  29.964  1.00  0.00     0.049 A 
ATOM     46  N   UNL A   1      46.193  27.415  29.775  1.00  0.00    -0.248 NA
ATOM     47  C   UNL A   1      47.709  25.725  30.251  1.00  0.00     0.031 C 
ATOM     48  C   UNL A   1      43.444  23.569  30.415  1.00  0.00     0.029 A 
ATOM     49  N   UNL A   1      44.131  24.665  28.627  1.00  0.00    -0.354 N 
ATOM     50  C   UNL A   1      47.459  27.796  29.362  1.00  0.00     0.074 A 
ATOM     51  C   UNL A   1      48.359  26.852  29.958  1.00  0.00     0.031 C 
ATOM     52  C   UNL A   1      42.932  22.933  29.333  1.00  0.00     0.029 A 
ATOM     53  C   UNL A   1      43.376  23.614  28.123  1.00  0.00     0.049 A 
ATOM     54  H   UNL A   1      44.479  25.389  28.057  1.00  0.00     0.167 HD
ATOM     55  C   UNL A   1      47.600  28.628  28.296  1.00  0.00     0.034 A 
ATOM     56  C   UNL A   1      43.198  23.311  26.807  1.00  0.00     0.034 A 
ATOM     57  C   UNL A   1      46.347  29.314  28.026  1.00  0.00     0.049 A 
ATOM     58  C   UNL A   1      43.475  24.561  26.046  1.00  0.00     0.074 A 
ATOM     59  C   UNL A   1      45.515  30.123  28.779  1.00  0.00     0.029 A 
ATOM     60  N   UNL A   1      45.571  28.857  26.979  1.00  0.00    -0.354 N 
ATOM     61  N   UNL A   1      42.724  25.626  26.132  1.00  0.00    -0.248 NA
ATOM     62  C   UNL A   1      44.845  24.810  25.612  1.00  0.00     0.031 C 
ATOM     63  C   UNL A   1      44.191  29.725  28.429  1.00  0.00     0.029 A 
ATOM     64  C   UNL A   1      44.269  28.773  27.409  1.00  0.00     0.049 A 
ATOM     65  H   UNL A   1      45.896  28.628  26.078  1.00  0.00     0.167 HD
ATOM     66  C   UNL A   1      43.612  26.692  26.204  1.00  0.00     0.074 A 
ATOM     67  C   UNL A   1      44.899  26.135  25.785  1.00  0.00     0.031 C 
ATOM     68  C   UNL A   1      43.290  27.837  26.877  1.00  0.00     0.034 A 
BRANCH  55  69
ATOM     69  C   UNL A   1      48.687  28.471  27.251  1.00  0.00     0.023 A 
ATOM     70  C   UNL A   1      48.247  28.193  25.946  1.00  0.00     0.031 A 
ATOM     71  C   UNL A   1      50.072  28.284  27.477  1.00  0.00     0.131 A 
ATOM     72  C   UNL A   1      49.104  27.602  25.006  1.00  0.00     0.055 A 
ATOM     73  C   UNL A   1      50.935  27.752  26.517  1.00  0.00     0.041 A 
ATOM     74  F   UNL A   1      50.673  28.533  28.643  1.00  0.00    -0.206 F 
ATOM     75  C   UNL A   1      50.445  27.367  25.284  1.00  0.00     0.022 A 
BRANCH  72  76
ATOM     76  S   UNL A   1      48.368  26.971  23.482  1.00  0.00     0.124 S 
ATOM     77  O   UNL A   1      49.504  27.044  22.569  1.00  0.00    -0.237 OA
ATOM     78  O   UNL A   1      47.948  25.633  23.885  1.00  0.00    -0.237 OA
ATOM     79  O   UNL A   1      47.285  27.914  23.217  1.00  0.00    -0.744 OA
ENDBRANCH  72  76
ENDBRANCH  55  69
BRANCH  56  80
ATOM     80  C   UNL A   1      43.150  21.958  26.177  1.00  0.00     0.023 A 
ATOM     81  C   UNL A   1      44.279  21.341  25.589  1.00  0.00     0.031 A 
ATOM     82  C   UNL A   1      42.018  21.134  26.375  1.00  0.00     0.131 A 
ATOM     83  C   UNL A   1      44.244  19.968  25.236  1.00  0.00     0.055 A 
ATOM     84  C   UNL A   1      41.991  19.781  26.027  1.00  0.00     0.041 A 
ATOM     85  F   UNL A   1      40.922  21.592  26.999  1.00  0.00    -0.206 F 
ATOM     86  C   UNL A   1      43.108  19.189  25.466  1.00  0.00     0.022 A 
BRANCH  83  87
ATOM     87  S   UNL A   1      45.716  19.138  24.546  1.00  0.00     0.124 S 
ATOM     88  O   UNL A   1      45.832  17.955  25.390  1.00  0.00    -0.237 OA
ATOM     89  O   UNL A   1      45.330  18.913  23.158  1.00  0.00    -0.237 OA
ATOM     90  O   UNL A   1      46.782  20.126  24.729  1.00  0.00    -0.744 OA
ENDBRANCH  83  87
ENDBRANCH  56  80
BRANCH  68  91
ATOM     91  C   UNL A   1      41.839  28.079  27.251  1.00  0.00     0.023 A 
ATOM     92  C   UNL A   1      41.240  27.752  28.491  1.00  0.00     0.031 A 
ATOM     93  C   UNL A   1      41.056  28.787  26.321  1.00  0.00     0.131 A 
ATOM     94  C   UNL A   1      39.905  28.131  28.751  1.00  0.00     0.055 A 
ATOM     95  C   UNL A   1      39.748  29.181  26.591  1.00  0.00     0.041 A 
ATOM     96  F   UNL A   1      41.571  29.144  25.131  1.00  0.00    -0.206 F 
ATOM     97  C   UNL A   1      39.165  28.850  27.806  1.00  0.00     0.022 A 
BRANCH  94  98
ATOM     98  S   UNL A   1      39.086  27.676  30.315  1.00  0.00     0.124 S 
ATOM     99  O   UNL A   1      37.948  28.585  30.384  1.00  0.00    -0.237 OA
ATOM    100  O   UNL A   1      38.768  26.266  30.106  1.00  0.00    -0.237 OA
ATOM    101  O   UNL A   1      40.121  27.920  31.324  1.00  0.00    -0.744 OA
ENDBRANCH  94  98
ENDBRANCH  68  91
ENDBRANCH  42  43
ENDBRANCH  35  37
ENDBRANCH  34  35
ENDBRANCH  33  34
ENDBRANCH  32  33
ENDBRANCH   1  32
TORSDOF 22
ENDMDL
MODEL 2
REMARK VINA RESULT:      -9.9      9.976     13.896
REMARK SMILES O=C(CSc1nc(-c2ccccc2)c(-c2ccccc2)n1-c1ccccc1)OCCOCCOC(=O)c1ccc(-c2c3nc(c(-c4cc(S(=O)(=O)[O-])ccc4F)c4ccc([nH]4)c(-c4cc(S(=O)(=O)[O-])ccc4F)c4nc(c(-c5cc(S(=O)(=O)[O-])ccc5F)c5ccc2[nH]5)C=C4)C=C3)cc1
REMARK SMILES IDX 31 1 30 2 29 3 28 4 2 5 1 6 3 7 4 8 5 9 6 10 21 11 7 12
REMARK SMILES IDX 14 13 22 14 23 15 27 16 24 17 26 18 25 19 8 20 9 21 13 22
REMARK SMILES IDX 10 23 12 24 11 25 15 26 16 27 20 28 17 29 19 30 18 31 32 32
REMARK SMILES IDX 33 33 34 34 35 35 36 36 37 37 38 38 99 39 39 40 98 41 40 42
REMARK SMILES IDX 41 43 42 44 92 45 43 46 97 47 91 48 93 49 44 50 96 51 90 52
REMARK SMILES IDX 89 53 45 55 77 56 57 57 76 58 58 59 61 60 75 61 94 62 59 63
REMARK SMILES IDX 60 64 74 66 95 67 62 68 46 69 47 70 55 71 48 72 54 73 56 74
REMARK SMILES IDX 53 75 49 76 50 77 51 78 52 79 78 80 79 81 87 82 80 83 86 84
REMARK SMILES IDX 88 85 85 86 81 87 82 88 83 89 84 90 63 91 64 92 72 93 65 94
REMARK SMILES IDX 71 95 73 96 70 97 66 98 67 99 68 100 69 101
REMARK H PARENT 93 54 61 65
REMARK Flexibility Score: inf
ROOT
ATOM      1  O   UNL A   1      44.520  39.814  26.942  1.00  0.00    -0.374 OA
ENDROOT
BRANCH   1   2
ATOM      2  C   UNL A   1      43.417  40.206  26.110  1.00  0.00     0.202 C 
BRANCH   2   3
ATOM      3  C   UNL A   1      43.509  41.634  25.563  1.00  0.00     0.261 C 
BRANCH   3   4
ATOM      4  O   UNL A   1      42.903  41.752  24.266  1.00  0.00    -0.463 OA
BRANCH   4   5
ATOM      5  C   UNL A   1      42.805  42.952  23.664  1.00  0.00     0.316 C 
ATOM      6  O   UNL A   1      43.409  43.906  24.147  1.00  0.00    -0.251 OA
BRANCH   5   7
ATOM      7  C   UNL A   1      41.933  43.079  22.430  1.00  0.00     0.200 C 
BRANCH   7   8
ATOM      8  S   UNL A   1      42.540  42.263  20.969  1.00  0.00    -0.076 SA
BRANCH   8   9
ATOM      9  C   UNL A   1      43.284  43.518  20.057  1.00  0.00     0.174 A 
ATOM     10  N   UNL A   1      42.565  44.232  19.224  1.00  0.00    -0.221 NA
ATOM     11  N   UNL A   1      44.573  44.003  20.193  1.00  0.00    -0.287 N 
ATOM     12  C   UNL A   1      43.397  45.222  18.796  1.00  0.00     0.098 A 
ATOM     13  C   UNL A   1      44.644  45.132  19.389  1.00  0.00     0.082 A 
BRANCH  11  14
ATOM     14  C   UNL A   1      45.634  43.534  21.001  1.00  0.00     0.048 A 
ATOM     15  C   UNL A   1      45.944  44.171  22.202  1.00  0.00     0.027 A 
ATOM     16  C   UNL A   1      46.463  42.524  20.502  1.00  0.00     0.027 A 
ATOM     17  C   UNL A   1      47.060  43.739  22.928  1.00  0.00     0.002 A 
ATOM     18  C   UNL A   1      47.539  42.063  21.255  1.00  0.00     0.002 A 
ATOM     19  C   UNL A   1      47.839  42.673  22.468  1.00  0.00     0.000 A 
ENDBRANCH  11  14
BRANCH  12  20
ATOM     20  C   UNL A   1      42.965  46.271  17.903  1.00  0.00     0.002 A 
ATOM     21  C   UNL A   1      42.132  45.961  16.823  1.00  0.00     0.010 A 
ATOM     22  C   UNL A   1      43.336  47.598  18.136  1.00  0.00     0.010 A 
ATOM     23  C   UNL A   1      41.628  46.982  16.017  1.00  0.00     0.001 A 
ATOM     24  C   UNL A   1      42.836  48.616  17.328  1.00  0.00     0.001 A 
ATOM     25  C   UNL A   1      41.972  48.308  16.278  1.00  0.00     0.000 A 
ENDBRANCH  12  20
BRANCH  13  26
ATOM     26  C   UNL A   1      45.798  46.017  19.334  1.00  0.00     0.001 A 
ATOM     27  C   UNL A   1      46.788  45.815  18.368  1.00  0.00     0.010 A 
ATOM     28  C   UNL A   1      45.910  47.085  20.229  1.00  0.00     0.010 A 
ATOM     29  C   UNL A   1      47.871  46.689  18.286  1.00  0.00     0.001 A 
ATOM     30  C   UNL A   1      46.981  47.967  20.137  1.00  0.00     0.001 A 
ATOM     31  C   UNL A   1      47.960  47.768  19.165  1.00  0.00     0.000 A 
ENDBRANCH  13  26
ENDBRANCH   8   9
ENDBRANCH   7   8
ENDBRANCH   5   7
ENDBRANCH   4   5
ENDBRANCH   3   4
ENDBRANCH   2   3
ENDBRANCH   1   2
BRANCH   1  32
ATOM     32  C   UNL A   1      45.739  39.388  26.322  1.00  0.00     0.202 C 
BRANCH  32  33
ATOM     33  C   UNL A   1      46.220  37.977  26.579  1.00  0.00     0.261 C 
BRANCH  33  34
ATOM     34  O   UNL A   1      45.114  37.133  26.817  1.00  0.00    -0.460 OA
BRANCH  34  35
ATOM     35  C   UNL A   1      45.437  35.962  27.388  1.00  0.00     0.338 C 
ATOM     36  O   UNL A   1      46.421  35.259  27.149  1.00  0.00    -0.246 OA
BRANCH  35  37
ATOM     37  C   UNL A   1      44.321  35.553  28.222  1.00  0.00     0.060 A 
ATOM     38  C   UNL A   1      44.642  35.232  29.538  1.00  0.00     0.016 A 
ATOM     39  C   UNL A   1      43.129  35.139  27.602  1.00  0.00     0.016 A 
ATOM     40  C   UNL A   1      43.886  34.269  30.151  1.00  0.00     0.010 A 
ATOM     41  C   UNL A   1      42.399  34.154  28.203  1.00  0.00     0.010 A 
ATOM     42  C   UNL A   1      42.836  33.680  29.434  1.00  0.00    -0.014 A 
BRANCH  42  43
ATOM     43  C   UNL A   1      42.036  32.696  30.114  1.00  0.00     0.031 A 
ATOM     44  C   UNL A   1      42.633  31.360  29.945  1.00  0.00     0.074 A 
ATOM     45  C   UNL A   1      40.953  32.985  30.850  1.00  0.00     0.049 A 
ATOM     46  N   UNL A   1      42.286  30.478  29.069  1.00  0.00    -0.248 NA
ATOM     47  C   UNL A   1      43.941  31.100  30.572  1.00  0.00     0.031 C 
ATOM     48  C   UNL A   1      40.446  34.289  31.273  1.00  0.00     0.029 A 
ATOM     49  N   UNL A   1      40.099  32.117  31.449  1.00  0.00    -0.354 N 
ATOM     50  C   UNL A   1      43.160  29.421  29.263  1.00  0.00     0.074 A 
ATOM     51  C   UNL A   1      44.292  29.978  29.945  1.00  0.00     0.031 C 
ATOM     52  C   UNL A   1      39.509  34.109  32.235  1.00  0.00     0.029 A 
ATOM     53  C   UNL A   1      39.259  32.683  32.399  1.00  0.00     0.049 A 
ATOM     54  H   UNL A   1      40.077  31.158  31.226  1.00  0.00     0.167 HD
ATOM     55  C   UNL A   1      42.709  28.143  29.158  1.00  0.00     0.034 A 
ATOM     56  C   UNL A   1      38.476  32.006  33.286  1.00  0.00     0.034 A 
ATOM     57  C   UNL A   1      41.445  28.115  28.439  1.00  0.00     0.049 A 
ATOM     58  C   UNL A   1      38.267  30.647  32.710  1.00  0.00     0.074 A 
ATOM     59  C   UNL A   1      41.042  28.553  27.190  1.00  0.00     0.029 A 
ATOM     60  N   UNL A   1      40.285  27.976  29.174  1.00  0.00    -0.354 N 
ATOM     61  N   UNL A   1      37.592  30.438  31.612  1.00  0.00    -0.248 NA
ATOM     62  C   UNL A   1      39.229  29.605  33.047  1.00  0.00     0.031 C 
ATOM     63  C   UNL A   1      39.744  29.109  27.390  1.00  0.00     0.029 A 
ATOM     64  C   UNL A   1      39.369  28.893  28.718  1.00  0.00     0.049 A 
ATOM     65  H   UNL A   1      40.138  27.329  29.902  1.00  0.00     0.167 HD
ATOM     66  C   UNL A   1      38.334  29.502  30.903  1.00  0.00     0.074 A 
ATOM     67  C   UNL A   1      39.280  28.958  31.878  1.00  0.00     0.031 C 
ATOM     68  C   UNL A   1      38.315  29.472  29.537  1.00  0.00     0.034 A 
BRANCH  55  69
ATOM     69  C   UNL A   1      43.149  27.023  30.078  1.00  0.00     0.023 A 
ATOM     70  C   UNL A   1      43.094  27.301  31.454  1.00  0.00     0.031 A 
ATOM     71  C   UNL A   1      43.871  25.857  29.724  1.00  0.00     0.131 A 
ATOM     72  C   UNL A   1      43.858  26.565  32.371  1.00  0.00     0.055 A 
ATOM     73  C   UNL A   1      44.581  25.090  30.650  1.00  0.00     0.041 A 
ATOM     74  F   UNL A   1      43.998  25.416  28.470  1.00  0.00    -0.206 F 
ATOM     75  C   UNL A   1      44.613  25.466  31.979  1.00  0.00     0.022 A 
BRANCH  72  76
ATOM     76  S   UNL A   1      43.991  27.204  34.055  1.00  0.00     0.124 S 
ATOM     77  O   UNL A   1      45.261  27.920  33.987  1.00  0.00    -0.237 OA
ATOM     78  O   UNL A   1      42.790  28.027  34.157  1.00  0.00    -0.237 OA
ATOM     79  O   UNL A   1      43.992  25.995  34.874  1.00  0.00    -0.744 OA
ENDBRANCH  72  76
ENDBRANCH  55  69
BRANCH  56  80
ATOM     80  C   UNL A   1      38.208  32.344  34.715  1.00  0.00     0.023 A 
ATOM     81  C   UNL A   1      39.213  32.340  35.710  1.00  0.00     0.031 A 
ATOM     82  C   UNL A   1      36.973  32.932  35.074  1.00  0.00     0.131 A 
ATOM     83  C   UNL A   1      38.964  32.909  36.985  1.00  0.00     0.055 A 
ATOM     84  C   UNL A   1      36.734  33.493  36.331  1.00  0.00     0.041 A 
ATOM     85  F   UNL A   1      35.979  33.065  34.184  1.00  0.00    -0.206 F 
ATOM     86  C   UNL A   1      37.733  33.493  37.289  1.00  0.00     0.022 A 
BRANCH  83  87
ATOM     87  S   UNL A   1      40.273  32.979  38.254  1.00  0.00     0.124 S 
ATOM     88  O   UNL A   1      40.705  34.369  38.180  1.00  0.00    -0.237 OA
ATOM     89  O   UNL A   1      39.563  32.581  39.464  1.00  0.00    -0.237 OA
ATOM     90  O   UNL A   1      41.261  32.006  37.781  1.00  0.00    -0.744 OA
ENDBRANCH  83  87
ENDBRANCH  56  80
BRANCH  68  91
ATOM     91  C   UNL A   1      37.223  30.233  28.807  1.00  0.00     0.023 A 
ATOM     92  C   UNL A   1      36.014  29.680  28.321  1.00  0.00     0.031 A 
ATOM     93  C   UNL A   1      37.384  31.627  28.704  1.00  0.00     0.131 A 
ATOM     94  C   UNL A   1      35.031  30.521  27.755  1.00  0.00     0.055 A 
ATOM     95  C   UNL A   1      36.401  32.456  28.169  1.00  0.00     0.041 A 
ATOM     96  F   UNL A   1      38.501  32.218  29.163  1.00  0.00    -0.206 F 
ATOM     97  C   UNL A   1      35.222  31.905  27.687  1.00  0.00     0.022 A 
BRANCH  94  98
ATOM     98  S   UNL A   1      33.488  29.834  27.068  1.00  0.00     0.124 S 
ATOM     99  O   UNL A   1      33.218  28.679  27.916  1.00  0.00    -0.237 OA
ATOM    100  O   UNL A   1      32.559  30.954  27.197  1.00  0.00    -0.237 OA
ATOM    101  O   UNL A   1      33.848  29.503  25.687  1.00  0.00    -0.744 OA
ENDBRANCH  94  98
ENDBRANCH  68  91
ENDBRANCH  42  43
ENDBRANCH  35  37
ENDBRANCH  34  35
ENDBRANCH  33  34
ENDBRANCH  32  33
ENDBRANCH   1  32
TORSDOF 22
ENDMDL
MODEL 3
REMARK VINA RESULT:      -9.4      9.239     13.611
REMARK SMILES O=C(CSc1nc(-c2ccccc2)c(-c2ccccc2)n1-c1ccccc1)OCCOCCOC(=O)c1ccc(-c2c3nc(c(-c4cc(S(=O)(=O)[O-])ccc4F)c4ccc([nH]4)c(-c4cc(S(=O)(=O)[O-])ccc4F)c4nc(c(-c5cc(S(=O)(=O)[O-])ccc5F)c5ccc2[nH]5)C=C4)C=C3)cc1
REMARK SMILES IDX 31 1 30 2 29 3 28 4 2 5 1 6 3 7 4 8 5 9 6 10 21 11 7 12
REMARK SMILES IDX 14 13 22 14 23 15 27 16 24 17 26 18 25 19 8 20 9 21 13 22
REMARK SMILES IDX 10 23 12 24 11 25 15 26 16 27 20 28 17 29 19 30 18 31 32 32
REMARK SMILES IDX 33 33 34 34 35 35 36 36 37 37 38 38 99 39 39 40 98 41 40 42
REMARK SMILES IDX 41 43 42 44 92 45 43 46 97 47 91 48 93 49 44 50 96 51 90 52
REMARK SMILES IDX 89 53 45 55 77 56 57 57 76 58 58 59 61 60 75 61 94 62 59 63
REMARK SMILES IDX 60 64 74 66 95 67 62 68 46 69 47 70 55 71 48 72 54 73 56 74
REMARK SMILES IDX 53 75 49 76 50 77 51 78 52 79 78 80 79 81 87 82 80 83 86 84
REMARK SMILES IDX 88 85 85 86 81 87 82 88 83 89 84 90 63 91 64 92 72 93 65 94
REMARK SMILES IDX 71 95 73 96 70 97 66 98 67 99 68 100 69 101
REMARK H PARENT 93 54 61 65
REMARK Flexibility Score: inf
ROOT
ATOM      1  O   UNL A   1      43.070  39.707  29.018  1.00  0.00    -0.374 OA
ENDROOT
BRANCH   1   2
ATOM      2  C   UNL A   1      41.902  39.053  28.497  1.00  0.00     0.202 C 
BRANCH   2   3
ATOM      3  C   UNL A   1      41.929  38.818  26.983  1.00  0.00     0.261 C 
BRANCH   3   4
ATOM      4  O   UNL A   1      42.508  39.927  26.278  1.00  0.00    -0.463 OA
BRANCH   4   5
ATOM      5  C   UNL A   1      41.725  40.876  25.733  1.00  0.00     0.316 C 
ATOM      6  O   UNL A   1      40.559  40.967  26.110  1.00  0.00    -0.251 OA
BRANCH   5   7
ATOM      7  C   UNL A   1      42.308  41.776  24.660  1.00  0.00     0.200 C 
BRANCH   7   8
ATOM      8  S   UNL A   1      44.071  42.014  24.728  1.00  0.00    -0.076 SA
BRANCH   8   9
ATOM      9  C   UNL A   1      44.442  42.867  23.281  1.00  0.00     0.174 A 
ATOM     10  N   UNL A   1      43.704  42.690  22.211  1.00  0.00    -0.221 NA
ATOM     11  N   UNL A   1      45.372  43.880  23.120  1.00  0.00    -0.287 N 
ATOM     12  C   UNL A   1      44.152  43.612  21.314  1.00  0.00     0.098 A 
ATOM     13  C   UNL A   1      45.169  44.386  21.844  1.00  0.00     0.082 A 
BRANCH  11  14
ATOM     14  C   UNL A   1      46.324  44.387  24.034  1.00  0.00     0.048 A 
ATOM     15  C   UNL A   1      47.676  44.075  23.895  1.00  0.00     0.027 A 
ATOM     16  C   UNL A   1      45.870  45.072  25.165  1.00  0.00     0.027 A 
ATOM     17  C   UNL A   1      48.576  44.515  24.871  1.00  0.00     0.002 A 
ATOM     18  C   UNL A   1      46.776  45.553  26.106  1.00  0.00     0.002 A 
ATOM     19  C   UNL A   1      48.131  45.272  25.960  1.00  0.00     0.000 A 
ENDBRANCH  11  14
BRANCH  12  20
ATOM     20  C   UNL A   1      43.551  43.788  20.013  1.00  0.00     0.002 A 
ATOM     21  C   UNL A   1      42.160  43.870  19.898  1.00  0.00     0.010 A 
ATOM     22  C   UNL A   1      44.352  43.922  18.875  1.00  0.00     0.010 A 
ATOM     23  C   UNL A   1      41.579  44.143  18.660  1.00  0.00     0.001 A 
ATOM     24  C   UNL A   1      43.770  44.189  17.638  1.00  0.00     0.001 A 
ATOM     25  C   UNL A   1      42.385  44.314  17.535  1.00  0.00     0.000 A 
ENDBRANCH  12  20
BRANCH  13  26
ATOM     26  C   UNL A   1      45.862  45.551  21.313  1.00  0.00     0.001 A 
ATOM     27  C   UNL A   1      47.159  45.422  20.808  1.00  0.00     0.010 A 
ATOM     28  C   UNL A   1      45.227  46.796  21.286  1.00  0.00     0.010 A 
ATOM     29  C   UNL A   1      47.807  46.528  20.259  1.00  0.00     0.001 A 
ATOM     30  C   UNL A   1      45.867  47.896  20.723  1.00  0.00     0.001 A 
ATOM     31  C   UNL A   1      47.155  47.760  20.210  1.00  0.00     0.000 A 
ENDBRANCH  13  26
ENDBRANCH   8   9
ENDBRANCH   7   8
ENDBRANCH   5   7
ENDBRANCH   4   5
ENDBRANCH   3   4
ENDBRANCH   2   3
ENDBRANCH   1   2
BRANCH   1  32
ATOM     32  C   UNL A   1      42.906  40.885  29.817  1.00  0.00     0.202 C 
BRANCH  32  33
ATOM     33  C   UNL A   1      42.946  40.743  31.322  1.00  0.00     0.261 C 
BRANCH  33  34
ATOM     34  O   UNL A   1      42.967  39.375  31.671  1.00  0.00    -0.460 OA
BRANCH  34  35
ATOM     35  C   UNL A   1      44.101  38.985  32.275  1.00  0.00     0.338 C 
ATOM     36  O   UNL A   1      45.194  39.557  32.254  1.00  0.00    -0.246 OA
BRANCH  35  37
ATOM     37  C   UNL A   1      43.880  37.658  32.819  1.00  0.00     0.060 A 
ATOM     38  C   UNL A   1      44.206  36.602  31.972  1.00  0.00     0.016 A 
ATOM     39  C   UNL A   1      43.031  37.514  33.929  1.00  0.00     0.016 A 
ATOM     40  C   UNL A   1      43.467  35.455  32.086  1.00  0.00     0.010 A 
ATOM     41  C   UNL A   1      42.271  36.383  34.017  1.00  0.00     0.010 A 
ATOM     42  C   UNL A   1      42.448  35.405  33.046  1.00  0.00    -0.014 A 
BRANCH  42  43
ATOM     43  C   UNL A   1      41.709  34.175  33.168  1.00  0.00     0.031 A 
ATOM     44  C   UNL A   1      40.551  34.193  32.257  1.00  0.00     0.074 A 
ATOM     45  C   UNL A   1      42.081  33.148  33.947  1.00  0.00     0.049 A 
ATOM     46  N   UNL A   1      39.340  34.504  32.574  1.00  0.00    -0.248 NA
ATOM     47  C   UNL A   1      40.810  34.190  30.807  1.00  0.00     0.031 C 
ATOM     48  C   UNL A   1      43.331  32.950  34.677  1.00  0.00     0.029 A 
ATOM     49  N   UNL A   1      41.402  31.997  34.184  1.00  0.00    -0.354 N 
ATOM     50  C   UNL A   1      38.631  34.428  31.387  1.00  0.00     0.074 A 
ATOM     51  C   UNL A   1      39.610  34.542  30.345  1.00  0.00     0.031 C 
ATOM     52  C   UNL A   1      43.403  31.661  35.090  1.00  0.00     0.029 A 
ATOM     53  C   UNL A   1      42.154  30.985  34.767  1.00  0.00     0.049 A 
ATOM     54  H   UNL A   1      40.450  31.888  33.959  1.00  0.00     0.167 HD
ATOM     55  C   UNL A   1      37.366  33.929  31.386  1.00  0.00     0.034 A 
ATOM     56  C   UNL A   1      41.778  29.682  34.904  1.00  0.00     0.034 A 
ATOM     57  C   UNL A   1      36.821  33.943  32.734  1.00  0.00     0.049 A 
ATOM     58  C   UNL A   1      40.290  29.663  34.833  1.00  0.00     0.074 A 
ATOM     59  C   UNL A   1      36.623  34.935  33.678  1.00  0.00     0.029 A 
ATOM     60  N   UNL A   1      36.795  32.754  33.435  1.00  0.00    -0.354 N 
ATOM     61  N   UNL A   1      39.529  30.211  35.742  1.00  0.00    -0.248 NA
ATOM     62  C   UNL A   1      39.668  29.512  33.523  1.00  0.00     0.031 C 
ATOM     63  C   UNL A   1      36.974  34.338  34.925  1.00  0.00     0.029 A 
ATOM     64  C   UNL A   1      37.265  32.989  34.705  1.00  0.00     0.049 A 
ATOM     65  H   UNL A   1      36.494  31.884  33.085  1.00  0.00     0.167 HD
ATOM     66  C   UNL A   1      38.531  30.867  35.033  1.00  0.00     0.074 A 
ATOM     67  C   UNL A   1      38.616  30.322  33.677  1.00  0.00     0.031 C 
ATOM     68  C   UNL A   1      37.934  31.993  35.527  1.00  0.00     0.034 A 
BRANCH  55  69
ATOM     69  C   UNL A   1      36.825  33.026  30.296  1.00  0.00     0.023 A 
ATOM     70  C   UNL A   1      37.403  31.749  30.213  1.00  0.00     0.031 A 
ATOM     71  C   UNL A   1      36.030  33.404  29.187  1.00  0.00     0.131 A 
ATOM     72  C   UNL A   1      37.332  30.999  29.030  1.00  0.00     0.055 A 
ATOM     73  C   UNL A   1      35.911  32.625  28.034  1.00  0.00     0.041 A 
ATOM     74  F   UNL A   1      35.374  34.565  29.106  1.00  0.00    -0.206 F 
ATOM     75  C   UNL A   1      36.598  31.432  27.932  1.00  0.00     0.022 A 
BRANCH  72  76
ATOM     76  S   UNL A   1      38.383  29.536  28.901  1.00  0.00     0.124 S 
ATOM     77  O   UNL A   1      39.219  29.889  27.759  1.00  0.00    -0.237 OA
ATOM     78  O   UNL A   1      39.039  29.524  30.204  1.00  0.00    -0.237 OA
ATOM     79  O   UNL A   1      37.428  28.455  28.671  1.00  0.00    -0.744 OA
ENDBRANCH  72  76
ENDBRANCH  55  69
BRANCH  56  80
ATOM     80  C   UNL A   1      42.624  28.463  34.742  1.00  0.00     0.023 A 
ATOM     81  C   UNL A   1      42.513  27.330  35.583  1.00  0.00     0.031 A 
ATOM     82  C   UNL A   1      43.400  28.300  33.571  1.00  0.00     0.131 A 
ATOM     83  C   UNL A   1      43.153  26.113  35.236  1.00  0.00     0.055 A 
ATOM     84  C   UNL A   1      44.026  27.098  33.234  1.00  0.00     0.041 A 
ATOM     85  F   UNL A   1      43.504  29.281  32.662  1.00  0.00    -0.206 F 
ATOM     86  C   UNL A   1      43.896  25.995  34.059  1.00  0.00     0.022 A 
BRANCH  83  87
ATOM     87  S   UNL A   1      42.959  24.622  36.270  1.00  0.00     0.124 S 
ATOM     88  O   UNL A   1      43.062  23.548  35.290  1.00  0.00    -0.237 OA
ATOM     89  O   UNL A   1      44.060  24.748  37.217  1.00  0.00    -0.237 OA
ATOM     90  O   UNL A   1      41.627  24.786  36.859  1.00  0.00    -0.744 OA
ENDBRANCH  83  87
ENDBRANCH  56  80
BRANCH  68  91
ATOM     91  C   UNL A   1      38.119  32.330  36.996  1.00  0.00     0.023 A 
ATOM     92  C   UNL A   1      37.380  31.778  38.069  1.00  0.00     0.031 A 
ATOM     93  C   UNL A   1      39.190  33.184  37.318  1.00  0.00     0.131 A 
ATOM     94  C   UNL A   1      37.726  32.096  39.400  1.00  0.00     0.055 A 
ATOM     95  C   UNL A   1      39.544  33.475  38.634  1.00  0.00     0.041 A 
ATOM     96  F   UNL A   1      39.943  33.727  36.346  1.00  0.00    -0.206 F 
ATOM     97  C   UNL A   1      38.809  32.936  39.680  1.00  0.00     0.022 A 
BRANCH  94  98
ATOM     98  S   UNL A   1      36.759  31.447  40.804  1.00  0.00     0.124 S 
ATOM     99  O   UNL A   1      35.462  31.139  40.215  1.00  0.00    -0.237 OA
ATOM    100  O   UNL A   1      37.556  30.300  41.232  1.00  0.00    -0.237 OA
ATOM    101  O   UNL A   1      36.747  32.563  41.753  1.00  0.00    -0.744 OA
ENDBRANCH  94  98
ENDBRANCH  68  91
ENDBRANCH  42  43
ENDBRANCH  35  37
ENDBRANCH  34  35
ENDBRANCH  33  34
ENDBRANCH  32  33
ENDBRANCH   1  32
TORSDOF 22
ENDMDL
