MODEL 1
REMARK VINA RESULT:     -12.2      0.000      0.000
REMARK SMILES CCc1ccc(-c2cc(Cl)cc3c2O[C@@H](C(F)(F)F)C(C(=O)OCCOCCOC(=O)c2ccc(-c4c5nc(c(-c6cc(S(=O)(=O)[O-])ccc6F)c6ccc([nH]6)c(-c6cc(S(=O)(=O)[O-])ccc6F)c6nc(c(-c7cc(S(=O)(=O)[O-])ccc7F)c7ccc4[nH]7)C=C6)C=C5)cc2)=C3)cc1
REMARK SMILES IDX 27 1 26 2 25 3 24 4 23 5 21 6 22 7 20 8 7 9 8 10 13 11 9 12
REMARK SMILES IDX 12 13 14 14 10 15 11 16 95 17 15 18 6 19 3 20 4 21 97 22
REMARK SMILES IDX 5 23 96 24 2 25 1 26 16 27 17 28 18 29 19 30 28 31 29 32
REMARK SMILES IDX 30 33 31 34 32 35 33 36 94 37 34 38 93 39 35 40 36 41 37 42
REMARK SMILES IDX 87 43 38 44 92 45 86 46 88 47 39 48 91 49 85 50 84 51 40 53
REMARK SMILES IDX 72 54 52 55 71 56 53 57 56 58 70 59 89 60 54 61 55 62 69 64
REMARK SMILES IDX 90 65 57 66 41 67 42 68 50 69 43 70 49 71 51 72 48 73 44 74
REMARK SMILES IDX 45 75 46 76 47 77 73 78 74 79 82 80 75 81 81 82 83 83 80 84
REMARK SMILES IDX 76 85 77 86 78 87 79 88 58 89 59 90 67 91 60 92 66 93 68 94
REMARK SMILES IDX 65 95 61 96 62 97 63 98 64 99
REMARK H PARENT 88 52 56 63
REMARK Flexibility Score: inf
ROOT
ATOM      1  C   UNL A   1      31.335  31.385  26.499  1.00  0.00     0.202 C 
ENDROOT
BRANCH   1   2
ATOM      2  O   UNL A   1      32.471  30.564  26.234  1.00  0.00    -0.374 OA
BRANCH   2   3
ATOM      3  C   UNL A   1      32.632  29.375  26.998  1.00  0.00     0.202 C 
BRANCH   3   4
ATOM      4  C   UNL A   1      33.882  28.513  26.758  1.00  0.00     0.261 C 
BRANCH   4   5
ATOM      5  O   UNL A   1      33.621  27.354  25.950  1.00  0.00    -0.460 OA
BRANCH   5   6
ATOM      6  C   UNL A   1      33.541  27.565  24.623  1.00  0.00     0.338 C 
ATOM      7  O   UNL A   1      34.152  28.425  24.003  1.00  0.00    -0.246 OA
BRANCH   6   8
ATOM      8  C   UNL A   1      32.761  26.513  23.926  1.00  0.00     0.087 C 
ATOM      9  C   UNL A   1      33.343  22.631  25.293  1.00  0.00     0.026 A 
ATOM     10  C   UNL A   1      34.640  22.628  25.859  1.00  0.00     0.033 A 
ATOM     11  C   UNL A   1      32.969  23.834  24.655  1.00  0.00     0.135 A 
ATOM     12  C   UNL A   1      35.582  23.600  25.525  1.00  0.00     0.042 A 
ATOM     13  C   UNL A   1      33.976  24.651  24.109  1.00  0.00     0.019 A 
ATOM     14  O   UNL A   1      31.723  24.427  24.920  1.00  0.00    -0.475 OA
ATOM     15  Cl  UNL A   1      37.154  23.536  26.212  1.00  0.00    -0.084 Cl
ATOM     16  C   UNL A   1      35.283  24.553  24.567  1.00  0.00     0.032 A 
ATOM     17  C   UNL A   1      33.586  25.745  23.196  1.00  0.00     0.027 C 
ATOM     18  C   UNL A   1      31.504  25.811  24.393  1.00  0.00     0.316 C 
BRANCH   9  19
ATOM     19  C   UNL A   1      32.848  21.251  24.923  1.00  0.00    -0.015 A 
ATOM     20  C   UNL A   1      32.783  18.580  23.812  1.00  0.00    -0.048 A 
ATOM     21  C   UNL A   1      33.205  18.820  25.127  1.00  0.00     0.004 A 
ATOM     22  C   UNL A   1      32.310  19.677  23.087  1.00  0.00     0.004 A 
ATOM     23  C   UNL A   1      33.222  20.119  25.673  1.00  0.00     0.009 A 
ATOM     24  C   UNL A   1      32.341  20.985  23.632  1.00  0.00     0.009 A 
BRANCH  20  25
ATOM     25  C   UNL A   1      32.871  17.159  23.285  1.00  0.00     0.032 C 
ATOM     26  C   UNL A   1      34.184  16.397  23.437  1.00  0.00     0.009 C 
ENDBRANCH  20  25
ENDBRANCH   9  19
BRANCH  18  27
ATOM     27  C   UNL A   1      30.498  26.706  25.154  1.00  0.00     0.430 C 
ATOM     28  F   UNL A   1      30.601  27.982  24.687  1.00  0.00    -0.167 F 
ATOM     29  F   UNL A   1      29.219  26.324  24.933  1.00  0.00    -0.167 F 
ATOM     30  F   UNL A   1      30.674  26.765  26.486  1.00  0.00    -0.167 F 
ENDBRANCH  18  27
ENDBRANCH   6   8
ENDBRANCH   5   6
ENDBRANCH   4   5
ENDBRANCH   3   4
ENDBRANCH   2   3
ENDBRANCH   1   2
BRANCH   1  31
ATOM     31  C   UNL A   1      31.548  32.848  26.897  1.00  0.00     0.261 C 
BRANCH  31  32
ATOM     32  O   UNL A   1      32.911  33.287  26.801  1.00  0.00    -0.460 OA
BRANCH  32  33
ATOM     33  C   UNL A   1      33.442  33.713  27.974  1.00  0.00     0.338 C 
ATOM     34  O   UNL A   1      32.928  34.483  28.777  1.00  0.00    -0.246 OA
BRANCH  33  35
ATOM     35  C   UNL A   1      34.687  32.987  28.267  1.00  0.00     0.060 A 
ATOM     36  C   UNL A   1      34.579  31.656  28.687  1.00  0.00     0.016 A 
ATOM     37  C   UNL A   1      35.924  33.633  28.249  1.00  0.00     0.016 A 
ATOM     38  C   UNL A   1      35.707  30.977  29.138  1.00  0.00     0.010 A 
ATOM     39  C   UNL A   1      37.055  32.950  28.709  1.00  0.00     0.010 A 
ATOM     40  C   UNL A   1      36.945  31.633  29.191  1.00  0.00    -0.014 A 
BRANCH  40  41
ATOM     41  C   UNL A   1      38.078  30.977  29.890  1.00  0.00     0.031 A 
ATOM     42  C   UNL A   1      38.354  31.334  31.326  1.00  0.00     0.074 A 
ATOM     43  C   UNL A   1      38.813  30.039  29.265  1.00  0.00     0.049 A 
ATOM     44  N   UNL A   1      39.286  30.890  32.127  1.00  0.00    -0.248 NA
ATOM     45  C   UNL A   1      37.459  32.329  31.940  1.00  0.00     0.031 C 
ATOM     46  C   UNL A   1      38.606  29.589  27.889  1.00  0.00     0.029 A 
ATOM     47  N   UNL A   1      39.880  29.296  29.704  1.00  0.00    -0.354 N 
ATOM     48  C   UNL A   1      39.102  31.558  33.334  1.00  0.00     0.074 A 
ATOM     49  C   UNL A   1      37.986  32.459  33.149  1.00  0.00     0.031 C 
ATOM     50  C   UNL A   1      39.523  28.652  27.594  1.00  0.00     0.029 A 
ATOM     51  C   UNL A   1      40.407  28.465  28.743  1.00  0.00     0.049 A 
ATOM     52  H   UNL A   1      40.235  29.354  30.621  1.00  0.00     0.167 HD
ATOM     53  C   UNL A   1      39.798  31.423  34.489  1.00  0.00     0.034 A 
ATOM     54  C   UNL A   1      41.494  27.668  28.779  1.00  0.00     0.034 A 
ATOM     55  C   UNL A   1      40.906  30.513  34.653  1.00  0.00     0.049 A 
ATOM     56  C   UNL A   1      42.291  27.584  30.060  1.00  0.00     0.074 A 
ATOM     57  C   UNL A   1      41.655  30.266  35.789  1.00  0.00     0.029 A 
ATOM     58  N   UNL A   1      41.437  29.715  33.647  1.00  0.00    -0.354 N 
ATOM     59  N   UNL A   1      42.083  28.195  31.205  1.00  0.00    -0.248 NA
ATOM     60  C   UNL A   1      43.458  26.694  30.059  1.00  0.00     0.031 C 
ATOM     61  C   UNL A   1      42.689  29.388  35.451  1.00  0.00     0.029 A 
ATOM     62  C   UNL A   1      42.530  29.010  34.126  1.00  0.00     0.049 A 
ATOM     63  H   UNL A   1      41.087  29.656  32.728  1.00  0.00     0.167 HD
ATOM     64  C   UNL A   1      43.078  27.737  32.067  1.00  0.00     0.074 A 
ATOM     65  C   UNL A   1      43.869  26.785  31.315  1.00  0.00     0.031 C 
ATOM     66  C   UNL A   1      43.316  28.070  33.361  1.00  0.00     0.034 A 
BRANCH  53  67
ATOM     67  C   UNL A   1      39.424  32.319  35.646  1.00  0.00     0.023 A 
ATOM     68  C   UNL A   1      39.996  33.590  35.826  1.00  0.00     0.031 A 
ATOM     69  C   UNL A   1      38.472  31.887  36.587  1.00  0.00     0.131 A 
ATOM     70  C   UNL A   1      39.648  34.362  36.947  1.00  0.00     0.055 A 
ATOM     71  C   UNL A   1      38.074  32.690  37.657  1.00  0.00     0.041 A 
ATOM     72  F   UNL A   1      37.911  30.672  36.482  1.00  0.00    -0.206 F 
ATOM     73  C   UNL A   1      38.672  33.931  37.849  1.00  0.00     0.022 A 
BRANCH  70  74
ATOM     74  S   UNL A   1      40.577  35.885  37.279  1.00  0.00     0.124 S 
ATOM     75  O   UNL A   1      39.525  36.770  37.773  1.00  0.00    -0.237 OA
ATOM     76  O   UNL A   1      41.559  35.448  38.263  1.00  0.00    -0.237 OA
ATOM     77  O   UNL A   1      41.122  36.245  35.971  1.00  0.00    -0.744 OA
ENDBRANCH  70  74
ENDBRANCH  53  67
BRANCH  54  78
ATOM     78  C   UNL A   1      41.932  26.927  27.560  1.00  0.00     0.023 A 
ATOM     79  C   UNL A   1      41.710  25.547  27.420  1.00  0.00     0.031 A 
ATOM     80  C   UNL A   1      42.649  27.582  26.541  1.00  0.00     0.131 A 
ATOM     81  C   UNL A   1      42.250  24.859  26.321  1.00  0.00     0.055 A 
ATOM     82  C   UNL A   1      43.127  26.904  25.417  1.00  0.00     0.041 A 
ATOM     83  F   UNL A   1      42.897  28.898  26.622  1.00  0.00    -0.206 F 
ATOM     84  C   UNL A   1      42.943  25.530  25.312  1.00  0.00     0.022 A 
BRANCH  81  85
ATOM     85  S   UNL A   1      42.133  23.048  26.288  1.00  0.00     0.124 S 
ATOM     86  O   UNL A   1      42.693  22.739  24.976  1.00  0.00    -0.237 OA
ATOM     87  O   UNL A   1      42.948  22.671  27.437  1.00  0.00    -0.237 OA
ATOM     88  O   UNL A   1      40.701  22.797  26.430  1.00  0.00    -0.744 OA
ENDBRANCH  81  85
ENDBRANCH  54  78
BRANCH  66  89
ATOM     89  C   UNL A   1      44.455  27.361  34.056  1.00  0.00     0.023 A 
ATOM     90  C   UNL A   1      44.289  26.102  34.659  1.00  0.00     0.031 A 
ATOM     91  C   UNL A   1      45.726  27.961  34.123  1.00  0.00     0.131 A 
ATOM     92  C   UNL A   1      45.356  25.513  35.354  1.00  0.00     0.055 A 
ATOM     93  C   UNL A   1      46.803  27.338  34.754  1.00  0.00     0.041 A 
ATOM     94  F   UNL A   1      45.944  29.165  33.568  1.00  0.00    -0.206 F 
ATOM     95  C   UNL A   1      46.617  26.113  35.388  1.00  0.00     0.022 A 
BRANCH  92  96
ATOM     96  S   UNL A   1      45.047  24.000  36.305  1.00  0.00     0.124 S 
ATOM     97  O   UNL A   1      44.921  24.517  37.663  1.00  0.00    -0.237 OA
ATOM     98  O   UNL A   1      43.819  23.495  35.699  1.00  0.00    -0.237 OA
ATOM     99  O   UNL A   1      46.238  23.189  36.057  1.00  0.00    -0.744 OA
ENDBRANCH  92  96
ENDBRANCH  66  89
ENDBRANCH  40  41
ENDBRANCH  33  35
ENDBRANCH  32  33
ENDBRANCH  31  32
ENDBRANCH   1  31
TORSDOF 20
ENDMDL
MODEL 2
REMARK VINA RESULT:     -11.8      1.659      2.026
REMARK SMILES CCc1ccc(-c2cc(Cl)cc3c2O[C@@H](C(F)(F)F)C(C(=O)OCCOCCOC(=O)c2ccc(-c4c5nc(c(-c6cc(S(=O)(=O)[O-])ccc6F)c6ccc([nH]6)c(-c6cc(S(=O)(=O)[O-])ccc6F)c6nc(c(-c7cc(S(=O)(=O)[O-])ccc7F)c7ccc4[nH]7)C=C6)C=C5)cc2)=C3)cc1
REMARK SMILES IDX 27 1 26 2 25 3 24 4 23 5 21 6 22 7 20 8 7 9 8 10 13 11 9 12
REMARK SMILES IDX 12 13 14 14 10 15 11 16 95 17 15 18 6 19 3 20 4 21 97 22
REMARK SMILES IDX 5 23 96 24 2 25 1 26 16 27 17 28 18 29 19 30 28 31 29 32
REMARK SMILES IDX 30 33 31 34 32 35 33 36 94 37 34 38 93 39 35 40 36 41 37 42
REMARK SMILES IDX 87 43 38 44 92 45 86 46 88 47 39 48 91 49 85 50 84 51 40 53
REMARK SMILES IDX 72 54 52 55 71 56 53 57 56 58 70 59 89 60 54 61 55 62 69 64
REMARK SMILES IDX 90 65 57 66 41 67 42 68 50 69 43 70 49 71 51 72 48 73 44 74
REMARK SMILES IDX 45 75 46 76 47 77 73 78 74 79 82 80 75 81 81 82 83 83 80 84
REMARK SMILES IDX 76 85 77 86 78 87 79 88 58 89 59 90 67 91 60 92 66 93 68 94
REMARK SMILES IDX 65 95 61 96 62 97 63 98 64 99
REMARK H PARENT 88 52 56 63
REMARK Flexibility Score: inf
ROOT
ATOM      1  C   UNL A   1      31.028  30.942  25.490  1.00  0.00     0.202 C 
ENDROOT
BRANCH   1   2
ATOM      2  O   UNL A   1      31.436  29.587  25.311  1.00  0.00    -0.374 OA
BRANCH   2   3
ATOM      3  C   UNL A   1      31.210  28.981  24.045  1.00  0.00     0.202 C 
BRANCH   3   4
ATOM      4  C   UNL A   1      32.283  28.035  23.482  1.00  0.00     0.261 C 
BRANCH   4   5
ATOM      5  O   UNL A   1      33.398  27.856  24.370  1.00  0.00    -0.460 OA
BRANCH   5   6
ATOM      6  C   UNL A   1      33.487  26.657  24.973  1.00  0.00     0.338 C 
ATOM      7  O   UNL A   1      33.829  26.470  26.134  1.00  0.00    -0.246 OA
BRANCH   6   8
ATOM      8  C   UNL A   1      32.943  25.558  24.137  1.00  0.00     0.087 C 
ATOM      9  C   UNL A   1      34.306  21.743  25.065  1.00  0.00     0.026 A 
ATOM     10  C   UNL A   1      35.573  21.938  25.665  1.00  0.00     0.033 A 
ATOM     11  C   UNL A   1      33.695  22.912  24.559  1.00  0.00     0.135 A 
ATOM     12  C   UNL A   1      36.296  23.114  25.473  1.00  0.00     0.042 A 
ATOM     13  C   UNL A   1      34.515  23.975  24.140  1.00  0.00     0.019 A 
ATOM     14  O   UNL A   1      32.352  23.202  24.854  1.00  0.00    -0.475 OA
ATOM     15  Cl  UNL A   1      37.844  23.291  26.193  1.00  0.00    -0.084 Cl
ATOM     16  C   UNL A   1      35.812  24.093  24.622  1.00  0.00     0.032 A 
ATOM     17  C   UNL A   1      33.913  25.067  23.348  1.00  0.00     0.027 C 
ATOM     18  C   UNL A   1      31.856  24.565  24.483  1.00  0.00     0.316 C 
BRANCH   9  19
ATOM     19  C   UNL A   1      34.108  20.345  24.524  1.00  0.00    -0.015 A 
ATOM     20  C   UNL A   1      33.531  17.511  24.425  1.00  0.00    -0.048 A 
ATOM     21  C   UNL A   1      32.537  18.473  24.200  1.00  0.00     0.004 A 
ATOM     22  C   UNL A   1      34.835  17.979  24.613  1.00  0.00     0.004 A 
ATOM     23  C   UNL A   1      32.821  19.853  24.232  1.00  0.00     0.009 A 
ATOM     24  C   UNL A   1      35.117  19.367  24.660  1.00  0.00     0.009 A 
BRANCH  20  25
ATOM     25  C   UNL A   1      33.118  16.051  24.446  1.00  0.00     0.032 C 
ATOM     26  C   UNL A   1      32.507  15.477  25.720  1.00  0.00     0.009 C 
ENDBRANCH  20  25
ENDBRANCH   9  19
BRANCH  18  27
ATOM     27  C   UNL A   1      30.683  25.139  25.312  1.00  0.00     0.430 C 
ATOM     28  F   UNL A   1      29.634  25.388  24.480  1.00  0.00    -0.167 F 
ATOM     29  F   UNL A   1      30.236  24.252  26.231  1.00  0.00    -0.167 F 
ATOM     30  F   UNL A   1      30.946  26.288  25.961  1.00  0.00    -0.167 F 
ENDBRANCH  18  27
ENDBRANCH   6   8
ENDBRANCH   5   6
ENDBRANCH   4   5
ENDBRANCH   3   4
ENDBRANCH   2   3
ENDBRANCH   1   2
BRANCH   1  31
ATOM     31  C   UNL A   1      31.578  31.737  26.678  1.00  0.00     0.261 C 
BRANCH  31  32
ATOM     32  O   UNL A   1      32.841  31.259  27.165  1.00  0.00    -0.460 OA
BRANCH  32  33
ATOM     33  C   UNL A   1      33.675  32.236  27.598  1.00  0.00     0.338 C 
ATOM     34  O   UNL A   1      33.380  33.400  27.844  1.00  0.00    -0.246 OA
BRANCH  33  35
ATOM     35  C   UNL A   1      35.000  31.679  27.911  1.00  0.00     0.060 A 
ATOM     36  C   UNL A   1      35.089  30.299  28.128  1.00  0.00     0.016 A 
ATOM     37  C   UNL A   1      36.106  32.507  28.108  1.00  0.00     0.016 A 
ATOM     38  C   UNL A   1      36.279  29.745  28.591  1.00  0.00     0.010 A 
ATOM     39  C   UNL A   1      37.299  31.948  28.579  1.00  0.00     0.010 A 
ATOM     40  C   UNL A   1      37.379  30.571  28.860  1.00  0.00    -0.014 A 
BRANCH  40  41
ATOM     41  C   UNL A   1      38.550  30.002  29.570  1.00  0.00     0.031 A 
ATOM     42  C   UNL A   1      38.844  30.459  30.974  1.00  0.00     0.074 A 
ATOM     43  C   UNL A   1      39.306  29.053  28.988  1.00  0.00     0.049 A 
ATOM     44  N   UNL A   1      39.810  30.101  31.779  1.00  0.00    -0.248 NA
ATOM     45  C   UNL A   1      37.927  31.458  31.546  1.00  0.00     0.031 C 
ATOM     46  C   UNL A   1      39.086  28.510  27.648  1.00  0.00     0.029 A 
ATOM     47  N   UNL A   1      40.410  28.378  29.446  1.00  0.00    -0.354 N 
ATOM     48  C   UNL A   1      39.627  30.836  32.945  1.00  0.00     0.074 A 
ATOM     49  C   UNL A   1      38.475  31.683  32.731  1.00  0.00     0.031 C 
ATOM     50  C   UNL A   1      40.031  27.589  27.390  1.00  0.00     0.029 A 
ATOM     51  C   UNL A   1      40.946  27.508  28.526  1.00  0.00     0.049 A 
ATOM     52  H   UNL A   1      40.782  28.507  30.348  1.00  0.00     0.167 HD
ATOM     53  C   UNL A   1      40.354  30.800  34.089  1.00  0.00     0.034 A 
ATOM     54  C   UNL A   1      42.063  26.754  28.586  1.00  0.00     0.034 A 
ATOM     55  C   UNL A   1      41.498  29.943  34.282  1.00  0.00     0.049 A 
ATOM     56  C   UNL A   1      42.890  26.780  29.850  1.00  0.00     0.074 A 
ATOM     57  C   UNL A   1      42.280  29.795  35.414  1.00  0.00     0.029 A 
ATOM     58  N   UNL A   1      42.036  29.102  33.316  1.00  0.00    -0.354 N 
ATOM     59  N   UNL A   1      42.685  27.454  30.959  1.00  0.00    -0.248 NA
ATOM     60  C   UNL A   1      44.089  25.934  29.876  1.00  0.00     0.031 C 
ATOM     61  C   UNL A   1      43.338  28.935  35.106  1.00  0.00     0.029 A 
ATOM     62  C   UNL A   1      43.165  28.469  33.812  1.00  0.00     0.049 A 
ATOM     63  H   UNL A   1      41.668  28.973  32.412  1.00  0.00     0.167 HD
ATOM     64  C   UNL A   1      43.715  27.088  31.823  1.00  0.00     0.074 A 
ATOM     65  C   UNL A   1      44.524  26.119  31.114  1.00  0.00     0.031 C 
ATOM     66  C   UNL A   1      43.969  27.511  33.088  1.00  0.00     0.034 A 
BRANCH  53  67
ATOM     67  C   UNL A   1      39.972  31.754  35.197  1.00  0.00     0.023 A 
ATOM     68  C   UNL A   1      39.112  31.382  36.244  1.00  0.00     0.031 A 
ATOM     69  C   UNL A   1      40.485  33.063  35.202  1.00  0.00     0.131 A 
ATOM     70  C   UNL A   1      38.751  32.324  37.222  1.00  0.00     0.055 A 
ATOM     71  C   UNL A   1      40.183  33.972  36.217  1.00  0.00     0.041 A 
ATOM     72  F   UNL A   1      41.292  33.484  34.214  1.00  0.00    -0.206 F 
ATOM     73  C   UNL A   1      39.302  33.607  37.229  1.00  0.00     0.022 A 
BRANCH  70  74
ATOM     74  S   UNL A   1      37.456  31.888  38.416  1.00  0.00     0.124 S 
ATOM     75  O   UNL A   1      38.148  32.087  39.687  1.00  0.00    -0.237 OA
ATOM     76  O   UNL A   1      36.403  32.846  38.104  1.00  0.00    -0.237 OA
ATOM     77  O   UNL A   1      37.148  30.496  38.094  1.00  0.00    -0.744 OA
ENDBRANCH  70  74
ENDBRANCH  53  67
BRANCH  54  78
ATOM     78  C   UNL A   1      42.501  25.953  27.405  1.00  0.00     0.023 A 
ATOM     79  C   UNL A   1      42.151  24.600  27.265  1.00  0.00     0.031 A 
ATOM     80  C   UNL A   1      43.344  26.516  26.429  1.00  0.00     0.131 A 
ATOM     81  C   UNL A   1      42.688  23.844  26.210  1.00  0.00     0.055 A 
ATOM     82  C   UNL A   1      43.823  25.776  25.346  1.00  0.00     0.041 A 
ATOM     83  F   UNL A   1      43.718  27.803  26.514  1.00  0.00    -0.206 F 
ATOM     84  C   UNL A   1      43.508  24.426  25.242  1.00  0.00     0.022 A 
BRANCH  81  85
ATOM     85  S   UNL A   1      42.393  22.053  26.187  1.00  0.00     0.124 S 
ATOM     86  O   UNL A   1      42.673  21.689  27.572  1.00  0.00    -0.237 OA
ATOM     87  O   UNL A   1      40.996  21.983  25.775  1.00  0.00    -0.237 OA
ATOM     88  O   UNL A   1      43.358  21.562  25.206  1.00  0.00    -0.744 OA
ENDBRANCH  81  85
ENDBRANCH  54  78
BRANCH  66  89
ATOM     89  C   UNL A   1      45.148  26.889  33.799  1.00  0.00     0.023 A 
ATOM     90  C   UNL A   1      45.042  25.665  34.483  1.00  0.00     0.031 A 
ATOM     91  C   UNL A   1      46.397  27.537  33.797  1.00  0.00     0.131 A 
ATOM     92  C   UNL A   1      46.145  25.160  35.187  1.00  0.00     0.055 A 
ATOM     93  C   UNL A   1      47.510  26.995  34.440  1.00  0.00     0.041 A 
ATOM     94  F   UNL A   1      46.557  28.711  33.163  1.00  0.00    -0.206 F 
ATOM     95  C   UNL A   1      47.384  25.806  35.153  1.00  0.00     0.022 A 
BRANCH  92  96
ATOM     96  S   UNL A   1      45.914  23.700  36.239  1.00  0.00     0.124 S 
ATOM     97  O   UNL A   1      46.033  24.269  37.576  1.00  0.00    -0.237 OA
ATOM     98  O   UNL A   1      44.581  23.247  35.854  1.00  0.00    -0.237 OA
ATOM     99  O   UNL A   1      47.007  22.814  35.841  1.00  0.00    -0.744 OA
ENDBRANCH  92  96
ENDBRANCH  66  89
ENDBRANCH  40  41
ENDBRANCH  33  35
ENDBRANCH  32  33
ENDBRANCH  31  32
ENDBRANCH   1  31
TORSDOF 20
ENDMDL
MODEL 3
REMARK VINA RESULT:     -11.8      4.905      8.344
REMARK SMILES CCc1ccc(-c2cc(Cl)cc3c2O[C@@H](C(F)(F)F)C(C(=O)OCCOCCOC(=O)c2ccc(-c4c5nc(c(-c6cc(S(=O)(=O)[O-])ccc6F)c6ccc([nH]6)c(-c6cc(S(=O)(=O)[O-])ccc6F)c6nc(c(-c7cc(S(=O)(=O)[O-])ccc7F)c7ccc4[nH]7)C=C6)C=C5)cc2)=C3)cc1
REMARK SMILES IDX 27 1 26 2 25 3 24 4 23 5 21 6 22 7 20 8 7 9 8 10 13 11 9 12
REMARK SMILES IDX 12 13 14 14 10 15 11 16 95 17 15 18 6 19 3 20 4 21 97 22
REMARK SMILES IDX 5 23 96 24 2 25 1 26 16 27 17 28 18 29 19 30 28 31 29 32
REMARK SMILES IDX 30 33 31 34 32 35 33 36 94 37 34 38 93 39 35 40 36 41 37 42
REMARK SMILES IDX 87 43 38 44 92 45 86 46 88 47 39 48 91 49 85 50 84 51 40 53
REMARK SMILES IDX 72 54 52 55 71 56 53 57 56 58 70 59 89 60 54 61 55 62 69 64
REMARK SMILES IDX 90 65 57 66 41 67 42 68 50 69 43 70 49 71 51 72 48 73 44 74
REMARK SMILES IDX 45 75 46 76 47 77 73 78 74 79 82 80 75 81 81 82 83 83 80 84
REMARK SMILES IDX 76 85 77 86 78 87 79 88 58 89 59 90 67 91 60 92 66 93 68 94
REMARK SMILES IDX 65 95 61 96 62 97 63 98 64 99
REMARK H PARENT 88 52 56 63
REMARK Flexibility Score: inf
ROOT
ATOM      1  C   UNL A   1      35.494  20.875  24.669  1.00  0.00     0.202 C 
ENDROOT
BRANCH   1   2
ATOM      2  O   UNL A   1      34.777  19.653  24.834  1.00  0.00    -0.374 OA
BRANCH   2   3
ATOM      3  C   UNL A   1      33.575  19.677  25.594  1.00  0.00     0.202 C 
BRANCH   3   4
ATOM      4  C   UNL A   1      32.486  20.692  25.210  1.00  0.00     0.261 C 
BRANCH   4   5
ATOM      5  O   UNL A   1      32.431  21.822  26.095  1.00  0.00    -0.460 OA
BRANCH   5   6
ATOM      6  C   UNL A   1      32.667  23.023  25.534  1.00  0.00     0.338 C 
ATOM      7  O   UNL A   1      33.648  23.724  25.744  1.00  0.00    -0.246 OA
BRANCH   6   8
ATOM      8  C   UNL A   1      31.691  23.354  24.467  1.00  0.00     0.087 C 
ATOM      9  C   UNL A   1      30.988  27.404  23.859  1.00  0.00     0.026 A 
ATOM     10  C   UNL A   1      31.280  28.022  25.099  1.00  0.00     0.033 A 
ATOM     11  C   UNL A   1      31.049  25.993  23.861  1.00  0.00     0.135 A 
ATOM     12  C   UNL A   1      31.296  27.294  26.288  1.00  0.00     0.042 A 
ATOM     13  C   UNL A   1      30.797  25.309  25.064  1.00  0.00     0.019 A 
ATOM     14  O   UNL A   1      31.748  25.306  22.855  1.00  0.00    -0.475 OA
ATOM     15  Cl  UNL A   1      31.622  28.093  27.772  1.00  0.00    -0.084 Cl
ATOM     16  C   UNL A   1      30.949  25.954  26.284  1.00  0.00     0.032 A 
ATOM     17  C   UNL A   1      30.570  23.850  25.016  1.00  0.00     0.027 C 
ATOM     18  C   UNL A   1      31.966  23.839  23.060  1.00  0.00     0.316 C 
BRANCH   9  19
ATOM     19  C   UNL A   1      30.101  28.243  22.968  1.00  0.00    -0.015 A 
ATOM     20  C   UNL A   1      28.461  30.436  22.031  1.00  0.00    -0.048 A 
ATOM     21  C   UNL A   1      29.834  30.375  21.758  1.00  0.00     0.004 A 
ATOM     22  C   UNL A   1      27.898  29.345  22.701  1.00  0.00     0.004 A 
ATOM     23  C   UNL A   1      30.630  29.299  22.200  1.00  0.00     0.009 A 
ATOM     24  C   UNL A   1      28.702  28.271  23.158  1.00  0.00     0.009 A 
BRANCH  20  25
ATOM     25  C   UNL A   1      27.699  31.668  21.580  1.00  0.00     0.032 C 
ATOM     26  C   UNL A   1      27.838  32.132  20.133  1.00  0.00     0.009 C 
ENDBRANCH  20  25
ENDBRANCH   9  19
BRANCH  18  27
ATOM     27  C   UNL A   1      33.200  23.206  22.378  1.00  0.00     0.430 C 
ATOM     28  F   UNL A   1      33.142  21.853  22.528  1.00  0.00    -0.167 F 
ATOM     29  F   UNL A   1      33.213  23.439  21.046  1.00  0.00    -0.167 F 
ATOM     30  F   UNL A   1      34.391  23.599  22.864  1.00  0.00    -0.167 F 
ENDBRANCH  18  27
ENDBRANCH   6   8
ENDBRANCH   5   6
ENDBRANCH   4   5
ENDBRANCH   3   4
ENDBRANCH   2   3
ENDBRANCH   1   2
BRANCH   1  31
ATOM     31  C   UNL A   1      36.527  21.283  25.723  1.00  0.00     0.261 C 
BRANCH  31  32
ATOM     32  O   UNL A   1      37.735  21.830  25.174  1.00  0.00    -0.460 OA
BRANCH  32  33
ATOM     33  C   UNL A   1      38.856  21.502  25.862  1.00  0.00     0.338 C 
ATOM     34  O   UNL A   1      39.461  20.437  25.819  1.00  0.00    -0.246 OA
BRANCH  33  35
ATOM     35  C   UNL A   1      39.383  22.675  26.574  1.00  0.00     0.060 A 
ATOM     36  C   UNL A   1      38.870  23.930  26.227  1.00  0.00     0.016 A 
ATOM     37  C   UNL A   1      40.443  22.562  27.475  1.00  0.00     0.016 A 
ATOM     38  C   UNL A   1      39.449  25.085  26.745  1.00  0.00     0.010 A 
ATOM     39  C   UNL A   1      41.027  23.724  27.990  1.00  0.00     0.010 A 
ATOM     40  C   UNL A   1      40.558  24.991  27.597  1.00  0.00    -0.014 A 
BRANCH  40  41
ATOM     41  C   UNL A   1      41.303  26.225  27.948  1.00  0.00     0.031 A 
ATOM     42  C   UNL A   1      40.592  27.317  28.701  1.00  0.00     0.074 A 
ATOM     43  C   UNL A   1      42.609  26.342  27.644  1.00  0.00     0.049 A 
ATOM     44  N   UNL A   1      41.044  28.475  29.107  1.00  0.00    -0.248 NA
ATOM     45  C   UNL A   1      39.181  27.072  29.039  1.00  0.00     0.031 C 
ATOM     46  C   UNL A   1      43.405  25.329  26.952  1.00  0.00     0.029 A 
ATOM     47  N   UNL A   1      43.496  27.363  27.877  1.00  0.00    -0.354 N 
ATOM     48  C   UNL A   1      39.972  29.102  29.736  1.00  0.00     0.074 A 
ATOM     49  C   UNL A   1      38.841  28.208  29.629  1.00  0.00     0.031 C 
ATOM     50  C   UNL A   1      44.662  25.783  26.810  1.00  0.00     0.029 A 
ATOM     51  C   UNL A   1      44.751  27.132  27.362  1.00  0.00     0.049 A 
ATOM     52  H   UNL A   1      43.256  28.183  28.366  1.00  0.00     0.167 HD
ATOM     53  C   UNL A   1      39.943  30.311  30.348  1.00  0.00     0.034 A 
ATOM     54  C   UNL A   1      45.837  27.932  27.317  1.00  0.00     0.034 A 
ATOM     55  C   UNL A   1      41.086  31.186  30.446  1.00  0.00     0.049 A 
ATOM     56  C   UNL A   1      45.758  29.300  27.953  1.00  0.00     0.074 A 
ATOM     57  C   UNL A   1      41.179  32.412  31.080  1.00  0.00     0.029 A 
ATOM     58  N   UNL A   1      42.331  30.937  29.880  1.00  0.00    -0.354 N 
ATOM     59  N   UNL A   1      44.747  29.866  28.575  1.00  0.00    -0.248 NA
ATOM     60  C   UNL A   1      46.966  30.131  27.893  1.00  0.00     0.031 C 
ATOM     61  C   UNL A   1      42.446  32.943  30.824  1.00  0.00     0.029 A 
ATOM     62  C   UNL A   1      43.181  32.007  30.112  1.00  0.00     0.049 A 
ATOM     63  H   UNL A   1      42.574  30.120  29.388  1.00  0.00     0.167 HD
ATOM     64  C   UNL A   1      45.213  31.107  29.006  1.00  0.00     0.074 A 
ATOM     65  C   UNL A   1      46.598  31.195  28.591  1.00  0.00     0.031 C 
ATOM     66  C   UNL A   1      44.558  32.085  29.683  1.00  0.00     0.034 A 
BRANCH  53  67
ATOM     67  C   UNL A   1      38.622  30.786  30.906  1.00  0.00     0.023 A 
ATOM     68  C   UNL A   1      37.703  31.520  30.138  1.00  0.00     0.031 A 
ATOM     69  C   UNL A   1      38.279  30.493  32.238  1.00  0.00     0.131 A 
ATOM     70  C   UNL A   1      36.510  31.979  30.722  1.00  0.00     0.055 A 
ATOM     71  C   UNL A   1      37.059  30.887  32.791  1.00  0.00     0.041 A 
ATOM     72  F   UNL A   1      39.127  29.817  33.029  1.00  0.00    -0.206 F 
ATOM     73  C   UNL A   1      36.171  31.644  32.035  1.00  0.00     0.022 A 
BRANCH  70  74
ATOM     74  S   UNL A   1      35.463  33.123  29.780  1.00  0.00     0.124 S 
ATOM     75  O   UNL A   1      35.003  34.032  30.827  1.00  0.00    -0.237 OA
ATOM     76  O   UNL A   1      36.398  33.684  28.813  1.00  0.00    -0.237 OA
ATOM     77  O   UNL A   1      34.429  32.257  29.218  1.00  0.00    -0.744 OA
ENDBRANCH  70  74
ENDBRANCH  53  67
BRANCH  54  78
ATOM     78  C   UNL A   1      47.073  27.493  26.606  1.00  0.00     0.023 A 
ATOM     79  C   UNL A   1      47.279  27.778  25.247  1.00  0.00     0.031 A 
ATOM     80  C   UNL A   1      48.040  26.711  27.266  1.00  0.00     0.131 A 
ATOM     81  C   UNL A   1      48.391  27.239  24.579  1.00  0.00     0.055 A 
ATOM     82  C   UNL A   1      49.177  26.232  26.612  1.00  0.00     0.041 A 
ATOM     83  F   UNL A   1      47.894  26.401  28.564  1.00  0.00    -0.206 F 
ATOM     84  C   UNL A   1      49.348  26.481  25.255  1.00  0.00     0.022 A 
BRANCH  81  85
ATOM     85  S   UNL A   1      48.506  27.445  22.779  1.00  0.00     0.124 S 
ATOM     86  O   UNL A   1      48.413  26.064  22.317  1.00  0.00    -0.237 OA
ATOM     87  O   UNL A   1      47.355  28.294  22.498  1.00  0.00    -0.237 OA
ATOM     88  O   UNL A   1      49.810  28.078  22.593  1.00  0.00    -0.744 OA
ENDBRANCH  81  85
ENDBRANCH  54  78
BRANCH  66  89
ATOM     89  C   UNL A   1      45.352  33.315  30.056  1.00  0.00     0.023 A 
ATOM     90  C   UNL A   1      45.606  34.344  29.133  1.00  0.00     0.031 A 
ATOM     91  C   UNL A   1      45.869  33.454  31.358  1.00  0.00     0.131 A 
ATOM     92  C   UNL A   1      46.407  35.434  29.504  1.00  0.00     0.055 A 
ATOM     93  C   UNL A   1      46.606  34.575  31.742  1.00  0.00     0.041 A 
ATOM     94  F   UNL A   1      45.662  32.502  32.282  1.00  0.00    -0.206 F 
ATOM     95  C   UNL A   1      46.891  35.567  30.808  1.00  0.00     0.022 A 
BRANCH  92  96
ATOM     96  S   UNL A   1      46.898  36.628  28.229  1.00  0.00     0.124 S 
ATOM     97  O   UNL A   1      48.048  37.277  28.851  1.00  0.00    -0.237 OA
ATOM     98  O   UNL A   1      47.192  35.765  27.089  1.00  0.00    -0.237 OA
ATOM     99  O   UNL A   1      45.715  37.474  28.077  1.00  0.00    -0.744 OA
ENDBRANCH  92  96
ENDBRANCH  66  89
ENDBRANCH  40  41
ENDBRANCH  33  35
ENDBRANCH  32  33
ENDBRANCH  31  32
ENDBRANCH   1  31
TORSDOF 20
ENDMDL
