MODEL 1
REMARK VINA RESULT:     -11.4      0.000      0.000
REMARK SMILES Cc1n[nH]c(C[N@H+]2CCC[C@H](c3cccc(C(=O)OCCOCCOC(=O)c4ccc(-c5c6nc(c(-c7cc(S(=O)(=O)[O-])ccc7F)c7ccc([nH]7)c(-c7cc(S(=O)(=O)[O-])ccc7F)c7nc(c(-c8cc(S(=O)(=O)[O-])ccc8F)c8ccc5[nH]8)C=C7)C=C6)cc4)c3)C2)n1
REMARK SMILES IDX 22 1 21 2 20 3 19 4 17 5 18 6 16 7 12 8 13 9 91 10 14 11
REMARK SMILES IDX 15 12 11 13 7 14 8 15 92 16 9 18 10 19 6 20 5 21 1 22 2 23
REMARK SMILES IDX 3 24 93 25 4 26 23 28 24 29 25 30 26 31 27 32 28 33 29 34
REMARK SMILES IDX 90 35 30 36 89 37 31 38 32 39 33 40 83 41 34 42 88 43 82 44
REMARK SMILES IDX 84 45 35 46 87 47 81 48 80 49 36 51 68 52 48 53 67 54 49 55
REMARK SMILES IDX 52 56 66 57 85 58 50 59 51 60 65 62 86 63 53 64 37 65 38 66
REMARK SMILES IDX 46 67 39 68 45 69 47 70 44 71 40 72 41 73 42 74 43 75 69 76
REMARK SMILES IDX 70 77 78 78 71 79 77 80 79 81 76 82 72 83 73 84 74 85 75 86
REMARK SMILES IDX 54 87 55 88 63 89 56 90 62 91 64 92 61 93 57 94 58 95 59 96
REMARK SMILES IDX 60 97
REMARK H PARENT 7 17 4 27 84 50 52 61
REMARK Flexibility Score: inf
ROOT
ATOM      1  O   UNL A   1      41.017  19.955  27.447  1.00  0.00    -0.374 OA
ENDROOT
BRANCH   1   2
ATOM      2  C   UNL A   1      40.640  21.332  27.437  1.00  0.00     0.202 C 
BRANCH   2   3
ATOM      3  C   UNL A   1      40.113  21.938  26.136  1.00  0.00     0.261 C 
BRANCH   3   4
ATOM      4  O   UNL A   1      38.680  21.947  26.088  1.00  0.00    -0.460 OA
BRANCH   4   5
ATOM      5  C   UNL A   1      38.136  21.020  25.261  1.00  0.00     0.338 C 
ATOM      6  O   UNL A   1      38.506  19.869  25.100  1.00  0.00    -0.246 OA
BRANCH   5   7
ATOM      7  C   UNL A   1      36.873  21.542  24.704  1.00  0.00     0.060 A 
ATOM      8  C   UNL A   1      34.445  21.631  24.632  1.00  0.00    -0.038 A 
ATOM      9  C   UNL A   1      34.555  22.632  23.648  1.00  0.00     0.004 A 
ATOM     10  C   UNL A   1      35.631  21.039  25.099  1.00  0.00     0.020 A 
ATOM     11  C   UNL A   1      35.796  23.097  23.214  1.00  0.00     0.001 A 
ATOM     12  C   UNL A   1      36.957  22.575  23.765  1.00  0.00     0.016 A 
BRANCH   8  13
ATOM     13  C   UNL A   1      33.096  21.206  25.220  1.00  0.00     0.074 C 
ATOM     14  N   UNL A   1      32.131  23.491  25.600  1.00  0.00    -0.328 N 
ATOM     15  C   UNL A   1      32.234  23.355  27.056  1.00  0.00     0.262 C 
ATOM     16  C   UNL A   1      31.921  22.180  24.944  1.00  0.00     0.270 C 
ATOM     17  H   UNL A   1      33.031  23.853  25.283  1.00  0.00     0.348 HD
ATOM     18  C   UNL A   1      33.328  22.364  27.461  1.00  0.00     0.062 C 
ATOM     19  C   UNL A   1      33.149  21.018  26.755  1.00  0.00     0.020 C 
BRANCH  14  20
ATOM     20  C   UNL A   1      31.136  24.492  25.176  1.00  0.00     0.340 C 
BRANCH  20  21
ATOM     21  C   UNL A   1      31.720  25.791  24.739  1.00  0.00     0.179 A 
ATOM     22  C   UNL A   1      32.505  29.211  24.971  1.00  0.00     0.092 C 
ATOM     23  C   UNL A   1      32.376  27.788  24.607  1.00  0.00     0.147 A 
ATOM     24  N   UNL A   1      33.210  27.152  23.775  1.00  0.00    -0.159 NA
ATOM     25  N   UNL A   1      31.416  26.996  25.171  1.00  0.00    -0.211 NA
ATOM     26  N   UNL A   1      32.760  25.889  23.862  1.00  0.00    -0.258 N 
ATOM     27  H   UNL A   1      33.134  25.130  23.358  1.00  0.00     0.192 HD
ENDBRANCH  20  21
ENDBRANCH  14  20
ENDBRANCH   8  13
ENDBRANCH   5   7
ENDBRANCH   4   5
ENDBRANCH   3   4
ENDBRANCH   2   3
ENDBRANCH   1   2
BRANCH   1  28
ATOM     28  C   UNL A   1      42.366  19.576  27.183  1.00  0.00     0.202 C 
BRANCH  28  29
ATOM     29  C   UNL A   1      42.800  19.298  25.751  1.00  0.00     0.261 C 
BRANCH  29  30
ATOM     30  O   UNL A   1      43.137  20.489  25.067  1.00  0.00    -0.460 OA
BRANCH  30  31
ATOM     31  C   UNL A   1      44.447  20.561  24.725  1.00  0.00     0.338 C 
ATOM     32  O   UNL A   1      45.187  19.641  24.449  1.00  0.00    -0.246 OA
BRANCH  31  33
ATOM     33  C   UNL A   1      44.875  21.959  24.857  1.00  0.00     0.060 A 
ATOM     34  C   UNL A   1      45.916  22.165  25.764  1.00  0.00     0.016 A 
ATOM     35  C   UNL A   1      43.972  22.966  24.499  1.00  0.00     0.016 A 
ATOM     36  C   UNL A   1      45.833  23.266  26.580  1.00  0.00     0.010 A 
ATOM     37  C   UNL A   1      43.862  24.035  25.343  1.00  0.00     0.010 A 
ATOM     38  C   UNL A   1      44.728  24.106  26.435  1.00  0.00    -0.014 A 
BRANCH  38  39
ATOM     39  C   UNL A   1      44.540  25.173  27.387  1.00  0.00     0.031 A 
ATOM     40  C   UNL A   1      45.708  26.075  27.391  1.00  0.00     0.074 A 
ATOM     41  C   UNL A   1      43.373  25.373  28.026  1.00  0.00     0.049 A 
ATOM     42  N   UNL A   1      46.698  26.071  28.222  1.00  0.00    -0.248 NA
ATOM     43  C   UNL A   1      45.974  26.827  26.148  1.00  0.00     0.031 C 
ATOM     44  C   UNL A   1      42.097  24.677  27.849  1.00  0.00     0.029 A 
ATOM     45  N   UNL A   1      43.061  26.344  28.919  1.00  0.00    -0.354 N 
ATOM     46  C   UNL A   1      47.551  27.053  27.738  1.00  0.00     0.074 A 
ATOM     47  C   UNL A   1      47.248  27.161  26.343  1.00  0.00     0.031 C 
ATOM     48  C   UNL A   1      41.110  25.403  28.430  1.00  0.00     0.029 A 
ATOM     49  C   UNL A   1      41.696  26.548  29.109  1.00  0.00     0.049 A 
ATOM     50  H   UNL A   1      43.746  26.864  29.397  1.00  0.00     0.167 HD
ATOM     51  C   UNL A   1      48.106  27.969  28.578  1.00  0.00     0.034 A 
ATOM     52  C   UNL A   1      41.132  27.647  29.688  1.00  0.00     0.034 A 
ATOM     53  C   UNL A   1      48.031  27.500  29.952  1.00  0.00     0.049 A 
ATOM     54  C   UNL A   1      42.212  28.298  30.487  1.00  0.00     0.074 A 
ATOM     55  C   UNL A   1      48.454  26.353  30.602  1.00  0.00     0.029 A 
ATOM     56  N   UNL A   1      47.078  28.058  30.782  1.00  0.00    -0.354 N 
ATOM     57  N   UNL A   1      42.767  27.731  31.527  1.00  0.00    -0.248 NA
ATOM     58  C   UNL A   1      43.041  29.295  29.817  1.00  0.00     0.031 C 
ATOM     59  C   UNL A   1      47.399  26.027  31.506  1.00  0.00     0.029 A 
ATOM     60  C   UNL A   1      46.438  27.038  31.443  1.00  0.00     0.049 A 
ATOM     61  H   UNL A   1      46.891  29.019  30.883  1.00  0.00     0.167 HD
ATOM     62  C   UNL A   1      44.128  27.974  31.395  1.00  0.00     0.074 A 
ATOM     63  C   UNL A   1      44.229  29.001  30.357  1.00  0.00     0.031 C 
ATOM     64  C   UNL A   1      45.059  27.108  31.900  1.00  0.00     0.034 A 
BRANCH  51  65
ATOM     65  C   UNL A   1      48.260  29.444  28.227  1.00  0.00     0.023 A 
ATOM     66  C   UNL A   1      47.063  30.148  28.021  1.00  0.00     0.031 A 
ATOM     67  C   UNL A   1      49.433  30.120  27.804  1.00  0.00     0.131 A 
ATOM     68  C   UNL A   1      47.039  31.331  27.267  1.00  0.00     0.055 A 
ATOM     69  C   UNL A   1      49.408  31.325  27.097  1.00  0.00     0.041 A 
ATOM     70  F   UNL A   1      50.672  29.660  27.994  1.00  0.00    -0.206 F 
ATOM     71  C   UNL A   1      48.203  31.916  26.783  1.00  0.00     0.022 A 
BRANCH  68  72
ATOM     72  S   UNL A   1      45.427  31.970  26.767  1.00  0.00     0.124 S 
ATOM     73  O   UNL A   1      44.987  32.618  27.999  1.00  0.00    -0.237 OA
ATOM     74  O   UNL A   1      45.790  32.855  25.666  1.00  0.00    -0.237 OA
ATOM     75  O   UNL A   1      44.691  30.767  26.389  1.00  0.00    -0.744 OA
ENDBRANCH  68  72
ENDBRANCH  51  65
BRANCH  52  76
ATOM     76  C   UNL A   1      39.883  28.352  29.253  1.00  0.00     0.023 A 
ATOM     77  C   UNL A   1      38.956  28.931  30.152  1.00  0.00     0.031 A 
ATOM     78  C   UNL A   1      39.704  28.669  27.885  1.00  0.00     0.131 A 
ATOM     79  C   UNL A   1      37.913  29.766  29.670  1.00  0.00     0.055 A 
ATOM     80  C   UNL A   1      38.676  29.491  27.418  1.00  0.00     0.041 A 
ATOM     81  F   UNL A   1      40.578  28.258  26.954  1.00  0.00    -0.206 F 
ATOM     82  C   UNL A   1      37.779  30.051  28.310  1.00  0.00     0.022 A 
BRANCH  79  83
ATOM     83  S   UNL A   1      36.739  30.570  30.817  1.00  0.00     0.124 S 
ATOM     84  O   UNL A   1      36.277  29.447  31.626  1.00  0.00    -0.237 OA
ATOM     85  O   UNL A   1      37.577  31.555  31.490  1.00  0.00    -0.237 OA
ATOM     86  O   UNL A   1      35.724  31.139  29.927  1.00  0.00    -0.744 OA
ENDBRANCH  79  83
ENDBRANCH  52  76
BRANCH  64  87
ATOM     87  C   UNL A   1      44.605  26.023  32.859  1.00  0.00     0.023 A 
ATOM     88  C   UNL A   1      44.253  26.220  34.215  1.00  0.00     0.031 A 
ATOM     89  C   UNL A   1      44.394  24.744  32.312  1.00  0.00     0.131 A 
ATOM     90  C   UNL A   1      43.714  25.151  34.965  1.00  0.00     0.055 A 
ATOM     91  C   UNL A   1      43.841  23.700  33.048  1.00  0.00     0.041 A 
ATOM     92  F   UNL A   1      44.684  24.500  31.022  1.00  0.00    -0.206 F 
ATOM     93  C   UNL A   1      43.503  23.898  34.380  1.00  0.00     0.022 A 
BRANCH  90  94
ATOM     94  S   UNL A   1      43.289  25.362  36.726  1.00  0.00     0.124 S 
ATOM     95  O   UNL A   1      43.436  26.796  36.943  1.00  0.00    -0.237 OA
ATOM     96  O   UNL A   1      41.927  24.841  36.785  1.00  0.00    -0.237 OA
ATOM     97  O   UNL A   1      44.283  24.537  37.417  1.00  0.00    -0.744 OA
ENDBRANCH  90  94
ENDBRANCH  64  87
ENDBRANCH  38  39
ENDBRANCH  31  33
ENDBRANCH  30  31
ENDBRANCH  29  30
ENDBRANCH  28  29
ENDBRANCH   1  28
TORSDOF 20
ENDMDL
MODEL 2
REMARK VINA RESULT:     -11.2      2.793      8.107
REMARK SMILES Cc1n[nH]c(C[N@H+]2CCC[C@H](c3cccc(C(=O)OCCOCCOC(=O)c4ccc(-c5c6nc(c(-c7cc(S(=O)(=O)[O-])ccc7F)c7ccc([nH]7)c(-c7cc(S(=O)(=O)[O-])ccc7F)c7nc(c(-c8cc(S(=O)(=O)[O-])ccc8F)c8ccc5[nH]8)C=C7)C=C6)cc4)c3)C2)n1
REMARK SMILES IDX 22 1 21 2 20 3 19 4 17 5 18 6 16 7 12 8 13 9 91 10 14 11
REMARK SMILES IDX 15 12 11 13 7 14 8 15 92 16 9 18 10 19 6 20 5 21 1 22 2 23
REMARK SMILES IDX 3 24 93 25 4 26 23 28 24 29 25 30 26 31 27 32 28 33 29 34
REMARK SMILES IDX 90 35 30 36 89 37 31 38 32 39 33 40 83 41 34 42 88 43 82 44
REMARK SMILES IDX 84 45 35 46 87 47 81 48 80 49 36 51 68 52 48 53 67 54 49 55
REMARK SMILES IDX 52 56 66 57 85 58 50 59 51 60 65 62 86 63 53 64 37 65 38 66
REMARK SMILES IDX 46 67 39 68 45 69 47 70 44 71 40 72 41 73 42 74 43 75 69 76
REMARK SMILES IDX 70 77 78 78 71 79 77 80 79 81 76 82 72 83 73 84 74 85 75 86
REMARK SMILES IDX 54 87 55 88 63 89 56 90 62 91 64 92 61 93 57 94 58 95 59 96
REMARK SMILES IDX 60 97
REMARK H PARENT 7 17 4 27 84 50 52 61
REMARK Flexibility Score: inf
ROOT
ATOM      1  O   UNL A   1      33.232  30.845  27.625  1.00  0.00    -0.374 OA
ENDROOT
BRANCH   1   2
ATOM      2  C   UNL A   1      32.436  29.946  26.853  1.00  0.00     0.202 C 
BRANCH   2   3
ATOM      3  C   UNL A   1      32.791  29.732  25.381  1.00  0.00     0.261 C 
BRANCH   3   4
ATOM      4  O   UNL A   1      32.917  28.342  25.054  1.00  0.00    -0.460 OA
BRANCH   4   5
ATOM      5  C   UNL A   1      32.375  27.990  23.862  1.00  0.00     0.338 C 
ATOM      6  O   UNL A   1      32.390  28.634  22.827  1.00  0.00    -0.246 OA
BRANCH   5   7
ATOM      7  C   UNL A   1      31.916  26.588  23.927  1.00  0.00     0.060 A 
ATOM      8  C   UNL A   1      32.069  24.257  23.258  1.00  0.00    -0.038 A 
ATOM      9  C   UNL A   1      31.035  23.973  24.170  1.00  0.00     0.004 A 
ATOM     10  C   UNL A   1      32.449  25.600  23.096  1.00  0.00     0.020 A 
ATOM     11  C   UNL A   1      30.465  24.969  24.963  1.00  0.00     0.001 A 
ATOM     12  C   UNL A   1      30.928  26.273  24.865  1.00  0.00     0.016 A 
BRANCH   8  13
ATOM     13  C   UNL A   1      32.801  23.158  22.481  1.00  0.00     0.074 C 
ATOM     14  N   UNL A   1      32.693  21.353  24.222  1.00  0.00    -0.328 N 
ATOM     15  C   UNL A   1      34.135  21.430  24.473  1.00  0.00     0.262 C 
ATOM     16  C   UNL A   1      32.364  21.709  22.822  1.00  0.00     0.270 C 
ATOM     17  H   UNL A   1      32.260  22.052  24.826  1.00  0.00     0.348 HD
ATOM     18  C   UNL A   1      34.705  22.805  24.114  1.00  0.00     0.062 C 
ATOM     19  C   UNL A   1      34.334  23.205  22.685  1.00  0.00     0.020 C 
BRANCH  14  20
ATOM     20  C   UNL A   1      32.098  20.066  24.624  1.00  0.00     0.340 C 
BRANCH  20  21
ATOM     21  C   UNL A   1      32.901  18.872  24.240  1.00  0.00     0.179 A 
ATOM     22  C   UNL A   1      34.826  15.977  24.770  1.00  0.00     0.092 C 
ATOM     23  C   UNL A   1      34.032  17.095  24.228  1.00  0.00     0.147 A 
ATOM     24  N   UNL A   1      33.479  17.096  23.009  1.00  0.00    -0.159 NA
ATOM     25  N   UNL A   1      33.745  18.194  24.987  1.00  0.00    -0.211 NA
ATOM     26  N   UNL A   1      32.781  18.244  23.035  1.00  0.00    -0.258 N 
ATOM     27  H   UNL A   1      32.250  18.588  22.280  1.00  0.00     0.192 HD
ENDBRANCH  20  21
ENDBRANCH  14  20
ENDBRANCH   8  13
ENDBRANCH   5   7
ENDBRANCH   4   5
ENDBRANCH   3   4
ENDBRANCH   2   3
ENDBRANCH   1   2
BRANCH   1  28
ATOM     28  C   UNL A   1      34.654  30.793  27.551  1.00  0.00     0.202 C 
BRANCH  28  29
ATOM     29  C   UNL A   1      35.486  31.679  28.469  1.00  0.00     0.261 C 
BRANCH  29  30
ATOM     30  O   UNL A   1      36.817  31.213  28.578  1.00  0.00    -0.460 OA
BRANCH  30  31
ATOM     31  C   UNL A   1      36.970  30.234  29.504  1.00  0.00     0.338 C 
ATOM     32  O   UNL A   1      36.611  30.254  30.662  1.00  0.00    -0.246 OA
BRANCH  31  33
ATOM     33  C   UNL A   1      37.765  29.158  28.899  1.00  0.00     0.060 A 
ATOM     34  C   UNL A   1      38.221  28.194  29.801  1.00  0.00     0.016 A 
ATOM     35  C   UNL A   1      38.393  29.406  27.673  1.00  0.00     0.016 A 
ATOM     36  C   UNL A   1      39.504  27.737  29.639  1.00  0.00     0.010 A 
ATOM     37  C   UNL A   1      39.687  28.987  27.540  1.00  0.00     0.010 A 
ATOM     38  C   UNL A   1      40.254  28.251  28.581  1.00  0.00    -0.014 A 
BRANCH  38  39
ATOM     39  C   UNL A   1      41.651  27.905  28.490  1.00  0.00     0.031 A 
ATOM     40  C   UNL A   1      41.821  26.606  27.811  1.00  0.00     0.074 A 
ATOM     41  C   UNL A   1      42.631  28.762  28.832  1.00  0.00     0.049 A 
ATOM     42  N   UNL A   1      42.001  25.452  28.363  1.00  0.00    -0.248 NA
ATOM     43  C   UNL A   1      41.403  26.534  26.396  1.00  0.00     0.031 C 
ATOM     44  C   UNL A   1      42.523  30.162  29.247  1.00  0.00     0.029 A 
ATOM     45  N   UNL A   1      43.971  28.572  28.774  1.00  0.00    -0.354 N 
ATOM     46  C   UNL A   1      42.017  24.564  27.295  1.00  0.00     0.074 A 
ATOM     47  C   UNL A   1      41.284  25.216  26.253  1.00  0.00     0.031 C 
ATOM     48  C   UNL A   1      43.745  30.745  29.166  1.00  0.00     0.029 A 
ATOM     49  C   UNL A   1      44.731  29.738  28.805  1.00  0.00     0.049 A 
ATOM     50  H   UNL A   1      44.377  27.676  28.714  1.00  0.00     0.167 HD
ATOM     51  C   UNL A   1      42.969  23.595  27.210  1.00  0.00     0.034 A 
ATOM     52  C   UNL A   1      46.043  29.841  28.444  1.00  0.00     0.034 A 
ATOM     53  C   UNL A   1      43.590  23.386  28.509  1.00  0.00     0.049 A 
ATOM     54  C   UNL A   1      46.600  28.457  28.501  1.00  0.00     0.074 A 
ATOM     55  C   UNL A   1      43.105  23.077  29.768  1.00  0.00     0.029 A 
ATOM     56  N   UNL A   1      44.852  23.905  28.722  1.00  0.00    -0.354 N 
ATOM     57  N   UNL A   1      46.706  27.780  29.616  1.00  0.00    -0.248 NA
ATOM     58  C   UNL A   1      46.514  27.643  27.295  1.00  0.00     0.031 C 
ATOM     59  C   UNL A   1      43.870  23.879  30.667  1.00  0.00     0.029 A 
ATOM     60  C   UNL A   1      44.848  24.554  29.932  1.00  0.00     0.049 A 
ATOM     61  H   UNL A   1      45.620  23.825  28.111  1.00  0.00     0.167 HD
ATOM     62  C   UNL A   1      46.280  26.495  29.306  1.00  0.00     0.074 A 
ATOM     63  C   UNL A   1      46.239  26.453  27.843  1.00  0.00     0.031 C 
ATOM     64  C   UNL A   1      45.700  25.689  30.247  1.00  0.00     0.034 A 
BRANCH  51  65
ATOM     65  C   UNL A   1      43.655  23.204  25.906  1.00  0.00     0.023 A 
ATOM     66  C   UNL A   1      43.531  21.856  25.535  1.00  0.00     0.031 A 
ATOM     67  C   UNL A   1      44.626  23.939  25.179  1.00  0.00     0.131 A 
ATOM     68  C   UNL A   1      44.450  21.259  24.659  1.00  0.00     0.055 A 
ATOM     69  C   UNL A   1      45.506  23.349  24.268  1.00  0.00     0.041 A 
ATOM     70  F   UNL A   1      44.831  25.251  25.318  1.00  0.00    -0.206 F 
ATOM     71  C   UNL A   1      45.453  21.992  24.036  1.00  0.00     0.022 A 
BRANCH  68  72
ATOM     72  S   UNL A   1      44.418  19.459  24.515  1.00  0.00     0.124 S 
ATOM     73  O   UNL A   1      43.076  19.161  25.004  1.00  0.00    -0.237 OA
ATOM     74  O   UNL A   1      44.641  19.275  23.086  1.00  0.00    -0.237 OA
ATOM     75  O   UNL A   1      45.514  19.034  25.381  1.00  0.00    -0.744 OA
ENDBRANCH  68  72
ENDBRANCH  51  65
BRANCH  52  76
ATOM     76  C   UNL A   1      46.680  30.960  27.676  1.00  0.00     0.023 A 
ATOM     77  C   UNL A   1      45.949  32.012  27.074  1.00  0.00     0.031 A 
ATOM     78  C   UNL A   1      48.084  31.125  27.724  1.00  0.00     0.131 A 
ATOM     79  C   UNL A   1      46.623  33.147  26.550  1.00  0.00     0.055 A 
ATOM     80  C   UNL A   1      48.741  32.244  27.207  1.00  0.00     0.041 A 
ATOM     81  F   UNL A   1      48.870  30.240  28.356  1.00  0.00    -0.206 F 
ATOM     82  C   UNL A   1      48.013  33.265  26.624  1.00  0.00     0.022 A 
BRANCH  79  83
ATOM     83  S   UNL A   1      45.698  34.544  25.821  1.00  0.00     0.124 S 
ATOM     84  O   UNL A   1      44.986  33.905  24.721  1.00  0.00    -0.237 OA
ATOM     85  O   UNL A   1      44.886  35.006  26.941  1.00  0.00    -0.237 OA
ATOM     86  O   UNL A   1      46.751  35.475  25.408  1.00  0.00    -0.744 OA
ENDBRANCH  79  83
ENDBRANCH  52  76
BRANCH  64  87
ATOM     87  C   UNL A   1      45.780  26.095  31.707  1.00  0.00     0.023 A 
ATOM     88  C   UNL A   1      44.709  26.609  32.477  1.00  0.00     0.031 A 
ATOM     89  C   UNL A   1      46.984  25.811  32.377  1.00  0.00     0.131 A 
ATOM     90  C   UNL A   1      44.877  26.820  33.863  1.00  0.00     0.055 A 
ATOM     91  C   UNL A   1      47.137  25.999  33.748  1.00  0.00     0.041 A 
ATOM     92  F   UNL A   1      48.029  25.297  31.707  1.00  0.00    -0.206 F 
ATOM     93  C   UNL A   1      46.084  26.508  34.497  1.00  0.00     0.022 A 
BRANCH  90  94
ATOM     94  S   UNL A   1      43.530  27.519  34.875  1.00  0.00     0.124 S 
ATOM     95  O   UNL A   1      42.335  26.877  34.341  1.00  0.00    -0.237 OA
ATOM     96  O   UNL A   1      43.916  27.130  36.227  1.00  0.00    -0.237 OA
ATOM     97  O   UNL A   1      43.618  28.958  34.610  1.00  0.00    -0.744 OA
ENDBRANCH  90  94
ENDBRANCH  64  87
ENDBRANCH  38  39
ENDBRANCH  31  33
ENDBRANCH  30  31
ENDBRANCH  29  30
ENDBRANCH  28  29
ENDBRANCH   1  28
TORSDOF 20
ENDMDL
MODEL 3
REMARK VINA RESULT:     -11.2      1.753      2.010
REMARK SMILES Cc1n[nH]c(C[N@H+]2CCC[C@H](c3cccc(C(=O)OCCOCCOC(=O)c4ccc(-c5c6nc(c(-c7cc(S(=O)(=O)[O-])ccc7F)c7ccc([nH]7)c(-c7cc(S(=O)(=O)[O-])ccc7F)c7nc(c(-c8cc(S(=O)(=O)[O-])ccc8F)c8ccc5[nH]8)C=C7)C=C6)cc4)c3)C2)n1
REMARK SMILES IDX 22 1 21 2 20 3 19 4 17 5 18 6 16 7 12 8 13 9 91 10 14 11
REMARK SMILES IDX 15 12 11 13 7 14 8 15 92 16 9 18 10 19 6 20 5 21 1 22 2 23
REMARK SMILES IDX 3 24 93 25 4 26 23 28 24 29 25 30 26 31 27 32 28 33 29 34
REMARK SMILES IDX 90 35 30 36 89 37 31 38 32 39 33 40 83 41 34 42 88 43 82 44
REMARK SMILES IDX 84 45 35 46 87 47 81 48 80 49 36 51 68 52 48 53 67 54 49 55
REMARK SMILES IDX 52 56 66 57 85 58 50 59 51 60 65 62 86 63 53 64 37 65 38 66
REMARK SMILES IDX 46 67 39 68 45 69 47 70 44 71 40 72 41 73 42 74 43 75 69 76
REMARK SMILES IDX 70 77 78 78 71 79 77 80 79 81 76 82 72 83 73 84 74 85 75 86
REMARK SMILES IDX 54 87 55 88 63 89 56 90 62 91 64 92 61 93 57 94 58 95 59 96
REMARK SMILES IDX 60 97
REMARK H PARENT 7 17 4 27 84 50 52 61
REMARK Flexibility Score: inf
ROOT
ATOM      1  O   UNL A   1      41.161  19.792  27.538  1.00  0.00    -0.374 OA
ENDROOT
BRANCH   1   2
ATOM      2  C   UNL A   1      40.968  21.197  27.371  1.00  0.00     0.202 C 
BRANCH   2   3
ATOM      3  C   UNL A   1      40.205  21.690  26.141  1.00  0.00     0.261 C 
BRANCH   3   4
ATOM      4  O   UNL A   1      38.790  21.733  26.367  1.00  0.00    -0.460 OA
BRANCH   4   5
ATOM      5  C   UNL A   1      38.049  21.091  25.431  1.00  0.00     0.338 C 
ATOM      6  O   UNL A   1      38.208  19.955  25.016  1.00  0.00    -0.246 OA
BRANCH   5   7
ATOM      7  C   UNL A   1      36.860  21.903  25.105  1.00  0.00     0.060 A 
ATOM      8  C   UNL A   1      34.542  22.113  24.407  1.00  0.00    -0.038 A 
ATOM      9  C   UNL A   1      34.659  23.504  24.587  1.00  0.00     0.004 A 
ATOM     10  C   UNL A   1      35.691  21.328  24.603  1.00  0.00     0.020 A 
ATOM     11  C   UNL A   1      35.845  24.086  25.038  1.00  0.00     0.001 A 
ATOM     12  C   UNL A   1      36.937  23.281  25.328  1.00  0.00     0.016 A 
BRANCH   8  13
ATOM     13  C   UNL A   1      33.212  21.444  24.047  1.00  0.00     0.074 C 
ATOM     14  N   UNL A   1      31.769  23.497  24.027  1.00  0.00    -0.328 N 
ATOM     15  C   UNL A   1      31.064  23.082  25.243  1.00  0.00     0.262 C 
ATOM     16  C   UNL A   1      32.227  22.329  23.239  1.00  0.00     0.270 C 
ATOM     17  H   UNL A   1      32.598  24.004  24.336  1.00  0.00     0.348 HD
ATOM     18  C   UNL A   1      31.914  22.146  26.106  1.00  0.00     0.062 C 
ATOM     19  C   UNL A   1      32.433  20.958  25.292  1.00  0.00     0.020 C 
BRANCH  14  20
ATOM     20  C   UNL A   1      31.007  24.456  23.208  1.00  0.00     0.340 C 
BRANCH  20  21
ATOM     21  C   UNL A   1      31.848  25.446  22.479  1.00  0.00     0.179 A 
ATOM     22  C   UNL A   1      33.996  28.208  22.124  1.00  0.00     0.092 C 
ATOM     23  C   UNL A   1      33.159  27.007  21.948  1.00  0.00     0.147 A 
ATOM     24  N   UNL A   1      33.250  26.179  20.899  1.00  0.00    -0.159 NA
ATOM     25  N   UNL A   1      32.268  26.617  22.907  1.00  0.00    -0.211 NA
ATOM     26  N   UNL A   1      32.394  25.206  21.253  1.00  0.00    -0.258 N 
ATOM     27  H   UNL A   1      32.188  24.420  20.697  1.00  0.00     0.192 HD
ENDBRANCH  20  21
ENDBRANCH  14  20
ENDBRANCH   8  13
ENDBRANCH   5   7
ENDBRANCH   4   5
ENDBRANCH   3   4
ENDBRANCH   2   3
ENDBRANCH   1   2
BRANCH   1  28
ATOM     28  C   UNL A   1      42.420  19.197  27.231  1.00  0.00     0.202 C 
BRANCH  28  29
ATOM     29  C   UNL A   1      42.742  18.824  25.791  1.00  0.00     0.261 C 
BRANCH  29  30
ATOM     30  O   UNL A   1      43.062  19.963  25.016  1.00  0.00    -0.460 OA
BRANCH  30  31
ATOM     31  C   UNL A   1      44.366  20.013  24.646  1.00  0.00     0.338 C 
ATOM     32  O   UNL A   1      45.111  19.077  24.448  1.00  0.00    -0.246 OA
BRANCH  31  33
ATOM     33  C   UNL A   1      44.781  21.421  24.636  1.00  0.00     0.060 A 
ATOM     34  C   UNL A   1      45.895  21.705  25.428  1.00  0.00     0.016 A 
ATOM     35  C   UNL A   1      43.833  22.389  24.286  1.00  0.00     0.016 A 
ATOM     36  C   UNL A   1      45.866  22.862  26.164  1.00  0.00     0.010 A 
ATOM     37  C   UNL A   1      43.782  23.518  25.056  1.00  0.00     0.010 A 
ATOM     38  C   UNL A   1      44.740  23.679  26.057  1.00  0.00    -0.014 A 
BRANCH  38  39
ATOM     39  C   UNL A   1      44.620  24.813  26.940  1.00  0.00     0.031 A 
ATOM     40  C   UNL A   1      45.783  25.708  26.795  1.00  0.00     0.074 A 
ATOM     41  C   UNL A   1      43.502  25.063  27.647  1.00  0.00     0.049 A 
ATOM     42  N   UNL A   1      46.831  25.760  27.550  1.00  0.00    -0.248 NA
ATOM     43  C   UNL A   1      45.957  26.368  25.484  1.00  0.00     0.031 C 
ATOM     44  C   UNL A   1      42.218  24.360  27.614  1.00  0.00     0.029 A 
ATOM     45  N   UNL A   1      43.254  26.096  28.487  1.00  0.00    -0.354 N 
ATOM     46  C   UNL A   1      47.645  26.701  26.936  1.00  0.00     0.074 A 
ATOM     47  C   UNL A   1      47.242  26.710  25.563  1.00  0.00     0.031 C 
ATOM     48  C   UNL A   1      41.274  25.130  28.210  1.00  0.00     0.029 A 
ATOM     49  C   UNL A   1      41.906  26.319  28.760  1.00  0.00     0.049 A 
ATOM     50  H   UNL A   1      43.971  26.648  28.875  1.00  0.00     0.167 HD
ATOM     51  C   UNL A   1      48.258  27.674  27.665  1.00  0.00     0.034 A 
ATOM     52  C   UNL A   1      41.383  27.459  29.298  1.00  0.00     0.034 A 
ATOM     53  C   UNL A   1      48.284  27.305  29.071  1.00  0.00     0.049 A 
ATOM     54  C   UNL A   1      42.518  28.162  29.967  1.00  0.00     0.074 A 
ATOM     55  C   UNL A   1      48.755  26.207  29.770  1.00  0.00     0.029 A 
ATOM     56  N   UNL A   1      47.393  27.925  29.926  1.00  0.00    -0.354 N 
ATOM     57  N   UNL A   1      43.148  27.669  31.003  1.00  0.00    -0.248 NA
ATOM     58  C   UNL A   1      43.294  29.104  29.169  1.00  0.00     0.031 C 
ATOM     59  C   UNL A   1      47.769  25.951  30.769  1.00  0.00     0.029 A 
ATOM     60  C   UNL A   1      46.804  26.958  30.703  1.00  0.00     0.049 A 
ATOM     61  H   UNL A   1      47.212  28.893  29.970  1.00  0.00     0.167 HD
ATOM     62  C   UNL A   1      44.496  27.897  30.755  1.00  0.00     0.074 A 
ATOM     63  C   UNL A   1      44.519  28.846  29.641  1.00  0.00     0.031 C 
ATOM     64  C   UNL A   1      45.462  27.067  31.252  1.00  0.00     0.034 A 
BRANCH  51  65
ATOM     65  C   UNL A   1      48.385  29.119  27.198  1.00  0.00     0.023 A 
ATOM     66  C   UNL A   1      49.660  29.691  27.331  1.00  0.00     0.031 A 
ATOM     67  C   UNL A   1      47.342  30.039  26.921  1.00  0.00     0.131 A 
ATOM     68  C   UNL A   1      49.826  31.083  27.389  1.00  0.00     0.055 A 
ATOM     69  C   UNL A   1      47.522  31.424  26.929  1.00  0.00     0.041 A 
ATOM     70  F   UNL A   1      46.079  29.685  26.671  1.00  0.00    -0.206 F 
ATOM     71  C   UNL A   1      48.761  31.958  27.209  1.00  0.00     0.022 A 
BRANCH  68  72
ATOM     72  S   UNL A   1      51.439  31.710  27.905  1.00  0.00     0.124 S 
ATOM     73  O   UNL A   1      51.068  32.529  29.055  1.00  0.00    -0.237 OA
ATOM     74  O   UNL A   1      52.155  30.474  28.197  1.00  0.00    -0.237 OA
ATOM     75  O   UNL A   1      51.905  32.443  26.732  1.00  0.00    -0.744 OA
ENDBRANCH  68  72
ENDBRANCH  51  65
BRANCH  52  76
ATOM     76  C   UNL A   1      40.105  28.135  28.904  1.00  0.00     0.023 A 
ATOM     77  C   UNL A   1      39.234  28.761  29.827  1.00  0.00     0.031 A 
ATOM     78  C   UNL A   1      39.838  28.374  27.536  1.00  0.00     0.131 A 
ATOM     79  C   UNL A   1      38.157  29.565  29.367  1.00  0.00     0.055 A 
ATOM     80  C   UNL A   1      38.778  29.166  27.090  1.00  0.00     0.041 A 
ATOM     81  F   UNL A   1      40.653  27.914  26.574  1.00  0.00    -0.206 F 
ATOM     82  C   UNL A   1      37.936  29.773  28.004  1.00  0.00     0.022 A 
BRANCH  79  83
ATOM     83  S   UNL A   1      37.054  30.430  30.540  1.00  0.00     0.124 S 
ATOM     84  O   UNL A   1      36.265  31.280  29.655  1.00  0.00    -0.237 OA
ATOM     85  O   UNL A   1      36.349  29.328  31.184  1.00  0.00    -0.237 OA
ATOM     86  O   UNL A   1      37.981  31.153  31.414  1.00  0.00    -0.744 OA
ENDBRANCH  79  83
ENDBRANCH  52  76
BRANCH  64  87
ATOM     87  C   UNL A   1      45.080  26.055  32.317  1.00  0.00     0.023 A 
ATOM     88  C   UNL A   1      44.879  26.342  33.689  1.00  0.00     0.031 A 
ATOM     89  C   UNL A   1      44.775  24.756  31.874  1.00  0.00     0.131 A 
ATOM     90  C   UNL A   1      44.393  25.338  34.554  1.00  0.00     0.055 A 
ATOM     91  C   UNL A   1      44.273  23.775  32.727  1.00  0.00     0.041 A 
ATOM     92  F   UNL A   1      44.920  24.427  30.579  1.00  0.00    -0.206 F 
ATOM     93  C   UNL A   1      44.083  24.062  34.072  1.00  0.00     0.022 A 
BRANCH  90  94
ATOM     94  S   UNL A   1      44.162  25.665  36.333  1.00  0.00     0.124 S 
ATOM     95  O   UNL A   1      42.758  25.343  36.560  1.00  0.00    -0.237 OA
ATOM     96  O   UNL A   1      45.133  24.765  36.948  1.00  0.00    -0.237 OA
ATOM     97  O   UNL A   1      44.488  27.088  36.463  1.00  0.00    -0.744 OA
ENDBRANCH  90  94
ENDBRANCH  64  87
ENDBRANCH  38  39
ENDBRANCH  31  33
ENDBRANCH  30  31
ENDBRANCH  29  30
ENDBRANCH  28  29
ENDBRANCH   1  28
TORSDOF 20
ENDMDL
