MODEL 1
REMARK VINA RESULT:     -11.7      0.000      0.000
REMARK SMILES CC(C)(C)c1cc(Nc2ccccc2C(=O)OCCOCCOC(=O)c2ccc(-c3c4nc(c(-c5cc(S(=O)(=O)[O-])ccc5F)c5ccc([nH]5)c(-c5cc(S(=O)(=O)[O-])ccc5F)c5nc(c(-c6cc(S(=O)(=O)[O-])ccc6F)c6ccc3[nH]6)C=C5)C=C4)cc2)cc2c1OCC2(C)C
REMARK SMILES IDX 20 1 19 2 18 3 17 4 15 5 16 6 14 7 9 8 10 9 11 10 13 11
REMARK SMILES IDX 12 12 8 13 7 15 5 16 6 17 91 18 90 19 92 20 89 21 94 22
REMARK SMILES IDX 93 23 95 24 96 25 2 26 1 27 3 28 4 29 21 30 22 31 23 32
REMARK SMILES IDX 24 33 25 34 26 35 27 36 88 37 28 38 87 39 29 40 30 41 31 42
REMARK SMILES IDX 81 43 32 44 86 45 80 46 82 47 33 48 85 49 79 50 78 51 34 53
REMARK SMILES IDX 66 54 46 55 65 56 47 57 50 58 64 59 83 60 48 61 49 62 63 64
REMARK SMILES IDX 84 65 51 66 35 67 36 68 44 69 37 70 43 71 45 72 42 73 38 74
REMARK SMILES IDX 39 75 40 76 41 77 67 78 68 79 76 80 69 81 75 82 77 83 74 84
REMARK SMILES IDX 70 85 71 86 72 87 73 88 52 89 53 90 61 91 54 92 60 93 62 94
REMARK SMILES IDX 59 95 55 96 56 97 57 98 58 99
REMARK H PARENT 8 14 82 52 50 63
REMARK Flexibility Score: inf
ROOT
ATOM      1  O   UNL A   1      32.817  30.808  26.579  1.00  0.00    -0.374 OA
ENDROOT
BRANCH   1   2
ATOM      2  C   UNL A   1      31.814  29.831  26.860  1.00  0.00     0.202 C 
BRANCH   2   3
ATOM      3  C   UNL A   1      32.288  28.493  27.429  1.00  0.00     0.261 C 
BRANCH   3   4
ATOM      4  O   UNL A   1      32.700  27.606  26.375  1.00  0.00    -0.460 OA
BRANCH   4   5
ATOM      5  C   UNL A   1      31.840  26.588  26.139  1.00  0.00     0.340 C 
ATOM      6  O   UNL A   1      31.067  26.101  26.952  1.00  0.00    -0.246 OA
BRANCH   5   7
ATOM      7  C   UNL A   1      31.809  26.201  24.705  1.00  0.00     0.083 A 
ATOM      8  C   UNL A   1      31.629  24.901  24.197  1.00  0.00     0.053 A 
ATOM      9  C   UNL A   1      31.485  24.779  22.796  1.00  0.00     0.027 A 
ATOM     10  C   UNL A   1      31.680  25.854  21.926  1.00  0.00     0.002 A 
ATOM     11  C   UNL A   1      32.020  27.281  23.816  1.00  0.00     0.018 A 
ATOM     12  C   UNL A   1      31.992  27.103  22.437  1.00  0.00     0.001 A 
BRANCH   8  13
ATOM     13  N   UNL A   1      31.738  23.722  24.980  1.00  0.00    -0.355 N 
ATOM     14  H   UNL A   1      30.978  23.527  25.573  1.00  0.00     0.167 HD
BRANCH  13  15
ATOM     15  C   UNL A   1      32.810  22.790  25.013  1.00  0.00     0.039 A 
ATOM     16  C   UNL A   1      33.646  20.450  24.728  1.00  0.00     0.002 A 
ATOM     17  C   UNL A   1      32.586  21.405  24.829  1.00  0.00     0.034 A 
ATOM     18  C   UNL A   1      34.936  20.975  24.811  1.00  0.00     0.127 A 
ATOM     19  C   UNL A   1      35.173  22.326  25.012  1.00  0.00     0.006 A 
ATOM     20  O   UNL A   1      36.101  20.263  24.689  1.00  0.00    -0.492 OA
ATOM     21  C   UNL A   1      34.132  23.225  25.139  1.00  0.00     0.034 A 
ATOM     22  C   UNL A   1      36.633  22.620  24.976  1.00  0.00     0.028 C 
ATOM     23  C   UNL A   1      37.166  21.180  25.022  1.00  0.00     0.240 C 
ATOM     24  C   UNL A   1      36.992  23.321  23.660  1.00  0.00     0.020 C 
ATOM     25  C   UNL A   1      37.115  23.445  26.171  1.00  0.00     0.020 C 
BRANCH  16  26
ATOM     26  C   UNL A   1      33.354  18.935  24.654  1.00  0.00    -0.009 C 
ATOM     27  C   UNL A   1      32.655  18.315  25.885  1.00  0.00     0.016 C 
ATOM     28  C   UNL A   1      34.611  18.086  24.375  1.00  0.00     0.016 C 
ATOM     29  C   UNL A   1      32.389  18.744  23.487  1.00  0.00     0.016 C 
ENDBRANCH  16  26
ENDBRANCH  13  15
ENDBRANCH   8  13
ENDBRANCH   5   7
ENDBRANCH   4   5
ENDBRANCH   3   4
ENDBRANCH   2   3
ENDBRANCH   1   2
BRANCH   1  30
ATOM     30  C   UNL A   1      33.116  31.740  27.621  1.00  0.00     0.202 C 
BRANCH  30  31
ATOM     31  C   UNL A   1      32.753  33.213  27.380  1.00  0.00     0.261 C 
BRANCH  31  32
ATOM     32  O   UNL A   1      32.410  33.906  28.591  1.00  0.00    -0.460 OA
BRANCH  32  33
ATOM     33  C   UNL A   1      33.262  34.894  28.965  1.00  0.00     0.338 C 
ATOM     34  O   UNL A   1      33.054  36.097  28.944  1.00  0.00    -0.246 OA
BRANCH  33  35
ATOM     35  C   UNL A   1      34.441  34.273  29.597  1.00  0.00     0.060 A 
ATOM     36  C   UNL A   1      34.285  33.505  30.740  1.00  0.00     0.016 A 
ATOM     37  C   UNL A   1      35.716  34.464  29.042  1.00  0.00     0.016 A 
ATOM     38  C   UNL A   1      35.418  32.942  31.324  1.00  0.00     0.010 A 
ATOM     39  C   UNL A   1      36.853  33.922  29.662  1.00  0.00     0.010 A 
ATOM     40  C   UNL A   1      36.724  33.162  30.828  1.00  0.00    -0.014 A 
BRANCH  40  41
ATOM     41  C   UNL A   1      37.904  32.553  31.528  1.00  0.00     0.031 A 
ATOM     42  C   UNL A   1      38.345  32.983  32.913  1.00  0.00     0.074 A 
ATOM     43  C   UNL A   1      38.534  31.509  30.949  1.00  0.00     0.049 A 
ATOM     44  N   UNL A   1      39.298  32.485  33.665  1.00  0.00    -0.248 NA
ATOM     45  C   UNL A   1      37.618  34.094  33.548  1.00  0.00     0.031 C 
ATOM     46  C   UNL A   1      38.190  30.964  29.637  1.00  0.00     0.029 A 
ATOM     47  N   UNL A   1      39.553  30.699  31.390  1.00  0.00    -0.354 N 
ATOM     48  C   UNL A   1      39.293  33.217  34.850  1.00  0.00     0.074 A 
ATOM     49  C   UNL A   1      38.250  34.211  34.712  1.00  0.00     0.031 C 
ATOM     50  C   UNL A   1      38.927  29.871  29.411  1.00  0.00     0.029 A 
ATOM     51  C   UNL A   1      39.881  29.698  30.503  1.00  0.00     0.049 A 
ATOM     52  H   UNL A   1      40.004  30.822  32.255  1.00  0.00     0.167 HD
ATOM     53  C   UNL A   1      40.076  33.070  35.949  1.00  0.00     0.034 A 
ATOM     54  C   UNL A   1      40.855  28.763  30.528  1.00  0.00     0.034 A 
ATOM     55  C   UNL A   1      41.103  32.062  36.090  1.00  0.00     0.049 A 
ATOM     56  C   UNL A   1      41.765  28.674  31.721  1.00  0.00     0.074 A 
ATOM     57  C   UNL A   1      41.922  31.830  37.185  1.00  0.00     0.029 A 
ATOM     58  N   UNL A   1      41.460  31.127  35.131  1.00  0.00    -0.354 N 
ATOM     59  N   UNL A   1      41.723  29.361  32.838  1.00  0.00    -0.248 NA
ATOM     60  C   UNL A   1      42.857  27.691  31.664  1.00  0.00     0.031 C 
ATOM     61  C   UNL A   1      42.831  30.828  36.853  1.00  0.00     0.029 A 
ATOM     62  C   UNL A   1      42.518  30.355  35.590  1.00  0.00     0.049 A 
ATOM     63  H   UNL A   1      41.026  31.025  34.252  1.00  0.00     0.167 HD
ATOM     64  C   UNL A   1      42.769  28.881  33.622  1.00  0.00     0.074 A 
ATOM     65  C   UNL A   1      43.408  27.827  32.865  1.00  0.00     0.031 C 
ATOM     66  C   UNL A   1      43.159  29.290  34.854  1.00  0.00     0.034 A 
BRANCH  53  67
ATOM     67  C   UNL A   1      39.893  34.004  37.128  1.00  0.00     0.023 A 
ATOM     68  C   UNL A   1      39.287  33.526  38.310  1.00  0.00     0.031 A 
ATOM     69  C   UNL A   1      40.123  35.386  37.016  1.00  0.00     0.131 A 
ATOM     70  C   UNL A   1      38.878  34.428  39.303  1.00  0.00     0.055 A 
ATOM     71  C   UNL A   1      39.755  36.275  38.030  1.00  0.00     0.041 A 
ATOM     72  F   UNL A   1      40.689  35.895  35.911  1.00  0.00    -0.206 F 
ATOM     73  C   UNL A   1      39.114  35.798  39.171  1.00  0.00     0.022 A 
BRANCH  70  74
ATOM     74  S   UNL A   1      37.938  33.868  40.752  1.00  0.00     0.124 S 
ATOM     75  O   UNL A   1      36.856  33.108  40.131  1.00  0.00    -0.237 OA
ATOM     76  O   UNL A   1      38.928  33.072  41.471  1.00  0.00    -0.237 OA
ATOM     77  O   UNL A   1      37.529  35.107  41.405  1.00  0.00    -0.744 OA
ENDBRANCH  70  74
ENDBRANCH  53  67
BRANCH  54  78
ATOM     78  C   UNL A   1      40.994  27.847  29.356  1.00  0.00     0.023 A 
ATOM     79  C   UNL A   1      41.988  28.083  28.386  1.00  0.00     0.031 A 
ATOM     80  C   UNL A   1      40.071  26.818  29.115  1.00  0.00     0.131 A 
ATOM     81  C   UNL A   1      41.963  27.384  27.175  1.00  0.00     0.055 A 
ATOM     82  C   UNL A   1      40.111  26.055  27.946  1.00  0.00     0.041 A 
ATOM     83  F   UNL A   1      39.103  26.554  30.006  1.00  0.00    -0.206 F 
ATOM     84  C   UNL A   1      41.043  26.355  26.957  1.00  0.00     0.022 A 
BRANCH  81  85
ATOM     85  S   UNL A   1      43.000  27.915  25.784  1.00  0.00     0.124 S 
ATOM     86  O   UNL A   1      42.238  27.437  24.635  1.00  0.00    -0.237 OA
ATOM     87  O   UNL A   1      43.025  29.365  25.969  1.00  0.00    -0.237 OA
ATOM     88  O   UNL A   1      44.273  27.242  26.025  1.00  0.00    -0.744 OA
ENDBRANCH  81  85
ENDBRANCH  54  78
BRANCH  66  89
ATOM     89  C   UNL A   1      44.339  28.613  35.515  1.00  0.00     0.023 A 
ATOM     90  C   UNL A   1      44.129  27.533  36.395  1.00  0.00     0.031 A 
ATOM     91  C   UNL A   1      45.639  29.139  35.413  1.00  0.00     0.131 A 
ATOM     92  C   UNL A   1      45.185  27.055  37.182  1.00  0.00     0.055 A 
ATOM     93  C   UNL A   1      46.701  28.622  36.157  1.00  0.00     0.041 A 
ATOM     94  F   UNL A   1      45.894  30.175  34.598  1.00  0.00    -0.206 F 
ATOM     95  C   UNL A   1      46.473  27.587  37.060  1.00  0.00     0.022 A 
BRANCH  92  96
ATOM     96  S   UNL A   1      44.907  25.801  38.464  1.00  0.00     0.124 S 
ATOM     97  O   UNL A   1      44.309  26.591  39.538  1.00  0.00    -0.237 OA
ATOM     98  O   UNL A   1      44.000  24.873  37.793  1.00  0.00    -0.237 OA
ATOM     99  O   UNL A   1      46.242  25.283  38.745  1.00  0.00    -0.744 OA
ENDBRANCH  92  96
ENDBRANCH  66  89
ENDBRANCH  40  41
ENDBRANCH  33  35
ENDBRANCH  32  33
ENDBRANCH  31  32
ENDBRANCH  30  31
ENDBRANCH   1  30
TORSDOF 20
ENDMDL
MODEL 2
REMARK VINA RESULT:     -11.5      1.427      7.530
REMARK SMILES CC(C)(C)c1cc(Nc2ccccc2C(=O)OCCOCCOC(=O)c2ccc(-c3c4nc(c(-c5cc(S(=O)(=O)[O-])ccc5F)c5ccc([nH]5)c(-c5cc(S(=O)(=O)[O-])ccc5F)c5nc(c(-c6cc(S(=O)(=O)[O-])ccc6F)c6ccc3[nH]6)C=C5)C=C4)cc2)cc2c1OCC2(C)C
REMARK SMILES IDX 20 1 19 2 18 3 17 4 15 5 16 6 14 7 9 8 10 9 11 10 13 11
REMARK SMILES IDX 12 12 8 13 7 15 5 16 6 17 91 18 90 19 92 20 89 21 94 22
REMARK SMILES IDX 93 23 95 24 96 25 2 26 1 27 3 28 4 29 21 30 22 31 23 32
REMARK SMILES IDX 24 33 25 34 26 35 27 36 88 37 28 38 87 39 29 40 30 41 31 42
REMARK SMILES IDX 81 43 32 44 86 45 80 46 82 47 33 48 85 49 79 50 78 51 34 53
REMARK SMILES IDX 66 54 46 55 65 56 47 57 50 58 64 59 83 60 48 61 49 62 63 64
REMARK SMILES IDX 84 65 51 66 35 67 36 68 44 69 37 70 43 71 45 72 42 73 38 74
REMARK SMILES IDX 39 75 40 76 41 77 67 78 68 79 76 80 69 81 75 82 77 83 74 84
REMARK SMILES IDX 70 85 71 86 72 87 73 88 52 89 53 90 61 91 54 92 60 93 62 94
REMARK SMILES IDX 59 95 55 96 56 97 57 98 58 99
REMARK H PARENT 8 14 82 52 50 63
REMARK Flexibility Score: inf
ROOT
ATOM      1  O   UNL A   1      32.345  30.940  26.670  1.00  0.00    -0.374 OA
ENDROOT
BRANCH   1   2
ATOM      2  C   UNL A   1      31.664  29.829  27.255  1.00  0.00     0.202 C 
BRANCH   2   3
ATOM      3  C   UNL A   1      32.440  28.516  27.361  1.00  0.00     0.261 C 
BRANCH   3   4
ATOM      4  O   UNL A   1      32.531  27.872  26.080  1.00  0.00    -0.460 OA
BRANCH   4   5
ATOM      5  C   UNL A   1      31.999  26.628  26.044  1.00  0.00     0.340 C 
ATOM      6  O   UNL A   1      31.626  25.981  27.014  1.00  0.00    -0.246 OA
BRANCH   5   7
ATOM      7  C   UNL A   1      31.756  26.161  24.656  1.00  0.00     0.083 A 
ATOM      8  C   UNL A   1      31.542  24.831  24.249  1.00  0.00     0.053 A 
ATOM      9  C   UNL A   1      31.183  24.628  22.897  1.00  0.00     0.027 A 
ATOM     10  C   UNL A   1      31.201  25.658  21.954  1.00  0.00     0.002 A 
ATOM     11  C   UNL A   1      31.787  27.196  23.691  1.00  0.00     0.018 A 
ATOM     12  C   UNL A   1      31.547  26.941  22.345  1.00  0.00     0.001 A 
BRANCH   8  13
ATOM     13  N   UNL A   1      31.814  23.701  25.063  1.00  0.00    -0.355 N 
ATOM     14  H   UNL A   1      31.249  23.600  25.863  1.00  0.00     0.167 HD
BRANCH  13  15
ATOM     15  C   UNL A   1      32.800  22.698  24.866  1.00  0.00     0.039 A 
ATOM     16  C   UNL A   1      35.203  22.004  24.862  1.00  0.00     0.002 A 
ATOM     17  C   UNL A   1      34.181  23.002  24.927  1.00  0.00     0.034 A 
ATOM     18  C   UNL A   1      34.751  20.690  24.744  1.00  0.00     0.127 A 
ATOM     19  C   UNL A   1      33.404  20.375  24.662  1.00  0.00     0.006 A 
ATOM     20  O   UNL A   1      35.540  19.569  24.717  1.00  0.00    -0.492 OA
ATOM     21  C   UNL A   1      32.435  21.360  24.695  1.00  0.00     0.034 A 
ATOM     22  C   UNL A   1      33.203  18.899  24.629  1.00  0.00     0.028 C 
ATOM     23  C   UNL A   1      34.660  18.468  24.405  1.00  0.00     0.240 C 
ATOM     24  C   UNL A   1      32.664  18.415  25.981  1.00  0.00     0.020 C 
ATOM     25  C   UNL A   1      32.289  18.437  23.492  1.00  0.00     0.020 C 
BRANCH  16  26
ATOM     26  C   UNL A   1      36.698  22.391  24.805  1.00  0.00    -0.009 C 
ATOM     27  C   UNL A   1      37.699  21.309  25.269  1.00  0.00     0.016 C 
ATOM     28  C   UNL A   1      37.025  23.675  25.594  1.00  0.00     0.016 C 
ATOM     29  C   UNL A   1      37.015  22.649  23.335  1.00  0.00     0.016 C 
ENDBRANCH  16  26
ENDBRANCH  13  15
ENDBRANCH   8  13
ENDBRANCH   5   7
ENDBRANCH   4   5
ENDBRANCH   3   4
ENDBRANCH   2   3
ENDBRANCH   1   2
BRANCH   1  30
ATOM     30  C   UNL A   1      33.036  31.814  27.566  1.00  0.00     0.202 C 
BRANCH  30  31
ATOM     31  C   UNL A   1      32.958  33.322  27.285  1.00  0.00     0.261 C 
BRANCH  31  32
ATOM     32  O   UNL A   1      32.597  34.086  28.447  1.00  0.00    -0.460 OA
BRANCH  32  33
ATOM     33  C   UNL A   1      33.507  35.009  28.851  1.00  0.00     0.338 C 
ATOM     34  O   UNL A   1      33.401  36.224  28.800  1.00  0.00    -0.246 OA
BRANCH  33  35
ATOM     35  C   UNL A   1      34.596  34.305  29.556  1.00  0.00     0.060 A 
ATOM     36  C   UNL A   1      35.891  34.379  29.070  1.00  0.00     0.016 A 
ATOM     37  C   UNL A   1      34.316  33.562  30.714  1.00  0.00     0.016 A 
ATOM     38  C   UNL A   1      36.897  33.693  29.747  1.00  0.00     0.010 A 
ATOM     39  C   UNL A   1      35.332  32.844  31.364  1.00  0.00     0.010 A 
ATOM     40  C   UNL A   1      36.642  32.885  30.880  1.00  0.00    -0.014 A 
BRANCH  40  41
ATOM     41  C   UNL A   1      37.769  32.145  31.540  1.00  0.00     0.031 A 
ATOM     42  C   UNL A   1      38.489  30.988  30.875  1.00  0.00     0.074 A 
ATOM     43  C   UNL A   1      38.231  32.591  32.727  1.00  0.00     0.049 A 
ATOM     44  N   UNL A   1      39.531  30.313  31.300  1.00  0.00    -0.248 NA
ATOM     45  C   UNL A   1      38.001  30.544  29.560  1.00  0.00     0.031 C 
ATOM     46  C   UNL A   1      37.660  33.717  33.463  1.00  0.00     0.029 A 
ATOM     47  N   UNL A   1      39.294  32.191  33.503  1.00  0.00    -0.354 N 
ATOM     48  C   UNL A   1      39.818  29.366  30.320  1.00  0.00     0.074 A 
ATOM     49  C   UNL A   1      38.827  29.541  29.279  1.00  0.00     0.031 C 
ATOM     50  C   UNL A   1      38.417  33.967  34.537  1.00  0.00     0.029 A 
ATOM     51  C   UNL A   1      39.459  32.949  34.640  1.00  0.00     0.049 A 
ATOM     52  H   UNL A   1      39.880  31.436  33.267  1.00  0.00     0.167 HD
ATOM     53  C   UNL A   1      40.816  28.446  30.286  1.00  0.00     0.034 A 
ATOM     54  C   UNL A   1      40.319  32.835  35.675  1.00  0.00     0.034 A 
ATOM     55  C   UNL A   1      41.816  28.289  31.319  1.00  0.00     0.049 A 
ATOM     56  C   UNL A   1      41.363  31.754  35.654  1.00  0.00     0.074 A 
ATOM     57  C   UNL A   1      42.877  27.397  31.345  1.00  0.00     0.029 A 
ATOM     58  N   UNL A   1      41.891  29.021  32.494  1.00  0.00    -0.354 N 
ATOM     59  N   UNL A   1      41.630  30.889  34.704  1.00  0.00    -0.248 NA
ATOM     60  C   UNL A   1      42.223  31.624  36.839  1.00  0.00     0.031 C 
ATOM     61  C   UNL A   1      43.529  27.522  32.570  1.00  0.00     0.029 A 
ATOM     62  C   UNL A   1      42.946  28.563  33.271  1.00  0.00     0.049 A 
ATOM     63  H   UNL A   1      41.285  29.756  32.741  1.00  0.00     0.167 HD
ATOM     64  C   UNL A   1      42.697  30.126  35.170  1.00  0.00     0.074 A 
ATOM     65  C   UNL A   1      43.046  30.649  36.473  1.00  0.00     0.031 C 
ATOM     66  C   UNL A   1      43.318  29.083  34.567  1.00  0.00     0.034 A 
BRANCH  53  67
ATOM     67  C   UNL A   1      40.923  27.503  29.105  1.00  0.00     0.023 A 
ATOM     68  C   UNL A   1      41.899  27.735  28.112  1.00  0.00     0.031 A 
ATOM     69  C   UNL A   1      39.952  26.517  28.859  1.00  0.00     0.131 A 
ATOM     70  C   UNL A   1      41.845  27.035  26.899  1.00  0.00     0.055 A 
ATOM     71  C   UNL A   1      39.932  25.790  27.666  1.00  0.00     0.041 A 
ATOM     72  F   UNL A   1      38.996  26.260  29.766  1.00  0.00    -0.206 F 
ATOM     73  C   UNL A   1      40.870  26.061  26.673  1.00  0.00     0.022 A 
BRANCH  70  74
ATOM     74  S   UNL A   1      42.973  27.433  25.533  1.00  0.00     0.124 S 
ATOM     75  O   UNL A   1      44.103  28.029  26.243  1.00  0.00    -0.237 OA
ATOM     76  O   UNL A   1      43.226  26.118  24.951  1.00  0.00    -0.237 OA
ATOM     77  O   UNL A   1      42.207  28.355  24.701  1.00  0.00    -0.744 OA
ENDBRANCH  70  74
ENDBRANCH  53  67
BRANCH  54  78
ATOM     78  C   UNL A   1      40.196  33.795  36.813  1.00  0.00     0.023 A 
ATOM     79  C   UNL A   1      41.092  34.874  36.931  1.00  0.00     0.031 A 
ATOM     80  C   UNL A   1      39.284  33.580  37.858  1.00  0.00     0.131 A 
ATOM     81  C   UNL A   1      41.138  35.620  38.113  1.00  0.00     0.055 A 
ATOM     82  C   UNL A   1      39.267  34.391  38.996  1.00  0.00     0.041 A 
ATOM     83  F   UNL A   1      38.409  32.564  37.797  1.00  0.00    -0.206 F 
ATOM     84  C   UNL A   1      40.216  35.399  39.139  1.00  0.00     0.022 A 
BRANCH  81  85
ATOM     85  S   UNL A   1      42.509  36.767  38.425  1.00  0.00     0.124 S 
ATOM     86  O   UNL A   1      43.455  35.923  39.147  1.00  0.00    -0.237 OA
ATOM     87  O   UNL A   1      42.900  37.139  37.067  1.00  0.00    -0.237 OA
ATOM     88  O   UNL A   1      41.893  37.837  39.203  1.00  0.00    -0.744 OA
ENDBRANCH  81  85
ENDBRANCH  54  78
BRANCH  66  89
ATOM     89  C   UNL A   1      44.466  28.399  35.276  1.00  0.00     0.023 A 
ATOM     90  C   UNL A   1      44.206  27.398  36.232  1.00  0.00     0.031 A 
ATOM     91  C   UNL A   1      45.789  28.853  35.139  1.00  0.00     0.131 A 
ATOM     92  C   UNL A   1      45.239  26.928  37.054  1.00  0.00     0.055 A 
ATOM     93  C   UNL A   1      46.827  28.341  35.920  1.00  0.00     0.041 A 
ATOM     94  F   UNL A   1      46.091  29.814  34.251  1.00  0.00    -0.206 F 
ATOM     95  C   UNL A   1      46.550  27.386  36.895  1.00  0.00     0.022 A 
BRANCH  92  96
ATOM     96  S   UNL A   1      44.904  25.785  38.423  1.00  0.00     0.124 S 
ATOM     97  O   UNL A   1      44.501  24.572  37.714  1.00  0.00    -0.237 OA
ATOM     98  O   UNL A   1      46.202  25.715  39.089  1.00  0.00    -0.237 OA
ATOM     99  O   UNL A   1      43.843  26.442  39.179  1.00  0.00    -0.744 OA
ENDBRANCH  92  96
ENDBRANCH  66  89
ENDBRANCH  40  41
ENDBRANCH  33  35
ENDBRANCH  32  33
ENDBRANCH  31  32
ENDBRANCH  30  31
ENDBRANCH   1  30
TORSDOF 20
ENDMDL
MODEL 3
REMARK VINA RESULT:     -11.3      1.534      7.444
REMARK SMILES CC(C)(C)c1cc(Nc2ccccc2C(=O)OCCOCCOC(=O)c2ccc(-c3c4nc(c(-c5cc(S(=O)(=O)[O-])ccc5F)c5ccc([nH]5)c(-c5cc(S(=O)(=O)[O-])ccc5F)c5nc(c(-c6cc(S(=O)(=O)[O-])ccc6F)c6ccc3[nH]6)C=C5)C=C4)cc2)cc2c1OCC2(C)C
REMARK SMILES IDX 20 1 19 2 18 3 17 4 15 5 16 6 14 7 9 8 10 9 11 10 13 11
REMARK SMILES IDX 12 12 8 13 7 15 5 16 6 17 91 18 90 19 92 20 89 21 94 22
REMARK SMILES IDX 93 23 95 24 96 25 2 26 1 27 3 28 4 29 21 30 22 31 23 32
REMARK SMILES IDX 24 33 25 34 26 35 27 36 88 37 28 38 87 39 29 40 30 41 31 42
REMARK SMILES IDX 81 43 32 44 86 45 80 46 82 47 33 48 85 49 79 50 78 51 34 53
REMARK SMILES IDX 66 54 46 55 65 56 47 57 50 58 64 59 83 60 48 61 49 62 63 64
REMARK SMILES IDX 84 65 51 66 35 67 36 68 44 69 37 70 43 71 45 72 42 73 38 74
REMARK SMILES IDX 39 75 40 76 41 77 67 78 68 79 76 80 69 81 75 82 77 83 74 84
REMARK SMILES IDX 70 85 71 86 72 87 73 88 52 89 53 90 61 91 54 92 60 93 62 94
REMARK SMILES IDX 59 95 55 96 56 97 57 98 58 99
REMARK H PARENT 8 14 82 52 50 63
REMARK Flexibility Score: inf
ROOT
ATOM      1  O   UNL A   1      32.341  30.538  26.075  1.00  0.00    -0.374 OA
ENDROOT
BRANCH   1   2
ATOM      2  C   UNL A   1      31.473  29.459  26.424  1.00  0.00     0.202 C 
BRANCH   2   3
ATOM      3  C   UNL A   1      32.074  28.325  27.256  1.00  0.00     0.261 C 
BRANCH   3   4
ATOM      4  O   UNL A   1      32.521  27.252  26.410  1.00  0.00    -0.460 OA
BRANCH   4   5
ATOM      5  C   UNL A   1      31.555  26.358  26.091  1.00  0.00     0.340 C 
ATOM      6  O   UNL A   1      30.647  25.994  26.825  1.00  0.00    -0.246 OA
BRANCH   5   7
ATOM      7  C   UNL A   1      31.612  25.958  24.662  1.00  0.00     0.083 A 
ATOM      8  C   UNL A   1      31.534  24.645  24.161  1.00  0.00     0.053 A 
ATOM      9  C   UNL A   1      31.459  24.503  22.757  1.00  0.00     0.027 A 
ATOM     10  C   UNL A   1      31.625  25.581  21.884  1.00  0.00     0.002 A 
ATOM     11  C   UNL A   1      31.794  27.041  23.771  1.00  0.00     0.018 A 
ATOM     12  C   UNL A   1      31.838  26.850  22.394  1.00  0.00     0.001 A 
BRANCH   8  13
ATOM     13  N   UNL A   1      31.681  23.482  24.961  1.00  0.00    -0.355 N 
ATOM     14  H   UNL A   1      30.937  23.284  25.575  1.00  0.00     0.167 HD
BRANCH  13  15
ATOM     15  C   UNL A   1      32.769  22.569  24.986  1.00  0.00     0.039 A 
ATOM     16  C   UNL A   1      33.640  20.241  24.711  1.00  0.00     0.002 A 
ATOM     17  C   UNL A   1      32.566  21.179  24.820  1.00  0.00     0.034 A 
ATOM     18  C   UNL A   1      34.922  20.788  24.767  1.00  0.00     0.127 A 
ATOM     19  C   UNL A   1      35.139  22.145  24.950  1.00  0.00     0.006 A 
ATOM     20  O   UNL A   1      36.097  20.096  24.633  1.00  0.00    -0.492 OA
ATOM     21  C   UNL A   1      34.085  23.028  25.085  1.00  0.00     0.034 A 
ATOM     22  C   UNL A   1      36.593  22.465  24.886  1.00  0.00     0.028 C 
ATOM     23  C   UNL A   1      37.151  21.034  24.939  1.00  0.00     0.240 C 
ATOM     24  C   UNL A   1      36.918  23.157  23.557  1.00  0.00     0.020 C 
ATOM     25  C   UNL A   1      37.081  23.311  26.064  1.00  0.00     0.020 C 
BRANCH  16  26
ATOM     26  C   UNL A   1      33.374  18.720  24.658  1.00  0.00    -0.009 C 
ATOM     27  C   UNL A   1      32.628  18.117  25.870  1.00  0.00     0.016 C 
ATOM     28  C   UNL A   1      34.654  17.885  24.455  1.00  0.00     0.016 C 
ATOM     29  C   UNL A   1      32.466  18.489  23.453  1.00  0.00     0.016 C 
ENDBRANCH  16  26
ENDBRANCH  13  15
ENDBRANCH   8  13
ENDBRANCH   5   7
ENDBRANCH   4   5
ENDBRANCH   3   4
ENDBRANCH   2   3
ENDBRANCH   1   2
BRANCH   1  30
ATOM     30  C   UNL A   1      32.762  31.394  27.139  1.00  0.00     0.202 C 
BRANCH  30  31
ATOM     31  C   UNL A   1      32.520  32.902  26.975  1.00  0.00     0.261 C 
BRANCH  31  32
ATOM     32  O   UNL A   1      32.465  33.596  28.232  1.00  0.00    -0.460 OA
BRANCH  32  33
ATOM     33  C   UNL A   1      33.470  34.479  28.462  1.00  0.00     0.338 C 
ATOM     34  O   UNL A   1      33.432  35.692  28.330  1.00  0.00    -0.246 OA
BRANCH  33  35
ATOM     35  C   UNL A   1      34.588  33.752  29.093  1.00  0.00     0.060 A 
ATOM     36  C   UNL A   1      35.876  33.919  28.612  1.00  0.00     0.016 A 
ATOM     37  C   UNL A   1      34.342  32.892  30.176  1.00  0.00     0.016 A 
ATOM     38  C   UNL A   1      36.910  33.208  29.217  1.00  0.00     0.010 A 
ATOM     39  C   UNL A   1      35.388  32.154  30.752  1.00  0.00     0.010 A 
ATOM     40  C   UNL A   1      36.693  32.288  30.270  1.00  0.00    -0.014 A 
BRANCH  40  41
ATOM     41  C   UNL A   1      37.849  31.530  30.853  1.00  0.00     0.031 A 
ATOM     42  C   UNL A   1      38.652  30.521  30.055  1.00  0.00     0.074 A 
ATOM     43  C   UNL A   1      38.260  31.834  32.102  1.00  0.00     0.049 A 
ATOM     44  N   UNL A   1      39.725  29.855  30.413  1.00  0.00    -0.248 NA
ATOM     45  C   UNL A   1      38.217  30.236  28.679  1.00  0.00     0.031 C 
ATOM     46  C   UNL A   1      37.607  32.812  32.970  1.00  0.00     0.029 A 
ATOM     47  N   UNL A   1      39.330  31.393  32.845  1.00  0.00    -0.354 N 
ATOM     48  C   UNL A   1      40.089  29.071  29.320  1.00  0.00     0.074 A 
ATOM     49  C   UNL A   1      39.108  29.331  28.287  1.00  0.00     0.031 C 
ATOM     50  C   UNL A   1      38.326  32.954  34.088  1.00  0.00     0.029 A 
ATOM     51  C   UNL A   1      39.427  31.994  34.079  1.00  0.00     0.049 A 
ATOM     52  H   UNL A   1      39.966  30.713  32.524  1.00  0.00     0.167 HD
ATOM     53  C   UNL A   1      41.141  28.224  29.189  1.00  0.00     0.034 A 
ATOM     54  C   UNL A   1      40.271  31.788  35.112  1.00  0.00     0.034 A 
ATOM     55  C   UNL A   1      42.129  27.984  30.217  1.00  0.00     0.049 A 
ATOM     56  C   UNL A   1      41.380  30.782  34.972  1.00  0.00     0.074 A 
ATOM     57  C   UNL A   1      43.242  27.160  30.150  1.00  0.00     0.029 A 
ATOM     58  N   UNL A   1      42.136  28.549  31.483  1.00  0.00    -0.354 N 
ATOM     59  N   UNL A   1      41.718  30.074  33.921  1.00  0.00    -0.248 NA
ATOM     60  C   UNL A   1      42.223  30.540  36.152  1.00  0.00     0.031 C 
ATOM     61  C   UNL A   1      43.861  27.151  31.398  1.00  0.00     0.029 A 
ATOM     62  C   UNL A   1      43.202  28.050  32.219  1.00  0.00     0.049 A 
ATOM     63  H   UNL A   1      41.481  29.207  31.812  1.00  0.00     0.167 HD
ATOM     64  C   UNL A   1      42.821  29.317  34.307  1.00  0.00     0.074 A 
ATOM     65  C   UNL A   1      43.111  29.674  35.678  1.00  0.00     0.031 C 
ATOM     66  C   UNL A   1      43.516  28.406  33.583  1.00  0.00     0.034 A 
BRANCH  53  67
ATOM     67  C   UNL A   1      41.329  27.461  27.893  1.00  0.00     0.023 A 
ATOM     68  C   UNL A   1      41.248  26.052  27.895  1.00  0.00     0.031 A 
ATOM     69  C   UNL A   1      41.781  28.095  26.723  1.00  0.00     0.131 A 
ATOM     70  C   UNL A   1      41.669  25.324  26.773  1.00  0.00     0.055 A 
ATOM     71  C   UNL A   1      42.156  27.365  25.592  1.00  0.00     0.041 A 
ATOM     72  F   UNL A   1      41.885  29.432  26.669  1.00  0.00    -0.206 F 
ATOM     73  C   UNL A   1      42.118  25.973  25.621  1.00  0.00     0.022 A 
BRANCH  70  74
ATOM     74  S   UNL A   1      41.746  23.510  26.804  1.00  0.00     0.124 S 
ATOM     75  O   UNL A   1      42.475  23.221  25.572  1.00  0.00    -0.237 OA
ATOM     76  O   UNL A   1      42.482  23.256  28.039  1.00  0.00    -0.237 OA
ATOM     77  O   UNL A   1      40.346  23.099  26.807  1.00  0.00    -0.744 OA
ENDBRANCH  70  74
ENDBRANCH  53  67
BRANCH  54  78
ATOM     78  C   UNL A   1      40.068  32.572  36.367  1.00  0.00     0.023 A 
ATOM     79  C   UNL A   1      39.181  32.106  37.358  1.00  0.00     0.031 A 
ATOM     80  C   UNL A   1      40.639  33.842  36.540  1.00  0.00     0.131 A 
ATOM     81  C   UNL A   1      38.802  32.948  38.409  1.00  0.00     0.055 A 
ATOM     82  C   UNL A   1      40.333  34.640  37.645  1.00  0.00     0.041 A 
ATOM     83  F   UNL A   1      41.488  34.334  35.625  1.00  0.00    -0.206 F 
ATOM     84  C   UNL A   1      39.389  34.205  38.571  1.00  0.00     0.022 A 
BRANCH  81  85
ATOM     85  S   UNL A   1      37.407  32.508  39.482  1.00  0.00     0.124 S 
ATOM     86  O   UNL A   1      37.445  33.571  40.482  1.00  0.00    -0.237 OA
ATOM     87  O   UNL A   1      36.285  32.558  38.547  1.00  0.00    -0.237 OA
ATOM     88  O   UNL A   1      37.749  31.173  39.964  1.00  0.00    -0.744 OA
ENDBRANCH  81  85
ENDBRANCH  54  78
BRANCH  66  89
ATOM     89  C   UNL A   1      44.690  27.699  34.224  1.00  0.00     0.023 A 
ATOM     90  C   UNL A   1      44.470  26.589  35.063  1.00  0.00     0.031 A 
ATOM     91  C   UNL A   1      45.993  28.221  34.148  1.00  0.00     0.131 A 
ATOM     92  C   UNL A   1      45.519  26.077  35.838  1.00  0.00     0.055 A 
ATOM     93  C   UNL A   1      47.049  27.671  34.877  1.00  0.00     0.041 A 
ATOM     94  F   UNL A   1      46.257  29.284  33.372  1.00  0.00    -0.206 F 
ATOM     95  C   UNL A   1      46.810  26.605  35.740  1.00  0.00     0.022 A 
BRANCH  92  96
ATOM     96  S   UNL A   1      45.228  24.778  37.072  1.00  0.00     0.124 S 
ATOM     97  O   UNL A   1      44.853  23.641  36.234  1.00  0.00    -0.237 OA
ATOM     98  O   UNL A   1      46.533  24.671  37.718  1.00  0.00    -0.237 OA
ATOM     99  O   UNL A   1      44.156  25.316  37.903  1.00  0.00    -0.744 OA
ENDBRANCH  92  96
ENDBRANCH  66  89
ENDBRANCH  40  41
ENDBRANCH  33  35
ENDBRANCH  32  33
ENDBRANCH  31  32
ENDBRANCH  30  31
ENDBRANCH   1  30
TORSDOF 20
ENDMDL
