MODEL 1
REMARK VINA RESULT:     -11.7      0.000      0.000
REMARK SMILES O=C(OCCOCCOC(=O)[C@@H]1[C@@H](C(=O)NCc2ccccc2OCc2ccccc2)[C@@H]2C=C[C@H]1C2)c1ccc(-c2c3nc(c(-c4cc(S(=O)(=O)[O-])ccc4F)c4ccc([nH]4)c(-c4cc(S(=O)(=O)[O-])ccc4F)c4nc(c(-c5cc(S(=O)(=O)[O-])ccc5F)c5ccc2[nH]5)C=C4)C=C3)cc1
REMARK SMILES IDX 7 1 6 2 5 3 4 4 3 5 2 6 1 7 37 8 38 9 99 10 39 11 98 12
REMARK SMILES IDX 40 13 41 14 42 15 92 16 43 17 97 18 91 19 93 20 44 21 96 22
REMARK SMILES IDX 90 23 89 24 45 26 77 27 57 28 76 29 58 30 61 31 75 32 94 33
REMARK SMILES IDX 59 34 60 35 74 37 95 38 62 39 46 40 47 41 55 42 48 43 54 44
REMARK SMILES IDX 56 45 53 46 49 47 50 48 51 49 52 50 78 51 79 52 87 53 80 54
REMARK SMILES IDX 86 55 88 56 85 57 81 58 82 59 83 60 84 61 63 62 64 63 72 64
REMARK SMILES IDX 65 65 71 66 73 67 70 68 66 69 67 70 68 71 69 72 8 73 9 74
REMARK SMILES IDX 10 75 11 76 12 77 13 78 35 79 32 80 34 81 36 82 33 83 14 84
REMARK SMILES IDX 15 85 16 86 17 88 18 89 19 90 23 91 20 92 22 93 21 94 24 95
REMARK SMILES IDX 25 96 26 97 27 98 31 99 28 100 30 101 29 102
REMARK H PARENT 93 25 61 36 16 87
REMARK Flexibility Score: inf
ROOT
ATOM      1  C   UNL A   1      34.541  20.274  24.750  1.00  0.00     0.202 C 
ENDROOT
BRANCH   1   2
ATOM      2  O   UNL A   1      35.324  19.081  24.733  1.00  0.00    -0.374 OA
BRANCH   2   3
ATOM      3  C   UNL A   1      36.729  19.190  24.884  1.00  0.00     0.202 C 
BRANCH   3   4
ATOM      4  C   UNL A   1      37.465  20.502  24.575  1.00  0.00     0.261 C 
BRANCH   4   5
ATOM      5  O   UNL A   1      37.983  21.192  25.738  1.00  0.00    -0.460 OA
BRANCH   5   6
ATOM      6  C   UNL A   1      39.289  21.142  26.143  1.00  0.00     0.338 C 
ATOM      7  O   UNL A   1      39.965  20.134  25.988  1.00  0.00    -0.246 OA
BRANCH   6   8
ATOM      8  C   UNL A   1      39.856  22.336  26.812  1.00  0.00     0.060 A 
ATOM      9  C   UNL A   1      39.287  23.561  26.547  1.00  0.00     0.016 A 
ATOM     10  C   UNL A   1      40.919  22.298  27.700  1.00  0.00     0.016 A 
ATOM     11  C   UNL A   1      39.941  24.735  26.753  1.00  0.00     0.010 A 
ATOM     12  C   UNL A   1      41.429  23.513  28.191  1.00  0.00     0.010 A 
ATOM     13  C   UNL A   1      40.970  24.738  27.664  1.00  0.00    -0.014 A 
BRANCH  13  14
ATOM     14  C   UNL A   1      41.561  26.057  27.941  1.00  0.00     0.031 A 
ATOM     15  C   UNL A   1      42.904  26.341  27.358  1.00  0.00     0.074 A 
ATOM     16  C   UNL A   1      40.806  27.019  28.514  1.00  0.00     0.049 A 
ATOM     17  N   UNL A   1      43.683  27.366  27.544  1.00  0.00    -0.248 NA
ATOM     18  C   UNL A   1      43.448  25.324  26.440  1.00  0.00     0.031 C 
ATOM     19  C   UNL A   1      39.395  26.873  28.918  1.00  0.00     0.029 A 
ATOM     20  N   UNL A   1      41.081  28.326  28.803  1.00  0.00    -0.354 N 
ATOM     21  C   UNL A   1      44.840  27.084  26.828  1.00  0.00     0.074 A 
ATOM     22  C   UNL A   1      44.659  25.794  26.204  1.00  0.00     0.031 C 
ATOM     23  C   UNL A   1      38.922  28.057  29.331  1.00  0.00     0.029 A 
ATOM     24  C   UNL A   1      40.023  29.002  29.371  1.00  0.00     0.049 A 
ATOM     25  H   UNL A   1      41.953  28.746  28.622  1.00  0.00     0.167 HD
ATOM     26  C   UNL A   1      45.952  27.845  26.735  1.00  0.00     0.034 A 
ATOM     27  C   UNL A   1      39.979  30.229  29.921  1.00  0.00     0.034 A 
ATOM     28  C   UNL A   1      46.052  29.128  27.381  1.00  0.00     0.049 A 
ATOM     29  C   UNL A   1      41.271  31.003  29.919  1.00  0.00     0.074 A 
ATOM     30  C   UNL A   1      47.136  29.978  27.468  1.00  0.00     0.029 A 
ATOM     31  N   UNL A   1      45.001  29.749  28.055  1.00  0.00    -0.354 N 
ATOM     32  N   UNL A   1      42.425  30.677  29.374  1.00  0.00    -0.248 NA
ATOM     33  C   UNL A   1      41.270  32.290  30.614  1.00  0.00     0.031 C 
ATOM     34  C   UNL A   1      46.763  31.071  28.258  1.00  0.00     0.029 A 
ATOM     35  C   UNL A   1      45.419  30.955  28.585  1.00  0.00     0.049 A 
ATOM     36  H   UNL A   1      44.091  29.380  28.143  1.00  0.00     0.167 HD
ATOM     37  C   UNL A   1      43.282  31.737  29.636  1.00  0.00     0.074 A 
ATOM     38  C   UNL A   1      42.500  32.718  30.370  1.00  0.00     0.031 C 
ATOM     39  C   UNL A   1      44.590  31.896  29.307  1.00  0.00     0.034 A 
BRANCH  26  40
ATOM     40  C   UNL A   1      47.142  27.222  26.049  1.00  0.00     0.023 A 
ATOM     41  C   UNL A   1      48.077  26.428  26.737  1.00  0.00     0.031 A 
ATOM     42  C   UNL A   1      47.419  27.556  24.711  1.00  0.00     0.131 A 
ATOM     43  C   UNL A   1      49.289  26.084  26.117  1.00  0.00     0.055 A 
ATOM     44  C   UNL A   1      48.584  27.128  24.071  1.00  0.00     0.041 A 
ATOM     45  F   UNL A   1      46.587  28.348  24.017  1.00  0.00    -0.206 F 
ATOM     46  C   UNL A   1      49.537  26.405  24.780  1.00  0.00     0.022 A 
BRANCH  43  47
ATOM     47  S   UNL A   1      50.620  25.388  27.138  1.00  0.00     0.124 S 
ATOM     48  O   UNL A   1      49.915  24.324  27.852  1.00  0.00    -0.237 OA
ATOM     49  O   UNL A   1      51.589  24.953  26.141  1.00  0.00    -0.237 OA
ATOM     50  O   UNL A   1      51.040  26.513  27.970  1.00  0.00    -0.744 OA
ENDBRANCH  43  47
ENDBRANCH  26  40
BRANCH  27  51
ATOM     51  C   UNL A   1      38.746  30.747  30.590  1.00  0.00     0.023 A 
ATOM     52  C   UNL A   1      37.711  31.343  29.852  1.00  0.00     0.031 A 
ATOM     53  C   UNL A   1      38.607  30.715  31.992  1.00  0.00     0.131 A 
ATOM     54  C   UNL A   1      36.618  31.925  30.515  1.00  0.00     0.055 A 
ATOM     55  C   UNL A   1      37.486  31.235  32.643  1.00  0.00     0.041 A 
ATOM     56  F   UNL A   1      39.563  30.168  32.761  1.00  0.00    -0.206 F 
ATOM     57  C   UNL A   1      36.490  31.862  31.904  1.00  0.00     0.022 A 
BRANCH  54  58
ATOM     58  S   UNL A   1      35.411  32.870  29.542  1.00  0.00     0.124 S 
ATOM     59  O   UNL A   1      34.775  33.684  30.570  1.00  0.00    -0.237 OA
ATOM     60  O   UNL A   1      36.271  33.579  28.601  1.00  0.00    -0.237 OA
ATOM     61  O   UNL A   1      34.564  31.836  28.951  1.00  0.00    -0.744 OA
ENDBRANCH  54  58
ENDBRANCH  27  51
BRANCH  39  62
ATOM     62  C   UNL A   1      45.214  33.211  29.686  1.00  0.00     0.023 A 
ATOM     63  C   UNL A   1      45.189  34.319  28.825  1.00  0.00     0.031 A 
ATOM     64  C   UNL A   1      45.858  33.344  30.929  1.00  0.00     0.131 A 
ATOM     65  C   UNL A   1      45.860  35.493  29.188  1.00  0.00     0.055 A 
ATOM     66  C   UNL A   1      46.453  34.541  31.318  1.00  0.00     0.041 A 
ATOM     67  F   UNL A   1      45.912  32.311  31.785  1.00  0.00    -0.206 F 
ATOM     68  C   UNL A   1      46.471  35.619  30.438  1.00  0.00     0.022 A 
BRANCH  65  69
ATOM     69  S   UNL A   1      46.028  36.807  27.953  1.00  0.00     0.124 S 
ATOM     70  O   UNL A   1      46.004  36.053  26.704  1.00  0.00    -0.237 OA
ATOM     71  O   UNL A   1      44.858  37.637  28.218  1.00  0.00    -0.237 OA
ATOM     72  O   UNL A   1      47.313  37.422  28.282  1.00  0.00    -0.744 OA
ENDBRANCH  65  69
ENDBRANCH  39  62
ENDBRANCH  13  14
ENDBRANCH   6   8
ENDBRANCH   5   6
ENDBRANCH   4   5
ENDBRANCH   3   4
ENDBRANCH   2   3
ENDBRANCH   1   2
BRANCH   1  73
ATOM     73  C   UNL A   1      33.165  19.882  25.250  1.00  0.00     0.261 C 
BRANCH  73  74
ATOM     74  O   UNL A   1      32.608  21.097  25.770  1.00  0.00    -0.463 OA
BRANCH  74  75
ATOM     75  C   UNL A   1      32.137  22.032  24.920  1.00  0.00     0.310 C 
ATOM     76  O   UNL A   1      31.745  21.800  23.779  1.00  0.00    -0.252 OA
BRANCH  75  77
ATOM     77  C   UNL A   1      32.282  23.405  25.552  1.00  0.00     0.119 C 
ATOM     78  C   UNL A   1      31.693  24.631  24.766  1.00  0.00     0.100 C 
ATOM     79  C   UNL A   1      33.773  23.784  25.716  1.00  0.00     0.027 C 
ATOM     80  C   UNL A   1      32.947  25.566  24.649  1.00  0.00     0.025 C 
ATOM     81  C   UNL A   1      34.456  23.864  24.370  1.00  0.00    -0.027 C 
ATOM     82  C   UNL A   1      33.650  25.283  25.987  1.00  0.00     0.017 C 
ATOM     83  C   UNL A   1      33.974  24.941  23.737  1.00  0.00    -0.027 C 
BRANCH  78  84
ATOM     84  C   UNL A   1      30.600  25.369  25.510  1.00  0.00     0.224 C 
ATOM     85  O   UNL A   1      30.657  25.548  26.730  1.00  0.00    -0.275 OA
ATOM     86  N   UNL A   1      29.532  25.890  24.872  1.00  0.00    -0.352 N 
ATOM     87  H   UNL A   1      28.826  26.173  25.498  1.00  0.00     0.163 HD
BRANCH  86  88
ATOM     88  C   UNL A   1      29.168  26.135  23.491  1.00  0.00     0.155 C 
BRANCH  88  89
ATOM     89  C   UNL A   1      29.122  27.613  23.162  1.00  0.00     0.013 A 
ATOM     90  C   UNL A   1      27.876  28.262  23.337  1.00  0.00     0.009 A 
ATOM     91  C   UNL A   1      30.171  28.402  22.671  1.00  0.00     0.124 A 
ATOM     92  C   UNL A   1      27.619  29.570  22.932  1.00  0.00     0.001 A 
ATOM     93  C   UNL A   1      29.898  29.724  22.251  1.00  0.00     0.047 A 
ATOM     94  C   UNL A   1      28.636  30.303  22.363  1.00  0.00     0.004 A 
BRANCH  91  95
ATOM     95  O   UNL A   1      31.503  28.147  22.546  1.00  0.00    -0.489 OA
BRANCH  95  96
ATOM     96  C   UNL A   1      32.555  28.906  23.134  1.00  0.00     0.265 C 
BRANCH  96  97
ATOM     97  C   UNL A   1      32.670  28.968  24.645  1.00  0.00    -0.011 A 
ATOM     98  C   UNL A   1      31.558  29.006  25.502  1.00  0.00     0.007 A 
ATOM     99  C   UNL A   1      33.957  28.913  25.212  1.00  0.00     0.007 A 
ATOM    100  C   UNL A   1      31.727  28.864  26.883  1.00  0.00     0.000 A 
ATOM    101  C   UNL A   1      34.122  28.790  26.592  1.00  0.00     0.000 A 
ATOM    102  C   UNL A   1      33.006  28.741  27.425  1.00  0.00     0.000 A 
ENDBRANCH  96  97
ENDBRANCH  95  96
ENDBRANCH  91  95
ENDBRANCH  88  89
ENDBRANCH  86  88
ENDBRANCH  78  84
ENDBRANCH  75  77
ENDBRANCH  74  75
ENDBRANCH  73  74
ENDBRANCH   1  73
TORSDOF 23
ENDMDL
MODEL 2
REMARK VINA RESULT:     -11.5      1.801      2.943
REMARK SMILES O=C(OCCOCCOC(=O)[C@@H]1[C@@H](C(=O)NCc2ccccc2OCc2ccccc2)[C@@H]2C=C[C@H]1C2)c1ccc(-c2c3nc(c(-c4cc(S(=O)(=O)[O-])ccc4F)c4ccc([nH]4)c(-c4cc(S(=O)(=O)[O-])ccc4F)c4nc(c(-c5cc(S(=O)(=O)[O-])ccc5F)c5ccc2[nH]5)C=C4)C=C3)cc1
REMARK SMILES IDX 7 1 6 2 5 3 4 4 3 5 2 6 1 7 37 8 38 9 99 10 39 11 98 12
REMARK SMILES IDX 40 13 41 14 42 15 92 16 43 17 97 18 91 19 93 20 44 21 96 22
REMARK SMILES IDX 90 23 89 24 45 26 77 27 57 28 76 29 58 30 61 31 75 32 94 33
REMARK SMILES IDX 59 34 60 35 74 37 95 38 62 39 46 40 47 41 55 42 48 43 54 44
REMARK SMILES IDX 56 45 53 46 49 47 50 48 51 49 52 50 78 51 79 52 87 53 80 54
REMARK SMILES IDX 86 55 88 56 85 57 81 58 82 59 83 60 84 61 63 62 64 63 72 64
REMARK SMILES IDX 65 65 71 66 73 67 70 68 66 69 67 70 68 71 69 72 8 73 9 74
REMARK SMILES IDX 10 75 11 76 12 77 13 78 35 79 32 80 34 81 36 82 33 83 14 84
REMARK SMILES IDX 15 85 16 86 17 88 18 89 19 90 23 91 20 92 22 93 21 94 24 95
REMARK SMILES IDX 25 96 26 97 27 98 31 99 28 100 30 101 29 102
REMARK H PARENT 93 25 61 36 16 87
REMARK Flexibility Score: inf
ROOT
ATOM      1  C   UNL A   1      36.938  23.185  25.458  1.00  0.00     0.202 C 
ENDROOT
BRANCH   1   2
ATOM      2  O   UNL A   1      37.252  21.833  25.791  1.00  0.00    -0.374 OA
BRANCH   2   3
ATOM      3  C   UNL A   1      37.619  20.944  24.750  1.00  0.00     0.202 C 
BRANCH   3   4
ATOM      4  C   UNL A   1      38.539  19.743  25.016  1.00  0.00     0.261 C 
BRANCH   4   5
ATOM      5  O   UNL A   1      39.378  19.873  26.189  1.00  0.00    -0.460 OA
BRANCH   5   6
ATOM      6  C   UNL A   1      40.674  20.312  26.162  1.00  0.00     0.338 C 
ATOM      7  O   UNL A   1      41.564  19.638  25.660  1.00  0.00    -0.246 OA
BRANCH   6   8
ATOM      8  C   UNL A   1      40.980  21.616  26.792  1.00  0.00     0.060 A 
ATOM      9  C   UNL A   1      40.363  22.741  26.291  1.00  0.00     0.016 A 
ATOM     10  C   UNL A   1      41.840  21.779  27.867  1.00  0.00     0.016 A 
ATOM     11  C   UNL A   1      40.848  23.995  26.490  1.00  0.00     0.010 A 
ATOM     12  C   UNL A   1      42.123  23.082  28.310  1.00  0.00     0.010 A 
ATOM     13  C   UNL A   1      41.667  24.196  27.575  1.00  0.00    -0.014 A 
BRANCH  13  14
ATOM     14  C   UNL A   1      42.062  25.593  27.814  1.00  0.00     0.031 A 
ATOM     15  C   UNL A   1      43.312  26.072  27.156  1.00  0.00     0.074 A 
ATOM     16  C   UNL A   1      41.202  26.435  28.427  1.00  0.00     0.049 A 
ATOM     17  N   UNL A   1      43.934  27.206  27.295  1.00  0.00    -0.248 NA
ATOM     18  C   UNL A   1      43.953  25.140  26.212  1.00  0.00     0.031 C 
ATOM     19  C   UNL A   1      39.854  26.079  28.909  1.00  0.00     0.029 A 
ATOM     20  N   UNL A   1      41.289  27.772  28.695  1.00  0.00    -0.354 N 
ATOM     21  C   UNL A   1      45.079  27.096  26.516  1.00  0.00     0.074 A 
ATOM     22  C   UNL A   1      45.063  25.787  25.906  1.00  0.00     0.031 C 
ATOM     23  C   UNL A   1      39.229  27.181  29.345  1.00  0.00     0.029 A 
ATOM     24  C   UNL A   1      40.173  28.285  29.320  1.00  0.00     0.049 A 
ATOM     25  H   UNL A   1      42.075  28.318  28.465  1.00  0.00     0.167 HD
ATOM     26  C   UNL A   1      46.054  28.018  26.358  1.00  0.00     0.034 A 
ATOM     27  C   UNL A   1      39.971  29.496  29.868  1.00  0.00     0.034 A 
ATOM     28  C   UNL A   1      45.992  29.308  26.993  1.00  0.00     0.049 A 
ATOM     29  C   UNL A   1      41.128  30.459  29.791  1.00  0.00     0.074 A 
ATOM     30  C   UNL A   1      46.936  30.315  27.016  1.00  0.00     0.029 A 
ATOM     31  N   UNL A   1      44.896  29.768  27.724  1.00  0.00    -0.354 N 
ATOM     32  N   UNL A   1      42.285  30.307  29.183  1.00  0.00    -0.248 NA
ATOM     33  C   UNL A   1      40.967  31.738  30.482  1.00  0.00     0.031 C 
ATOM     34  C   UNL A   1      46.444  31.347  27.823  1.00  0.00     0.029 A 
ATOM     35  C   UNL A   1      45.153  31.031  28.225  1.00  0.00     0.049 A 
ATOM     36  H   UNL A   1      44.061  29.266  27.864  1.00  0.00     0.167 HD
ATOM     37  C   UNL A   1      42.983  31.489  29.393  1.00  0.00     0.074 A 
ATOM     38  C   UNL A   1      42.101  32.346  30.167  1.00  0.00     0.031 C 
ATOM     39  C   UNL A   1      44.231  31.842  28.991  1.00  0.00     0.034 A 
BRANCH  26  40
ATOM     40  C   UNL A   1      47.285  27.576  25.607  1.00  0.00     0.023 A 
ATOM     41  C   UNL A   1      47.552  27.990  24.289  1.00  0.00     0.031 A 
ATOM     42  C   UNL A   1      48.129  26.605  26.175  1.00  0.00     0.131 A 
ATOM     43  C   UNL A   1      48.567  27.359  23.553  1.00  0.00     0.055 A 
ATOM     44  C   UNL A   1      49.197  26.052  25.468  1.00  0.00     0.041 A 
ATOM     45  F   UNL A   1      47.898  26.138  27.412  1.00  0.00    -0.206 F 
ATOM     46  C   UNL A   1      49.409  26.412  24.141  1.00  0.00     0.022 A 
BRANCH  43  47
ATOM     47  S   UNL A   1      48.645  27.643  21.760  1.00  0.00     0.124 S 
ATOM     48  O   UNL A   1      49.558  28.783  21.684  1.00  0.00    -0.237 OA
ATOM     49  O   UNL A   1      49.164  26.376  21.261  1.00  0.00    -0.237 OA
ATOM     50  O   UNL A   1      47.261  27.938  21.398  1.00  0.00    -0.744 OA
ENDBRANCH  43  47
ENDBRANCH  26  40
BRANCH  27  51
ATOM     51  C   UNL A   1      38.712  29.828  30.604  1.00  0.00     0.023 A 
ATOM     52  C   UNL A   1      37.728  30.649  30.032  1.00  0.00     0.031 A 
ATOM     53  C   UNL A   1      38.498  29.380  31.923  1.00  0.00     0.131 A 
ATOM     54  C   UNL A   1      36.609  31.038  30.789  1.00  0.00     0.055 A 
ATOM     55  C   UNL A   1      37.352  29.715  32.647  1.00  0.00     0.041 A 
ATOM     56  F   UNL A   1      39.403  28.599  32.535  1.00  0.00    -0.206 F 
ATOM     57  C   UNL A   1      36.407  30.565  32.086  1.00  0.00     0.022 A 
BRANCH  54  58
ATOM     58  S   UNL A   1      35.471  32.268  30.091  1.00  0.00     0.124 S 
ATOM     59  O   UNL A   1      34.484  32.396  31.156  1.00  0.00    -0.237 OA
ATOM     60  O   UNL A   1      36.352  33.414  29.888  1.00  0.00    -0.237 OA
ATOM     61  O   UNL A   1      34.990  31.631  28.866  1.00  0.00    -0.744 OA
ENDBRANCH  54  58
ENDBRANCH  27  51
BRANCH  39  62
ATOM     62  C   UNL A   1      44.666  33.241  29.330  1.00  0.00     0.023 A 
ATOM     63  C   UNL A   1      44.315  34.341  28.531  1.00  0.00     0.031 A 
ATOM     64  C   UNL A   1      45.459  33.467  30.468  1.00  0.00     0.131 A 
ATOM     65  C   UNL A   1      44.818  35.609  28.842  1.00  0.00     0.055 A 
ATOM     66  C   UNL A   1      45.888  34.745  30.817  1.00  0.00     0.041 A 
ATOM     67  F   UNL A   1      45.824  32.446  31.262  1.00  0.00    -0.206 F 
ATOM     68  C   UNL A   1      45.582  35.823  29.992  1.00  0.00     0.022 A 
BRANCH  65  69
ATOM     69  S   UNL A   1      44.563  36.953  27.654  1.00  0.00     0.124 S 
ATOM     70  O   UNL A   1      44.945  38.124  28.435  1.00  0.00    -0.237 OA
ATOM     71  O   UNL A   1      45.469  36.587  26.569  1.00  0.00    -0.237 OA
ATOM     72  O   UNL A   1      43.140  36.859  27.332  1.00  0.00    -0.744 OA
ENDBRANCH  65  69
ENDBRANCH  39  62
ENDBRANCH  13  14
ENDBRANCH   6   8
ENDBRANCH   5   6
ENDBRANCH   4   5
ENDBRANCH   3   4
ENDBRANCH   2   3
ENDBRANCH   1   2
BRANCH   1  73
ATOM     73  C   UNL A   1      36.408  23.170  24.039  1.00  0.00     0.261 C 
BRANCH  73  74
ATOM     74  O   UNL A   1      35.106  23.764  24.132  1.00  0.00    -0.463 OA
BRANCH  74  75
ATOM     75  C   UNL A   1      34.098  23.281  23.379  1.00  0.00     0.310 C 
ATOM     76  O   UNL A   1      34.086  23.279  22.151  1.00  0.00    -0.252 OA
BRANCH  75  77
ATOM     77  C   UNL A   1      32.952  22.860  24.283  1.00  0.00     0.119 C 
ATOM     78  C   UNL A   1      33.124  23.089  25.827  1.00  0.00     0.100 C 
ATOM     79  C   UNL A   1      32.702  21.336  24.185  1.00  0.00     0.027 C 
ATOM     80  C   UNL A   1      32.886  21.645  26.392  1.00  0.00     0.025 C 
ATOM     81  C   UNL A   1      33.915  20.564  24.652  1.00  0.00    -0.027 C 
ATOM     82  C   UNL A   1      31.821  21.120  25.415  1.00  0.00     0.017 C 
ATOM     83  C   UNL A   1      34.016  20.735  25.977  1.00  0.00    -0.027 C 
BRANCH  78  84
ATOM     84  C   UNL A   1      32.096  24.025  26.427  1.00  0.00     0.224 C 
ATOM     85  O   UNL A   1      31.392  23.684  27.381  1.00  0.00    -0.275 OA
ATOM     86  N   UNL A   1      31.924  25.281  25.967  1.00  0.00    -0.352 N 
ATOM     87  H   UNL A   1      31.108  25.700  26.325  1.00  0.00     0.163 HD
BRANCH  86  88
ATOM     88  C   UNL A   1      32.647  26.166  25.074  1.00  0.00     0.155 C 
BRANCH  88  89
ATOM     89  C   UNL A   1      32.492  27.623  25.459  1.00  0.00     0.013 A 
ATOM     90  C   UNL A   1      32.587  27.928  26.838  1.00  0.00     0.009 A 
ATOM     91  C   UNL A   1      32.233  28.699  24.600  1.00  0.00     0.124 A 
ATOM     92  C   UNL A   1      32.312  29.182  27.376  1.00  0.00     0.001 A 
ATOM     93  C   UNL A   1      31.942  29.967  25.156  1.00  0.00     0.047 A 
ATOM     94  C   UNL A   1      31.965  30.209  26.528  1.00  0.00     0.004 A 
BRANCH  91  95
ATOM     95  O   UNL A   1      32.245  28.787  23.241  1.00  0.00    -0.489 OA
BRANCH  95  96
ATOM     96  C   UNL A   1      31.227  29.372  22.435  1.00  0.00     0.265 C 
BRANCH  96  97
ATOM     97  C   UNL A   1      29.778  29.236  22.857  1.00  0.00    -0.011 A 
ATOM     98  C   UNL A   1      28.888  30.320  22.921  1.00  0.00     0.007 A 
ATOM     99  C   UNL A   1      29.287  27.945  23.129  1.00  0.00     0.007 A 
ATOM    100  C   UNL A   1      27.522  30.102  23.127  1.00  0.00     0.000 A 
ATOM    101  C   UNL A   1      27.927  27.733  23.352  1.00  0.00     0.000 A 
ATOM    102  C   UNL A   1      27.041  28.808  23.326  1.00  0.00     0.000 A 
ENDBRANCH  96  97
ENDBRANCH  95  96
ENDBRANCH  91  95
ENDBRANCH  88  89
ENDBRANCH  86  88
ENDBRANCH  78  84
ENDBRANCH  75  77
ENDBRANCH  74  75
ENDBRANCH  73  74
ENDBRANCH   1  73
TORSDOF 23
ENDMDL
MODEL 3
REMARK VINA RESULT:     -11.3      1.492      7.324
REMARK SMILES O=C(OCCOCCOC(=O)[C@@H]1[C@@H](C(=O)NCc2ccccc2OCc2ccccc2)[C@@H]2C=C[C@H]1C2)c1ccc(-c2c3nc(c(-c4cc(S(=O)(=O)[O-])ccc4F)c4ccc([nH]4)c(-c4cc(S(=O)(=O)[O-])ccc4F)c4nc(c(-c5cc(S(=O)(=O)[O-])ccc5F)c5ccc2[nH]5)C=C4)C=C3)cc1
REMARK SMILES IDX 7 1 6 2 5 3 4 4 3 5 2 6 1 7 37 8 38 9 99 10 39 11 98 12
REMARK SMILES IDX 40 13 41 14 42 15 92 16 43 17 97 18 91 19 93 20 44 21 96 22
REMARK SMILES IDX 90 23 89 24 45 26 77 27 57 28 76 29 58 30 61 31 75 32 94 33
REMARK SMILES IDX 59 34 60 35 74 37 95 38 62 39 46 40 47 41 55 42 48 43 54 44
REMARK SMILES IDX 56 45 53 46 49 47 50 48 51 49 52 50 78 51 79 52 87 53 80 54
REMARK SMILES IDX 86 55 88 56 85 57 81 58 82 59 83 60 84 61 63 62 64 63 72 64
REMARK SMILES IDX 65 65 71 66 73 67 70 68 66 69 67 70 68 71 69 72 8 73 9 74
REMARK SMILES IDX 10 75 11 76 12 77 13 78 35 79 32 80 34 81 36 82 33 83 14 84
REMARK SMILES IDX 15 85 16 86 17 88 18 89 19 90 23 91 20 92 22 93 21 94 24 95
REMARK SMILES IDX 25 96 26 97 27 98 31 99 28 100 30 101 29 102
REMARK H PARENT 93 25 61 36 16 87
REMARK Flexibility Score: inf
ROOT
ATOM      1  C   UNL A   1      34.104  19.648  24.429  1.00  0.00     0.202 C 
ENDROOT
BRANCH   1   2
ATOM      2  O   UNL A   1      35.202  18.836  24.846  1.00  0.00    -0.374 OA
BRANCH   2   3
ATOM      3  C   UNL A   1      36.509  19.381  24.796  1.00  0.00     0.202 C 
BRANCH   3   4
ATOM      4  C   UNL A   1      36.736  20.888  24.604  1.00  0.00     0.261 C 
BRANCH   4   5
ATOM      5  O   UNL A   1      37.405  21.544  25.708  1.00  0.00    -0.460 OA
BRANCH   5   6
ATOM      6  C   UNL A   1      38.749  21.463  25.948  1.00  0.00     0.338 C 
ATOM      7  O   UNL A   1      39.392  20.465  25.647  1.00  0.00    -0.246 OA
BRANCH   6   8
ATOM      8  C   UNL A   1      39.406  22.608  26.621  1.00  0.00     0.060 A 
ATOM      9  C   UNL A   1      38.948  23.876  26.340  1.00  0.00     0.016 A 
ATOM     10  C   UNL A   1      40.447  22.485  27.527  1.00  0.00     0.016 A 
ATOM     11  C   UNL A   1      39.696  24.991  26.552  1.00  0.00     0.010 A 
ATOM     12  C   UNL A   1      41.051  23.655  28.020  1.00  0.00     0.010 A 
ATOM     13  C   UNL A   1      40.707  24.912  27.480  1.00  0.00    -0.014 A 
BRANCH  13  14
ATOM     14  C   UNL A   1      41.403  26.177  27.760  1.00  0.00     0.031 A 
ATOM     15  C   UNL A   1      40.725  27.145  28.670  1.00  0.00     0.074 A 
ATOM     16  C   UNL A   1      42.687  26.333  27.371  1.00  0.00     0.049 A 
ATOM     17  N   UNL A   1      41.065  28.361  28.981  1.00  0.00    -0.248 NA
ATOM     18  C   UNL A   1      39.486  26.677  29.317  1.00  0.00     0.031 C 
ATOM     19  C   UNL A   1      43.493  25.325  26.656  1.00  0.00     0.029 A 
ATOM     20  N   UNL A   1      43.570  27.357  27.569  1.00  0.00    -0.354 N 
ATOM     21  C   UNL A   1      40.045  28.831  29.799  1.00  0.00     0.074 A 
ATOM     22  C   UNL A   1      39.076  27.769  29.936  1.00  0.00     0.031 C 
ATOM     23  C   UNL A   1      44.756  25.759  26.543  1.00  0.00     0.029 A 
ATOM     24  C   UNL A   1      44.818  27.124  27.033  1.00  0.00     0.049 A 
ATOM     25  H   UNL A   1      43.337  28.183  28.051  1.00  0.00     0.167 HD
ATOM     26  C   UNL A   1      39.941  30.058  30.356  1.00  0.00     0.034 A 
ATOM     27  C   UNL A   1      45.867  27.955  26.897  1.00  0.00     0.034 A 
ATOM     28  C   UNL A   1      40.957  31.062  30.180  1.00  0.00     0.049 A 
ATOM     29  C   UNL A   1      45.672  29.357  27.411  1.00  0.00     0.074 A 
ATOM     30  C   UNL A   1      40.960  32.379  30.592  1.00  0.00     0.029 A 
ATOM     31  N   UNL A   1      42.170  30.842  29.528  1.00  0.00    -0.354 N 
ATOM     32  N   UNL A   1      44.641  29.861  28.056  1.00  0.00    -0.248 NA
ATOM     33  C   UNL A   1      46.760  30.304  27.168  1.00  0.00     0.031 C 
ATOM     34  C   UNL A   1      42.137  32.973  30.123  1.00  0.00     0.029 A 
ATOM     35  C   UNL A   1      42.916  32.005  29.502  1.00  0.00     0.049 A 
ATOM     36  H   UNL A   1      42.454  29.982  29.141  1.00  0.00     0.167 HD
ATOM     37  C   UNL A   1      44.970  31.183  28.324  1.00  0.00     0.074 A 
ATOM     38  C   UNL A   1      46.305  31.385  27.787  1.00  0.00     0.031 C 
ATOM     39  C   UNL A   1      44.247  32.146  28.953  1.00  0.00     0.034 A 
BRANCH  26  40
ATOM     40  C   UNL A   1      38.639  30.377  31.047  1.00  0.00     0.023 A 
ATOM     41  C   UNL A   1      37.549  30.956  30.370  1.00  0.00     0.031 A 
ATOM     42  C   UNL A   1      38.545  30.234  32.443  1.00  0.00     0.131 A 
ATOM     43  C   UNL A   1      36.463  31.461  31.101  1.00  0.00     0.055 A 
ATOM     44  C   UNL A   1      37.418  30.652  33.152  1.00  0.00     0.041 A 
ATOM     45  F   UNL A   1      39.569  29.731  33.149  1.00  0.00    -0.206 F 
ATOM     46  C   UNL A   1      36.377  31.289  32.485  1.00  0.00     0.022 A 
BRANCH  43  47
ATOM     47  S   UNL A   1      35.260  32.522  30.249  1.00  0.00     0.124 S 
ATOM     48  O   UNL A   1      34.272  32.749  31.303  1.00  0.00    -0.237 OA
ATOM     49  O   UNL A   1      36.067  33.676  29.873  1.00  0.00    -0.237 OA
ATOM     50  O   UNL A   1      34.797  31.694  29.139  1.00  0.00    -0.744 OA
ENDBRANCH  43  47
ENDBRANCH  26  40
BRANCH  27  51
ATOM     51  C   UNL A   1      47.112  27.539  26.181  1.00  0.00     0.023 A 
ATOM     52  C   UNL A   1      47.313  27.850  24.827  1.00  0.00     0.031 A 
ATOM     53  C   UNL A   1      48.099  26.763  26.822  1.00  0.00     0.131 A 
ATOM     54  C   UNL A   1      48.437  27.348  24.149  1.00  0.00     0.055 A 
ATOM     55  C   UNL A   1      49.247  26.322  26.161  1.00  0.00     0.041 A 
ATOM     56  F   UNL A   1      47.966  26.420  28.114  1.00  0.00    -0.206 F 
ATOM     57  C   UNL A   1      49.413  26.600  24.809  1.00  0.00     0.022 A 
BRANCH  54  58
ATOM     58  S   UNL A   1      48.552  27.593  22.353  1.00  0.00     0.124 S 
ATOM     59  O   UNL A   1      49.767  28.391  22.241  1.00  0.00    -0.237 OA
ATOM     60  O   UNL A   1      48.636  26.220  21.866  1.00  0.00    -0.237 OA
ATOM     61  O   UNL A   1      47.311  28.294  22.026  1.00  0.00    -0.744 OA
ENDBRANCH  54  58
ENDBRANCH  27  51
BRANCH  39  62
ATOM     62  C   UNL A   1      44.932  33.472  29.143  1.00  0.00     0.023 A 
ATOM     63  C   UNL A   1      44.912  34.465  28.151  1.00  0.00     0.031 A 
ATOM     64  C   UNL A   1      45.628  33.731  30.336  1.00  0.00     0.131 A 
ATOM     65  C   UNL A   1      45.639  35.646  28.341  1.00  0.00     0.055 A 
ATOM     66  C   UNL A   1      46.281  34.942  30.552  1.00  0.00     0.041 A 
ATOM     67  F   UNL A   1      45.679  32.810  31.312  1.00  0.00    -0.206 F 
ATOM     68  C   UNL A   1      46.303  35.901  29.544  1.00  0.00     0.022 A 
BRANCH  65  69
ATOM     69  S   UNL A   1      45.805  36.790  26.946  1.00  0.00     0.124 S 
ATOM     70  O   UNL A   1      46.052  35.877  25.834  1.00  0.00    -0.237 OA
ATOM     71  O   UNL A   1      44.511  37.465  26.940  1.00  0.00    -0.237 OA
ATOM     72  O   UNL A   1      46.941  37.628  27.325  1.00  0.00    -0.744 OA
ENDBRANCH  65  69
ENDBRANCH  39  62
ENDBRANCH  13  14
ENDBRANCH   6   8
ENDBRANCH   5   6
ENDBRANCH   4   5
ENDBRANCH   3   4
ENDBRANCH   2   3
ENDBRANCH   1   2
BRANCH   1  73
ATOM     73  C   UNL A   1      33.014  19.469  25.465  1.00  0.00     0.261 C 
BRANCH  73  74
ATOM     74  O   UNL A   1      31.919  20.258  24.979  1.00  0.00    -0.463 OA
BRANCH  74  75
ATOM     75  C   UNL A   1      32.139  21.526  24.576  1.00  0.00     0.310 C 
ATOM     76  O   UNL A   1      32.620  21.837  23.490  1.00  0.00    -0.252 OA
BRANCH  75  77
ATOM     77  C   UNL A   1      31.812  22.478  25.713  1.00  0.00     0.119 C 
ATOM     78  C   UNL A   1      31.779  24.015  25.385  1.00  0.00     0.100 C 
ATOM     79  C   UNL A   1      32.876  22.388  26.833  1.00  0.00     0.027 C 
ATOM     80  C   UNL A   1      32.804  24.585  26.426  1.00  0.00     0.025 C 
ATOM     81  C   UNL A   1      34.235  22.798  26.315  1.00  0.00    -0.027 C 
ATOM     82  C   UNL A   1      32.553  23.655  27.624  1.00  0.00     0.017 C 
ATOM     83  C   UNL A   1      34.198  24.117  26.087  1.00  0.00    -0.027 C 
BRANCH  78  84
ATOM     84  C   UNL A   1      30.430  24.662  25.621  1.00  0.00     0.224 C 
ATOM     85  O   UNL A   1      29.828  24.527  26.689  1.00  0.00    -0.275 OA
ATOM     86  N   UNL A   1      29.842  25.439  24.688  1.00  0.00    -0.352 N 
ATOM     87  H   UNL A   1      28.902  25.635  24.907  1.00  0.00     0.163 HD
BRANCH  86  88
ATOM     88  C   UNL A   1      30.253  26.055  23.443  1.00  0.00     0.155 C 
BRANCH  88  89
ATOM     89  C   UNL A   1      29.569  27.385  23.205  1.00  0.00     0.013 A 
ATOM     90  C   UNL A   1      28.207  27.474  23.584  1.00  0.00     0.009 A 
ATOM     91  C   UNL A   1      30.127  28.530  22.621  1.00  0.00     0.124 A 
ATOM     92  C   UNL A   1      27.389  28.562  23.291  1.00  0.00     0.001 A 
ATOM     93  C   UNL A   1      29.286  29.625  22.315  1.00  0.00     0.047 A 
ATOM     94  C   UNL A   1      27.930  29.642  22.630  1.00  0.00     0.004 A 
BRANCH  91  95
ATOM     95  O   UNL A   1      31.415  28.838  22.301  1.00  0.00    -0.489 OA
BRANCH  95  96
ATOM     96  C   UNL A   1      32.550  28.646  23.140  1.00  0.00     0.265 C 
BRANCH  96  97
ATOM     97  C   UNL A   1      32.400  28.813  24.639  1.00  0.00    -0.011 A 
ATOM     98  C   UNL A   1      32.967  27.932  25.574  1.00  0.00     0.007 A 
ATOM     99  C   UNL A   1      31.717  29.949  25.113  1.00  0.00     0.007 A 
ATOM    100  C   UNL A   1      32.959  28.247  26.937  1.00  0.00     0.000 A 
ATOM    101  C   UNL A   1      31.695  30.251  26.474  1.00  0.00     0.000 A 
ATOM    102  C   UNL A   1      32.338  29.413  27.384  1.00  0.00     0.000 A 
ENDBRANCH  96  97
ENDBRANCH  95  96
ENDBRANCH  91  95
ENDBRANCH  88  89
ENDBRANCH  86  88
ENDBRANCH  78  84
ENDBRANCH  75  77
ENDBRANCH  74  75
ENDBRANCH  73  74
ENDBRANCH   1  73
TORSDOF 23
ENDMDL
