MODEL 1
REMARK VINA RESULT:     -11.2      0.000      0.000
REMARK SMILES CC1(C)C(=O)N([C@H]2COC[C@@H]2C(=O)OCCOCCOC(=O)c2ccc(-c3c4nc(c(-c5cc(S(=O)(=O)[O-])ccc5F)c5ccc([nH]5)c(-c5cc(S(=O)(=O)[O-])ccc5F)c5nc(c(-c6cc(S(=O)(=O)[O-])ccc6F)c6ccc3[nH]6)C=C5)C=C4)cc2)S1(=O)=O
REMARK SMILES IDX 18 1 17 2 16 3 15 4 14 5 12 6 13 7 11 8 7 9 8 10 9 11 10 12
REMARK SMILES IDX 6 13 1 14 2 15 3 16 4 17 86 18 5 19 87 20 88 21 19 22 20 23
REMARK SMILES IDX 21 24 22 25 23 26 24 27 85 28 25 29 84 30 26 31 27 32 28 33
REMARK SMILES IDX 78 34 29 35 83 36 77 37 79 38 30 39 82 40 76 41 75 42 31 44
REMARK SMILES IDX 63 45 43 46 62 47 44 48 47 49 61 50 80 51 45 52 46 53 60 55
REMARK SMILES IDX 81 56 48 57 32 58 33 59 41 60 34 61 40 62 42 63 39 64 35 65
REMARK SMILES IDX 36 66 37 67 38 68 64 69 65 70 73 71 66 72 72 73 74 74 71 75
REMARK SMILES IDX 67 76 68 77 69 78 70 79 49 80 50 81 58 82 51 83 57 84 59 85
REMARK SMILES IDX 56 86 52 87 53 88 54 89 55 90
REMARK H PARENT 79 43 47 54
REMARK Flexibility Score: inf
ROOT
ATOM      1  C   UNL A   1      35.189  20.653  24.949  1.00  0.00     0.202 C 
ENDROOT
BRANCH   1   2
ATOM      2  O   UNL A   1      34.238  19.605  24.767  1.00  0.00    -0.374 OA
BRANCH   2   3
ATOM      3  C   UNL A   1      32.943  19.938  24.269  1.00  0.00     0.202 C 
BRANCH   3   4
ATOM      4  C   UNL A   1      32.075  20.894  25.095  1.00  0.00     0.261 C 
BRANCH   4   5
ATOM      5  O   UNL A   1      32.221  22.260  24.681  1.00  0.00    -0.463 OA
BRANCH   5   6
ATOM      6  C   UNL A   1      32.287  23.153  25.705  1.00  0.00     0.313 C 
ATOM      7  O   UNL A   1      32.345  22.858  26.892  1.00  0.00    -0.252 OA
BRANCH   6   8
ATOM      8  C   UNL A   1      32.379  24.571  25.178  1.00  0.00     0.151 C 
ATOM      9  C   UNL A   1      31.668  25.492  26.153  1.00  0.00     0.145 C 
ATOM     10  C   UNL A   1      30.225  25.424  25.664  1.00  0.00     0.187 C 
ATOM     11  O   UNL A   1      30.258  25.138  24.258  1.00  0.00    -0.378 OA
ATOM     12  C   UNL A   1      31.566  24.667  23.908  1.00  0.00     0.177 C 
BRANCH   9  13
ATOM     13  N   UNL A   1      32.177  26.863  26.217  1.00  0.00    -0.231 N 
ATOM     14  C   UNL A   1      32.086  30.331  26.238  1.00  0.00     0.041 C 
ATOM     15  C   UNL A   1      32.760  28.973  26.414  1.00  0.00     0.165 C 
ATOM     16  C   UNL A   1      34.126  29.122  27.088  1.00  0.00     0.041 C 
ATOM     17  C   UNL A   1      31.877  27.906  27.102  1.00  0.00     0.259 C 
ATOM     18  S   UNL A   1      32.680  27.880  25.024  1.00  0.00     0.252 S 
ATOM     19  O   UNL A   1      31.232  27.828  28.129  1.00  0.00    -0.272 OA
ATOM     20  O   UNL A   1      31.582  28.175  24.140  1.00  0.00    -0.205 OA
ATOM     21  O   UNL A   1      33.980  27.450  24.568  1.00  0.00    -0.205 OA
ENDBRANCH   9  13
ENDBRANCH   6   8
ENDBRANCH   5   6
ENDBRANCH   4   5
ENDBRANCH   3   4
ENDBRANCH   2   3
ENDBRANCH   1   2
BRANCH   1  22
ATOM     22  C   UNL A   1      36.684  20.313  24.987  1.00  0.00     0.261 C 
BRANCH  22  23
ATOM     23  O   UNL A   1      37.509  21.428  25.351  1.00  0.00    -0.460 OA
BRANCH  23  24
ATOM     24  C   UNL A   1      38.716  21.090  25.870  1.00  0.00     0.338 C 
ATOM     25  O   UNL A   1      39.312  20.037  25.719  1.00  0.00    -0.246 OA
BRANCH  24  26
ATOM     26  C   UNL A   1      39.323  22.276  26.500  1.00  0.00     0.060 A 
ATOM     27  C   UNL A   1      38.849  23.542  26.125  1.00  0.00     0.016 A 
ATOM     28  C   UNL A   1      40.384  22.149  27.396  1.00  0.00     0.016 A 
ATOM     29  C   UNL A   1      39.461  24.692  26.619  1.00  0.00     0.010 A 
ATOM     30  C   UNL A   1      41.003  23.302  27.881  1.00  0.00     0.010 A 
ATOM     31  C   UNL A   1      40.566  24.577  27.471  1.00  0.00    -0.014 A 
BRANCH  31  32
ATOM     32  C   UNL A   1      41.375  25.768  27.825  1.00  0.00     0.031 A 
ATOM     33  C   UNL A   1      40.707  26.890  28.574  1.00  0.00     0.074 A 
ATOM     34  C   UNL A   1      42.666  25.863  27.458  1.00  0.00     0.049 A 
ATOM     35  N   UNL A   1      41.154  28.086  28.847  1.00  0.00    -0.248 NA
ATOM     36  C   UNL A   1      39.347  26.626  29.070  1.00  0.00     0.031 C 
ATOM     37  C   UNL A   1      43.433  24.814  26.788  1.00  0.00     0.029 A 
ATOM     38  N   UNL A   1      43.554  26.903  27.577  1.00  0.00    -0.354 N 
ATOM     39  C   UNL A   1      40.120  28.732  29.515  1.00  0.00     0.074 A 
ATOM     40  C   UNL A   1      39.019  27.797  29.598  1.00  0.00     0.031 C 
ATOM     41  C   UNL A   1      44.671  25.272  26.537  1.00  0.00     0.029 A 
ATOM     42  C   UNL A   1      44.768  26.664  26.972  1.00  0.00     0.049 A 
ATOM     43  H   UNL A   1      43.344  27.740  28.050  1.00  0.00     0.167 HD
ATOM     44  C   UNL A   1      40.095  29.995  30.006  1.00  0.00     0.034 A 
ATOM     45  C   UNL A   1      45.811  27.490  26.755  1.00  0.00     0.034 A 
ATOM     46  C   UNL A   1      41.208  30.906  29.919  1.00  0.00     0.049 A 
ATOM     47  C   UNL A   1      45.720  28.924  27.234  1.00  0.00     0.074 A 
ATOM     48  C   UNL A   1      41.305  32.191  30.424  1.00  0.00     0.029 A 
ATOM     49  N   UNL A   1      42.407  30.641  29.273  1.00  0.00    -0.354 N 
ATOM     50  N   UNL A   1      44.744  29.520  27.880  1.00  0.00    -0.248 NA
ATOM     51  C   UNL A   1      46.869  29.797  26.954  1.00  0.00     0.031 C 
ATOM     52  C   UNL A   1      42.520  32.735  30.002  1.00  0.00     0.029 A 
ATOM     53  C   UNL A   1      43.229  31.755  29.326  1.00  0.00     0.049 A 
ATOM     54  H   UNL A   1      42.640  29.787  28.841  1.00  0.00     0.167 HD
ATOM     55  C   UNL A   1      45.188  30.818  28.128  1.00  0.00     0.074 A 
ATOM     56  C   UNL A   1      46.516  30.918  27.565  1.00  0.00     0.031 C 
ATOM     57  C   UNL A   1      44.559  31.834  28.772  1.00  0.00     0.034 A 
BRANCH  44  58
ATOM     58  C   UNL A   1      38.810  30.494  30.619  1.00  0.00     0.023 A 
ATOM     59  C   UNL A   1      37.863  31.227  29.885  1.00  0.00     0.031 A 
ATOM     60  C   UNL A   1      38.523  30.203  31.965  1.00  0.00     0.131 A 
ATOM     61  C   UNL A   1      36.692  31.678  30.514  1.00  0.00     0.055 A 
ATOM     62  C   UNL A   1      37.323  30.589  32.563  1.00  0.00     0.041 A 
ATOM     63  F   UNL A   1      39.405  29.531  32.722  1.00  0.00    -0.206 F 
ATOM     64  C   UNL A   1      36.402  31.340  31.839  1.00  0.00     0.022 A 
BRANCH  61  65
ATOM     65  S   UNL A   1      35.600  32.810  29.611  1.00  0.00     0.124 S 
ATOM     66  O   UNL A   1      35.242  33.769  30.652  1.00  0.00    -0.237 OA
ATOM     67  O   UNL A   1      36.470  33.310  28.553  1.00  0.00    -0.237 OA
ATOM     68  O   UNL A   1      34.507  31.949  29.165  1.00  0.00    -0.744 OA
ENDBRANCH  61  65
ENDBRANCH  44  58
BRANCH  45  69
ATOM     69  C   UNL A   1      47.019  27.026  26.008  1.00  0.00     0.023 A 
ATOM     70  C   UNL A   1      48.066  26.370  26.673  1.00  0.00     0.031 A 
ATOM     71  C   UNL A   1      47.194  27.323  24.644  1.00  0.00     0.131 A 
ATOM     72  C   UNL A   1      49.268  26.105  25.999  1.00  0.00     0.055 A 
ATOM     73  C   UNL A   1      48.362  26.987  23.957  1.00  0.00     0.041 A 
ATOM     74  F   UNL A   1      46.231  27.957  23.956  1.00  0.00    -0.206 F 
ATOM     75  C   UNL A   1      49.418  26.393  24.641  1.00  0.00     0.022 A 
BRANCH  72  76
ATOM     76  S   UNL A   1      50.687  25.516  26.965  1.00  0.00     0.124 S 
ATOM     77  O   UNL A   1      51.670  25.266  25.917  1.00  0.00    -0.237 OA
ATOM     78  O   UNL A   1      50.953  26.656  27.836  1.00  0.00    -0.237 OA
ATOM     79  O   UNL A   1      50.170  24.325  27.635  1.00  0.00    -0.744 OA
ENDBRANCH  72  76
ENDBRANCH  45  69
BRANCH  57  80
ATOM     80  C   UNL A   1      45.331  33.115  28.983  1.00  0.00     0.023 A 
ATOM     81  C   UNL A   1      45.233  34.206  28.102  1.00  0.00     0.031 A 
ATOM     82  C   UNL A   1      46.161  33.250  30.111  1.00  0.00     0.131 A 
ATOM     83  C   UNL A   1      45.983  35.367  28.343  1.00  0.00     0.055 A 
ATOM     84  C   UNL A   1      46.853  34.431  30.381  1.00  0.00     0.041 A 
ATOM     85  F   UNL A   1      46.297  32.239  30.985  1.00  0.00    -0.206 F 
ATOM     86  C   UNL A   1      46.774  35.495  29.488  1.00  0.00     0.022 A 
BRANCH  83  87
ATOM     87  S   UNL A   1      45.973  36.689  27.101  1.00  0.00     0.124 S 
ATOM     88  O   UNL A   1      46.791  37.714  27.742  1.00  0.00    -0.237 OA
ATOM     89  O   UNL A   1      46.568  36.034  25.941  1.00  0.00    -0.237 OA
ATOM     90  O   UNL A   1      44.557  37.021  26.965  1.00  0.00    -0.744 OA
ENDBRANCH  83  87
ENDBRANCH  57  80
ENDBRANCH  31  32
ENDBRANCH  24  26
ENDBRANCH  23  24
ENDBRANCH  22  23
ENDBRANCH   1  22
TORSDOF 18
ENDMDL
MODEL 2
REMARK VINA RESULT:     -11.1      2.114      2.437
REMARK SMILES CC1(C)C(=O)N([C@H]2COC[C@@H]2C(=O)OCCOCCOC(=O)c2ccc(-c3c4nc(c(-c5cc(S(=O)(=O)[O-])ccc5F)c5ccc([nH]5)c(-c5cc(S(=O)(=O)[O-])ccc5F)c5nc(c(-c6cc(S(=O)(=O)[O-])ccc6F)c6ccc3[nH]6)C=C5)C=C4)cc2)S1(=O)=O
REMARK SMILES IDX 18 1 17 2 16 3 15 4 14 5 12 6 13 7 11 8 7 9 8 10 9 11 10 12
REMARK SMILES IDX 6 13 1 14 2 15 3 16 4 17 86 18 5 19 87 20 88 21 19 22 20 23
REMARK SMILES IDX 21 24 22 25 23 26 24 27 85 28 25 29 84 30 26 31 27 32 28 33
REMARK SMILES IDX 78 34 29 35 83 36 77 37 79 38 30 39 82 40 76 41 75 42 31 44
REMARK SMILES IDX 63 45 43 46 62 47 44 48 47 49 61 50 80 51 45 52 46 53 60 55
REMARK SMILES IDX 81 56 48 57 32 58 33 59 41 60 34 61 40 62 42 63 39 64 35 65
REMARK SMILES IDX 36 66 37 67 38 68 64 69 65 70 73 71 66 72 72 73 74 74 71 75
REMARK SMILES IDX 67 76 68 77 69 78 70 79 49 80 50 81 58 82 51 83 57 84 59 85
REMARK SMILES IDX 56 86 52 87 53 88 54 89 55 90
REMARK H PARENT 79 43 47 54
REMARK Flexibility Score: inf
ROOT
ATOM      1  C   UNL A   1      35.752  21.227  25.252  1.00  0.00     0.202 C 
ENDROOT
BRANCH   1   2
ATOM      2  O   UNL A   1      34.683  20.505  24.642  1.00  0.00    -0.374 OA
BRANCH   2   3
ATOM      3  C   UNL A   1      33.346  20.954  24.859  1.00  0.00     0.202 C 
BRANCH   3   4
ATOM      4  C   UNL A   1      32.750  21.956  23.864  1.00  0.00     0.261 C 
BRANCH   4   5
ATOM      5  O   UNL A   1      33.321  23.265  23.997  1.00  0.00    -0.463 OA
BRANCH   5   6
ATOM      6  C   UNL A   1      33.514  23.916  22.818  1.00  0.00     0.313 C 
ATOM      7  O   UNL A   1      33.649  23.372  21.730  1.00  0.00    -0.252 OA
BRANCH   6   8
ATOM      8  C   UNL A   1      33.443  25.417  23.015  1.00  0.00     0.151 C 
ATOM      9  C   UNL A   1      32.404  25.711  24.083  1.00  0.00     0.145 C 
ATOM     10  C   UNL A   1      31.117  25.775  23.269  1.00  0.00     0.187 C 
ATOM     11  O   UNL A   1      31.464  26.192  21.941  1.00  0.00    -0.378 OA
ATOM     12  C   UNL A   1      32.879  26.041  21.760  1.00  0.00     0.177 C 
BRANCH   9  13
ATOM     13  N   UNL A   1      32.633  26.922  24.873  1.00  0.00    -0.231 N 
ATOM     14  C   UNL A   1      31.858  29.825  26.609  1.00  0.00     0.041 C 
ATOM     15  C   UNL A   1      32.786  28.701  26.154  1.00  0.00     0.165 C 
ATOM     16  C   UNL A   1      34.094  28.715  26.947  1.00  0.00     0.041 C 
ATOM     17  C   UNL A   1      32.130  27.301  26.124  1.00  0.00     0.259 C 
ATOM     18  S   UNL A   1      32.928  28.472  24.404  1.00  0.00     0.252 S 
ATOM     19  O   UNL A   1      31.510  26.605  26.902  1.00  0.00    -0.272 OA
ATOM     20  O   UNL A   1      31.796  28.985  23.677  1.00  0.00    -0.205 OA
ATOM     21  O   UNL A   1      34.288  28.560  23.931  1.00  0.00    -0.205 OA
ENDBRANCH   9  13
ENDBRANCH   6   8
ENDBRANCH   5   6
ENDBRANCH   4   5
ENDBRANCH   3   4
ENDBRANCH   2   3
ENDBRANCH   1   2
BRANCH   1  22
ATOM     22  C   UNL A   1      37.191  20.725  25.082  1.00  0.00     0.261 C 
BRANCH  22  23
ATOM     23  O   UNL A   1      38.172  21.764  25.216  1.00  0.00    -0.460 OA
BRANCH  23  24
ATOM     24  C   UNL A   1      39.219  21.449  26.020  1.00  0.00     0.338 C 
ATOM     25  O   UNL A   1      39.808  20.383  26.075  1.00  0.00    -0.246 OA
BRANCH  24  26
ATOM     26  C   UNL A   1      39.693  22.668  26.699  1.00  0.00     0.060 A 
ATOM     27  C   UNL A   1      39.140  23.898  26.314  1.00  0.00     0.016 A 
ATOM     28  C   UNL A   1      40.707  22.609  27.654  1.00  0.00     0.016 A 
ATOM     29  C   UNL A   1      39.630  25.084  26.858  1.00  0.00     0.010 A 
ATOM     30  C   UNL A   1      41.203  23.799  28.189  1.00  0.00     0.010 A 
ATOM     31  C   UNL A   1      40.691  25.042  27.771  1.00  0.00    -0.014 A 
BRANCH  31  32
ATOM     32  C   UNL A   1      41.381  26.287  28.187  1.00  0.00     0.031 A 
ATOM     33  C   UNL A   1      40.573  27.359  28.868  1.00  0.00     0.074 A 
ATOM     34  C   UNL A   1      42.689  26.472  27.934  1.00  0.00     0.049 A 
ATOM     35  N   UNL A   1      40.910  28.584  29.171  1.00  0.00    -0.248 NA
ATOM     36  C   UNL A   1      39.196  27.001  29.246  1.00  0.00     0.031 C 
ATOM     37  C   UNL A   1      43.582  25.479  27.339  1.00  0.00     0.029 A 
ATOM     38  N   UNL A   1      43.488  27.571  28.123  1.00  0.00    -0.354 N 
ATOM     39  C   UNL A   1      39.779  29.156  29.743  1.00  0.00     0.074 A 
ATOM     40  C   UNL A   1      38.743  28.146  29.735  1.00  0.00     0.031 C 
ATOM     41  C   UNL A   1      44.803  26.023  27.194  1.00  0.00     0.029 A 
ATOM     42  C   UNL A   1      44.764  27.418  27.628  1.00  0.00     0.049 A 
ATOM     43  H   UNL A   1      43.180  28.392  28.571  1.00  0.00     0.167 HD
ATOM     44  C   UNL A   1      39.623  30.414  30.223  1.00  0.00     0.034 A 
ATOM     45  C   UNL A   1      45.762  28.315  27.498  1.00  0.00     0.034 A 
ATOM     46  C   UNL A   1      40.673  31.400  30.228  1.00  0.00     0.049 A 
ATOM     47  C   UNL A   1      45.529  29.739  27.958  1.00  0.00     0.074 A 
ATOM     48  C   UNL A   1      40.636  32.689  30.731  1.00  0.00     0.029 A 
ATOM     49  N   UNL A   1      41.940  31.220  29.690  1.00  0.00    -0.354 N 
ATOM     50  N   UNL A   1      44.461  30.266  28.513  1.00  0.00    -0.248 NA
ATOM     51  C   UNL A   1      46.635  30.691  27.774  1.00  0.00     0.031 C 
ATOM     52  C   UNL A   1      41.842  33.316  30.413  1.00  0.00     0.029 A 
ATOM     53  C   UNL A   1      42.674  32.389  29.807  1.00  0.00     0.049 A 
ATOM     54  H   UNL A   1      42.268  30.384  29.285  1.00  0.00     0.167 HD
ATOM     55  C   UNL A   1      44.791  31.591  28.791  1.00  0.00     0.074 A 
ATOM     56  C   UNL A   1      46.153  31.784  28.346  1.00  0.00     0.031 C 
ATOM     57  C   UNL A   1      44.039  32.561  29.372  1.00  0.00     0.034 A 
BRANCH  44  58
ATOM     58  C   UNL A   1      38.258  30.822  30.718  1.00  0.00     0.023 A 
ATOM     59  C   UNL A   1      37.306  31.427  29.882  1.00  0.00     0.031 A 
ATOM     60  C   UNL A   1      37.900  30.572  32.056  1.00  0.00     0.131 A 
ATOM     61  C   UNL A   1      36.056  31.798  30.404  1.00  0.00     0.055 A 
ATOM     62  C   UNL A   1      36.631  30.875  32.548  1.00  0.00     0.041 A 
ATOM     63  F   UNL A   1      38.781  30.022  32.907  1.00  0.00    -0.206 F 
ATOM     64  C   UNL A   1      35.702  31.501  31.722  1.00  0.00     0.022 A 
BRANCH  61  65
ATOM     65  S   UNL A   1      34.937  32.779  29.367  1.00  0.00     0.124 S 
ATOM     66  O   UNL A   1      34.214  33.559  30.367  1.00  0.00    -0.237 OA
ATOM     67  O   UNL A   1      35.863  33.525  28.521  1.00  0.00    -0.237 OA
ATOM     68  O   UNL A   1      34.137  31.770  28.676  1.00  0.00    -0.744 OA
ENDBRANCH  61  65
ENDBRANCH  44  58
BRANCH  45  69
ATOM     69  C   UNL A   1      47.060  27.937  26.862  1.00  0.00     0.023 A 
ATOM     70  C   UNL A   1      47.243  28.059  25.476  1.00  0.00     0.031 A 
ATOM     71  C   UNL A   1      48.097  27.350  27.610  1.00  0.00     0.131 A 
ATOM     72  C   UNL A   1      48.394  27.531  24.871  1.00  0.00     0.055 A 
ATOM     73  C   UNL A   1      49.275  26.896  27.014  1.00  0.00     0.041 A 
ATOM     74  F   UNL A   1      47.977  27.198  28.939  1.00  0.00    -0.206 F 
ATOM     75  C   UNL A   1      49.420  26.965  25.631  1.00  0.00     0.022 A 
BRANCH  72  76
ATOM     76  S   UNL A   1      48.460  27.457  23.060  1.00  0.00     0.124 S 
ATOM     77  O   UNL A   1      48.418  26.018  22.824  1.00  0.00    -0.237 OA
ATOM     78  O   UNL A   1      47.264  28.204  22.683  1.00  0.00    -0.237 OA
ATOM     79  O   UNL A   1      49.729  28.107  22.739  1.00  0.00    -0.744 OA
ENDBRANCH  72  76
ENDBRANCH  45  69
BRANCH  57  80
ATOM     80  C   UNL A   1      44.698  33.892  29.641  1.00  0.00     0.023 A 
ATOM     81  C   UNL A   1      45.365  34.171  30.847  1.00  0.00     0.031 A 
ATOM     82  C   UNL A   1      44.681  34.891  28.650  1.00  0.00     0.131 A 
ATOM     83  C   UNL A   1      45.950  35.432  31.046  1.00  0.00     0.055 A 
ATOM     84  C   UNL A   1      45.322  36.118  28.827  1.00  0.00     0.041 A 
ATOM     85  F   UNL A   1      44.057  34.682  27.480  1.00  0.00    -0.206 F 
ATOM     86  C   UNL A   1      45.952  36.397  30.035  1.00  0.00     0.022 A 
BRANCH  83  87
ATOM     87  S   UNL A   1      46.647  35.826  32.672  1.00  0.00     0.124 S 
ATOM     88  O   UNL A   1      45.641  35.277  33.575  1.00  0.00    -0.237 OA
ATOM     89  O   UNL A   1      47.927  35.124  32.644  1.00  0.00    -0.237 OA
ATOM     90  O   UNL A   1      46.742  37.284  32.661  1.00  0.00    -0.744 OA
ENDBRANCH  83  87
ENDBRANCH  57  80
ENDBRANCH  31  32
ENDBRANCH  24  26
ENDBRANCH  23  24
ENDBRANCH  22  23
ENDBRANCH   1  22
TORSDOF 18
ENDMDL
MODEL 3
REMARK VINA RESULT:     -11.0      5.094     10.167
REMARK SMILES CC1(C)C(=O)N([C@H]2COC[C@@H]2C(=O)OCCOCCOC(=O)c2ccc(-c3c4nc(c(-c5cc(S(=O)(=O)[O-])ccc5F)c5ccc([nH]5)c(-c5cc(S(=O)(=O)[O-])ccc5F)c5nc(c(-c6cc(S(=O)(=O)[O-])ccc6F)c6ccc3[nH]6)C=C5)C=C4)cc2)S1(=O)=O
REMARK SMILES IDX 18 1 17 2 16 3 15 4 14 5 12 6 13 7 11 8 7 9 8 10 9 11 10 12
REMARK SMILES IDX 6 13 1 14 2 15 3 16 4 17 86 18 5 19 87 20 88 21 19 22 20 23
REMARK SMILES IDX 21 24 22 25 23 26 24 27 85 28 25 29 84 30 26 31 27 32 28 33
REMARK SMILES IDX 78 34 29 35 83 36 77 37 79 38 30 39 82 40 76 41 75 42 31 44
REMARK SMILES IDX 63 45 43 46 62 47 44 48 47 49 61 50 80 51 45 52 46 53 60 55
REMARK SMILES IDX 81 56 48 57 32 58 33 59 41 60 34 61 40 62 42 63 39 64 35 65
REMARK SMILES IDX 36 66 37 67 38 68 64 69 65 70 73 71 66 72 72 73 74 74 71 75
REMARK SMILES IDX 67 76 68 77 69 78 70 79 49 80 50 81 58 82 51 83 57 84 59 85
REMARK SMILES IDX 56 86 52 87 53 88 54 89 55 90
REMARK H PARENT 79 43 47 54
REMARK Flexibility Score: inf
ROOT
ATOM      1  C   UNL A   1      31.416  29.933  25.224  1.00  0.00     0.202 C 
ENDROOT
BRANCH   1   2
ATOM      2  O   UNL A   1      31.106  28.755  24.482  1.00  0.00    -0.374 OA
BRANCH   2   3
ATOM      3  C   UNL A   1      32.173  27.886  24.106  1.00  0.00     0.202 C 
BRANCH   3   4
ATOM      4  C   UNL A   1      32.084  27.176  22.750  1.00  0.00     0.261 C 
BRANCH   4   5
ATOM      5  O   UNL A   1      32.465  25.796  22.829  1.00  0.00    -0.463 OA
BRANCH   5   6
ATOM      6  C   UNL A   1      31.674  25.040  23.638  1.00  0.00     0.313 C 
ATOM      7  O   UNL A   1      30.450  25.024  23.608  1.00  0.00    -0.252 OA
BRANCH   6   8
ATOM      8  C   UNL A   1      32.514  24.139  24.521  1.00  0.00     0.151 C 
ATOM      9  C   UNL A   1      33.559  23.459  23.655  1.00  0.00     0.145 C 
ATOM     10  C   UNL A   1      32.808  22.232  23.150  1.00  0.00     0.187 C 
ATOM     11  O   UNL A   1      31.818  21.896  24.132  1.00  0.00    -0.378 OA
ATOM     12  C   UNL A   1      31.646  23.008  25.021  1.00  0.00     0.177 C 
BRANCH   9  13
ATOM     13  N   UNL A   1      34.813  23.115  24.328  1.00  0.00    -0.231 N 
ATOM     14  C   UNL A   1      37.647  21.269  25.103  1.00  0.00     0.041 C 
ATOM     15  C   UNL A   1      36.759  22.510  25.152  1.00  0.00     0.165 C 
ATOM     16  C   UNL A   1      37.505  23.694  25.769  1.00  0.00     0.041 C 
ATOM     17  C   UNL A   1      36.090  22.871  23.805  1.00  0.00     0.259 C 
ATOM     18  S   UNL A   1      35.095  22.253  25.701  1.00  0.00     0.252 S 
ATOM     19  O   UNL A   1      36.459  23.062  22.664  1.00  0.00    -0.272 OA
ATOM     20  O   UNL A   1      34.649  20.894  25.524  1.00  0.00    -0.205 OA
ATOM     21  O   UNL A   1      34.744  23.067  26.839  1.00  0.00    -0.205 OA
ENDBRANCH   9  13
ENDBRANCH   6   8
ENDBRANCH   5   6
ENDBRANCH   4   5
ENDBRANCH   3   4
ENDBRANCH   2   3
ENDBRANCH   1   2
BRANCH   1  22
ATOM     22  C   UNL A   1      32.814  30.089  25.836  1.00  0.00     0.261 C 
BRANCH  22  23
ATOM     23  O   UNL A   1      32.788  30.488  27.214  1.00  0.00    -0.460 OA
BRANCH  23  24
ATOM     24  C   UNL A   1      33.497  31.613  27.488  1.00  0.00     0.338 C 
ATOM     25  O   UNL A   1      33.077  32.757  27.513  1.00  0.00    -0.246 OA
BRANCH  24  26
ATOM     26  C   UNL A   1      34.840  31.236  27.961  1.00  0.00     0.060 A 
ATOM     27  C   UNL A   1      35.040  29.923  28.412  1.00  0.00     0.016 A 
ATOM     28  C   UNL A   1      35.870  32.174  28.019  1.00  0.00     0.016 A 
ATOM     29  C   UNL A   1      36.267  29.552  28.960  1.00  0.00     0.010 A 
ATOM     30  C   UNL A   1      37.094  31.804  28.579  1.00  0.00     0.010 A 
ATOM     31  C   UNL A   1      37.288  30.502  29.081  1.00  0.00    -0.014 A 
BRANCH  31  32
ATOM     32  C   UNL A   1      38.511  30.203  29.864  1.00  0.00     0.031 A 
ATOM     33  C   UNL A   1      39.480  29.189  29.318  1.00  0.00     0.074 A 
ATOM     34  C   UNL A   1      38.737  30.796  31.050  1.00  0.00     0.049 A 
ATOM     35  N   UNL A   1      40.520  28.645  29.889  1.00  0.00    -0.248 NA
ATOM     36  C   UNL A   1      39.230  28.719  27.945  1.00  0.00     0.031 C 
ATOM     37  C   UNL A   1      37.902  31.838  31.646  1.00  0.00     0.029 A 
ATOM     38  N   UNL A   1      39.725  30.587  31.979  1.00  0.00    -0.354 N 
ATOM     39  C   UNL A   1      41.032  27.743  28.963  1.00  0.00     0.074 A 
ATOM     40  C   UNL A   1      40.180  27.806  27.795  1.00  0.00     0.031 C 
ATOM     41  C   UNL A   1      38.403  32.163  32.850  1.00  0.00     0.029 A 
ATOM     42  C   UNL A   1      39.556  31.312  33.137  1.00  0.00     0.049 A 
ATOM     43  H   UNL A   1      40.484  29.977  31.832  1.00  0.00     0.167 HD
ATOM     44  C   UNL A   1      42.110  26.933  29.084  1.00  0.00     0.034 A 
ATOM     45  C   UNL A   1      40.226  31.256  34.306  1.00  0.00     0.034 A 
ATOM     46  C   UNL A   1      42.950  26.894  30.255  1.00  0.00     0.049 A 
ATOM     47  C   UNL A   1      41.371  30.275  34.446  1.00  0.00     0.074 A 
ATOM     48  C   UNL A   1      44.094  26.143  30.464  1.00  0.00     0.029 A 
ATOM     49  N   UNL A   1      42.730  27.617  31.418  1.00  0.00    -0.354 N 
ATOM     50  N   UNL A   1      41.857  29.438  33.558  1.00  0.00    -0.248 NA
ATOM     51  C   UNL A   1      42.058  30.229  35.746  1.00  0.00     0.031 C 
ATOM     52  C   UNL A   1      44.508  26.340  31.783  1.00  0.00     0.029 A 
ATOM     53  C   UNL A   1      43.689  27.294  32.364  1.00  0.00     0.049 A 
ATOM     54  H   UNL A   1      42.000  28.265  31.552  1.00  0.00     0.167 HD
ATOM     55  C   UNL A   1      42.936  28.810  34.177  1.00  0.00     0.074 A 
ATOM     56  C   UNL A   1      43.032  29.363  35.509  1.00  0.00     0.031 C 
ATOM     57  C   UNL A   1      43.780  27.867  33.686  1.00  0.00     0.034 A 
BRANCH  44  58
ATOM     58  C   UNL A   1      42.409  25.973  27.959  1.00  0.00     0.023 A 
ATOM     59  C   UNL A   1      41.877  24.674  27.919  1.00  0.00     0.031 A 
ATOM     60  C   UNL A   1      43.228  26.386  26.892  1.00  0.00     0.131 A 
ATOM     61  C   UNL A   1      42.204  23.820  26.852  1.00  0.00     0.055 A 
ATOM     62  C   UNL A   1      43.487  25.560  25.799  1.00  0.00     0.041 A 
ATOM     63  F   UNL A   1      43.787  27.607  26.893  1.00  0.00    -0.206 F 
ATOM     64  C   UNL A   1      42.981  24.264  25.779  1.00  0.00     0.022 A 
BRANCH  61  65
ATOM     65  S   UNL A   1      41.691  22.083  26.940  1.00  0.00     0.124 S 
ATOM     66  O   UNL A   1      41.950  21.629  25.577  1.00  0.00    -0.237 OA
ATOM     67  O   UNL A   1      42.573  21.546  27.971  1.00  0.00    -0.237 OA
ATOM     68  O   UNL A   1      40.279  22.161  27.306  1.00  0.00    -0.744 OA
ENDBRANCH  61  65
ENDBRANCH  44  58
BRANCH  45  69
ATOM     69  C   UNL A   1      39.821  32.104  35.468  1.00  0.00     0.023 A 
ATOM     70  C   UNL A   1      39.021  31.579  36.494  1.00  0.00     0.031 A 
ATOM     71  C   UNL A   1      40.136  33.474  35.519  1.00  0.00     0.131 A 
ATOM     72  C   UNL A   1      38.497  32.431  37.480  1.00  0.00     0.055 A 
ATOM     73  C   UNL A   1      39.677  34.302  36.545  1.00  0.00     0.041 A 
ATOM     74  F   UNL A   1      40.891  34.035  34.560  1.00  0.00    -0.206 F 
ATOM     75  C   UNL A   1      38.833  33.785  37.523  1.00  0.00     0.022 A 
BRANCH  72  76
ATOM     76  S   UNL A   1      37.246  31.768  38.615  1.00  0.00     0.124 S 
ATOM     77  O   UNL A   1      37.936  31.865  39.898  1.00  0.00    -0.237 OA
ATOM     78  O   UNL A   1      36.134  32.691  38.413  1.00  0.00    -0.237 OA
ATOM     79  O   UNL A   1      37.028  30.410  38.124  1.00  0.00    -0.744 OA
ENDBRANCH  72  76
ENDBRANCH  45  69
BRANCH  57  80
ATOM     80  C   UNL A   1      44.935  27.437  34.558  1.00  0.00     0.023 A 
ATOM     81  C   UNL A   1      44.855  26.329  35.420  1.00  0.00     0.031 A 
ATOM     82  C   UNL A   1      46.153  28.140  34.499  1.00  0.00     0.131 A 
ATOM     83  C   UNL A   1      45.958  25.982  36.216  1.00  0.00     0.055 A 
ATOM     84  C   UNL A   1      47.267  27.750  35.243  1.00  0.00     0.041 A 
ATOM     85  F   UNL A   1      46.286  29.208  33.697  1.00  0.00    -0.206 F 
ATOM     86  C   UNL A   1      47.169  26.672  36.116  1.00  0.00     0.022 A 
BRANCH  83  87
ATOM     87  S   UNL A   1      45.770  24.661  37.444  1.00  0.00     0.124 S 
ATOM     88  O   UNL A   1      46.958  24.845  38.272  1.00  0.00    -0.237 OA
ATOM     89  O   UNL A   1      44.497  24.996  38.073  1.00  0.00    -0.237 OA
ATOM     90  O   UNL A   1      45.759  23.442  36.637  1.00  0.00    -0.744 OA
ENDBRANCH  83  87
ENDBRANCH  57  80
ENDBRANCH  31  32
ENDBRANCH  24  26
ENDBRANCH  23  24
ENDBRANCH  22  23
ENDBRANCH   1  22
TORSDOF 18
ENDMDL
