MODEL 1
REMARK VINA RESULT:     -10.1      0.000      0.000
REMARK SMILES O=C(Cc1cccn1-c1ccccc1F)OCCOCCOC(=O)c1ccc(-c2c3nc(c(-c4cc(S(=O)(=O)[O-])ccc4F)c4ccc([nH]4)c(-c4cc(S(=O)(=O)[O-])ccc4F)c4nc(c(-c5cc(S(=O)(=O)[O-])ccc5F)c5ccc2[nH]5)C=C4)C=C3)cc1
REMARK SMILES IDX 20 1 19 2 18 3 17 4 16 5 2 6 1 7 3 8 4 9 5 10 8 11 6 12 7 13
REMARK SMILES IDX 9 14 10 15 14 16 11 17 13 18 15 19 12 20 21 21 22 22 23 23
REMARK SMILES IDX 24 24 25 25 26 26 87 27 27 28 86 29 28 30 29 31 30 32 80 33
REMARK SMILES IDX 31 34 85 35 79 36 81 37 32 38 84 39 78 40 77 41 33 43 65 44
REMARK SMILES IDX 45 45 64 46 46 47 49 48 63 49 82 50 47 51 48 52 62 54 83 55
REMARK SMILES IDX 50 56 34 57 35 58 43 59 36 60 42 61 44 62 41 63 37 64 38 65
REMARK SMILES IDX 39 66 40 67 66 68 67 69 75 70 68 71 74 72 76 73 73 74 69 75
REMARK SMILES IDX 70 76 71 77 72 78 51 79 52 80 60 81 53 82 59 83 61 84 58 85
REMARK SMILES IDX 54 86 55 87 56 88 57 89
REMARK H PARENT 81 42 49 53
REMARK Flexibility Score: inf
ROOT
ATOM      1  C   UNL A   1      40.491  21.181  26.459  1.00  0.00     0.202 C 
ENDROOT
BRANCH   1   2
ATOM      2  O   UNL A   1      41.878  21.004  26.185  1.00  0.00    -0.374 OA
BRANCH   2   3
ATOM      3  C   UNL A   1      42.394  19.724  25.856  1.00  0.00     0.202 C 
BRANCH   3   4
ATOM      4  C   UNL A   1      43.841  19.592  25.385  1.00  0.00     0.261 C 
BRANCH   4   5
ATOM      5  O   UNL A   1      44.302  20.594  24.471  1.00  0.00    -0.463 OA
BRANCH   5   6
ATOM      6  C   UNL A   1      45.226  21.540  24.754  1.00  0.00     0.311 C 
ATOM      7  O   UNL A   1      46.293  21.204  25.272  1.00  0.00    -0.252 OA
BRANCH   6   8
ATOM      8  C   UNL A   1      44.903  23.012  24.579  1.00  0.00     0.177 C 
BRANCH   8   9
ATOM      9  C   UNL A   1      45.900  24.004  25.094  1.00  0.00     0.034 A 
ATOM     10  C   UNL A   1      47.022  24.478  24.428  1.00  0.00     0.024 A 
ATOM     11  N   UNL A   1      45.915  24.544  26.371  1.00  0.00    -0.318 N 
ATOM     12  C   UNL A   1      47.754  25.281  25.326  1.00  0.00     0.020 A 
ATOM     13  C   UNL A   1      47.071  25.276  26.521  1.00  0.00     0.091 A 
BRANCH  11  14
ATOM     14  C   UNL A   1      44.976  24.312  27.389  1.00  0.00     0.081 A 
ATOM     15  C   UNL A   1      45.228  23.331  28.351  1.00  0.00     0.030 A 
ATOM     16  C   UNL A   1      43.869  25.155  27.500  1.00  0.00     0.147 A 
ATOM     17  C   UNL A   1      44.353  23.202  29.431  1.00  0.00     0.002 A 
ATOM     18  C   UNL A   1      43.023  25.048  28.596  1.00  0.00     0.041 A 
ATOM     19  F   UNL A   1      43.664  26.141  26.615  1.00  0.00    -0.205 F 
ATOM     20  C   UNL A   1      43.262  24.068  29.561  1.00  0.00     0.003 A 
ENDBRANCH  11  14
ENDBRANCH   8   9
ENDBRANCH   6   8
ENDBRANCH   5   6
ENDBRANCH   4   5
ENDBRANCH   3   4
ENDBRANCH   2   3
ENDBRANCH   1   2
BRANCH   1  21
ATOM     21  C   UNL A   1      39.967  22.456  27.112  1.00  0.00     0.261 C 
BRANCH  21  22
ATOM     22  O   UNL A   1      39.376  23.383  26.205  1.00  0.00    -0.460 OA
BRANCH  22  23
ATOM     23  C   UNL A   1      38.700  24.359  26.841  1.00  0.00     0.338 C 
ATOM     24  O   UNL A   1      37.482  24.500  26.902  1.00  0.00    -0.246 OA
BRANCH  23  25
ATOM     25  C   UNL A   1      39.605  25.350  27.405  1.00  0.00     0.060 A 
ATOM     26  C   UNL A   1      39.468  25.635  28.767  1.00  0.00     0.016 A 
ATOM     27  C   UNL A   1      40.261  26.210  26.519  1.00  0.00     0.016 A 
ATOM     28  C   UNL A   1      39.866  26.873  29.226  1.00  0.00     0.010 A 
ATOM     29  C   UNL A   1      40.620  27.464  26.973  1.00  0.00     0.010 A 
ATOM     30  C   UNL A   1      40.364  27.805  28.309  1.00  0.00    -0.014 A 
BRANCH  30  31
ATOM     31  C   UNL A   1      40.584  29.186  28.766  1.00  0.00     0.031 A 
ATOM     32  C   UNL A   1      39.299  29.879  29.192  1.00  0.00     0.074 A 
ATOM     33  C   UNL A   1      41.877  29.625  28.711  1.00  0.00     0.049 A 
ATOM     34  N   UNL A   1      39.030  31.145  29.274  1.00  0.00    -0.248 NA
ATOM     35  C   UNL A   1      38.103  29.048  29.499  1.00  0.00     0.031 C 
ATOM     36  C   UNL A   1      43.022  28.816  28.228  1.00  0.00     0.029 A 
ATOM     37  N   UNL A   1      42.498  30.812  29.035  1.00  0.00    -0.354 N 
ATOM     38  C   UNL A   1      37.748  31.260  29.838  1.00  0.00     0.074 A 
ATOM     39  C   UNL A   1      37.177  29.948  29.828  1.00  0.00     0.031 C 
ATOM     40  C   UNL A   1      44.160  29.541  28.228  1.00  0.00     0.029 A 
ATOM     41  C   UNL A   1      43.883  30.870  28.737  1.00  0.00     0.049 A 
ATOM     42  H   UNL A   1      42.016  31.565  29.444  1.00  0.00     0.167 HD
ATOM     43  C   UNL A   1      37.278  32.408  30.401  1.00  0.00     0.034 A 
ATOM     44  C   UNL A   1      44.753  31.917  28.864  1.00  0.00     0.034 A 
ATOM     45  C   UNL A   1      38.229  33.460  30.279  1.00  0.00     0.049 A 
ATOM     46  C   UNL A   1      43.998  32.990  29.537  1.00  0.00     0.074 A 
ATOM     47  C   UNL A   1      38.619  34.271  29.245  1.00  0.00     0.029 A 
ATOM     48  N   UNL A   1      39.099  33.642  31.327  1.00  0.00    -0.354 N 
ATOM     49  N   UNL A   1      43.629  32.979  30.783  1.00  0.00    -0.248 NA
ATOM     50  C   UNL A   1      43.564  34.146  28.745  1.00  0.00     0.031 C 
ATOM     51  C   UNL A   1      39.936  34.665  29.574  1.00  0.00     0.029 A 
ATOM     52  C   UNL A   1      40.284  34.105  30.807  1.00  0.00     0.049 A 
ATOM     53  H   UNL A   1      38.908  33.469  32.277  1.00  0.00     0.167 HD
ATOM     54  C   UNL A   1      42.670  33.963  30.834  1.00  0.00     0.074 A 
ATOM     55  C   UNL A   1      42.877  34.801  29.675  1.00  0.00     0.031 C 
ATOM     56  C   UNL A   1      41.507  33.739  31.496  1.00  0.00     0.034 A 
BRANCH  43  57
ATOM     57  C   UNL A   1      36.063  32.666  31.247  1.00  0.00     0.023 A 
ATOM     58  C   UNL A   1      35.194  33.693  30.809  1.00  0.00     0.031 A 
ATOM     59  C   UNL A   1      35.857  32.185  32.549  1.00  0.00     0.131 A 
ATOM     60  C   UNL A   1      34.239  34.259  31.662  1.00  0.00     0.055 A 
ATOM     61  C   UNL A   1      34.860  32.712  33.383  1.00  0.00     0.041 A 
ATOM     62  F   UNL A   1      36.658  31.257  33.091  1.00  0.00    -0.206 F 
ATOM     63  C   UNL A   1      34.064  33.773  32.954  1.00  0.00     0.022 A 
BRANCH  60  64
ATOM     64  S   UNL A   1      33.350  35.737  31.096  1.00  0.00     0.124 S 
ATOM     65  O   UNL A   1      31.992  35.485  31.565  1.00  0.00    -0.237 OA
ATOM     66  O   UNL A   1      34.073  36.805  31.779  1.00  0.00    -0.237 OA
ATOM     67  O   UNL A   1      33.521  35.701  29.645  1.00  0.00    -0.744 OA
ENDBRANCH  60  64
ENDBRANCH  43  57
BRANCH  44  68
ATOM     68  C   UNL A   1      46.175  32.241  28.446  1.00  0.00     0.023 A 
ATOM     69  C   UNL A   1      46.547  33.139  27.432  1.00  0.00     0.031 A 
ATOM     70  C   UNL A   1      47.265  31.682  29.179  1.00  0.00     0.131 A 
ATOM     71  C   UNL A   1      47.909  33.483  27.235  1.00  0.00     0.055 A 
ATOM     72  C   UNL A   1      48.597  32.074  29.026  1.00  0.00     0.041 A 
ATOM     73  F   UNL A   1      47.083  30.731  30.105  1.00  0.00    -0.206 F 
ATOM     74  C   UNL A   1      48.926  32.992  28.055  1.00  0.00     0.022 A 
BRANCH  71  75
ATOM     75  S   UNL A   1      48.426  34.612  25.909  1.00  0.00     0.124 S 
ATOM     76  O   UNL A   1      48.666  35.850  26.646  1.00  0.00    -0.237 OA
ATOM     77  O   UNL A   1      49.610  33.967  25.353  1.00  0.00    -0.237 OA
ATOM     78  O   UNL A   1      47.257  34.626  25.031  1.00  0.00    -0.744 OA
ENDBRANCH  71  75
ENDBRANCH  44  68
BRANCH  56  79
ATOM     79  C   UNL A   1      41.614  32.717  32.612  1.00  0.00     0.023 A 
ATOM     80  C   UNL A   1      41.147  31.406  32.425  1.00  0.00     0.031 A 
ATOM     81  C   UNL A   1      42.076  33.045  33.899  1.00  0.00     0.131 A 
ATOM     82  C   UNL A   1      41.158  30.488  33.493  1.00  0.00     0.055 A 
ATOM     83  C   UNL A   1      42.109  32.130  34.956  1.00  0.00     0.041 A 
ATOM     84  F   UNL A   1      42.495  34.278  34.175  1.00  0.00    -0.206 F 
ATOM     85  C   UNL A   1      41.646  30.839  34.755  1.00  0.00     0.022 A 
BRANCH  82  86
ATOM     86  S   UNL A   1      40.548  28.801  33.223  1.00  0.00     0.124 S 
ATOM     87  O   UNL A   1      39.117  29.008  33.033  1.00  0.00    -0.237 OA
ATOM     88  O   UNL A   1      41.295  28.378  32.042  1.00  0.00    -0.237 OA
ATOM     89  O   UNL A   1      40.914  28.105  34.457  1.00  0.00    -0.744 OA
ENDBRANCH  82  86
ENDBRANCH  56  79
ENDBRANCH  30  31
ENDBRANCH  23  25
ENDBRANCH  22  23
ENDBRANCH  21  22
ENDBRANCH   1  21
TORSDOF 19
ENDMDL
MODEL 2
REMARK VINA RESULT:     -10.0      2.929      5.723
REMARK SMILES O=C(Cc1cccn1-c1ccccc1F)OCCOCCOC(=O)c1ccc(-c2c3nc(c(-c4cc(S(=O)(=O)[O-])ccc4F)c4ccc([nH]4)c(-c4cc(S(=O)(=O)[O-])ccc4F)c4nc(c(-c5cc(S(=O)(=O)[O-])ccc5F)c5ccc2[nH]5)C=C4)C=C3)cc1
REMARK SMILES IDX 20 1 19 2 18 3 17 4 16 5 2 6 1 7 3 8 4 9 5 10 8 11 6 12 7 13
REMARK SMILES IDX 9 14 10 15 14 16 11 17 13 18 15 19 12 20 21 21 22 22 23 23
REMARK SMILES IDX 24 24 25 25 26 26 87 27 27 28 86 29 28 30 29 31 30 32 80 33
REMARK SMILES IDX 31 34 85 35 79 36 81 37 32 38 84 39 78 40 77 41 33 43 65 44
REMARK SMILES IDX 45 45 64 46 46 47 49 48 63 49 82 50 47 51 48 52 62 54 83 55
REMARK SMILES IDX 50 56 34 57 35 58 43 59 36 60 42 61 44 62 41 63 37 64 38 65
REMARK SMILES IDX 39 66 40 67 66 68 67 69 75 70 68 71 74 72 76 73 73 74 69 75
REMARK SMILES IDX 70 76 71 77 72 78 51 79 52 80 60 81 53 82 59 83 61 84 58 85
REMARK SMILES IDX 54 86 55 87 56 88 57 89
REMARK H PARENT 81 42 49 53
REMARK Flexibility Score: inf
ROOT
ATOM      1  C   UNL A   1      38.444  21.729  25.741  1.00  0.00     0.202 C 
ENDROOT
BRANCH   1   2
ATOM      2  O   UNL A   1      37.543  21.503  24.659  1.00  0.00    -0.374 OA
BRANCH   2   3
ATOM      3  C   UNL A   1      36.168  21.252  24.901  1.00  0.00     0.202 C 
BRANCH   3   4
ATOM      4  C   UNL A   1      35.136  22.331  24.580  1.00  0.00     0.261 C 
BRANCH   4   5
ATOM      5  O   UNL A   1      34.217  22.659  25.630  1.00  0.00    -0.463 OA
BRANCH   5   6
ATOM      6  C   UNL A   1      33.359  23.705  25.616  1.00  0.00     0.311 C 
ATOM      7  O   UNL A   1      32.152  23.491  25.492  1.00  0.00    -0.252 OA
BRANCH   6   8
ATOM      8  C   UNL A   1      33.879  25.130  25.599  1.00  0.00     0.177 C 
BRANCH   8   9
ATOM      9  C   UNL A   1      33.647  25.935  24.357  1.00  0.00     0.034 A 
ATOM     10  C   UNL A   1      33.736  25.487  23.046  1.00  0.00     0.024 A 
ATOM     11  N   UNL A   1      33.393  27.297  24.315  1.00  0.00    -0.318 N 
ATOM     12  C   UNL A   1      33.582  26.600  22.194  1.00  0.00     0.020 A 
ATOM     13  C   UNL A   1      33.408  27.703  22.999  1.00  0.00     0.091 A 
BRANCH  11  14
ATOM     14  C   UNL A   1      33.250  28.157  25.417  1.00  0.00     0.081 A 
ATOM     15  C   UNL A   1      34.382  28.579  26.116  1.00  0.00     0.030 A 
ATOM     16  C   UNL A   1      31.990  28.680  25.712  1.00  0.00     0.147 A 
ATOM     17  C   UNL A   1      34.239  29.535  27.122  1.00  0.00     0.002 A 
ATOM     18  C   UNL A   1      31.858  29.659  26.688  1.00  0.00     0.041 A 
ATOM     19  F   UNL A   1      30.913  28.327  24.995  1.00  0.00    -0.205 F 
ATOM     20  C   UNL A   1      32.982  30.086  27.396  1.00  0.00     0.003 A 
ENDBRANCH  11  14
ENDBRANCH   8   9
ENDBRANCH   6   8
ENDBRANCH   5   6
ENDBRANCH   4   5
ENDBRANCH   3   4
ENDBRANCH   2   3
ENDBRANCH   1   2
BRANCH   1  21
ATOM     21  C   UNL A   1      38.574  23.102  26.392  1.00  0.00     0.261 C 
BRANCH  21  22
ATOM     22  O   UNL A   1      39.878  23.671  26.311  1.00  0.00    -0.460 OA
BRANCH  22  23
ATOM     23  C   UNL A   1      40.307  24.135  27.501  1.00  0.00     0.338 C 
ATOM     24  O   UNL A   1      40.983  23.535  28.331  1.00  0.00    -0.246 OA
BRANCH  23  25
ATOM     25  C   UNL A   1      39.778  25.463  27.774  1.00  0.00     0.060 A 
ATOM     26  C   UNL A   1      40.040  26.459  26.828  1.00  0.00     0.016 A 
ATOM     27  C   UNL A   1      39.400  25.755  29.088  1.00  0.00     0.016 A 
ATOM     28  C   UNL A   1      40.067  27.774  27.243  1.00  0.00     0.010 A 
ATOM     29  C   UNL A   1      39.468  27.069  29.510  1.00  0.00     0.010 A 
ATOM     30  C   UNL A   1      39.860  28.059  28.597  1.00  0.00    -0.014 A 
BRANCH  30  31
ATOM     31  C   UNL A   1      40.100  29.432  29.067  1.00  0.00     0.031 A 
ATOM     32  C   UNL A   1      38.817  30.166  29.428  1.00  0.00     0.074 A 
ATOM     33  C   UNL A   1      41.407  29.830  29.081  1.00  0.00     0.049 A 
ATOM     34  N   UNL A   1      38.585  31.439  29.498  1.00  0.00    -0.248 NA
ATOM     35  C   UNL A   1      37.581  29.373  29.670  1.00  0.00     0.031 C 
ATOM     36  C   UNL A   1      42.550  28.985  28.657  1.00  0.00     0.029 A 
ATOM     37  N   UNL A   1      42.049  30.996  29.440  1.00  0.00    -0.354 N 
ATOM     38  C   UNL A   1      37.280  31.595  29.995  1.00  0.00     0.074 A 
ATOM     39  C   UNL A   1      36.668  30.302  29.951  1.00  0.00     0.031 C 
ATOM     40  C   UNL A   1      43.709  29.673  28.718  1.00  0.00     0.029 A 
ATOM     41  C   UNL A   1      43.448  31.010  29.215  1.00  0.00     0.049 A 
ATOM     42  H   UNL A   1      41.569  31.764  29.824  1.00  0.00     0.167 HD
ATOM     43  C   UNL A   1      36.817  32.756  30.535  1.00  0.00     0.034 A 
ATOM     44  C   UNL A   1      44.343  32.029  29.389  1.00  0.00     0.034 A 
ATOM     45  C   UNL A   1      37.807  33.779  30.465  1.00  0.00     0.049 A 
ATOM     46  C   UNL A   1      43.588  33.125  30.025  1.00  0.00     0.074 A 
ATOM     47  C   UNL A   1      38.276  34.577  29.455  1.00  0.00     0.029 A 
ATOM     48  N   UNL A   1      38.626  33.931  31.557  1.00  0.00    -0.354 N 
ATOM     49  N   UNL A   1      43.155  33.125  31.250  1.00  0.00    -0.248 NA
ATOM     50  C   UNL A   1      43.234  34.295  29.214  1.00  0.00     0.031 C 
ATOM     51  C   UNL A   1      39.586  34.928  29.853  1.00  0.00     0.029 A 
ATOM     52  C   UNL A   1      39.850  34.357  31.101  1.00  0.00     0.049 A 
ATOM     53  H   UNL A   1      38.380  33.765  32.496  1.00  0.00     0.167 HD
ATOM     54  C   UNL A   1      42.226  34.139  31.253  1.00  0.00     0.074 A 
ATOM     55  C   UNL A   1      42.520  34.970  30.108  1.00  0.00     0.031 C 
ATOM     56  C   UNL A   1      41.024  33.952  31.853  1.00  0.00     0.034 A 
BRANCH  43  57
ATOM     57  C   UNL A   1      35.569  33.053  31.317  1.00  0.00     0.023 A 
ATOM     58  C   UNL A   1      34.737  34.081  30.815  1.00  0.00     0.031 A 
ATOM     59  C   UNL A   1      35.295  32.607  32.618  1.00  0.00     0.131 A 
ATOM     60  C   UNL A   1      33.753  34.682  31.609  1.00  0.00     0.055 A 
ATOM     61  C   UNL A   1      34.268  33.168  33.392  1.00  0.00     0.041 A 
ATOM     62  F   UNL A   1      36.055  31.681  33.219  1.00  0.00    -0.206 F 
ATOM     63  C   UNL A   1      33.510  34.230  32.901  1.00  0.00     0.022 A 
BRANCH  60  64
ATOM     64  S   UNL A   1      32.914  36.158  30.967  1.00  0.00     0.124 S 
ATOM     65  O   UNL A   1      31.700  36.206  31.775  1.00  0.00    -0.237 OA
ATOM     66  O   UNL A   1      33.897  37.203  31.231  1.00  0.00    -0.237 OA
ATOM     67  O   UNL A   1      32.707  35.843  29.555  1.00  0.00    -0.744 OA
ENDBRANCH  60  64
ENDBRANCH  43  57
BRANCH  44  68
ATOM     68  C   UNL A   1      45.794  32.307  29.047  1.00  0.00     0.023 A 
ATOM     69  C   UNL A   1      46.249  33.055  27.948  1.00  0.00     0.031 A 
ATOM     70  C   UNL A   1      46.821  31.873  29.939  1.00  0.00     0.131 A 
ATOM     71  C   UNL A   1      47.622  33.385  27.816  1.00  0.00     0.055 A 
ATOM     72  C   UNL A   1      48.160  32.255  29.842  1.00  0.00     0.041 A 
ATOM     73  F   UNL A   1      46.563  31.061  30.975  1.00  0.00    -0.206 F 
ATOM     74  C   UNL A   1      48.568  33.030  28.779  1.00  0.00     0.022 A 
BRANCH  71  75
ATOM     75  S   UNL A   1      48.246  34.320  26.389  1.00  0.00     0.124 S 
ATOM     76  O   UNL A   1      49.448  33.568  26.040  1.00  0.00    -0.237 OA
ATOM     77  O   UNL A   1      47.152  34.247  25.428  1.00  0.00    -0.237 OA
ATOM     78  O   UNL A   1      48.483  35.645  26.958  1.00  0.00    -0.744 OA
ENDBRANCH  71  75
ENDBRANCH  44  68
BRANCH  56  79
ATOM     79  C   UNL A   1      41.039  32.926  32.970  1.00  0.00     0.023 A 
ATOM     80  C   UNL A   1      41.053  31.553  32.677  1.00  0.00     0.031 A 
ATOM     81  C   UNL A   1      40.935  33.281  34.327  1.00  0.00     0.131 A 
ATOM     82  C   UNL A   1      40.968  30.604  33.715  1.00  0.00     0.055 A 
ATOM     83  C   UNL A   1      40.874  32.342  35.361  1.00  0.00     0.041 A 
ATOM     84  F   UNL A   1      40.871  34.561  34.690  1.00  0.00    -0.206 F 
ATOM     85  C   UNL A   1      40.889  30.990  35.055  1.00  0.00     0.022 A 
BRANCH  82  86
ATOM     86  S   UNL A   1      40.988  28.836  33.307  1.00  0.00     0.124 S 
ATOM     87  O   UNL A   1      41.740  28.263  34.417  1.00  0.00    -0.237 OA
ATOM     88  O   UNL A   1      39.567  28.504  33.260  1.00  0.00    -0.237 OA
ATOM     89  O   UNL A   1      41.667  28.793  32.012  1.00  0.00    -0.744 OA
ENDBRANCH  82  86
ENDBRANCH  56  79
ENDBRANCH  30  31
ENDBRANCH  23  25
ENDBRANCH  22  23
ENDBRANCH  21  22
ENDBRANCH   1  21
TORSDOF 19
ENDMDL
MODEL 3
REMARK VINA RESULT:      -9.9      4.738     10.870
REMARK SMILES O=C(Cc1cccn1-c1ccccc1F)OCCOCCOC(=O)c1ccc(-c2c3nc(c(-c4cc(S(=O)(=O)[O-])ccc4F)c4ccc([nH]4)c(-c4cc(S(=O)(=O)[O-])ccc4F)c4nc(c(-c5cc(S(=O)(=O)[O-])ccc5F)c5ccc2[nH]5)C=C4)C=C3)cc1
REMARK SMILES IDX 20 1 19 2 18 3 17 4 16 5 2 6 1 7 3 8 4 9 5 10 8 11 6 12 7 13
REMARK SMILES IDX 9 14 10 15 14 16 11 17 13 18 15 19 12 20 21 21 22 22 23 23
REMARK SMILES IDX 24 24 25 25 26 26 87 27 27 28 86 29 28 30 29 31 30 32 80 33
REMARK SMILES IDX 31 34 85 35 79 36 81 37 32 38 84 39 78 40 77 41 33 43 65 44
REMARK SMILES IDX 45 45 64 46 46 47 49 48 63 49 82 50 47 51 48 52 62 54 83 55
REMARK SMILES IDX 50 56 34 57 35 58 43 59 36 60 42 61 44 62 41 63 37 64 38 65
REMARK SMILES IDX 39 66 40 67 66 68 67 69 75 70 68 71 74 72 76 73 73 74 69 75
REMARK SMILES IDX 70 76 71 77 72 78 51 79 52 80 60 81 53 82 59 83 61 84 58 85
REMARK SMILES IDX 54 86 55 87 56 88 57 89
REMARK H PARENT 81 42 49 53
REMARK Flexibility Score: inf
ROOT
ATOM      1  C   UNL A   1      36.532  21.790  24.448  1.00  0.00     0.202 C 
ENDROOT
BRANCH   1   2
ATOM      2  O   UNL A   1      35.951  22.844  25.213  1.00  0.00    -0.374 OA
BRANCH   2   3
ATOM      3  C   UNL A   1      35.194  23.865  24.582  1.00  0.00     0.202 C 
BRANCH   3   4
ATOM      4  C   UNL A   1      34.220  23.500  23.464  1.00  0.00     0.261 C 
BRANCH   4   5
ATOM      5  O   UNL A   1      34.123  24.433  22.381  1.00  0.00    -0.463 OA
BRANCH   5   6
ATOM      6  C   UNL A   1      33.491  25.628  22.436  1.00  0.00     0.311 C 
ATOM      7  O   UNL A   1      33.851  26.535  21.683  1.00  0.00    -0.252 OA
BRANCH   6   8
ATOM      8  C   UNL A   1      32.455  25.905  23.509  1.00  0.00     0.177 C 
BRANCH   8   9
ATOM      9  C   UNL A   1      31.526  27.060  23.290  1.00  0.00     0.034 A 
ATOM     10  C   UNL A   1      30.642  27.228  22.235  1.00  0.00     0.024 A 
ATOM     11  N   UNL A   1      31.467  28.205  24.069  1.00  0.00    -0.318 N 
ATOM     12  C   UNL A   1      30.071  28.512  22.345  1.00  0.00     0.020 A 
ATOM     13  C   UNL A   1      30.621  29.104  23.460  1.00  0.00     0.091 A 
BRANCH  11  14
ATOM     14  C   UNL A   1      32.216  28.469  25.228  1.00  0.00     0.081 A 
ATOM     15  C   UNL A   1      31.623  28.319  26.483  1.00  0.00     0.030 A 
ATOM     16  C   UNL A   1      33.578  28.748  25.109  1.00  0.00     0.147 A 
ATOM     17  C   UNL A   1      32.413  28.455  27.626  1.00  0.00     0.002 A 
ATOM     18  C   UNL A   1      34.368  28.845  26.247  1.00  0.00     0.041 A 
ATOM     19  F   UNL A   1      34.162  28.824  23.904  1.00  0.00    -0.205 F 
ATOM     20  C   UNL A   1      33.785  28.702  27.508  1.00  0.00     0.003 A 
ENDBRANCH  11  14
ENDBRANCH   8   9
ENDBRANCH   6   8
ENDBRANCH   5   6
ENDBRANCH   4   5
ENDBRANCH   3   4
ENDBRANCH   2   3
ENDBRANCH   1   2
BRANCH   1  21
ATOM     21  C   UNL A   1      37.709  20.979  24.980  1.00  0.00     0.261 C 
BRANCH  21  22
ATOM     22  O   UNL A   1      38.700  21.750  25.654  1.00  0.00    -0.460 OA
BRANCH  22  23
ATOM     23  C   UNL A   1      39.793  21.023  25.958  1.00  0.00     0.338 C 
ATOM     24  O   UNL A   1      39.940  19.812  25.819  1.00  0.00    -0.246 OA
BRANCH  23  25
ATOM     25  C   UNL A   1      40.812  21.841  26.597  1.00  0.00     0.060 A 
ATOM     26  C   UNL A   1      40.883  21.795  27.993  1.00  0.00     0.016 A 
ATOM     27  C   UNL A   1      41.375  22.880  25.850  1.00  0.00     0.016 A 
ATOM     28  C   UNL A   1      41.398  22.883  28.665  1.00  0.00     0.010 A 
ATOM     29  C   UNL A   1      41.852  23.987  26.527  1.00  0.00     0.010 A 
ATOM     30  C   UNL A   1      41.803  24.002  27.929  1.00  0.00    -0.014 A 
BRANCH  30  31
ATOM     31  C   UNL A   1      42.149  25.231  28.658  1.00  0.00     0.031 A 
ATOM     32  C   UNL A   1      43.512  25.156  29.330  1.00  0.00     0.074 A 
ATOM     33  C   UNL A   1      41.201  26.215  28.638  1.00  0.00     0.049 A 
ATOM     34  N   UNL A   1      43.978  25.834  30.332  1.00  0.00    -0.248 NA
ATOM     35  C   UNL A   1      44.478  24.118  28.878  1.00  0.00     0.031 C 
ATOM     36  C   UNL A   1      39.891  26.108  27.951  1.00  0.00     0.029 A 
ATOM     37  N   UNL A   1      41.125  27.482  29.173  1.00  0.00    -0.354 N 
ATOM     38  C   UNL A   1      45.328  25.474  30.483  1.00  0.00     0.074 A 
ATOM     39  C   UNL A   1      45.540  24.324  29.657  1.00  0.00     0.031 C 
ATOM     40  C   UNL A   1      39.142  27.210  28.163  1.00  0.00     0.029 A 
ATOM     41  C   UNL A   1      39.892  28.152  28.972  1.00  0.00     0.049 A 
ATOM     42  H   UNL A   1      41.874  27.894  29.661  1.00  0.00     0.167 HD
ATOM     43  C   UNL A   1      46.229  26.220  31.180  1.00  0.00     0.034 A 
ATOM     44  C   UNL A   1      39.481  29.369  29.440  1.00  0.00     0.034 A 
ATOM     45  C   UNL A   1      45.601  27.354  31.769  1.00  0.00     0.049 A 
ATOM     46  C   UNL A   1      40.656  29.965  30.103  1.00  0.00     0.074 A 
ATOM     47  C   UNL A   1      44.793  27.530  32.862  1.00  0.00     0.029 A 
ATOM     48  N   UNL A   1      45.621  28.524  31.049  1.00  0.00    -0.354 N 
ATOM     49  N   UNL A   1      41.713  30.412  29.494  1.00  0.00    -0.248 NA
ATOM     50  C   UNL A   1      40.685  30.014  31.568  1.00  0.00     0.031 C 
ATOM     51  C   UNL A   1      44.058  28.705  32.580  1.00  0.00     0.029 A 
ATOM     52  C   UNL A   1      44.470  29.213  31.345  1.00  0.00     0.049 A 
ATOM     53  H   UNL A   1      46.332  28.815  30.432  1.00  0.00     0.167 HD
ATOM     54  C   UNL A   1      42.641  30.504  30.505  1.00  0.00     0.074 A 
ATOM     55  C   UNL A   1      41.899  30.525  31.744  1.00  0.00     0.031 C 
ATOM     56  C   UNL A   1      43.904  30.053  30.305  1.00  0.00     0.034 A 
BRANCH  43  57
ATOM     57  C   UNL A   1      47.728  26.138  31.259  1.00  0.00     0.023 A 
ATOM     58  C   UNL A   1      48.430  26.203  30.034  1.00  0.00     0.031 A 
ATOM     59  C   UNL A   1      48.465  25.737  32.383  1.00  0.00     0.131 A 
ATOM     60  C   UNL A   1      49.768  25.799  29.933  1.00  0.00     0.055 A 
ATOM     61  C   UNL A   1      49.821  25.390  32.293  1.00  0.00     0.041 A 
ATOM     62  F   UNL A   1      47.890  25.581  33.584  1.00  0.00    -0.206 F 
ATOM     63  C   UNL A   1      50.472  25.391  31.060  1.00  0.00     0.022 A 
BRANCH  60  64
ATOM     64  S   UNL A   1      50.505  25.674  28.279  1.00  0.00     0.124 S 
ATOM     65  O   UNL A   1      50.179  24.305  27.892  1.00  0.00    -0.237 OA
ATOM     66  O   UNL A   1      49.801  26.726  27.554  1.00  0.00    -0.237 OA
ATOM     67  O   UNL A   1      51.924  25.928  28.520  1.00  0.00    -0.744 OA
ENDBRANCH  60  64
ENDBRANCH  43  57
BRANCH  44  68
ATOM     68  C   UNL A   1      38.189  30.160  29.499  1.00  0.00     0.023 A 
ATOM     69  C   UNL A   1      37.651  30.768  30.646  1.00  0.00     0.031 A 
ATOM     70  C   UNL A   1      37.468  30.418  28.294  1.00  0.00     0.131 A 
ATOM     71  C   UNL A   1      36.519  31.617  30.552  1.00  0.00     0.055 A 
ATOM     72  C   UNL A   1      36.396  31.307  28.194  1.00  0.00     0.041 A 
ATOM     73  F   UNL A   1      37.790  29.826  27.135  1.00  0.00    -0.206 F 
ATOM     74  C   UNL A   1      35.921  31.925  29.328  1.00  0.00     0.022 A 
BRANCH  71  75
ATOM     75  S   UNL A   1      35.779  32.388  32.020  1.00  0.00     0.124 S 
ATOM     76  O   UNL A   1      36.368  33.724  31.988  1.00  0.00    -0.237 OA
ATOM     77  O   UNL A   1      34.346  32.322  31.755  1.00  0.00    -0.237 OA
ATOM     78  O   UNL A   1      36.249  31.525  33.102  1.00  0.00    -0.744 OA
ENDBRANCH  71  75
ENDBRANCH  44  68
BRANCH  56  79
ATOM     79  C   UNL A   1      44.350  30.073  28.854  1.00  0.00     0.023 A 
ATOM     80  C   UNL A   1      44.473  28.876  28.130  1.00  0.00     0.031 A 
ATOM     81  C   UNL A   1      44.757  31.251  28.202  1.00  0.00     0.131 A 
ATOM     82  C   UNL A   1      44.980  28.890  26.816  1.00  0.00     0.055 A 
ATOM     83  C   UNL A   1      45.239  31.270  26.890  1.00  0.00     0.041 A 
ATOM     84  F   UNL A   1      44.715  32.423  28.832  1.00  0.00    -0.206 F 
ATOM     85  C   UNL A   1      45.354  30.081  26.188  1.00  0.00     0.022 A 
BRANCH  82  86
ATOM     86  S   UNL A   1      45.128  27.329  25.903  1.00  0.00     0.124 S 
ATOM     87  O   UNL A   1      46.208  26.650  26.611  1.00  0.00    -0.237 OA
ATOM     88  O   UNL A   1      43.799  26.745  26.054  1.00  0.00    -0.237 OA
ATOM     89  O   UNL A   1      45.455  27.760  24.543  1.00  0.00    -0.744 OA
ENDBRANCH  82  86
ENDBRANCH  56  79
ENDBRANCH  30  31
ENDBRANCH  23  25
ENDBRANCH  22  23
ENDBRANCH  21  22
ENDBRANCH   1  21
TORSDOF 19
ENDMDL
