MODEL 1
REMARK VINA RESULT:     -10.1      0.000      0.000
REMARK SMILES Cc1cc(C)c2c(OCCCC(=O)OCCOCCOC(=O)c3ccc(-c4c5nc(c(-c6cc(S(=O)(=O)[O-])ccc6F)c6ccc([nH]6)c(-c6cc(S(=O)(=O)[O-])ccc6F)c6nc(c(-c7cc(S(=O)(=O)[O-])ccc7F)c7ccc4[nH]7)C=C6)C=C5)cc3)nsc2n1
REMARK SMILES IDX 16 1 15 2 14 3 12 4 13 5 11 6 10 7 9 8 8 9 7 10 1 11 2 12
REMARK SMILES IDX 3 13 89 14 4 15 88 16 5 17 6 18 87 19 86 20 17 21 18 22
REMARK SMILES IDX 19 23 20 24 21 25 22 26 23 27 24 28 85 29 25 30 84 31 26 32
REMARK SMILES IDX 27 33 28 34 78 35 29 36 83 37 77 38 79 39 30 40 82 41 76 42
REMARK SMILES IDX 75 43 31 45 63 46 43 47 62 48 44 49 47 50 61 51 80 52 45 53
REMARK SMILES IDX 46 54 60 56 81 57 48 58 32 59 33 60 41 61 34 62 40 63 42 64
REMARK SMILES IDX 39 65 35 66 36 67 37 68 38 69 64 70 65 71 73 72 66 73 72 74
REMARK SMILES IDX 74 75 71 76 67 77 68 78 69 79 70 80 49 81 50 82 58 83 51 84
REMARK SMILES IDX 57 85 59 86 56 87 52 88 53 89 54 90 55 91
REMARK H PARENT 79 44 47 55
REMARK Flexibility Score: inf
ROOT
ATOM      1  C   UNL A   1      38.131  21.502  25.489  1.00  0.00     0.202 C 
ENDROOT
BRANCH   1   2
ATOM      2  C   UNL A   1      36.809  21.937  24.878  1.00  0.00     0.261 C 
BRANCH   2   3
ATOM      3  O   UNL A   1      36.269  23.181  25.418  1.00  0.00    -0.463 OA
BRANCH   3   4
ATOM      4  C   UNL A   1      35.125  23.615  24.830  1.00  0.00     0.305 C 
ATOM      5  O   UNL A   1      34.427  22.899  24.113  1.00  0.00    -0.252 OA
BRANCH   4   6
ATOM      6  C   UNL A   1      34.782  25.094  24.985  1.00  0.00     0.126 C 
BRANCH   6   7
ATOM      7  C   UNL A   1      33.735  25.838  24.153  1.00  0.00     0.053 C 
BRANCH   7   8
ATOM      8  C   UNL A   1      33.212  27.246  24.514  1.00  0.00     0.232 C 
BRANCH   8   9
ATOM      9  O   UNL A   1      34.049  28.199  25.155  1.00  0.00    -0.477 OA
BRANCH   9  10
ATOM     10  C   UNL A   1      33.532  29.061  26.057  1.00  0.00     0.235 A 
ATOM     11  C   UNL A   1      35.041  33.972  28.013  1.00  0.00     0.067 C 
ATOM     12  C   UNL A   1      34.663  32.522  27.906  1.00  0.00     0.039 A 
ATOM     13  C   UNL A   1      35.641  31.543  28.015  1.00  0.00     0.027 A 
ATOM     14  N   UNL A   1      33.379  32.242  27.638  1.00  0.00    -0.240 NA
ATOM     15  C   UNL A   1      35.423  30.235  27.537  1.00  0.00    -0.034 A 
ATOM     16  C   UNL A   1      33.182  30.985  27.200  1.00  0.00     0.147 A 
ATOM     17  C   UNL A   1      36.553  29.243  27.605  1.00  0.00     0.045 C 
ATOM     18  C   UNL A   1      34.144  29.999  26.968  1.00  0.00     0.078 A 
ATOM     19  S   UNL A   1      31.642  30.394  26.795  1.00  0.00    -0.012 S 
ATOM     20  N   UNL A   1      32.199  29.051  26.008  1.00  0.00    -0.153 NA
ENDBRANCH   9  10
ENDBRANCH   8   9
ENDBRANCH   7   8
ENDBRANCH   6   7
ENDBRANCH   4   6
ENDBRANCH   3   4
ENDBRANCH   2   3
ENDBRANCH   1   2
BRANCH   1  21
ATOM     21  O   UNL A   1      38.820  22.499  26.232  1.00  0.00    -0.374 OA
BRANCH  21  22
ATOM     22  C   UNL A   1      40.162  22.229  26.609  1.00  0.00     0.202 C 
BRANCH  22  23
ATOM     23  C   UNL A   1      41.140  23.398  26.592  1.00  0.00     0.261 C 
BRANCH  23  24
ATOM     24  O   UNL A   1      40.754  24.500  27.406  1.00  0.00    -0.460 OA
BRANCH  24  25
ATOM     25  C   UNL A   1      40.529  25.621  26.672  1.00  0.00     0.338 C 
ATOM     26  O   UNL A   1      40.996  25.884  25.580  1.00  0.00    -0.246 OA
BRANCH  25  27
ATOM     27  C   UNL A   1      39.794  26.598  27.481  1.00  0.00     0.060 A 
ATOM     28  C   UNL A   1      40.024  27.925  27.122  1.00  0.00     0.016 A 
ATOM     29  C   UNL A   1      39.341  26.229  28.756  1.00  0.00     0.016 A 
ATOM     30  C   UNL A   1      40.113  28.846  28.135  1.00  0.00     0.010 A 
ATOM     31  C   UNL A   1      39.425  27.157  29.766  1.00  0.00     0.010 A 
ATOM     32  C   UNL A   1      39.920  28.419  29.455  1.00  0.00    -0.014 A 
BRANCH  32  33
ATOM     33  C   UNL A   1      40.143  29.395  30.497  1.00  0.00     0.031 A 
ATOM     34  C   UNL A   1      38.950  30.234  30.709  1.00  0.00     0.074 A 
ATOM     35  C   UNL A   1      41.285  29.506  31.199  1.00  0.00     0.049 A 
ATOM     36  N   UNL A   1      38.783  31.456  30.334  1.00  0.00    -0.248 NA
ATOM     37  C   UNL A   1      37.721  29.564  31.159  1.00  0.00     0.031 C 
ATOM     38  C   UNL A   1      42.450  28.621  31.219  1.00  0.00     0.029 A 
ATOM     39  N   UNL A   1      41.605  30.448  32.123  1.00  0.00    -0.354 N 
ATOM     40  C   UNL A   1      37.498  31.787  30.733  1.00  0.00     0.074 A 
ATOM     41  C   UNL A   1      36.831  30.544  31.009  1.00  0.00     0.031 C 
ATOM     42  C   UNL A   1      43.242  28.950  32.269  1.00  0.00     0.029 A 
ATOM     43  C   UNL A   1      42.715  30.148  32.905  1.00  0.00     0.049 A 
ATOM     44  H   UNL A   1      41.090  31.280  32.232  1.00  0.00     0.167 HD
ATOM     45  C   UNL A   1      37.190  33.065  31.075  1.00  0.00     0.034 A 
ATOM     46  C   UNL A   1      43.126  30.823  34.015  1.00  0.00     0.034 A 
ATOM     47  C   UNL A   1      38.138  33.999  30.506  1.00  0.00     0.049 A 
ATOM     48  C   UNL A   1      42.570  32.197  33.893  1.00  0.00     0.074 A 
ATOM     49  C   UNL A   1      38.538  34.302  29.217  1.00  0.00     0.029 A 
ATOM     50  N   UNL A   1      39.132  34.494  31.322  1.00  0.00    -0.354 N 
ATOM     51  N   UNL A   1      42.931  33.026  32.950  1.00  0.00    -0.248 NA
ATOM     52  C   UNL A   1      41.269  32.464  34.489  1.00  0.00     0.031 C 
ATOM     53  C   UNL A   1      39.948  34.498  29.303  1.00  0.00     0.029 A 
ATOM     54  C   UNL A   1      40.321  34.379  30.642  1.00  0.00     0.049 A 
ATOM     55  H   UNL A   1      39.012  34.864  32.227  1.00  0.00     0.167 HD
ATOM     56  C   UNL A   1      41.755  33.641  32.544  1.00  0.00     0.074 A 
ATOM     57  C   UNL A   1      40.780  33.318  33.584  1.00  0.00     0.031 C 
ATOM     58  C   UNL A   1      41.602  34.114  31.271  1.00  0.00     0.034 A 
BRANCH  45  59
ATOM     59  C   UNL A   1      36.292  33.409  32.239  1.00  0.00     0.023 A 
ATOM     60  C   UNL A   1      35.142  34.167  31.957  1.00  0.00     0.031 A 
ATOM     61  C   UNL A   1      36.632  33.298  33.609  1.00  0.00     0.131 A 
ATOM     62  C   UNL A   1      34.460  34.845  32.979  1.00  0.00     0.055 A 
ATOM     63  C   UNL A   1      35.914  33.924  34.628  1.00  0.00     0.041 A 
ATOM     64  F   UNL A   1      37.723  32.658  34.045  1.00  0.00    -0.206 F 
ATOM     65  C   UNL A   1      34.840  34.733  34.313  1.00  0.00     0.022 A 
BRANCH  62  66
ATOM     66  S   UNL A   1      33.157  36.010  32.512  1.00  0.00     0.124 S 
ATOM     67  O   UNL A   1      31.966  35.174  32.618  1.00  0.00    -0.237 OA
ATOM     68  O   UNL A   1      33.309  37.048  33.526  1.00  0.00    -0.237 OA
ATOM     69  O   UNL A   1      33.528  36.403  31.155  1.00  0.00    -0.744 OA
ENDBRANCH  62  66
ENDBRANCH  45  59
BRANCH  46  70
ATOM     70  C   UNL A   1      43.637  30.251  35.298  1.00  0.00     0.023 A 
ATOM     71  C   UNL A   1      43.247  28.980  35.779  1.00  0.00     0.031 A 
ATOM     72  C   UNL A   1      44.735  30.857  35.951  1.00  0.00     0.131 A 
ATOM     73  C   UNL A   1      43.940  28.374  36.856  1.00  0.00     0.055 A 
ATOM     74  C   UNL A   1      45.416  30.255  37.012  1.00  0.00     0.041 A 
ATOM     75  F   UNL A   1      45.244  32.022  35.522  1.00  0.00    -0.206 F 
ATOM     76  C   UNL A   1      45.028  29.004  37.463  1.00  0.00     0.022 A 
BRANCH  73  77
ATOM     77  S   UNL A   1      43.507  26.694  37.423  1.00  0.00     0.124 S 
ATOM     78  O   UNL A   1      44.136  25.856  36.410  1.00  0.00    -0.237 OA
ATOM     79  O   UNL A   1      44.091  26.649  38.758  1.00  0.00    -0.237 OA
ATOM     80  O   UNL A   1      42.042  26.694  37.398  1.00  0.00    -0.744 OA
ENDBRANCH  73  77
ENDBRANCH  46  70
BRANCH  58  81
ATOM     81  C   UNL A   1      42.823  34.182  30.375  1.00  0.00     0.023 A 
ATOM     82  C   UNL A   1      43.175  33.205  29.412  1.00  0.00     0.031 A 
ATOM     83  C   UNL A   1      43.566  35.374  30.396  1.00  0.00     0.131 A 
ATOM     84  C   UNL A   1      44.237  33.451  28.517  1.00  0.00     0.055 A 
ATOM     85  C   UNL A   1      44.602  35.621  29.497  1.00  0.00     0.041 A 
ATOM     86  F   UNL A   1      43.256  36.350  31.267  1.00  0.00    -0.206 F 
ATOM     87  C   UNL A   1      44.942  34.659  28.552  1.00  0.00     0.022 A 
BRANCH  84  88
ATOM     88  S   UNL A   1      44.695  32.216  27.253  1.00  0.00     0.124 S 
ATOM     89  O   UNL A   1      46.138  32.091  27.417  1.00  0.00    -0.237 OA
ATOM     90  O   UNL A   1      43.903  31.051  27.637  1.00  0.00    -0.237 OA
ATOM     91  O   UNL A   1      44.278  32.841  25.995  1.00  0.00    -0.744 OA
ENDBRANCH  84  88
ENDBRANCH  58  81
ENDBRANCH  32  33
ENDBRANCH  25  27
ENDBRANCH  24  25
ENDBRANCH  23  24
ENDBRANCH  22  23
ENDBRANCH  21  22
ENDBRANCH   1  21
TORSDOF 21
ENDMDL
MODEL 2
REMARK VINA RESULT:     -10.0      4.227      9.129
REMARK SMILES Cc1cc(C)c2c(OCCCC(=O)OCCOCCOC(=O)c3ccc(-c4c5nc(c(-c6cc(S(=O)(=O)[O-])ccc6F)c6ccc([nH]6)c(-c6cc(S(=O)(=O)[O-])ccc6F)c6nc(c(-c7cc(S(=O)(=O)[O-])ccc7F)c7ccc4[nH]7)C=C6)C=C5)cc3)nsc2n1
REMARK SMILES IDX 16 1 15 2 14 3 12 4 13 5 11 6 10 7 9 8 8 9 7 10 1 11 2 12
REMARK SMILES IDX 3 13 89 14 4 15 88 16 5 17 6 18 87 19 86 20 17 21 18 22
REMARK SMILES IDX 19 23 20 24 21 25 22 26 23 27 24 28 85 29 25 30 84 31 26 32
REMARK SMILES IDX 27 33 28 34 78 35 29 36 83 37 77 38 79 39 30 40 82 41 76 42
REMARK SMILES IDX 75 43 31 45 63 46 43 47 62 48 44 49 47 50 61 51 80 52 45 53
REMARK SMILES IDX 46 54 60 56 81 57 48 58 32 59 33 60 41 61 34 62 40 63 42 64
REMARK SMILES IDX 39 65 35 66 36 67 37 68 38 69 64 70 65 71 73 72 66 73 72 74
REMARK SMILES IDX 74 75 71 76 67 77 68 78 69 79 70 80 49 81 50 82 58 83 51 84
REMARK SMILES IDX 57 85 59 86 56 87 52 88 53 89 54 90 55 91
REMARK H PARENT 79 44 47 55
REMARK Flexibility Score: inf
ROOT
ATOM      1  C   UNL A   1      39.848  21.665  26.171  1.00  0.00     0.202 C 
ENDROOT
BRANCH   1   2
ATOM      2  C   UNL A   1      38.431  21.330  25.735  1.00  0.00     0.261 C 
BRANCH   2   3
ATOM      3  O   UNL A   1      37.746  22.400  25.018  1.00  0.00    -0.463 OA
BRANCH   3   4
ATOM      4  C   UNL A   1      36.486  22.103  24.608  1.00  0.00     0.305 C 
ATOM      5  O   UNL A   1      35.945  21.022  24.836  1.00  0.00    -0.252 OA
BRANCH   4   6
ATOM      6  C   UNL A   1      35.783  23.130  23.724  1.00  0.00     0.126 C 
BRANCH   6   7
ATOM      7  C   UNL A   1      34.506  22.863  22.924  1.00  0.00     0.053 C 
BRANCH   7   8
ATOM      8  C   UNL A   1      33.552  23.983  22.455  1.00  0.00     0.232 C 
BRANCH   8   9
ATOM      9  O   UNL A   1      33.974  25.339  22.413  1.00  0.00    -0.477 OA
BRANCH   9  10
ATOM     10  C   UNL A   1      33.217  26.305  22.977  1.00  0.00     0.235 A 
ATOM     11  C   UNL A   1      34.012  30.006  26.962  1.00  0.00     0.067 C 
ATOM     12  C   UNL A   1      33.472  28.867  26.146  1.00  0.00     0.039 A 
ATOM     13  C   UNL A   1      33.736  27.558  26.526  1.00  0.00     0.027 A 
ATOM     14  N   UNL A   1      32.800  29.179  25.028  1.00  0.00    -0.240 NA
ATOM     15  C   UNL A   1      33.607  26.492  25.614  1.00  0.00    -0.034 A 
ATOM     16  C   UNL A   1      32.667  28.148  24.175  1.00  0.00     0.147 A 
ATOM     17  C   UNL A   1      33.991  25.107  26.061  1.00  0.00     0.045 C 
ATOM     18  C   UNL A   1      33.172  26.852  24.312  1.00  0.00     0.078 A 
ATOM     19  S   UNL A   1      31.855  28.295  22.689  1.00  0.00    -0.012 S 
ATOM     20  N   UNL A   1      32.424  26.874  22.065  1.00  0.00    -0.153 NA
ENDBRANCH   9  10
ENDBRANCH   8   9
ENDBRANCH   7   8
ENDBRANCH   6   7
ENDBRANCH   4   6
ENDBRANCH   3   4
ENDBRANCH   2   3
ENDBRANCH   1   2
BRANCH   1  21
ATOM     21  O   UNL A   1      40.694  20.548  26.415  1.00  0.00    -0.374 OA
BRANCH  21  22
ATOM     22  C   UNL A   1      42.069  20.805  26.657  1.00  0.00     0.202 C 
BRANCH  22  23
ATOM     23  C   UNL A   1      43.080  19.877  25.993  1.00  0.00     0.261 C 
BRANCH  23  24
ATOM     24  O   UNL A   1      43.473  20.276  24.685  1.00  0.00    -0.460 OA
BRANCH  24  25
ATOM     25  C   UNL A   1      44.819  20.434  24.583  1.00  0.00     0.338 C 
ATOM     26  O   UNL A   1      45.657  19.552  24.571  1.00  0.00    -0.246 OA
BRANCH  25  27
ATOM     27  C   UNL A   1      45.157  21.854  24.702  1.00  0.00     0.060 A 
ATOM     28  C   UNL A   1      46.043  22.145  25.739  1.00  0.00     0.016 A 
ATOM     29  C   UNL A   1      44.289  22.814  24.161  1.00  0.00     0.016 A 
ATOM     30  C   UNL A   1      45.827  23.300  26.448  1.00  0.00     0.010 A 
ATOM     31  C   UNL A   1      44.082  23.972  24.870  1.00  0.00     0.010 A 
ATOM     32  C   UNL A   1      44.774  24.141  26.064  1.00  0.00    -0.014 A 
BRANCH  32  33
ATOM     33  C   UNL A   1      44.508  25.281  26.910  1.00  0.00     0.031 A 
ATOM     34  C   UNL A   1      45.640  26.226  26.908  1.00  0.00     0.074 A 
ATOM     35  C   UNL A   1      43.363  25.469  27.592  1.00  0.00     0.049 A 
ATOM     36  N   UNL A   1      46.506  26.403  27.847  1.00  0.00    -0.248 NA
ATOM     37  C   UNL A   1      45.995  26.856  25.628  1.00  0.00     0.031 C 
ATOM     38  C   UNL A   1      42.110  24.717  27.521  1.00  0.00     0.029 A 
ATOM     39  N   UNL A   1      43.072  26.460  28.474  1.00  0.00    -0.354 N 
ATOM     40  C   UNL A   1      47.379  27.363  27.361  1.00  0.00     0.074 A 
ATOM     41  C   UNL A   1      47.160  27.423  25.941  1.00  0.00     0.031 C 
ATOM     42  C   UNL A   1      41.136  25.414  28.157  1.00  0.00     0.029 A 
ATOM     43  C   UNL A   1      41.725  26.582  28.793  1.00  0.00     0.049 A 
ATOM     44  H   UNL A   1      43.763  27.046  28.857  1.00  0.00     0.167 HD
ATOM     45  C   UNL A   1      47.998  28.223  28.210  1.00  0.00     0.034 A 
ATOM     46  C   UNL A   1      41.151  27.600  29.493  1.00  0.00     0.034 A 
ATOM     47  C   UNL A   1      48.026  27.696  29.557  1.00  0.00     0.049 A 
ATOM     48  C   UNL A   1      42.236  28.198  30.316  1.00  0.00     0.074 A 
ATOM     49  C   UNL A   1      48.544  26.550  30.133  1.00  0.00     0.029 A 
ATOM     50  N   UNL A   1      47.102  28.173  30.461  1.00  0.00    -0.354 N 
ATOM     51  N   UNL A   1      42.838  27.547  31.275  1.00  0.00    -0.248 NA
ATOM     52  C   UNL A   1      42.989  29.310  29.753  1.00  0.00     0.031 C 
ATOM     53  C   UNL A   1      47.565  26.138  31.084  1.00  0.00     0.029 A 
ATOM     54  C   UNL A   1      46.542  27.087  31.092  1.00  0.00     0.049 A 
ATOM     55  H   UNL A   1      46.884  29.119  30.626  1.00  0.00     0.167 HD
ATOM     56  C   UNL A   1      44.179  27.880  31.148  1.00  0.00     0.074 A 
ATOM     57  C   UNL A   1      44.199  29.034  30.249  1.00  0.00     0.031 C 
ATOM     58  C   UNL A   1      45.166  27.025  31.549  1.00  0.00     0.034 A 
BRANCH  45  59
ATOM     59  C   UNL A   1      48.197  29.687  27.893  1.00  0.00     0.023 A 
ATOM     60  C   UNL A   1      47.041  30.466  27.720  1.00  0.00     0.031 A 
ATOM     61  C   UNL A   1      49.409  30.285  27.472  1.00  0.00     0.131 A 
ATOM     62  C   UNL A   1      47.102  31.709  27.069  1.00  0.00     0.055 A 
ATOM     63  C   UNL A   1      49.473  31.548  26.883  1.00  0.00     0.041 A 
ATOM     64  F   UNL A   1      50.591  29.661  27.518  1.00  0.00    -0.206 F 
ATOM     65  C   UNL A   1      48.311  32.255  26.646  1.00  0.00     0.022 A 
BRANCH  62  66
ATOM     66  S   UNL A   1      45.548  32.530  26.645  1.00  0.00     0.124 S 
ATOM     67  O   UNL A   1      45.999  33.533  25.687  1.00  0.00    -0.237 OA
ATOM     68  O   UNL A   1      44.767  31.424  26.100  1.00  0.00    -0.237 OA
ATOM     69  O   UNL A   1      45.081  33.052  27.926  1.00  0.00    -0.744 OA
ENDBRANCH  62  66
ENDBRANCH  45  59
BRANCH  46  70
ATOM     70  C   UNL A   1      39.855  28.289  29.211  1.00  0.00     0.023 A 
ATOM     71  C   UNL A   1      39.037  28.829  30.231  1.00  0.00     0.031 A 
ATOM     72  C   UNL A   1      39.524  28.654  27.886  1.00  0.00     0.131 A 
ATOM     73  C   UNL A   1      37.957  29.687  29.909  1.00  0.00     0.055 A 
ATOM     74  C   UNL A   1      38.458  29.501  27.574  1.00  0.00     0.041 A 
ATOM     75  F   UNL A   1      40.283  28.271  26.849  1.00  0.00    -0.206 F 
ATOM     76  C   UNL A   1      37.675  30.031  28.585  1.00  0.00     0.022 A 
BRANCH  73  77
ATOM     77  S   UNL A   1      36.954  30.465  31.220  1.00  0.00     0.124 S 
ATOM     78  O   UNL A   1      37.892  31.419  31.800  1.00  0.00    -0.237 OA
ATOM     79  O   UNL A   1      35.835  31.027  30.474  1.00  0.00    -0.237 OA
ATOM     80  O   UNL A   1      36.603  29.341  32.092  1.00  0.00    -0.744 OA
ENDBRANCH  73  77
ENDBRANCH  46  70
BRANCH  58  81
ATOM     81  C   UNL A   1      44.778  25.808  32.365  1.00  0.00     0.023 A 
ATOM     82  C   UNL A   1      44.465  25.827  33.746  1.00  0.00     0.031 A 
ATOM     83  C   UNL A   1      44.564  24.610  31.664  1.00  0.00     0.131 A 
ATOM     84  C   UNL A   1      43.954  24.668  34.367  1.00  0.00     0.055 A 
ATOM     85  C   UNL A   1      44.040  23.473  32.277  1.00  0.00     0.041 A 
ATOM     86  F   UNL A   1      44.813  24.542  30.345  1.00  0.00    -0.206 F 
ATOM     87  C   UNL A   1      43.732  23.498  33.633  1.00  0.00     0.022 A 
BRANCH  84  88
ATOM     88  S   UNL A   1      43.522  24.674  36.140  1.00  0.00     0.124 S 
ATOM     89  O   UNL A   1      43.723  26.066  36.527  1.00  0.00    -0.237 OA
ATOM     90  O   UNL A   1      42.140  24.203  36.139  1.00  0.00    -0.237 OA
ATOM     91  O   UNL A   1      44.479  23.736  36.730  1.00  0.00    -0.744 OA
ENDBRANCH  84  88
ENDBRANCH  58  81
ENDBRANCH  32  33
ENDBRANCH  25  27
ENDBRANCH  24  25
ENDBRANCH  23  24
ENDBRANCH  22  23
ENDBRANCH  21  22
ENDBRANCH   1  21
TORSDOF 21
ENDMDL
MODEL 3
REMARK VINA RESULT:     -10.0      4.796     10.219
REMARK SMILES Cc1cc(C)c2c(OCCCC(=O)OCCOCCOC(=O)c3ccc(-c4c5nc(c(-c6cc(S(=O)(=O)[O-])ccc6F)c6ccc([nH]6)c(-c6cc(S(=O)(=O)[O-])ccc6F)c6nc(c(-c7cc(S(=O)(=O)[O-])ccc7F)c7ccc4[nH]7)C=C6)C=C5)cc3)nsc2n1
REMARK SMILES IDX 16 1 15 2 14 3 12 4 13 5 11 6 10 7 9 8 8 9 7 10 1 11 2 12
REMARK SMILES IDX 3 13 89 14 4 15 88 16 5 17 6 18 87 19 86 20 17 21 18 22
REMARK SMILES IDX 19 23 20 24 21 25 22 26 23 27 24 28 85 29 25 30 84 31 26 32
REMARK SMILES IDX 27 33 28 34 78 35 29 36 83 37 77 38 79 39 30 40 82 41 76 42
REMARK SMILES IDX 75 43 31 45 63 46 43 47 62 48 44 49 47 50 61 51 80 52 45 53
REMARK SMILES IDX 46 54 60 56 81 57 48 58 32 59 33 60 41 61 34 62 40 63 42 64
REMARK SMILES IDX 39 65 35 66 36 67 37 68 38 69 64 70 65 71 73 72 66 73 72 74
REMARK SMILES IDX 74 75 71 76 67 77 68 78 69 79 70 80 49 81 50 82 58 83 51 84
REMARK SMILES IDX 57 85 59 86 56 87 52 88 53 89 54 90 55 91
REMARK H PARENT 79 44 47 55
REMARK Flexibility Score: inf
ROOT
ATOM      1  C   UNL A   1      40.886  20.938  27.617  1.00  0.00     0.202 C 
ENDROOT
BRANCH   1   2
ATOM      2  C   UNL A   1      40.146  21.239  26.323  1.00  0.00     0.261 C 
BRANCH   2   3
ATOM      3  O   UNL A   1      39.342  22.457  26.351  1.00  0.00    -0.463 OA
BRANCH   3   4
ATOM      4  C   UNL A   1      38.118  22.352  25.774  1.00  0.00     0.305 C 
ATOM      5  O   UNL A   1      37.623  21.275  25.446  1.00  0.00    -0.252 OA
BRANCH   4   6
ATOM      6  C   UNL A   1      37.404  23.654  25.418  1.00  0.00     0.126 C 
BRANCH   6   7
ATOM      7  C   UNL A   1      35.959  23.986  25.796  1.00  0.00     0.053 C 
BRANCH   7   8
ATOM      8  C   UNL A   1      34.999  24.761  24.867  1.00  0.00     0.232 C 
BRANCH   8   9
ATOM      9  O   UNL A   1      33.676  25.079  25.277  1.00  0.00    -0.477 OA
BRANCH   9  10
ATOM     10  C   UNL A   1      32.745  24.106  25.384  1.00  0.00     0.235 A 
ATOM     11  C   UNL A   1      32.569  18.765  24.096  1.00  0.00     0.067 C 
ATOM     12  C   UNL A   1      32.277  20.237  24.167  1.00  0.00     0.039 A 
ATOM     13  C   UNL A   1      32.636  21.064  23.110  1.00  0.00     0.027 A 
ATOM     14  N   UNL A   1      31.731  20.700  25.301  1.00  0.00    -0.240 NA
ATOM     15  C   UNL A   1      32.753  22.458  23.281  1.00  0.00    -0.034 A 
ATOM     16  C   UNL A   1      31.833  22.034  25.442  1.00  0.00     0.147 A 
ATOM     17  C   UNL A   1      33.229  23.290  22.120  1.00  0.00     0.045 C 
ATOM     18  C   UNL A   1      32.459  22.940  24.583  1.00  0.00     0.078 A 
ATOM     19  S   UNL A   1      31.216  22.855  26.796  1.00  0.00    -0.012 S 
ATOM     20  N   UNL A   1      32.023  24.266  26.495  1.00  0.00    -0.153 NA
ENDBRANCH   9  10
ENDBRANCH   8   9
ENDBRANCH   7   8
ENDBRANCH   6   7
ENDBRANCH   4   6
ENDBRANCH   3   4
ENDBRANCH   2   3
ENDBRANCH   1   2
BRANCH   1  21
ATOM     21  O   UNL A   1      41.926  19.974  27.517  1.00  0.00    -0.374 OA
BRANCH  21  22
ATOM     22  C   UNL A   1      41.874  19.060  26.431  1.00  0.00     0.202 C 
BRANCH  22  23
ATOM     23  C   UNL A   1      43.143  18.883  25.605  1.00  0.00     0.261 C 
BRANCH  23  24
ATOM     24  O   UNL A   1      43.391  19.933  24.677  1.00  0.00    -0.460 OA
BRANCH  24  25
ATOM     25  C   UNL A   1      44.717  20.079  24.416  1.00  0.00     0.338 C 
ATOM     26  O   UNL A   1      45.545  19.192  24.328  1.00  0.00    -0.246 OA
BRANCH  25  27
ATOM     27  C   UNL A   1      45.072  21.500  24.460  1.00  0.00     0.060 A 
ATOM     28  C   UNL A   1      46.022  21.821  25.429  1.00  0.00     0.016 A 
ATOM     29  C   UNL A   1      44.179  22.447  23.937  1.00  0.00     0.016 A 
ATOM     30  C   UNL A   1      45.859  23.003  26.105  1.00  0.00     0.010 A 
ATOM     31  C   UNL A   1      44.025  23.633  24.613  1.00  0.00     0.010 A 
ATOM     32  C   UNL A   1      44.791  23.840  25.754  1.00  0.00    -0.014 A 
BRANCH  32  33
ATOM     33  C   UNL A   1      44.585  25.013  26.571  1.00  0.00     0.031 A 
ATOM     34  C   UNL A   1      45.730  25.938  26.477  1.00  0.00     0.074 A 
ATOM     35  C   UNL A   1      43.481  25.244  27.304  1.00  0.00     0.049 A 
ATOM     36  N   UNL A   1      46.646  26.134  27.362  1.00  0.00    -0.248 NA
ATOM     37  C   UNL A   1      46.028  26.517  25.158  1.00  0.00     0.031 C 
ATOM     38  C   UNL A   1      42.215  24.511  27.325  1.00  0.00     0.029 A 
ATOM     39  N   UNL A   1      43.251  26.270  28.163  1.00  0.00    -0.354 N 
ATOM     40  C   UNL A   1      47.506  27.062  26.798  1.00  0.00     0.074 A 
ATOM     41  C   UNL A   1      47.215  27.075  25.390  1.00  0.00     0.031 C 
ATOM     42  C   UNL A   1      41.286  25.246  27.984  1.00  0.00     0.029 A 
ATOM     43  C   UNL A   1      41.924  26.426  28.546  1.00  0.00     0.049 A 
ATOM     44  H   UNL A   1      43.970  26.859  28.489  1.00  0.00     0.167 HD
ATOM     45  C   UNL A   1      48.182  27.942  27.582  1.00  0.00     0.034 A 
ATOM     46  C   UNL A   1      41.403  27.478  29.237  1.00  0.00     0.034 A 
ATOM     47  C   UNL A   1      48.272  27.462  28.944  1.00  0.00     0.049 A 
ATOM     48  C   UNL A   1      42.537  28.087  29.981  1.00  0.00     0.074 A 
ATOM     49  C   UNL A   1      48.803  26.328  29.534  1.00  0.00     0.029 A 
ATOM     50  N   UNL A   1      47.404  27.986  29.877  1.00  0.00    -0.354 N 
ATOM     51  N   UNL A   1      43.179  27.460  30.931  1.00  0.00    -0.248 NA
ATOM     52  C   UNL A   1      43.276  29.165  29.341  1.00  0.00     0.031 C 
ATOM     53  C   UNL A   1      47.868  25.966  30.549  1.00  0.00     0.029 A 
ATOM     54  C   UNL A   1      46.861  26.932  30.575  1.00  0.00     0.049 A 
ATOM     55  H   UNL A   1      47.208  28.940  30.019  1.00  0.00     0.167 HD
ATOM     56  C   UNL A   1      44.516  27.766  30.723  1.00  0.00     0.074 A 
ATOM     57  C   UNL A   1      44.507  28.887  29.784  1.00  0.00     0.031 C 
ATOM     58  C   UNL A   1      45.510  26.909  31.104  1.00  0.00     0.034 A 
BRANCH  45  59
ATOM     59  C   UNL A   1      48.386  29.389  27.203  1.00  0.00     0.023 A 
ATOM     60  C   UNL A   1      49.698  29.888  27.268  1.00  0.00     0.031 A 
ATOM     61  C   UNL A   1      47.365  30.362  27.069  1.00  0.00     0.131 A 
ATOM     62  C   UNL A   1      49.940  31.271  27.305  1.00  0.00     0.055 A 
ATOM     63  C   UNL A   1      47.617  31.734  27.044  1.00  0.00     0.041 A 
ATOM     64  F   UNL A   1      46.062  30.061  27.045  1.00  0.00    -0.206 F 
ATOM     65  C   UNL A   1      48.908  32.198  27.197  1.00  0.00     0.022 A 
BRANCH  62  66
ATOM     66  S   UNL A   1      51.622  31.835  27.658  1.00  0.00     0.124 S 
ATOM     67  O   UNL A   1      52.365  30.580  27.624  1.00  0.00    -0.237 OA
ATOM     68  O   UNL A   1      51.864  32.757  26.553  1.00  0.00    -0.237 OA
ATOM     69  O   UNL A   1      51.500  32.455  28.974  1.00  0.00    -0.744 OA
ENDBRANCH  62  66
ENDBRANCH  45  59
BRANCH  46  70
ATOM     70  C   UNL A   1      40.103  28.178  28.998  1.00  0.00     0.023 A 
ATOM     71  C   UNL A   1      39.295  28.670  30.049  1.00  0.00     0.031 A 
ATOM     72  C   UNL A   1      39.762  28.602  27.694  1.00  0.00     0.131 A 
ATOM     73  C   UNL A   1      38.211  29.541  29.774  1.00  0.00     0.055 A 
ATOM     74  C   UNL A   1      38.693  29.461  27.429  1.00  0.00     0.041 A 
ATOM     75  F   UNL A   1      40.512  28.266  26.634  1.00  0.00    -0.206 F 
ATOM     76  C   UNL A   1      37.917  29.945  28.470  1.00  0.00     0.022 A 
BRANCH  73  77
ATOM     77  S   UNL A   1      37.219  30.259  31.128  1.00  0.00     0.124 S 
ATOM     78  O   UNL A   1      37.032  31.633  30.678  1.00  0.00    -0.237 OA
ATOM     79  O   UNL A   1      36.033  29.411  31.137  1.00  0.00    -0.237 OA
ATOM     80  O   UNL A   1      38.084  30.109  32.300  1.00  0.00    -0.744 OA
ENDBRANCH  73  77
ENDBRANCH  46  70
BRANCH  58  81
ATOM     81  C   UNL A   1      45.147  25.728  31.983  1.00  0.00     0.023 A 
ATOM     82  C   UNL A   1      45.027  25.777  33.393  1.00  0.00     0.031 A 
ATOM     83  C   UNL A   1      44.751  24.547  31.334  1.00  0.00     0.131 A 
ATOM     84  C   UNL A   1      44.520  24.663  34.094  1.00  0.00     0.055 A 
ATOM     85  C   UNL A   1      44.233  23.456  32.029  1.00  0.00     0.041 A 
ATOM     86  F   UNL A   1      44.813  24.455  29.995  1.00  0.00    -0.206 F 
ATOM     87  C   UNL A   1      44.115  23.509  33.413  1.00  0.00     0.022 A 
BRANCH  84  88
ATOM     88  S   UNL A   1      44.335  24.709  35.909  1.00  0.00     0.124 S 
ATOM     89  O   UNL A   1      42.903  24.511  36.103  1.00  0.00    -0.237 OA
ATOM     90  O   UNL A   1      45.198  23.618  36.350  1.00  0.00    -0.237 OA
ATOM     91  O   UNL A   1      44.817  26.044  36.269  1.00  0.00    -0.744 OA
ENDBRANCH  84  88
ENDBRANCH  58  81
ENDBRANCH  32  33
ENDBRANCH  25  27
ENDBRANCH  24  25
ENDBRANCH  23  24
ENDBRANCH  22  23
ENDBRANCH  21  22
ENDBRANCH   1  21
TORSDOF 21
ENDMDL
