MODEL 1
REMARK VINA RESULT:     -11.9      0.000      0.000
REMARK SMILES Cc1ccc(C(=O)OCCOCCOC(=O)c2ccc(-c3c4nc(c(-c5cc(S(=O)(=O)[O-])ccc5F)c5ccc([nH]5)c(-c5cc(S(=O)(=O)[O-])ccc5F)c5nc(c(-c6cc(S(=O)(=O)[O-])ccc6F)c6ccc3[nH]6)C=C5)C=C4)cc2)c(Oc2cccc(F)c2C(N)=O)c1
REMARK SMILES IDX 11 1 10 2 9 3 8 4 6 5 7 6 5 7 1 8 2 9 3 10 92 11 4 12 80 13
REMARK SMILES IDX 81 14 82 15 83 16 88 17 84 18 86 19 85 20 87 21 89 22 90 23
REMARK SMILES IDX 91 24 12 27 13 28 14 29 15 30 16 31 17 32 18 33 79 34 19 35
REMARK SMILES IDX 78 36 20 37 21 38 22 39 72 40 23 41 77 42 71 43 73 44 24 45
REMARK SMILES IDX 76 46 70 47 69 48 25 50 57 51 37 52 56 53 38 54 41 55 55 56
REMARK SMILES IDX 74 57 39 58 40 59 54 61 75 62 42 63 26 64 27 65 35 66 28 67
REMARK SMILES IDX 34 68 36 69 33 70 29 71 30 72 31 73 32 74 58 75 59 76 67 77
REMARK SMILES IDX 60 78 66 79 68 80 65 81 61 82 62 83 63 84 64 85 43 86 44 87
REMARK SMILES IDX 52 88 45 89 51 90 53 91 50 92 46 93 47 94 48 95 49 96
REMARK H PARENT 90 25 90 26 73 49 41 60
REMARK Flexibility Score: inf
ROOT
ATOM      1  O   UNL A   1      36.676  22.067  25.332  1.00  0.00    -0.374 OA
ENDROOT
BRANCH   1   2
ATOM      2  C   UNL A   1      35.583  22.144  24.425  1.00  0.00     0.202 C 
BRANCH   2   3
ATOM      3  C   UNL A   1      35.625  23.531  23.898  1.00  0.00     0.261 C 
BRANCH   3   4
ATOM      4  O   UNL A   1      34.737  23.682  22.793  1.00  0.00    -0.460 OA
BRANCH   4   5
ATOM      5  C   UNL A   1      33.922  24.764  22.734  1.00  0.00     0.342 C 
ATOM      6  O   UNL A   1      33.929  25.659  21.916  1.00  0.00    -0.246 OA
BRANCH   5   7
ATOM      7  C   UNL A   1      32.846  24.559  23.737  1.00  0.00     0.102 A 
ATOM      8  C   UNL A   1      30.177  23.284  26.838  1.00  0.00     0.044 C 
ATOM      9  C   UNL A   1      31.056  23.776  25.730  1.00  0.00    -0.047 A 
ATOM     10  C   UNL A   1      31.114  23.069  24.522  1.00  0.00     0.004 A 
ATOM     11  C   UNL A   1      31.836  24.929  25.902  1.00  0.00     0.051 A 
ATOM     12  C   UNL A   1      31.999  23.464  23.523  1.00  0.00     0.020 A 
ATOM     13  C   UNL A   1      32.741  25.321  24.916  1.00  0.00     0.142 A 
BRANCH  13  14
ATOM     14  O   UNL A   1      33.493  26.468  24.985  1.00  0.00    -0.455 OA
BRANCH  14  15
ATOM     15  C   UNL A   1      33.003  27.674  25.409  1.00  0.00     0.143 A 
ATOM     16  C   UNL A   1      33.444  28.009  26.698  1.00  0.00     0.048 A 
ATOM     17  C   UNL A   1      32.045  28.480  24.776  1.00  0.00     0.117 A 
ATOM     18  C   UNL A   1      32.976  29.154  27.338  1.00  0.00     0.007 A 
ATOM     19  C   UNL A   1      31.595  29.634  25.420  1.00  0.00     0.139 A 
ATOM     20  C   UNL A   1      32.056  29.972  26.692  1.00  0.00     0.040 A 
ATOM     21  F   UNL A   1      30.686  30.439  24.846  1.00  0.00    -0.206 F 
BRANCH  17  22
ATOM     22  C   UNL A   1      31.433  28.156  23.477  1.00  0.00     0.255 C 
ATOM     23  N   UNL A   1      32.288  28.142  22.421  1.00  0.00    -0.365 N 
ATOM     24  O   UNL A   1      30.239  27.906  23.362  1.00  0.00    -0.269 OA
ATOM     25  H   UNL A   1      33.241  28.349  22.556  1.00  0.00     0.159 HD
ATOM     26  H   UNL A   1      31.955  27.925  21.520  1.00  0.00     0.159 HD
ENDBRANCH  17  22
ENDBRANCH  14  15
ENDBRANCH  13  14
ENDBRANCH   5   7
ENDBRANCH   4   5
ENDBRANCH   3   4
ENDBRANCH   2   3
ENDBRANCH   1   2
BRANCH   1  27
ATOM     27  C   UNL A   1      37.542  20.980  25.110  1.00  0.00     0.202 C 
BRANCH  27  28
ATOM     28  C   UNL A   1      38.966  21.255  25.607  1.00  0.00     0.261 C 
BRANCH  28  29
ATOM     29  O   UNL A   1      38.958  22.394  26.500  1.00  0.00    -0.460 OA
BRANCH  29  30
ATOM     30  C   UNL A   1      40.134  23.078  26.625  1.00  0.00     0.338 C 
ATOM     31  O   UNL A   1      41.236  22.561  26.678  1.00  0.00    -0.246 OA
BRANCH  30  32
ATOM     32  C   UNL A   1      39.864  24.531  26.857  1.00  0.00     0.060 A 
ATOM     33  C   UNL A   1      40.520  25.518  26.092  1.00  0.00     0.016 A 
ATOM     34  C   UNL A   1      39.194  24.895  28.019  1.00  0.00     0.016 A 
ATOM     35  C   UNL A   1      40.631  26.835  26.576  1.00  0.00     0.010 A 
ATOM     36  C   UNL A   1      39.404  26.153  28.539  1.00  0.00     0.010 A 
ATOM     37  C   UNL A   1      40.145  27.130  27.846  1.00  0.00    -0.014 A 
BRANCH  37  38
ATOM     38  C   UNL A   1      40.438  28.328  28.650  1.00  0.00     0.031 A 
ATOM     39  C   UNL A   1      39.440  29.424  28.627  1.00  0.00     0.074 A 
ATOM     40  C   UNL A   1      41.362  28.287  29.648  1.00  0.00     0.049 A 
ATOM     41  N   UNL A   1      39.587  30.556  29.217  1.00  0.00    -0.248 NA
ATOM     42  C   UNL A   1      38.172  29.352  27.898  1.00  0.00     0.031 C 
ATOM     43  C   UNL A   1      41.400  29.063  30.890  1.00  0.00     0.029 A 
ATOM     44  N   UNL A   1      42.515  27.504  29.761  1.00  0.00    -0.354 N 
ATOM     45  C   UNL A   1      38.343  31.135  29.320  1.00  0.00     0.074 A 
ATOM     46  C   UNL A   1      37.543  30.440  28.349  1.00  0.00     0.031 C 
ATOM     47  C   UNL A   1      42.616  28.957  31.459  1.00  0.00     0.029 A 
ATOM     48  C   UNL A   1      43.450  28.201  30.541  1.00  0.00     0.049 A 
ATOM     49  H   UNL A   1      42.647  26.613  29.362  1.00  0.00     0.167 HD
ATOM     50  C   UNL A   1      38.128  32.013  30.341  1.00  0.00     0.034 A 
ATOM     51  C   UNL A   1      44.665  28.523  30.026  1.00  0.00     0.034 A 
ATOM     52  C   UNL A   1      39.396  32.297  31.041  1.00  0.00     0.049 A 
ATOM     53  C   UNL A   1      44.696  30.028  29.950  1.00  0.00     0.074 A 
ATOM     54  C   UNL A   1      39.884  31.998  32.302  1.00  0.00     0.029 A 
ATOM     55  N   UNL A   1      40.496  32.732  30.298  1.00  0.00    -0.354 N 
ATOM     56  N   UNL A   1      43.604  30.748  29.885  1.00  0.00    -0.248 NA
ATOM     57  C   UNL A   1      45.892  30.843  30.134  1.00  0.00     0.031 C 
ATOM     58  C   UNL A   1      41.304  32.151  32.267  1.00  0.00     0.029 A 
ATOM     59  C   UNL A   1      41.675  32.573  30.998  1.00  0.00     0.049 A 
ATOM     60  H   UNL A   1      40.438  33.104  29.388  1.00  0.00     0.167 HD
ATOM     61  C   UNL A   1      43.897  32.041  30.182  1.00  0.00     0.074 A 
ATOM     62  C   UNL A   1      45.353  32.071  30.252  1.00  0.00     0.031 C 
ATOM     63  C   UNL A   1      42.945  32.992  30.415  1.00  0.00     0.034 A 
BRANCH  50  64
ATOM     64  C   UNL A   1      36.773  32.454  30.882  1.00  0.00     0.023 A 
ATOM     65  C   UNL A   1      35.992  33.330  30.094  1.00  0.00     0.031 A 
ATOM     66  C   UNL A   1      36.209  32.142  32.138  1.00  0.00     0.131 A 
ATOM     67  C   UNL A   1      34.773  33.869  30.558  1.00  0.00     0.055 A 
ATOM     68  C   UNL A   1      34.988  32.665  32.595  1.00  0.00     0.041 A 
ATOM     69  F   UNL A   1      36.789  31.322  33.015  1.00  0.00    -0.206 F 
ATOM     70  C   UNL A   1      34.265  33.539  31.809  1.00  0.00     0.022 A 
BRANCH  67  71
ATOM     71  S   UNL A   1      33.864  35.029  29.504  1.00  0.00     0.124 S 
ATOM     72  O   UNL A   1      34.824  35.291  28.438  1.00  0.00    -0.237 OA
ATOM     73  O   UNL A   1      32.682  34.256  29.140  1.00  0.00    -0.237 OA
ATOM     74  O   UNL A   1      33.606  36.163  30.392  1.00  0.00    -0.744 OA
ENDBRANCH  67  71
ENDBRANCH  50  64
BRANCH  51  75
ATOM     75  C   UNL A   1      45.121  27.467  29.056  1.00  0.00     0.023 A 
ATOM     76  C   UNL A   1      45.310  27.880  27.703  1.00  0.00     0.031 A 
ATOM     77  C   UNL A   1      45.838  26.340  29.485  1.00  0.00     0.131 A 
ATOM     78  C   UNL A   1      46.310  27.295  26.901  1.00  0.00     0.055 A 
ATOM     79  C   UNL A   1      46.802  25.733  28.662  1.00  0.00     0.041 A 
ATOM     80  F   UNL A   1      45.733  25.904  30.748  1.00  0.00    -0.206 F 
ATOM     81  C   UNL A   1      47.076  26.237  27.387  1.00  0.00     0.022 A 
BRANCH  78  82
ATOM     82  S   UNL A   1      46.734  28.055  25.290  1.00  0.00     0.124 S 
ATOM     83  O   UNL A   1      46.310  27.031  24.343  1.00  0.00    -0.237 OA
ATOM     84  O   UNL A   1      45.947  29.287  25.280  1.00  0.00    -0.237 OA
ATOM     85  O   UNL A   1      48.175  28.271  25.383  1.00  0.00    -0.744 OA
ENDBRANCH  78  82
ENDBRANCH  51  75
BRANCH  63  86
ATOM     86  C   UNL A   1      43.189  34.448  30.152  1.00  0.00     0.023 A 
ATOM     87  C   UNL A   1      42.903  35.017  28.907  1.00  0.00     0.031 A 
ATOM     88  C   UNL A   1      43.568  35.345  31.175  1.00  0.00     0.131 A 
ATOM     89  C   UNL A   1      43.104  36.378  28.672  1.00  0.00     0.055 A 
ATOM     90  C   UNL A   1      43.653  36.722  30.971  1.00  0.00     0.041 A 
ATOM     91  F   UNL A   1      43.847  34.929  32.419  1.00  0.00    -0.206 F 
ATOM     92  C   UNL A   1      43.445  37.246  29.704  1.00  0.00     0.022 A 
BRANCH  89  93
ATOM     93  S   UNL A   1      43.021  36.937  26.957  1.00  0.00     0.124 S 
ATOM     94  O   UNL A   1      42.924  35.669  26.238  1.00  0.00    -0.237 OA
ATOM     95  O   UNL A   1      41.816  37.760  26.950  1.00  0.00    -0.237 OA
ATOM     96  O   UNL A   1      44.276  37.662  26.773  1.00  0.00    -0.744 OA
ENDBRANCH  89  93
ENDBRANCH  63  86
ENDBRANCH  37  38
ENDBRANCH  30  32
ENDBRANCH  29  30
ENDBRANCH  28  29
ENDBRANCH  27  28
ENDBRANCH   1  27
TORSDOF 20
ENDMDL
MODEL 2
REMARK VINA RESULT:     -11.5      2.836      4.153
REMARK SMILES Cc1ccc(C(=O)OCCOCCOC(=O)c2ccc(-c3c4nc(c(-c5cc(S(=O)(=O)[O-])ccc5F)c5ccc([nH]5)c(-c5cc(S(=O)(=O)[O-])ccc5F)c5nc(c(-c6cc(S(=O)(=O)[O-])ccc6F)c6ccc3[nH]6)C=C5)C=C4)cc2)c(Oc2cccc(F)c2C(N)=O)c1
REMARK SMILES IDX 11 1 10 2 9 3 8 4 6 5 7 6 5 7 1 8 2 9 3 10 92 11 4 12 80 13
REMARK SMILES IDX 81 14 82 15 83 16 88 17 84 18 86 19 85 20 87 21 89 22 90 23
REMARK SMILES IDX 91 24 12 27 13 28 14 29 15 30 16 31 17 32 18 33 79 34 19 35
REMARK SMILES IDX 78 36 20 37 21 38 22 39 72 40 23 41 77 42 71 43 73 44 24 45
REMARK SMILES IDX 76 46 70 47 69 48 25 50 57 51 37 52 56 53 38 54 41 55 55 56
REMARK SMILES IDX 74 57 39 58 40 59 54 61 75 62 42 63 26 64 27 65 35 66 28 67
REMARK SMILES IDX 34 68 36 69 33 70 29 71 30 72 31 73 32 74 58 75 59 76 67 77
REMARK SMILES IDX 60 78 66 79 68 80 65 81 61 82 62 83 63 84 64 85 43 86 44 87
REMARK SMILES IDX 52 88 45 89 51 90 53 91 50 92 46 93 47 94 48 95 49 96
REMARK H PARENT 90 25 90 26 73 49 41 60
REMARK Flexibility Score: inf
ROOT
ATOM      1  O   UNL A   1      41.304  20.490  25.747  1.00  0.00    -0.374 OA
ENDROOT
BRANCH   1   2
ATOM      2  C   UNL A   1      40.116  20.659  26.509  1.00  0.00     0.202 C 
BRANCH   2   3
ATOM      3  C   UNL A   1      39.503  21.904  25.983  1.00  0.00     0.261 C 
BRANCH   3   4
ATOM      4  O   UNL A   1      38.080  21.814  25.994  1.00  0.00    -0.460 OA
BRANCH   4   5
ATOM      5  C   UNL A   1      37.352  22.649  25.211  1.00  0.00     0.342 C 
ATOM      6  O   UNL A   1      37.684  23.723  24.755  1.00  0.00    -0.246 OA
BRANCH   5   7
ATOM      7  C   UNL A   1      36.124  21.917  24.809  1.00  0.00     0.102 A 
ATOM      8  C   UNL A   1      32.464  19.713  24.475  1.00  0.00     0.044 C 
ATOM      9  C   UNL A   1      33.756  20.469  24.520  1.00  0.00    -0.047 A 
ATOM     10  C   UNL A   1      34.928  19.821  24.926  1.00  0.00     0.004 A 
ATOM     11  C   UNL A   1      33.793  21.828  24.174  1.00  0.00     0.051 A 
ATOM     12  C   UNL A   1      36.112  20.539  25.063  1.00  0.00     0.020 A 
ATOM     13  C   UNL A   1      34.969  22.561  24.326  1.00  0.00     0.142 A 
BRANCH  13  14
ATOM     14  O   UNL A   1      35.101  23.877  23.954  1.00  0.00    -0.455 OA
BRANCH  14  15
ATOM     15  C   UNL A   1      34.191  24.850  24.269  1.00  0.00     0.143 A 
ATOM     16  C   UNL A   1      34.125  25.096  25.649  1.00  0.00     0.048 A 
ATOM     17  C   UNL A   1      33.274  25.475  23.411  1.00  0.00     0.117 A 
ATOM     18  C   UNL A   1      33.189  25.986  26.172  1.00  0.00     0.007 A 
ATOM     19  C   UNL A   1      32.351  26.377  23.944  1.00  0.00     0.139 A 
ATOM     20  C   UNL A   1      32.307  26.633  25.314  1.00  0.00     0.040 A 
ATOM     21  F   UNL A   1      31.461  27.005  23.158  1.00  0.00    -0.206 F 
BRANCH  17  22
ATOM     22  C   UNL A   1      33.183  25.199  21.969  1.00  0.00     0.255 C 
ATOM     23  N   UNL A   1      32.718  23.965  21.642  1.00  0.00    -0.365 N 
ATOM     24  O   UNL A   1      33.494  26.030  21.124  1.00  0.00    -0.269 OA
ATOM     25  H   UNL A   1      32.479  23.325  22.352  1.00  0.00     0.159 HD
ATOM     26  H   UNL A   1      32.620  23.709  20.697  1.00  0.00     0.159 HD
ENDBRANCH  17  22
ENDBRANCH  14  15
ENDBRANCH  13  14
ENDBRANCH   5   7
ENDBRANCH   4   5
ENDBRANCH   3   4
ENDBRANCH   2   3
ENDBRANCH   1   2
BRANCH   1  27
ATOM     27  C   UNL A   1      41.895  19.218  25.864  1.00  0.00     0.202 C 
BRANCH  27  28
ATOM     28  C   UNL A   1      43.425  19.271  25.767  1.00  0.00     0.261 C 
BRANCH  28  29
ATOM     29  O   UNL A   1      43.817  20.322  24.853  1.00  0.00    -0.460 OA
BRANCH  29  30
ATOM     30  C   UNL A   1      44.691  21.254  25.337  1.00  0.00     0.338 C 
ATOM     31  O   UNL A   1      45.856  21.035  25.620  1.00  0.00    -0.246 OA
BRANCH  30  32
ATOM     32  C   UNL A   1      43.972  22.533  25.630  1.00  0.00     0.060 A 
ATOM     33  C   UNL A   1      43.954  23.583  24.688  1.00  0.00     0.016 A 
ATOM     34  C   UNL A   1      43.582  22.780  26.941  1.00  0.00     0.016 A 
ATOM     35  C   UNL A   1      43.693  24.903  25.100  1.00  0.00     0.010 A 
ATOM     36  C   UNL A   1      43.442  24.086  27.357  1.00  0.00     0.010 A 
ATOM     37  C   UNL A   1      43.524  25.165  26.456  1.00  0.00    -0.014 A 
BRANCH  37  38
ATOM     38  C   UNL A   1      43.561  26.481  27.115  1.00  0.00     0.031 A 
ATOM     39  C   UNL A   1      42.284  27.228  27.216  1.00  0.00     0.074 A 
ATOM     40  C   UNL A   1      44.603  26.827  27.918  1.00  0.00     0.049 A 
ATOM     41  N   UNL A   1      42.171  28.414  27.698  1.00  0.00    -0.248 NA
ATOM     42  C   UNL A   1      40.999  26.706  26.749  1.00  0.00     0.031 C 
ATOM     43  C   UNL A   1      44.604  27.718  29.081  1.00  0.00     0.029 A 
ATOM     44  N   UNL A   1      45.943  26.432  27.856  1.00  0.00    -0.354 N 
ATOM     45  C   UNL A   1      40.844  28.613  28.001  1.00  0.00     0.074 A 
ATOM     46  C   UNL A   1      40.148  27.608  27.245  1.00  0.00     0.031 C 
ATOM     47  C   UNL A   1      45.869  28.037  29.412  1.00  0.00     0.029 A 
ATOM     48  C   UNL A   1      46.733  27.457  28.399  1.00  0.00     0.049 A 
ATOM     49  H   UNL A   1      46.276  25.579  27.494  1.00  0.00     0.167 HD
ATOM     50  C   UNL A   1      40.540  29.503  28.989  1.00  0.00     0.034 A 
ATOM     51  C   UNL A   1      47.689  28.057  27.643  1.00  0.00     0.034 A 
ATOM     52  C   UNL A   1      41.756  30.223  29.416  1.00  0.00     0.049 A 
ATOM     53  C   UNL A   1      47.242  29.487  27.471  1.00  0.00     0.074 A 
ATOM     54  C   UNL A   1      42.512  30.227  30.576  1.00  0.00     0.029 A 
ATOM     55  N   UNL A   1      42.531  30.870  28.451  1.00  0.00    -0.354 N 
ATOM     56  N   UNL A   1      45.987  29.844  27.573  1.00  0.00    -0.248 NA
ATOM     57  C   UNL A   1      48.143  30.630  27.373  1.00  0.00     0.031 C 
ATOM     58  C   UNL A   1      43.789  30.782  30.261  1.00  0.00     0.029 A 
ATOM     59  C   UNL A   1      43.800  31.144  28.921  1.00  0.00     0.049 A 
ATOM     60  H   UNL A   1      42.213  31.102  27.549  1.00  0.00     0.167 HD
ATOM     61  C   UNL A   1      45.912  31.192  27.729  1.00  0.00     0.074 A 
ATOM     62  C   UNL A   1      47.279  31.653  27.518  1.00  0.00     0.031 C 
ATOM     63  C   UNL A   1      44.766  31.844  28.082  1.00  0.00     0.034 A 
BRANCH  50  64
ATOM     64  C   UNL A   1      39.222  29.589  29.752  1.00  0.00     0.023 A 
ATOM     65  C   UNL A   1      38.427  30.744  29.583  1.00  0.00     0.031 A 
ATOM     66  C   UNL A   1      38.711  28.661  30.686  1.00  0.00     0.131 A 
ATOM     67  C   UNL A   1      37.245  30.955  30.324  1.00  0.00     0.055 A 
ATOM     68  C   UNL A   1      37.526  28.862  31.413  1.00  0.00     0.041 A 
ATOM     69  F   UNL A   1      39.311  27.505  30.971  1.00  0.00    -0.206 F 
ATOM     70  C   UNL A   1      36.789  30.016  31.241  1.00  0.00     0.022 A 
BRANCH  67  71
ATOM     71  S   UNL A   1      36.316  32.492  30.085  1.00  0.00     0.124 S 
ATOM     72  O   UNL A   1      35.003  31.997  29.686  1.00  0.00    -0.237 OA
ATOM     73  O   UNL A   1      36.402  33.116  31.401  1.00  0.00    -0.237 OA
ATOM     74  O   UNL A   1      37.062  33.178  29.031  1.00  0.00    -0.744 OA
ENDBRANCH  67  71
ENDBRANCH  50  64
BRANCH  51  75
ATOM     75  C   UNL A   1      48.282  27.075  26.669  1.00  0.00     0.023 A 
ATOM     76  C   UNL A   1      47.971  27.274  25.291  1.00  0.00     0.031 A 
ATOM     77  C   UNL A   1      49.462  26.377  26.962  1.00  0.00     0.131 A 
ATOM     78  C   UNL A   1      48.902  26.948  24.285  1.00  0.00     0.055 A 
ATOM     79  C   UNL A   1      50.366  26.014  25.949  1.00  0.00     0.041 A 
ATOM     80  F   UNL A   1      49.836  26.171  28.233  1.00  0.00    -0.206 F 
ATOM     81  C   UNL A   1      50.113  26.341  24.613  1.00  0.00     0.022 A 
BRANCH  78  82
ATOM     82  S   UNL A   1      48.603  27.501  22.565  1.00  0.00     0.124 S 
ATOM     83  O   UNL A   1      47.305  28.156  22.670  1.00  0.00    -0.237 OA
ATOM     84  O   UNL A   1      49.735  28.386  22.293  1.00  0.00    -0.237 OA
ATOM     85  O   UNL A   1      48.623  26.258  21.798  1.00  0.00    -0.744 OA
ENDBRANCH  78  82
ENDBRANCH  51  75
BRANCH  63  86
ATOM     86  C   UNL A   1      44.503  33.268  27.689  1.00  0.00     0.023 A 
ATOM     87  C   UNL A   1      44.742  34.320  28.578  1.00  0.00     0.031 A 
ATOM     88  C   UNL A   1      44.154  33.632  26.370  1.00  0.00     0.131 A 
ATOM     89  C   UNL A   1      44.523  35.647  28.202  1.00  0.00     0.055 A 
ATOM     90  C   UNL A   1      44.053  34.963  25.962  1.00  0.00     0.041 A 
ATOM     91  F   UNL A   1      43.921  32.719  25.417  1.00  0.00    -0.206 F 
ATOM     92  C   UNL A   1      44.213  35.983  26.888  1.00  0.00     0.022 A 
BRANCH  89  93
ATOM     93  S   UNL A   1      44.543  36.887  29.513  1.00  0.00     0.124 S 
ATOM     94  O   UNL A   1      44.206  36.082  30.686  1.00  0.00    -0.237 OA
ATOM     95  O   UNL A   1      45.914  37.382  29.461  1.00  0.00    -0.237 OA
ATOM     96  O   UNL A   1      43.516  37.840  29.098  1.00  0.00    -0.744 OA
ENDBRANCH  89  93
ENDBRANCH  63  86
ENDBRANCH  37  38
ENDBRANCH  30  32
ENDBRANCH  29  30
ENDBRANCH  28  29
ENDBRANCH  27  28
ENDBRANCH   1  27
TORSDOF 20
ENDMDL
MODEL 3
REMARK VINA RESULT:     -11.3      2.135      2.506
REMARK SMILES Cc1ccc(C(=O)OCCOCCOC(=O)c2ccc(-c3c4nc(c(-c5cc(S(=O)(=O)[O-])ccc5F)c5ccc([nH]5)c(-c5cc(S(=O)(=O)[O-])ccc5F)c5nc(c(-c6cc(S(=O)(=O)[O-])ccc6F)c6ccc3[nH]6)C=C5)C=C4)cc2)c(Oc2cccc(F)c2C(N)=O)c1
REMARK SMILES IDX 11 1 10 2 9 3 8 4 6 5 7 6 5 7 1 8 2 9 3 10 92 11 4 12 80 13
REMARK SMILES IDX 81 14 82 15 83 16 88 17 84 18 86 19 85 20 87 21 89 22 90 23
REMARK SMILES IDX 91 24 12 27 13 28 14 29 15 30 16 31 17 32 18 33 79 34 19 35
REMARK SMILES IDX 78 36 20 37 21 38 22 39 72 40 23 41 77 42 71 43 73 44 24 45
REMARK SMILES IDX 76 46 70 47 69 48 25 50 57 51 37 52 56 53 38 54 41 55 55 56
REMARK SMILES IDX 74 57 39 58 40 59 54 61 75 62 42 63 26 64 27 65 35 66 28 67
REMARK SMILES IDX 34 68 36 69 33 70 29 71 30 72 31 73 32 74 58 75 59 76 67 77
REMARK SMILES IDX 60 78 66 79 68 80 65 81 61 82 62 83 63 84 64 85 43 86 44 87
REMARK SMILES IDX 52 88 45 89 51 90 53 91 50 92 46 93 47 94 48 95 49 96
REMARK H PARENT 90 25 90 26 73 49 41 60
REMARK Flexibility Score: inf
ROOT
ATOM      1  O   UNL A   1      37.491  22.030  25.768  1.00  0.00    -0.374 OA
ENDROOT
BRANCH   1   2
ATOM      2  C   UNL A   1      36.689  21.990  24.595  1.00  0.00     0.202 C 
BRANCH   2   3
ATOM      3  C   UNL A   1      36.565  23.407  24.173  1.00  0.00     0.261 C 
BRANCH   3   4
ATOM      4  O   UNL A   1      35.240  23.888  24.387  1.00  0.00    -0.460 OA
BRANCH   4   5
ATOM      5  C   UNL A   1      34.282  23.642  23.458  1.00  0.00     0.342 C 
ATOM      6  O   UNL A   1      34.430  23.420  22.275  1.00  0.00    -0.246 OA
BRANCH   5   7
ATOM      7  C   UNL A   1      32.998  23.469  24.185  1.00  0.00     0.102 A 
ATOM      8  C   UNL A   1      29.777  22.974  26.967  1.00  0.00     0.044 C 
ATOM      9  C   UNL A   1      30.856  23.125  25.940  1.00  0.00    -0.047 A 
ATOM     10  C   UNL A   1      31.743  22.068  25.701  1.00  0.00     0.004 A 
ATOM     11  C   UNL A   1      30.995  24.327  25.231  1.00  0.00     0.051 A 
ATOM     12  C   UNL A   1      32.807  22.235  24.819  1.00  0.00     0.020 A 
ATOM     13  C   UNL A   1      32.069  24.512  24.360  1.00  0.00     0.142 A 
BRANCH  13  14
ATOM     14  O   UNL A   1      32.240  25.634  23.587  1.00  0.00    -0.455 OA
BRANCH  14  15
ATOM     15  C   UNL A   1      32.258  26.907  24.091  1.00  0.00     0.143 A 
ATOM     16  C   UNL A   1      33.307  27.110  24.999  1.00  0.00     0.048 A 
ATOM     17  C   UNL A   1      31.299  27.914  23.906  1.00  0.00     0.117 A 
ATOM     18  C   UNL A   1      33.434  28.314  25.687  1.00  0.00     0.007 A 
ATOM     19  C   UNL A   1      31.445  29.123  24.589  1.00  0.00     0.139 A 
ATOM     20  C   UNL A   1      32.504  29.325  25.474  1.00  0.00     0.040 A 
ATOM     21  F   UNL A   1      30.556  30.118  24.435  1.00  0.00    -0.206 F 
BRANCH  17  22
ATOM     22  C   UNL A   1      30.100  27.760  23.067  1.00  0.00     0.255 C 
ATOM     23  N   UNL A   1      29.048  27.145  23.667  1.00  0.00    -0.365 N 
ATOM     24  O   UNL A   1      30.054  28.170  21.913  1.00  0.00    -0.269 OA
ATOM     25  H   UNL A   1      29.126  26.830  24.596  1.00  0.00     0.159 HD
ATOM     26  H   UNL A   1      28.207  27.014  23.172  1.00  0.00     0.159 HD
ENDBRANCH  17  22
ENDBRANCH  14  15
ENDBRANCH  13  14
ENDBRANCH   5   7
ENDBRANCH   4   5
ENDBRANCH   3   4
ENDBRANCH   2   3
ENDBRANCH   1   2
BRANCH   1  27
ATOM     27  C   UNL A   1      38.719  21.350  25.658  1.00  0.00     0.202 C 
BRANCH  27  28
ATOM     28  C   UNL A   1      39.813  21.971  26.534  1.00  0.00     0.261 C 
BRANCH  28  29
ATOM     29  O   UNL A   1      39.439  23.322  26.893  1.00  0.00    -0.460 OA
BRANCH  29  30
ATOM     30  C   UNL A   1      40.330  24.015  27.662  1.00  0.00     0.338 C 
ATOM     31  O   UNL A   1      41.240  23.512  28.297  1.00  0.00    -0.246 OA
BRANCH  30  32
ATOM     32  C   UNL A   1      39.928  25.454  27.749  1.00  0.00     0.060 A 
ATOM     33  C   UNL A   1      40.313  26.373  26.752  1.00  0.00     0.016 A 
ATOM     34  C   UNL A   1      39.430  25.922  28.960  1.00  0.00     0.016 A 
ATOM     35  C   UNL A   1      40.343  27.753  27.030  1.00  0.00     0.010 A 
ATOM     36  C   UNL A   1      39.571  27.259  29.262  1.00  0.00     0.010 A 
ATOM     37  C   UNL A   1      40.053  28.187  28.320  1.00  0.00    -0.014 A 
BRANCH  37  38
ATOM     38  C   UNL A   1      40.331  29.516  28.889  1.00  0.00     0.031 A 
ATOM     39  C   UNL A   1      39.204  30.477  28.957  1.00  0.00     0.074 A 
ATOM     40  C   UNL A   1      41.436  29.727  29.655  1.00  0.00     0.049 A 
ATOM     41  N   UNL A   1      39.307  31.692  29.361  1.00  0.00    -0.248 NA
ATOM     42  C   UNL A   1      37.837  30.155  28.542  1.00  0.00     0.031 C 
ATOM     43  C   UNL A   1      41.617  30.676  30.756  1.00  0.00     0.029 A 
ATOM     44  N   UNL A   1      42.687  29.104  29.603  1.00  0.00    -0.354 N 
ATOM     45  C   UNL A   1      38.041  32.136  29.667  1.00  0.00     0.074 A 
ATOM     46  C   UNL A   1      37.166  31.220  28.988  1.00  0.00     0.031 C 
ATOM     47  C   UNL A   1      42.925  30.792  31.050  1.00  0.00     0.029 A 
ATOM     48  C   UNL A   1      43.653  30.009  30.066  1.00  0.00     0.049 A 
ATOM     49  H   UNL A   1      42.860  28.185  29.293  1.00  0.00     0.167 HD
ATOM     50  C   UNL A   1      37.917  33.125  30.598  1.00  0.00     0.034 A 
ATOM     51  C   UNL A   1      44.679  30.387  29.261  1.00  0.00     0.034 A 
ATOM     52  C   UNL A   1      39.248  33.650  30.961  1.00  0.00     0.049 A 
ATOM     53  C   UNL A   1      44.480  31.859  29.000  1.00  0.00     0.074 A 
ATOM     54  C   UNL A   1      40.021  33.597  32.109  1.00  0.00     0.029 A 
ATOM     55  N   UNL A   1      40.100  34.092  29.946  1.00  0.00    -0.354 N 
ATOM     56  N   UNL A   1      43.307  32.432  29.093  1.00  0.00    -0.248 NA
ATOM     57  C   UNL A   1      45.560  32.821  28.816  1.00  0.00     0.031 C 
ATOM     58  C   UNL A   1      41.367  33.902  31.742  1.00  0.00     0.029 A 
ATOM     59  C   UNL A   1      41.408  34.172  30.381  1.00  0.00     0.049 A 
ATOM     60  H   UNL A   1      39.805  34.318  29.034  1.00  0.00     0.167 HD
ATOM     61  C   UNL A   1      43.468  33.780  29.161  1.00  0.00     0.074 A 
ATOM     62  C   UNL A   1      44.888  33.984  28.903  1.00  0.00     0.031 C 
ATOM     63  C   UNL A   1      42.459  34.641  29.485  1.00  0.00     0.034 A 
BRANCH  50  64
ATOM     64  C   UNL A   1      36.652  33.484  31.369  1.00  0.00     0.023 A 
ATOM     65  C   UNL A   1      35.597  34.110  30.668  1.00  0.00     0.031 A 
ATOM     66  C   UNL A   1      36.419  33.328  32.754  1.00  0.00     0.131 A 
ATOM     67  C   UNL A   1      34.433  34.569  31.320  1.00  0.00     0.055 A 
ATOM     68  C   UNL A   1      35.254  33.770  33.401  1.00  0.00     0.041 A 
ATOM     69  F   UNL A   1      37.290  32.748  33.580  1.00  0.00    -0.206 F 
ATOM     70  C   UNL A   1      34.255  34.401  32.688  1.00  0.00     0.022 A 
BRANCH  67  71
ATOM     71  S   UNL A   1      33.153  35.411  30.351  1.00  0.00     0.124 S 
ATOM     72  O   UNL A   1      32.865  34.432  29.309  1.00  0.00    -0.237 OA
ATOM     73  O   UNL A   1      32.107  35.631  31.344  1.00  0.00    -0.237 OA
ATOM     74  O   UNL A   1      33.824  36.625  29.887  1.00  0.00    -0.744 OA
ENDBRANCH  67  71
ENDBRANCH  50  64
BRANCH  51  75
ATOM     75  C   UNL A   1      45.072  29.258  28.346  1.00  0.00     0.023 A 
ATOM     76  C   UNL A   1      45.783  28.172  28.940  1.00  0.00     0.031 A 
ATOM     77  C   UNL A   1      44.357  28.985  27.171  1.00  0.00     0.131 A 
ATOM     78  C   UNL A   1      45.617  26.855  28.468  1.00  0.00     0.055 A 
ATOM     79  C   UNL A   1      44.232  27.674  26.681  1.00  0.00     0.041 A 
ATOM     80  F   UNL A   1      43.644  29.947  26.567  1.00  0.00    -0.206 F 
ATOM     81  C   UNL A   1      44.821  26.599  27.353  1.00  0.00     0.022 A 
BRANCH  78  82
ATOM     82  S   UNL A   1      46.291  25.457  29.440  1.00  0.00     0.124 S 
ATOM     83  O   UNL A   1      47.696  25.821  29.576  1.00  0.00    -0.237 OA
ATOM     84  O   UNL A   1      45.508  25.495  30.675  1.00  0.00    -0.237 OA
ATOM     85  O   UNL A   1      46.018  24.294  28.600  1.00  0.00    -0.744 OA
ENDBRANCH  78  82
ENDBRANCH  51  75
BRANCH  63  86
ATOM     86  C   UNL A   1      42.435  36.061  29.002  1.00  0.00     0.023 A 
ATOM     87  C   UNL A   1      43.202  37.051  29.624  1.00  0.00     0.031 A 
ATOM     88  C   UNL A   1      41.767  36.442  27.817  1.00  0.00     0.131 A 
ATOM     89  C   UNL A   1      43.200  38.366  29.156  1.00  0.00     0.055 A 
ATOM     90  C   UNL A   1      41.863  37.727  27.283  1.00  0.00     0.041 A 
ATOM     91  F   UNL A   1      41.017  35.581  27.114  1.00  0.00    -0.206 F 
ATOM     92  C   UNL A   1      42.563  38.709  27.968  1.00  0.00     0.022 A 
BRANCH  89  93
ATOM     93  S   UNL A   1      43.954  39.617  30.217  1.00  0.00     0.124 S 
ATOM     94  O   UNL A   1      44.554  38.792  31.265  1.00  0.00    -0.237 OA
ATOM     95  O   UNL A   1      44.894  40.273  29.316  1.00  0.00    -0.237 OA
ATOM     96  O   UNL A   1      42.820  40.433  30.643  1.00  0.00    -0.744 OA
ENDBRANCH  89  93
ENDBRANCH  63  86
ENDBRANCH  37  38
ENDBRANCH  30  32
ENDBRANCH  29  30
ENDBRANCH  28  29
ENDBRANCH  27  28
ENDBRANCH   1  27
TORSDOF 20
ENDMDL
