MODEL 1
REMARK VINA RESULT:      -8.6      0.000      0.000
REMARK SMILES CCC[C@@H](CNC(=O)NCc1c(C)nn(C)c1C)C(=O)OCCOCCOC(=O)c1ccc(-c2c3nc(c(-c4cc(S(=O)(=O)[O-])ccc4F)c4ccc([nH]4)c(-c4cc(S(=O)(=O)[O-])ccc4F)c4nc(c(-c5cc(S(=O)(=O)[O-])ccc5F)c5ccc2[nH]5)C=C4)C=C3)cc1
REMARK SMILES IDX 23 1 22 2 21 3 19 4 20 5 4 6 3 7 2 8 1 9 5 10 6 11 7 12 8 14
REMARK SMILES IDX 9 15 10 17 11 18 12 19 17 20 13 21 14 22 15 23 18 24 16 25
REMARK SMILES IDX 24 26 25 27 26 28 27 29 28 30 29 31 30 32 31 33 92 34 32 35
REMARK SMILES IDX 91 36 33 37 34 38 35 39 85 40 36 41 90 42 84 43 86 44 37 45
REMARK SMILES IDX 89 46 83 47 82 48 38 50 70 51 50 52 69 53 51 54 54 55 68 56
REMARK SMILES IDX 87 57 52 58 53 59 67 61 88 62 55 63 39 64 40 65 48 66 41 67
REMARK SMILES IDX 47 68 49 69 46 70 42 71 43 72 44 73 45 74 71 75 72 76 80 77
REMARK SMILES IDX 73 78 79 79 81 80 78 81 74 82 75 83 76 84 77 85 56 86 57 87
REMARK SMILES IDX 65 88 58 89 64 90 66 91 63 92 59 93 60 94 61 95 62 96
REMARK H PARENT 6 13 9 16 86 49 54 60
REMARK Flexibility Score: inf
ROOT
ATOM      1  C   UNL A   1      43.316  41.734  25.722  1.00  0.00     0.202 C 
ENDROOT
BRANCH   1   2
ATOM      2  C   UNL A   1      43.534  42.723  24.573  1.00  0.00     0.261 C 
BRANCH   2   3
ATOM      3  O   UNL A   1      43.984  42.096  23.360  1.00  0.00    -0.463 OA
BRANCH   3   4
ATOM      4  C   UNL A   1      43.277  42.408  22.243  1.00  0.00     0.310 C 
ATOM      5  O   UNL A   1      42.212  41.895  21.918  1.00  0.00    -0.252 OA
BRANCH   4   6
ATOM      6  C   UNL A   1      43.948  43.467  21.390  1.00  0.00     0.118 C 
BRANCH   6   7
ATOM      7  C   UNL A   1      45.486  43.440  21.436  1.00  0.00     0.017 C 
BRANCH   7   8
ATOM      8  C   UNL A   1      46.128  42.236  20.727  1.00  0.00    -0.002 C 
ATOM      9  C   UNL A   1      47.651  42.257  20.726  1.00  0.00     0.004 C 
ENDBRANCH   7   8
ENDBRANCH   6   7
BRANCH   6  10
ATOM     10  C   UNL A   1      43.376  43.450  19.974  1.00  0.00     0.133 C 
BRANCH  10  11
ATOM     11  N   UNL A   1      42.030  43.975  19.875  1.00  0.00    -0.337 N 
ATOM     12  C   UNL A   1      41.279  44.439  18.869  1.00  0.00     0.315 C 
ATOM     13  H   UNL A   1      41.564  43.997  20.742  1.00  0.00     0.165 HD
ATOM     14  O   UNL A   1      40.099  44.692  19.113  1.00  0.00    -0.249 OA
ATOM     15  N   UNL A   1      41.716  44.625  17.623  1.00  0.00    -0.334 N 
ATOM     16  H   UNL A   1      40.983  44.792  16.987  1.00  0.00     0.165 HD
BRANCH  15  17
ATOM     17  C   UNL A   1      43.011  44.640  16.989  1.00  0.00     0.157 C 
BRANCH  17  18
ATOM     18  C   UNL A   1      43.657  45.978  17.121  1.00  0.00     0.015 A 
ATOM     19  C   UNL A   1      44.916  46.316  17.707  1.00  0.00     0.065 A 
ATOM     20  C   UNL A   1      43.116  47.204  16.750  1.00  0.00     0.040 A 
ATOM     21  C   UNL A   1      45.963  45.446  18.300  1.00  0.00     0.069 C 
ATOM     22  N   UNL A   1      45.115  47.638  17.725  1.00  0.00    -0.178 NA
ATOM     23  N   UNL A   1      44.033  48.148  17.123  1.00  0.00    -0.272 N 
ATOM     24  C   UNL A   1      41.825  47.546  16.096  1.00  0.00     0.067 C 
ATOM     25  C   UNL A   1      43.959  49.582  16.979  1.00  0.00     0.174 C 
ENDBRANCH  17  18
ENDBRANCH  15  17
ENDBRANCH  10  11
ENDBRANCH   6  10
ENDBRANCH   4   6
ENDBRANCH   3   4
ENDBRANCH   2   3
ENDBRANCH   1   2
BRANCH   1  26
ATOM     26  O   UNL A   1      44.156  41.854  26.867  1.00  0.00    -0.374 OA
BRANCH  26  27
ATOM     27  C   UNL A   1      43.915  40.987  27.970  1.00  0.00     0.202 C 
BRANCH  27  28
ATOM     28  C   UNL A   1      44.661  39.647  28.015  1.00  0.00     0.261 C 
BRANCH  28  29
ATOM     29  O   UNL A   1      44.257  38.805  29.111  1.00  0.00    -0.460 OA
BRANCH  29  30
ATOM     30  C   UNL A   1      45.260  38.486  29.966  1.00  0.00     0.338 C 
ATOM     31  O   UNL A   1      46.462  38.637  29.772  1.00  0.00    -0.246 OA
BRANCH  30  32
ATOM     32  C   UNL A   1      44.728  38.082  31.279  1.00  0.00     0.060 A 
ATOM     33  C   UNL A   1      44.985  36.772  31.703  1.00  0.00     0.016 A 
ATOM     34  C   UNL A   1      43.902  38.921  32.031  1.00  0.00     0.016 A 
ATOM     35  C   UNL A   1      44.374  36.275  32.852  1.00  0.00     0.010 A 
ATOM     36  C   UNL A   1      43.281  38.416  33.181  1.00  0.00     0.010 A 
ATOM     37  C   UNL A   1      43.483  37.079  33.575  1.00  0.00    -0.014 A 
BRANCH  37  38
ATOM     38  C   UNL A   1      42.652  36.468  34.643  1.00  0.00     0.031 A 
ATOM     39  C   UNL A   1      42.932  36.823  36.079  1.00  0.00     0.074 A 
ATOM     40  C   UNL A   1      41.632  35.645  34.337  1.00  0.00     0.049 A 
ATOM     41  N   UNL A   1      42.359  36.389  37.171  1.00  0.00    -0.248 NA
ATOM     42  C   UNL A   1      44.006  37.801  36.310  1.00  0.00     0.031 C 
ATOM     43  C   UNL A   1      41.233  35.269  32.981  1.00  0.00     0.029 A 
ATOM     44  N   UNL A   1      40.751  34.973  35.147  1.00  0.00    -0.354 N 
ATOM     45  C   UNL A   1      43.004  37.033  38.222  1.00  0.00     0.074 A 
ATOM     46  C   UNL A   1      44.035  37.864  37.634  1.00  0.00     0.031 C 
ATOM     47  C   UNL A   1      40.189  34.423  33.055  1.00  0.00     0.029 A 
ATOM     48  C   UNL A   1      39.874  34.167  34.458  1.00  0.00     0.049 A 
ATOM     49  H   UNL A   1      40.748  35.060  36.127  1.00  0.00     0.167 HD
ATOM     50  C   UNL A   1      42.755  36.947  39.552  1.00  0.00     0.034 A 
ATOM     51  C   UNL A   1      38.945  33.300  34.911  1.00  0.00     0.034 A 
ATOM     52  C   UNL A   1      41.729  36.108  40.123  1.00  0.00     0.049 A 
ATOM     53  C   UNL A   1      38.748  33.150  36.401  1.00  0.00     0.074 A 
ATOM     54  C   UNL A   1      41.380  35.957  41.454  1.00  0.00     0.029 A 
ATOM     55  N   UNL A   1      40.895  35.265  39.399  1.00  0.00    -0.354 N 
ATOM     56  N   UNL A   1      39.360  33.770  37.385  1.00  0.00    -0.248 NA
ATOM     57  C   UNL A   1      37.729  32.187  36.841  1.00  0.00     0.031 C 
ATOM     58  C   UNL A   1      40.390  34.973  41.541  1.00  0.00     0.029 A 
ATOM     59  C   UNL A   1      40.061  34.565  40.257  1.00  0.00     0.049 A 
ATOM     60  H   UNL A   1      40.896  35.177  38.418  1.00  0.00     0.167 HD
ATOM     61  C   UNL A   1      38.780  33.291  38.557  1.00  0.00     0.074 A 
ATOM     62  C   UNL A   1      37.761  32.342  38.158  1.00  0.00     0.031 C 
ATOM     63  C   UNL A   1      39.058  33.612  39.847  1.00  0.00     0.034 A 
BRANCH  50  64
ATOM     64  C   UNL A   1      43.647  37.738  40.478  1.00  0.00     0.023 A 
ATOM     65  C   UNL A   1      43.341  39.056  40.860  1.00  0.00     0.031 A 
ATOM     66  C   UNL A   1      44.837  37.170  40.968  1.00  0.00     0.131 A 
ATOM     67  C   UNL A   1      44.244  39.784  41.651  1.00  0.00     0.055 A 
ATOM     68  C   UNL A   1      45.694  37.874  41.816  1.00  0.00     0.041 A 
ATOM     69  F   UNL A   1      45.194  35.925  40.619  1.00  0.00    -0.206 F 
ATOM     70  C   UNL A   1      45.407  39.194  42.151  1.00  0.00     0.022 A 
BRANCH  67  71
ATOM     71  S   UNL A   1      43.946  41.555  41.905  1.00  0.00     0.124 S 
ATOM     72  O   UNL A   1      44.988  41.894  42.871  1.00  0.00    -0.237 OA
ATOM     73  O   UNL A   1      44.119  42.100  40.563  1.00  0.00    -0.237 OA
ATOM     74  O   UNL A   1      42.582  41.603  42.428  1.00  0.00    -0.744 OA
ENDBRANCH  67  71
ENDBRANCH  50  64
BRANCH  51  75
ATOM     75  C   UNL A   1      38.164  32.463  33.955  1.00  0.00     0.023 A 
ATOM     76  C   UNL A   1      37.110  33.005  33.204  1.00  0.00     0.031 A 
ATOM     77  C   UNL A   1      38.429  31.088  33.824  1.00  0.00     0.131 A 
ATOM     78  C   UNL A   1      36.331  32.168  32.388  1.00  0.00     0.055 A 
ATOM     79  C   UNL A   1      37.687  30.271  32.971  1.00  0.00     0.041 A 
ATOM     80  F   UNL A   1      39.422  30.518  34.527  1.00  0.00    -0.206 F 
ATOM     81  C   UNL A   1      36.622  30.807  32.256  1.00  0.00     0.022 A 
BRANCH  78  82
ATOM     82  S   UNL A   1      34.873  32.866  31.566  1.00  0.00     0.124 S 
ATOM     83  O   UNL A   1      33.843  32.683  32.583  1.00  0.00    -0.237 OA
ATOM     84  O   UNL A   1      35.293  34.241  31.318  1.00  0.00    -0.237 OA
ATOM     85  O   UNL A   1      34.724  32.038  30.372  1.00  0.00    -0.744 OA
ENDBRANCH  78  82
ENDBRANCH  51  75
BRANCH  63  86
ATOM     86  C   UNL A   1      38.213  32.960  40.915  1.00  0.00     0.023 A 
ATOM     87  C   UNL A   1      36.897  33.379  41.181  1.00  0.00     0.031 A 
ATOM     88  C   UNL A   1      38.736  31.902  41.679  1.00  0.00     0.131 A 
ATOM     89  C   UNL A   1      36.169  32.779  42.219  1.00  0.00     0.055 A 
ATOM     90  C   UNL A   1      37.986  31.269  42.672  1.00  0.00     0.041 A 
ATOM     91  F   UNL A   1      39.986  31.460  41.469  1.00  0.00    -0.206 F 
ATOM     92  C   UNL A   1      36.698  31.715  42.954  1.00  0.00     0.022 A 
BRANCH  89  93
ATOM     93  S   UNL A   1      34.544  33.459  42.653  1.00  0.00     0.124 S 
ATOM     94  O   UNL A   1      34.863  34.304  43.799  1.00  0.00    -0.237 OA
ATOM     95  O   UNL A   1      34.161  34.160  41.431  1.00  0.00    -0.237 OA
ATOM     96  O   UNL A   1      33.746  32.272  42.960  1.00  0.00    -0.744 OA
ENDBRANCH  89  93
ENDBRANCH  63  86
ENDBRANCH  37  38
ENDBRANCH  30  32
ENDBRANCH  29  30
ENDBRANCH  28  29
ENDBRANCH  27  28
ENDBRANCH  26  27
ENDBRANCH   1  26
TORSDOF 23
ENDMDL
MODEL 2
REMARK VINA RESULT:      -8.5      6.988     10.320
REMARK SMILES CCC[C@@H](CNC(=O)NCc1c(C)nn(C)c1C)C(=O)OCCOCCOC(=O)c1ccc(-c2c3nc(c(-c4cc(S(=O)(=O)[O-])ccc4F)c4ccc([nH]4)c(-c4cc(S(=O)(=O)[O-])ccc4F)c4nc(c(-c5cc(S(=O)(=O)[O-])ccc5F)c5ccc2[nH]5)C=C4)C=C3)cc1
REMARK SMILES IDX 23 1 22 2 21 3 19 4 20 5 4 6 3 7 2 8 1 9 5 10 6 11 7 12 8 14
REMARK SMILES IDX 9 15 10 17 11 18 12 19 17 20 13 21 14 22 15 23 18 24 16 25
REMARK SMILES IDX 24 26 25 27 26 28 27 29 28 30 29 31 30 32 31 33 92 34 32 35
REMARK SMILES IDX 91 36 33 37 34 38 35 39 85 40 36 41 90 42 84 43 86 44 37 45
REMARK SMILES IDX 89 46 83 47 82 48 38 50 70 51 50 52 69 53 51 54 54 55 68 56
REMARK SMILES IDX 87 57 52 58 53 59 67 61 88 62 55 63 39 64 40 65 48 66 41 67
REMARK SMILES IDX 47 68 49 69 46 70 42 71 43 72 44 73 45 74 71 75 72 76 80 77
REMARK SMILES IDX 73 78 79 79 81 80 78 81 74 82 75 83 76 84 77 85 56 86 57 87
REMARK SMILES IDX 65 88 58 89 64 90 66 91 63 92 59 93 60 94 61 95 62 96
REMARK H PARENT 6 13 9 16 86 49 54 60
REMARK Flexibility Score: inf
ROOT
ATOM      1  C   UNL A   1      44.586  42.515  23.646  1.00  0.00     0.202 C 
ENDROOT
BRANCH   1   2
ATOM      2  C   UNL A   1      43.240  43.197  23.379  1.00  0.00     0.261 C 
BRANCH   2   3
ATOM      3  O   UNL A   1      43.169  43.829  22.089  1.00  0.00    -0.463 OA
BRANCH   3   4
ATOM      4  C   UNL A   1      42.217  43.343  21.252  1.00  0.00     0.310 C 
ATOM      5  O   UNL A   1      41.158  42.836  21.607  1.00  0.00    -0.252 OA
BRANCH   4   6
ATOM      6  C   UNL A   1      42.595  43.462  19.788  1.00  0.00     0.118 C 
BRANCH   6   7
ATOM      7  C   UNL A   1      41.696  44.409  18.974  1.00  0.00     0.017 C 
BRANCH   7   8
ATOM      8  C   UNL A   1      42.338  44.952  17.687  1.00  0.00    -0.002 C 
ATOM      9  C   UNL A   1      42.482  46.468  17.659  1.00  0.00     0.004 C 
ENDBRANCH   7   8
ENDBRANCH   6   7
BRANCH   6  10
ATOM     10  C   UNL A   1      44.086  43.760  19.648  1.00  0.00     0.133 C 
BRANCH  10  11
ATOM     11  N   UNL A   1      44.947  42.655  20.019  1.00  0.00    -0.337 N 
ATOM     12  C   UNL A   1      46.185  42.561  20.519  1.00  0.00     0.315 C 
ATOM     13  H   UNL A   1      44.526  41.777  19.871  1.00  0.00     0.165 HD
ATOM     14  O   UNL A   1      46.578  41.442  20.851  1.00  0.00    -0.249 OA
ATOM     15  N   UNL A   1      47.008  43.594  20.698  1.00  0.00    -0.334 N 
ATOM     16  H   UNL A   1      47.795  43.361  21.242  1.00  0.00     0.165 HD
BRANCH  15  17
ATOM     17  C   UNL A   1      47.017  44.974  20.280  1.00  0.00     0.157 C 
BRANCH  17  18
ATOM     18  C   UNL A   1      47.879  45.166  19.078  1.00  0.00     0.015 A 
ATOM     19  C   UNL A   1      49.298  45.052  18.960  1.00  0.00     0.065 A 
ATOM     20  C   UNL A   1      47.465  45.571  17.814  1.00  0.00     0.040 A 
ATOM     21  C   UNL A   1      50.316  44.661  19.968  1.00  0.00     0.069 C 
ATOM     22  N   UNL A   1      49.722  45.391  17.739  1.00  0.00    -0.178 NA
ATOM     23  N   UNL A   1      48.603  45.676  17.061  1.00  0.00    -0.272 N 
ATOM     24  C   UNL A   1      46.111  45.873  17.277  1.00  0.00     0.067 C 
ATOM     25  C   UNL A   1      48.737  46.074  15.681  1.00  0.00     0.174 C 
ENDBRANCH  17  18
ENDBRANCH  15  17
ENDBRANCH  10  11
ENDBRANCH   6  10
ENDBRANCH   4   6
ENDBRANCH   3   4
ENDBRANCH   2   3
ENDBRANCH   1   2
BRANCH   1  26
ATOM     26  O   UNL A   1      44.812  41.987  24.950  1.00  0.00    -0.374 OA
BRANCH  26  27
ATOM     27  C   UNL A   1      43.742  42.038  25.889  1.00  0.00     0.202 C 
BRANCH  27  28
ATOM     28  C   UNL A   1      43.683  40.958  26.978  1.00  0.00     0.261 C 
BRANCH  28  29
ATOM     29  O   UNL A   1      43.757  39.617  26.457  1.00  0.00    -0.460 OA
BRANCH  29  30
ATOM     30  C   UNL A   1      42.745  38.809  26.856  1.00  0.00     0.338 C 
ATOM     31  O   UNL A   1      41.545  39.053  26.789  1.00  0.00    -0.246 OA
BRANCH  30  32
ATOM     32  C   UNL A   1      43.249  37.477  27.235  1.00  0.00     0.060 A 
ATOM     33  C   UNL A   1      42.738  36.373  26.540  1.00  0.00     0.016 A 
ATOM     34  C   UNL A   1      44.111  37.294  28.319  1.00  0.00     0.016 A 
ATOM     35  C   UNL A   1      43.044  35.080  26.958  1.00  0.00     0.010 A 
ATOM     36  C   UNL A   1      44.409  35.993  28.742  1.00  0.00     0.010 A 
ATOM     37  C   UNL A   1      43.847  34.880  28.088  1.00  0.00    -0.014 A 
BRANCH  37  38
ATOM     38  C   UNL A   1      43.960  33.519  28.669  1.00  0.00     0.031 A 
ATOM     39  C   UNL A   1      42.900  33.044  29.628  1.00  0.00     0.074 A 
ATOM     40  C   UNL A   1      44.967  32.699  28.314  1.00  0.00     0.049 A 
ATOM     41  N   UNL A   1      42.812  31.914  30.279  1.00  0.00    -0.248 NA
ATOM     42  C   UNL A   1      41.791  33.976  29.885  1.00  0.00     0.031 C 
ATOM     43  C   UNL A   1      46.022  33.028  27.357  1.00  0.00     0.029 A 
ATOM     44  N   UNL A   1      45.267  31.423  28.723  1.00  0.00    -0.354 N 
ATOM     45  C   UNL A   1      41.643  31.996  31.028  1.00  0.00     0.074 A 
ATOM     46  C   UNL A   1      41.074  33.304  30.774  1.00  0.00     0.031 C 
ATOM     47  C   UNL A   1      46.862  31.982  27.259  1.00  0.00     0.029 A 
ATOM     48  C   UNL A   1      46.428  30.929  28.175  1.00  0.00     0.049 A 
ATOM     49  H   UNL A   1      44.705  30.912  29.348  1.00  0.00     0.167 HD
ATOM     50  C   UNL A   1      41.091  31.065  31.845  1.00  0.00     0.034 A 
ATOM     51  C   UNL A   1      47.080  29.771  28.409  1.00  0.00     0.034 A 
ATOM     52  C   UNL A   1      41.675  29.769  32.094  1.00  0.00     0.049 A 
ATOM     53  C   UNL A   1      46.495  28.787  29.395  1.00  0.00     0.074 A 
ATOM     54  C   UNL A   1      41.192  28.745  32.890  1.00  0.00     0.029 A 
ATOM     55  N   UNL A   1      42.879  29.323  31.564  1.00  0.00    -0.354 N 
ATOM     56  N   UNL A   1      45.386  28.874  30.093  1.00  0.00    -0.248 NA
ATOM     57  C   UNL A   1      47.250  27.547  29.619  1.00  0.00     0.031 C 
ATOM     58  C   UNL A   1      42.137  27.712  32.899  1.00  0.00     0.029 A 
ATOM     59  C   UNL A   1      43.173  28.056  32.045  1.00  0.00     0.049 A 
ATOM     60  H   UNL A   1      43.442  29.832  30.937  1.00  0.00     0.167 HD
ATOM     61  C   UNL A   1      45.297  27.687  30.816  1.00  0.00     0.074 A 
ATOM     62  C   UNL A   1      46.457  26.897  30.460  1.00  0.00     0.031 C 
ATOM     63  C   UNL A   1      44.340  27.283  31.691  1.00  0.00     0.034 A 
BRANCH  50  64
ATOM     64  C   UNL A   1      39.822  31.443  32.571  1.00  0.00     0.023 A 
ATOM     65  C   UNL A   1      39.836  31.931  33.890  1.00  0.00     0.031 A 
ATOM     66  C   UNL A   1      38.575  31.290  31.939  1.00  0.00     0.131 A 
ATOM     67  C   UNL A   1      38.627  32.185  34.555  1.00  0.00     0.055 A 
ATOM     68  C   UNL A   1      37.379  31.616  32.581  1.00  0.00     0.041 A 
ATOM     69  F   UNL A   1      38.498  30.807  30.690  1.00  0.00    -0.206 F 
ATOM     70  C   UNL A   1      37.400  32.054  33.902  1.00  0.00     0.022 A 
BRANCH  67  71
ATOM     71  S   UNL A   1      38.672  32.558  36.330  1.00  0.00     0.124 S 
ATOM     72  O   UNL A   1      39.094  33.957  36.327  1.00  0.00    -0.237 OA
ATOM     73  O   UNL A   1      37.296  32.307  36.741  1.00  0.00    -0.237 OA
ATOM     74  O   UNL A   1      39.662  31.618  36.853  1.00  0.00    -0.744 OA
ENDBRANCH  67  71
ENDBRANCH  50  64
BRANCH  51  75
ATOM     75  C   UNL A   1      48.387  29.494  27.746  1.00  0.00     0.023 A 
ATOM     76  C   UNL A   1      48.457  28.759  26.552  1.00  0.00     0.031 A 
ATOM     77  C   UNL A   1      49.593  29.914  28.334  1.00  0.00     0.131 A 
ATOM     78  C   UNL A   1      49.709  28.430  26.007  1.00  0.00     0.055 A 
ATOM     79  C   UNL A   1      50.833  29.631  27.759  1.00  0.00     0.041 A 
ATOM     80  F   UNL A   1      49.582  30.613  29.480  1.00  0.00    -0.206 F 
ATOM     81  C   UNL A   1      50.896  28.873  26.595  1.00  0.00     0.022 A 
BRANCH  78  82
ATOM     82  S   UNL A   1      49.768  27.336  24.561  1.00  0.00     0.124 S 
ATOM     83  O   UNL A   1      48.667  27.850  23.755  1.00  0.00    -0.237 OA
ATOM     84  O   UNL A   1      51.111  27.584  24.047  1.00  0.00    -0.237 OA
ATOM     85  O   UNL A   1      49.557  26.006  25.130  1.00  0.00    -0.744 OA
ENDBRANCH  78  82
ENDBRANCH  51  75
BRANCH  63  86
ATOM     86  C   UNL A   1      44.490  25.903  32.285  1.00  0.00     0.023 A 
ATOM     87  C   UNL A   1      44.979  25.705  33.589  1.00  0.00     0.031 A 
ATOM     88  C   UNL A   1      44.136  24.769  31.532  1.00  0.00     0.131 A 
ATOM     89  C   UNL A   1      45.151  24.401  34.079  1.00  0.00     0.055 A 
ATOM     90  C   UNL A   1      44.254  23.478  32.047  1.00  0.00     0.041 A 
ATOM     91  F   UNL A   1      43.664  24.899  30.282  1.00  0.00    -0.206 F 
ATOM     92  C   UNL A   1      44.775  23.288  33.324  1.00  0.00     0.022 A 
BRANCH  89  93
ATOM     93  S   UNL A   1      45.947  24.173  35.693  1.00  0.00     0.124 S 
ATOM     94  O   UNL A   1      44.825  23.763  36.531  1.00  0.00    -0.237 OA
ATOM     95  O   UNL A   1      46.941  23.141  35.409  1.00  0.00    -0.237 OA
ATOM     96  O   UNL A   1      46.498  25.494  35.994  1.00  0.00    -0.744 OA
ENDBRANCH  89  93
ENDBRANCH  63  86
ENDBRANCH  37  38
ENDBRANCH  30  32
ENDBRANCH  29  30
ENDBRANCH  28  29
ENDBRANCH  27  28
ENDBRANCH  26  27
ENDBRANCH   1  26
TORSDOF 23
ENDMDL
MODEL 3
REMARK VINA RESULT:      -8.4     12.575     17.376
REMARK SMILES CCC[C@@H](CNC(=O)NCc1c(C)nn(C)c1C)C(=O)OCCOCCOC(=O)c1ccc(-c2c3nc(c(-c4cc(S(=O)(=O)[O-])ccc4F)c4ccc([nH]4)c(-c4cc(S(=O)(=O)[O-])ccc4F)c4nc(c(-c5cc(S(=O)(=O)[O-])ccc5F)c5ccc2[nH]5)C=C4)C=C3)cc1
REMARK SMILES IDX 23 1 22 2 21 3 19 4 20 5 4 6 3 7 2 8 1 9 5 10 6 11 7 12 8 14
REMARK SMILES IDX 9 15 10 17 11 18 12 19 17 20 13 21 14 22 15 23 18 24 16 25
REMARK SMILES IDX 24 26 25 27 26 28 27 29 28 30 29 31 30 32 31 33 92 34 32 35
REMARK SMILES IDX 91 36 33 37 34 38 35 39 85 40 36 41 90 42 84 43 86 44 37 45
REMARK SMILES IDX 89 46 83 47 82 48 38 50 70 51 50 52 69 53 51 54 54 55 68 56
REMARK SMILES IDX 87 57 52 58 53 59 67 61 88 62 55 63 39 64 40 65 48 66 41 67
REMARK SMILES IDX 47 68 49 69 46 70 42 71 43 72 44 73 45 74 71 75 72 76 80 77
REMARK SMILES IDX 73 78 79 79 81 80 78 81 74 82 75 83 76 84 77 85 56 86 57 87
REMARK SMILES IDX 65 88 58 89 64 90 66 91 63 92 59 93 60 94 61 95 62 96
REMARK H PARENT 6 13 9 16 86 49 54 60
REMARK Flexibility Score: inf
ROOT
ATOM      1  C   UNL A   1      43.295  30.386  27.845  1.00  0.00     0.202 C 
ENDROOT
BRANCH   1   2
ATOM      2  C   UNL A   1      44.490  30.506  26.894  1.00  0.00     0.261 C 
BRANCH   2   3
ATOM      3  O   UNL A   1      45.456  29.454  27.058  1.00  0.00    -0.463 OA
BRANCH   3   4
ATOM      4  C   UNL A   1      46.221  29.187  25.968  1.00  0.00     0.310 C 
ATOM      5  O   UNL A   1      46.438  29.971  25.051  1.00  0.00    -0.252 OA
BRANCH   4   6
ATOM      6  C   UNL A   1      46.786  27.780  25.968  1.00  0.00     0.118 C 
BRANCH   6   7
ATOM      7  C   UNL A   1      47.048  27.200  27.369  1.00  0.00     0.017 C 
BRANCH   7   8
ATOM      8  C   UNL A   1      47.251  25.676  27.404  1.00  0.00    -0.002 C 
ATOM      9  C   UNL A   1      46.762  25.014  28.686  1.00  0.00     0.004 C 
ENDBRANCH   7   8
ENDBRANCH   6   7
BRANCH   6  10
ATOM     10  C   UNL A   1      45.946  26.870  25.074  1.00  0.00     0.133 C 
BRANCH  10  11
ATOM     11  N   UNL A   1      44.678  27.444  24.672  1.00  0.00    -0.337 N 
ATOM     12  C   UNL A   1      43.421  27.340  25.120  1.00  0.00     0.315 C 
ATOM     13  H   UNL A   1      44.760  28.044  23.896  1.00  0.00     0.165 HD
ATOM     14  O   UNL A   1      42.578  28.085  24.619  1.00  0.00    -0.249 OA
ATOM     15  N   UNL A   1      43.027  26.503  26.080  1.00  0.00    -0.334 N 
ATOM     16  H   UNL A   1      42.117  26.698  26.401  1.00  0.00     0.165 HD
BRANCH  15  17
ATOM     17  C   UNL A   1      43.622  25.379  26.758  1.00  0.00     0.157 C 
BRANCH  17  18
ATOM     18  C   UNL A   1      42.921  24.109  26.410  1.00  0.00     0.015 A 
ATOM     19  C   UNL A   1      43.311  23.088  25.490  1.00  0.00     0.065 A 
ATOM     20  C   UNL A   1      41.679  23.690  26.876  1.00  0.00     0.040 A 
ATOM     21  C   UNL A   1      44.536  22.960  24.661  1.00  0.00     0.069 C 
ATOM     22  N   UNL A   1      42.375  22.141  25.375  1.00  0.00    -0.178 NA
ATOM     23  N   UNL A   1      41.416  22.510  26.234  1.00  0.00    -0.272 N 
ATOM     24  C   UNL A   1      40.739  24.308  27.848  1.00  0.00     0.067 C 
ATOM     25  C   UNL A   1      40.252  21.664  26.346  1.00  0.00     0.174 C 
ENDBRANCH  17  18
ENDBRANCH  15  17
ENDBRANCH  10  11
ENDBRANCH   6  10
ENDBRANCH   4   6
ENDBRANCH   3   4
ENDBRANCH   2   3
ENDBRANCH   1   2
BRANCH   1  26
ATOM     26  O   UNL A   1      42.558  29.167  27.829  1.00  0.00    -0.374 OA
BRANCH  26  27
ATOM     27  C   UNL A   1      41.171  29.226  27.509  1.00  0.00     0.202 C 
BRANCH  27  28
ATOM     28  C   UNL A   1      40.173  29.459  28.651  1.00  0.00     0.261 C 
BRANCH  28  29
ATOM     29  O   UNL A   1      40.802  29.595  29.939  1.00  0.00    -0.460 OA
BRANCH  29  30
ATOM     30  C   UNL A   1      40.524  28.589  30.803  1.00  0.00     0.338 C 
ATOM     31  O   UNL A   1      39.410  28.190  31.128  1.00  0.00    -0.246 OA
BRANCH  30  32
ATOM     32  C   UNL A   1      41.752  27.876  31.199  1.00  0.00     0.060 A 
ATOM     33  C   UNL A   1      42.268  28.141  32.474  1.00  0.00     0.016 A 
ATOM     34  C   UNL A   1      42.448  27.055  30.309  1.00  0.00     0.016 A 
ATOM     35  C   UNL A   1      43.510  27.632  32.846  1.00  0.00     0.010 A 
ATOM     36  C   UNL A   1      43.701  26.551  30.683  1.00  0.00     0.010 A 
ATOM     37  C   UNL A   1      44.255  26.869  31.938  1.00  0.00    -0.014 A 
BRANCH  37  38
ATOM     38  C   UNL A   1      45.671  26.545  32.248  1.00  0.00     0.031 A 
ATOM     39  C   UNL A   1      45.972  25.351  33.115  1.00  0.00     0.074 A 
ATOM     40  C   UNL A   1      46.675  27.273  31.727  1.00  0.00     0.049 A 
ATOM     41  N   UNL A   1      47.124  24.901  33.540  1.00  0.00    -0.248 NA
ATOM     42  C   UNL A   1      44.814  24.562  33.562  1.00  0.00     0.031 C 
ATOM     43  C   UNL A   1      46.509  28.418  30.833  1.00  0.00     0.029 A 
ATOM     44  N   UNL A   1      48.035  27.160  31.880  1.00  0.00    -0.354 N 
ATOM     45  C   UNL A   1      46.833  23.780  34.310  1.00  0.00     0.074 A 
ATOM     46  C   UNL A   1      45.391  23.640  34.319  1.00  0.00     0.031 C 
ATOM     47  C   UNL A   1      47.722  28.909  30.525  1.00  0.00     0.029 A 
ATOM     48  C   UNL A   1      48.746  28.141  31.230  1.00  0.00     0.049 A 
ATOM     49  H   UNL A   1      48.459  26.444  32.406  1.00  0.00     0.167 HD
ATOM     50  C   UNL A   1      47.689  22.940  34.944  1.00  0.00     0.034 A 
ATOM     51  C   UNL A   1      50.069  28.406  31.229  1.00  0.00     0.034 A 
ATOM     52  C   UNL A   1      49.123  23.097  34.933  1.00  0.00     0.049 A 
ATOM     53  C   UNL A   1      50.995  27.512  32.019  1.00  0.00     0.074 A 
ATOM     54  C   UNL A   1      50.083  22.296  35.527  1.00  0.00     0.029 A 
ATOM     55  N   UNL A   1      49.805  24.134  34.308  1.00  0.00    -0.354 N 
ATOM     56  N   UNL A   1      50.709  26.451  32.738  1.00  0.00    -0.248 NA
ATOM     57  C   UNL A   1      52.425  27.849  31.991  1.00  0.00     0.031 C 
ATOM     58  C   UNL A   1      51.335  22.887  35.323  1.00  0.00     0.029 A 
ATOM     59  C   UNL A   1      51.168  24.013  34.534  1.00  0.00     0.049 A 
ATOM     60  H   UNL A   1      49.382  24.849  33.780  1.00  0.00     0.167 HD
ATOM     61  C   UNL A   1      51.926  25.979  33.224  1.00  0.00     0.074 A 
ATOM     62  C   UNL A   1      52.950  26.863  32.705  1.00  0.00     0.031 C 
ATOM     63  C   UNL A   1      52.177  24.909  34.021  1.00  0.00     0.034 A 
BRANCH  50  64
ATOM     64  C   UNL A   1      47.086  21.812  35.749  1.00  0.00     0.023 A 
ATOM     65  C   UNL A   1      46.830  21.936  37.126  1.00  0.00     0.031 A 
ATOM     66  C   UNL A   1      46.787  20.586  35.131  1.00  0.00     0.131 A 
ATOM     67  C   UNL A   1      46.353  20.832  37.850  1.00  0.00     0.055 A 
ATOM     68  C   UNL A   1      46.242  19.516  35.843  1.00  0.00     0.041 A 
ATOM     69  F   UNL A   1      47.033  20.401  33.824  1.00  0.00    -0.206 F 
ATOM     70  C   UNL A   1      46.035  19.631  37.214  1.00  0.00     0.022 A 
BRANCH  67  71
ATOM     71  S   UNL A   1      46.282  20.945  39.660  1.00  0.00     0.124 S 
ATOM     72  O   UNL A   1      47.692  21.126  39.999  1.00  0.00    -0.237 OA
ATOM     73  O   UNL A   1      45.421  22.102  39.870  1.00  0.00    -0.237 OA
ATOM     74  O   UNL A   1      45.713  19.660  40.062  1.00  0.00    -0.744 OA
ENDBRANCH  67  71
ENDBRANCH  50  64
BRANCH  51  75
ATOM     75  C   UNL A   1      50.600  29.596  30.504  1.00  0.00     0.023 A 
ATOM     76  C   UNL A   1      50.653  30.859  31.116  1.00  0.00     0.031 A 
ATOM     77  C   UNL A   1      51.010  29.496  29.163  1.00  0.00     0.131 A 
ATOM     78  C   UNL A   1      51.064  31.978  30.374  1.00  0.00     0.055 A 
ATOM     79  C   UNL A   1      51.470  30.601  28.446  1.00  0.00     0.041 A 
ATOM     80  F   UNL A   1      50.972  28.313  28.529  1.00  0.00    -0.206 F 
ATOM     81  C   UNL A   1      51.486  31.854  29.047  1.00  0.00     0.022 A 
BRANCH  78  82
ATOM     82  S   UNL A   1      50.957  33.618  31.141  1.00  0.00     0.124 S 
ATOM     83  O   UNL A   1      52.085  33.588  32.066  1.00  0.00    -0.237 OA
ATOM     84  O   UNL A   1      51.094  34.503  29.989  1.00  0.00    -0.237 OA
ATOM     85  O   UNL A   1      49.637  33.616  31.768  1.00  0.00    -0.744 OA
ENDBRANCH  78  82
ENDBRANCH  51  75
BRANCH  63  86
ATOM     86  C   UNL A   1      53.623  24.613  34.339  1.00  0.00     0.023 A 
ATOM     87  C   UNL A   1      54.242  25.100  35.504  1.00  0.00     0.031 A 
ATOM     88  C   UNL A   1      54.393  23.830  33.460  1.00  0.00     0.131 A 
ATOM     89  C   UNL A   1      55.603  24.843  35.731  1.00  0.00     0.055 A 
ATOM     90  C   UNL A   1      55.730  23.529  33.721  1.00  0.00     0.041 A 
ATOM     91  F   UNL A   1      53.853  23.339  32.332  1.00  0.00    -0.206 F 
ATOM     92  C   UNL A   1      56.346  24.046  34.856  1.00  0.00     0.022 A 
BRANCH  89  93
ATOM     93  S   UNL A   1      56.416  25.630  37.149  1.00  0.00     0.124 S 
ATOM     94  O   UNL A   1      55.883  24.863  38.270  1.00  0.00    -0.237 OA
ATOM     95  O   UNL A   1      57.831  25.425  36.853  1.00  0.00    -0.237 OA
ATOM     96  O   UNL A   1      55.965  27.019  37.076  1.00  0.00    -0.744 OA
ENDBRANCH  89  93
ENDBRANCH  63  86
ENDBRANCH  37  38
ENDBRANCH  30  32
ENDBRANCH  29  30
ENDBRANCH  28  29
ENDBRANCH  27  28
ENDBRANCH  26  27
ENDBRANCH   1  26
TORSDOF 23
ENDMDL
