MODEL 1
REMARK VINA RESULT:     -11.4      0.000      0.000
REMARK SMILES O=C(CC[NH+]1CCN(C(=O)c2n[nH]c3ccccc23)CC1)OCCOCCOC(=O)c1ccc(-c2c3nc(c(-c4cc(S(=O)(=O)[O-])ccc4F)c4ccc([nH]4)c(-c4cc(S(=O)(=O)[O-])ccc4F)c4nc(c(-c5cc(S(=O)(=O)[O-])ccc5F)c5ccc2[nH]5)C=C4)C=C3)cc1
REMARK SMILES IDX 25 1 24 2 23 3 22 4 2 5 1 6 3 7 4 8 5 9 6 10 21 11 7 13
REMARK SMILES IDX 20 14 8 15 9 16 10 17 11 18 12 19 19 20 13 21 14 22 18 23
REMARK SMILES IDX 15 25 17 26 16 27 26 28 27 29 28 30 29 31 30 32 31 33 32 34
REMARK SMILES IDX 93 35 33 36 92 37 34 38 35 39 36 40 86 41 37 42 91 43 85 44
REMARK SMILES IDX 87 45 38 46 90 47 84 48 83 49 39 51 71 52 51 53 70 54 52 55
REMARK SMILES IDX 55 56 69 57 88 58 53 59 54 60 68 62 89 63 56 64 40 65 41 66
REMARK SMILES IDX 49 67 42 68 48 69 50 70 47 71 43 72 44 73 45 74 46 75 72 76
REMARK SMILES IDX 73 77 81 78 74 79 80 80 82 81 79 82 75 83 76 84 77 85 78 86
REMARK SMILES IDX 57 87 58 88 66 89 59 90 65 91 67 92 64 93 60 94 61 95 62 96
REMARK SMILES IDX 63 97
REMARK H PARENT 5 12 13 24 87 50 55 61
REMARK Flexibility Score: inf
ROOT
ATOM      1  O   UNL A   1      37.819  21.019  24.823  1.00  0.00    -0.374 OA
ENDROOT
BRANCH   1   2
ATOM      2  C   UNL A   1      36.479  21.418  25.101  1.00  0.00     0.202 C 
BRANCH   2   3
ATOM      3  C   UNL A   1      35.412  20.333  24.994  1.00  0.00     0.261 C 
BRANCH   3   4
ATOM      4  O   UNL A   1      34.139  20.689  25.549  1.00  0.00    -0.463 OA
BRANCH   4   5
ATOM      5  C   UNL A   1      32.961  20.246  25.058  1.00  0.00     0.311 C 
ATOM      6  O   UNL A   1      32.489  19.188  25.477  1.00  0.00    -0.252 OA
BRANCH   5   7
ATOM      7  C   UNL A   1      32.297  20.960  23.902  1.00  0.00     0.184 C 
BRANCH   7   8
ATOM      8  C   UNL A   1      31.769  22.350  24.222  1.00  0.00     0.274 C 
BRANCH   8   9
ATOM      9  N   UNL A   1      32.845  23.315  24.438  1.00  0.00    -0.332 N 
ATOM     10  C   UNL A   1      33.716  23.560  23.262  1.00  0.00     0.284 C 
ATOM     11  C   UNL A   1      32.355  24.582  25.007  1.00  0.00     0.284 C 
ATOM     12  H   UNL A   1      33.446  22.863  25.127  1.00  0.00     0.348 HD
ATOM     13  C   UNL A   1      33.177  24.580  22.232  1.00  0.00     0.181 C 
ATOM     14  C   UNL A   1      31.676  25.469  23.957  1.00  0.00     0.181 C 
ATOM     15  N   UNL A   1      32.638  25.767  22.895  1.00  0.00    -0.326 N 
ATOM     16  C   UNL A   1      33.115  27.040  22.574  1.00  0.00     0.275 C 
ATOM     17  O   UNL A   1      33.934  27.228  21.677  1.00  0.00    -0.267 OA
BRANCH  16  18
ATOM     18  C   UNL A   1      32.575  28.153  23.368  1.00  0.00     0.157 A 
ATOM     19  N   UNL A   1      31.513  28.867  22.942  1.00  0.00    -0.169 NA
ATOM     20  C   UNL A   1      32.956  28.528  24.694  1.00  0.00     0.033 A 
ATOM     21  N   UNL A   1      31.235  29.676  23.976  1.00  0.00    -0.277 N 
ATOM     22  C   UNL A   1      32.016  29.475  25.081  1.00  0.00     0.066 A 
ATOM     23  C   UNL A   1      33.935  28.125  25.623  1.00  0.00     0.013 A 
ATOM     24  H   UNL A   1      30.527  30.359  23.942  1.00  0.00     0.190 HD
ATOM     25  C   UNL A   1      31.968  30.029  26.364  1.00  0.00     0.028 A 
ATOM     26  C   UNL A   1      33.901  28.658  26.919  1.00  0.00     0.001 A 
ATOM     27  C   UNL A   1      32.927  29.588  27.282  1.00  0.00     0.002 A 
ENDBRANCH  16  18
ENDBRANCH   8   9
ENDBRANCH   7   8
ENDBRANCH   5   7
ENDBRANCH   4   5
ENDBRANCH   3   4
ENDBRANCH   2   3
ENDBRANCH   1   2
BRANCH   1  28
ATOM     28  C   UNL A   1      38.059  19.617  24.989  1.00  0.00     0.202 C 
BRANCH  28  29
ATOM     29  C   UNL A   1      39.414  19.309  25.640  1.00  0.00     0.261 C 
BRANCH  29  30
ATOM     30  O   UNL A   1      39.608  20.117  26.811  1.00  0.00    -0.460 OA
BRANCH  30  31
ATOM     31  C   UNL A   1      40.903  20.325  27.164  1.00  0.00     0.338 C 
ATOM     32  O   UNL A   1      41.810  19.509  27.133  1.00  0.00    -0.246 OA
BRANCH  31  33
ATOM     33  C   UNL A   1      41.108  21.778  27.375  1.00  0.00     0.060 A 
ATOM     34  C   UNL A   1      40.369  22.669  26.579  1.00  0.00     0.016 A 
ATOM     35  C   UNL A   1      41.945  22.266  28.382  1.00  0.00     0.016 A 
ATOM     36  C   UNL A   1      40.484  24.046  26.774  1.00  0.00     0.010 A 
ATOM     37  C   UNL A   1      42.067  23.643  28.568  1.00  0.00     0.010 A 
ATOM     38  C   UNL A   1      41.355  24.540  27.751  1.00  0.00    -0.014 A 
BRANCH  38  39
ATOM     39  C   UNL A   1      41.679  25.986  27.822  1.00  0.00     0.031 A 
ATOM     40  C   UNL A   1      42.995  26.437  27.250  1.00  0.00     0.074 A 
ATOM     41  C   UNL A   1      40.857  26.861  28.429  1.00  0.00     0.049 A 
ATOM     42  N   UNL A   1      43.585  27.598  27.340  1.00  0.00    -0.248 NA
ATOM     43  C   UNL A   1      43.751  25.431  26.485  1.00  0.00     0.031 C 
ATOM     44  C   UNL A   1      39.541  26.540  28.981  1.00  0.00     0.029 A 
ATOM     45  N   UNL A   1      41.024  28.194  28.711  1.00  0.00    -0.354 N 
ATOM     46  C   UNL A   1      44.795  27.456  26.669  1.00  0.00     0.074 A 
ATOM     47  C   UNL A   1      44.858  26.094  26.188  1.00  0.00     0.031 C 
ATOM     48  C   UNL A   1      39.036  27.640  29.568  1.00  0.00     0.029 A 
ATOM     49  C   UNL A   1      40.012  28.726  29.478  1.00  0.00     0.049 A 
ATOM     50  H   UNL A   1      41.794  28.719  28.396  1.00  0.00     0.167 HD
ATOM     51  C   UNL A   1      45.765  28.382  26.480  1.00  0.00     0.034 A 
ATOM     52  C   UNL A   1      39.913  29.931  30.079  1.00  0.00     0.034 A 
ATOM     53  C   UNL A   1      45.680  29.734  26.965  1.00  0.00     0.049 A 
ATOM     54  C   UNL A   1      41.048  30.919  29.920  1.00  0.00     0.074 A 
ATOM     55  C   UNL A   1      46.575  30.772  26.778  1.00  0.00     0.029 A 
ATOM     56  N   UNL A   1      44.650  30.232  27.752  1.00  0.00    -0.354 N 
ATOM     57  N   UNL A   1      42.169  30.790  29.248  1.00  0.00    -0.248 NA
ATOM     58  C   UNL A   1      40.907  32.214  30.601  1.00  0.00     0.031 C 
ATOM     59  C   UNL A   1      46.130  31.871  27.520  1.00  0.00     0.029 A 
ATOM     60  C   UNL A   1      44.914  31.546  28.102  1.00  0.00     0.049 A 
ATOM     61  H   UNL A   1      43.851  29.726  28.021  1.00  0.00     0.167 HD
ATOM     62  C   UNL A   1      42.851  31.995  29.408  1.00  0.00     0.074 A 
ATOM     63  C   UNL A   1      42.009  32.844  30.224  1.00  0.00     0.031 C 
ATOM     64  C   UNL A   1      44.062  32.371  28.924  1.00  0.00     0.034 A 
BRANCH  51  65
ATOM     65  C   UNL A   1      47.025  27.944  25.777  1.00  0.00     0.023 A 
ATOM     66  C   UNL A   1      47.201  28.104  24.392  1.00  0.00     0.031 A 
ATOM     67  C   UNL A   1      48.067  27.354  26.513  1.00  0.00     0.131 A 
ATOM     68  C   UNL A   1      48.373  27.633  23.779  1.00  0.00     0.055 A 
ATOM     69  C   UNL A   1      49.259  26.951  25.909  1.00  0.00     0.041 A 
ATOM     70  F   UNL A   1      47.940  27.152  27.835  1.00  0.00    -0.206 F 
ATOM     71  C   UNL A   1      49.413  27.081  24.533  1.00  0.00     0.022 A 
BRANCH  68  72
ATOM     72  S   UNL A   1      48.476  27.651  21.969  1.00  0.00     0.124 S 
ATOM     73  O   UNL A   1      49.616  28.538  21.748  1.00  0.00    -0.237 OA
ATOM     74  O   UNL A   1      48.688  26.245  21.652  1.00  0.00    -0.237 OA
ATOM     75  O   UNL A   1      47.183  28.197  21.558  1.00  0.00    -0.744 OA
ENDBRANCH  68  72
ENDBRANCH  51  65
BRANCH  52  76
ATOM     76  C   UNL A   1      38.748  30.258  30.956  1.00  0.00     0.023 A 
ATOM     77  C   UNL A   1      37.645  30.974  30.465  1.00  0.00     0.031 A 
ATOM     78  C   UNL A   1      38.761  29.931  32.325  1.00  0.00     0.131 A 
ATOM     79  C   UNL A   1      36.632  31.392  31.343  1.00  0.00     0.055 A 
ATOM     80  C   UNL A   1      37.721  30.296  33.182  1.00  0.00     0.041 A 
ATOM     81  F   UNL A   1      39.792  29.252  32.853  1.00  0.00    -0.206 F 
ATOM     82  C   UNL A   1      36.655  31.045  32.696  1.00  0.00     0.022 A 
BRANCH  79  83
ATOM     83  S   UNL A   1      35.336  32.494  30.713  1.00  0.00     0.124 S 
ATOM     84  O   UNL A   1      34.407  32.532  31.837  1.00  0.00    -0.237 OA
ATOM     85  O   UNL A   1      36.083  33.720  30.454  1.00  0.00    -0.237 OA
ATOM     86  O   UNL A   1      34.848  31.800  29.523  1.00  0.00    -0.744 OA
ENDBRANCH  79  83
ENDBRANCH  52  76
BRANCH  64  87
ATOM     87  C   UNL A   1      44.526  33.774  29.231  1.00  0.00     0.023 A 
ATOM     88  C   UNL A   1      45.268  34.070  30.387  1.00  0.00     0.031 A 
ATOM     89  C   UNL A   1      44.239  34.823  28.340  1.00  0.00     0.131 A 
ATOM     90  C   UNL A   1      45.665  35.391  30.642  1.00  0.00     0.055 A 
ATOM     91  C   UNL A   1      44.686  36.125  28.570  1.00  0.00     0.041 A 
ATOM     92  F   UNL A   1      43.532  34.595  27.221  1.00  0.00    -0.206 F 
ATOM     93  C   UNL A   1      45.395  36.417  29.731  1.00  0.00     0.022 A 
BRANCH  90  94
ATOM     94  S   UNL A   1      46.484  35.769  32.215  1.00  0.00     0.124 S 
ATOM     95  O   UNL A   1      47.870  35.955  31.798  1.00  0.00    -0.237 OA
ATOM     96  O   UNL A   1      45.783  36.972  32.652  1.00  0.00    -0.237 OA
ATOM     97  O   UNL A   1      46.234  34.579  33.027  1.00  0.00    -0.744 OA
ENDBRANCH  90  94
ENDBRANCH  64  87
ENDBRANCH  38  39
ENDBRANCH  31  33
ENDBRANCH  30  31
ENDBRANCH  29  30
ENDBRANCH  28  29
ENDBRANCH   1  28
TORSDOF 20
ENDMDL
MODEL 2
REMARK VINA RESULT:     -11.0      4.404      6.582
REMARK SMILES O=C(CC[NH+]1CCN(C(=O)c2n[nH]c3ccccc23)CC1)OCCOCCOC(=O)c1ccc(-c2c3nc(c(-c4cc(S(=O)(=O)[O-])ccc4F)c4ccc([nH]4)c(-c4cc(S(=O)(=O)[O-])ccc4F)c4nc(c(-c5cc(S(=O)(=O)[O-])ccc5F)c5ccc2[nH]5)C=C4)C=C3)cc1
REMARK SMILES IDX 25 1 24 2 23 3 22 4 2 5 1 6 3 7 4 8 5 9 6 10 21 11 7 13
REMARK SMILES IDX 20 14 8 15 9 16 10 17 11 18 12 19 19 20 13 21 14 22 18 23
REMARK SMILES IDX 15 25 17 26 16 27 26 28 27 29 28 30 29 31 30 32 31 33 32 34
REMARK SMILES IDX 93 35 33 36 92 37 34 38 35 39 36 40 86 41 37 42 91 43 85 44
REMARK SMILES IDX 87 45 38 46 90 47 84 48 83 49 39 51 71 52 51 53 70 54 52 55
REMARK SMILES IDX 55 56 69 57 88 58 53 59 54 60 68 62 89 63 56 64 40 65 41 66
REMARK SMILES IDX 49 67 42 68 48 69 50 70 47 71 43 72 44 73 45 74 46 75 72 76
REMARK SMILES IDX 73 77 81 78 74 79 80 80 82 81 79 82 75 83 76 84 77 85 78 86
REMARK SMILES IDX 57 87 58 88 66 89 59 90 65 91 67 92 64 93 60 94 61 95 62 96
REMARK SMILES IDX 63 97
REMARK H PARENT 5 12 13 24 87 50 55 61
REMARK Flexibility Score: inf
ROOT
ATOM      1  O   UNL A   1      42.346  19.587  25.180  1.00  0.00    -0.374 OA
ENDROOT
BRANCH   1   2
ATOM      2  C   UNL A   1      41.522  19.287  26.305  1.00  0.00     0.202 C 
BRANCH   2   3
ATOM      3  C   UNL A   1      40.658  20.427  26.835  1.00  0.00     0.261 C 
BRANCH   3   4
ATOM      4  O   UNL A   1      40.007  21.207  25.823  1.00  0.00    -0.463 OA
BRANCH   4   5
ATOM      5  C   UNL A   1      38.677  21.165  25.590  1.00  0.00     0.311 C 
ATOM      6  O   UNL A   1      38.184  20.163  25.071  1.00  0.00    -0.252 OA
BRANCH   5   7
ATOM      7  C   UNL A   1      37.820  22.388  25.826  1.00  0.00     0.184 C 
BRANCH   7   8
ATOM      8  C   UNL A   1      36.932  22.787  24.658  1.00  0.00     0.274 C 
BRANCH   8   9
ATOM      9  N   UNL A   1      35.588  22.220  24.765  1.00  0.00    -0.332 N 
ATOM     10  C   UNL A   1      35.079  22.068  26.150  1.00  0.00     0.284 C 
ATOM     11  C   UNL A   1      34.614  22.927  23.917  1.00  0.00     0.284 C 
ATOM     12  H   UNL A   1      35.695  21.269  24.412  1.00  0.00     0.348 HD
ATOM     13  C   UNL A   1      34.458  23.339  26.777  1.00  0.00     0.181 C 
ATOM     14  C   UNL A   1      34.173  24.264  24.522  1.00  0.00     0.181 C 
ATOM     15  N   UNL A   1      33.570  24.015  25.832  1.00  0.00    -0.326 N 
ATOM     16  C   UNL A   1      32.240  24.279  26.169  1.00  0.00     0.275 C 
ATOM     17  O   UNL A   1      31.784  24.036  27.285  1.00  0.00    -0.267 OA
BRANCH  16  18
ATOM     18  C   UNL A   1      31.410  24.873  25.112  1.00  0.00     0.157 A 
ATOM     19  N   UNL A   1      30.557  24.122  24.386  1.00  0.00    -0.169 NA
ATOM     20  C   UNL A   1      31.264  26.264  24.811  1.00  0.00     0.033 A 
ATOM     21  N   UNL A   1      29.893  25.020  23.642  1.00  0.00    -0.277 N 
ATOM     22  C   UNL A   1      30.218  26.323  23.900  1.00  0.00     0.066 A 
ATOM     23  C   UNL A   1      31.845  27.467  25.257  1.00  0.00     0.013 A 
ATOM     24  H   UNL A   1      29.224  24.762  22.966  1.00  0.00     0.190 HD
ATOM     25  C   UNL A   1      29.684  27.525  23.424  1.00  0.00     0.028 A 
ATOM     26  C   UNL A   1      31.320  28.683  24.803  1.00  0.00     0.001 A 
ATOM     27  C   UNL A   1      30.251  28.708  23.907  1.00  0.00     0.002 A 
ENDBRANCH  16  18
ENDBRANCH   8   9
ENDBRANCH   7   8
ENDBRANCH   5   7
ENDBRANCH   4   5
ENDBRANCH   3   4
ENDBRANCH   2   3
ENDBRANCH   1   2
BRANCH   1  28
ATOM     28  C   UNL A   1      43.750  19.466  25.435  1.00  0.00     0.202 C 
BRANCH  28  29
ATOM     29  C   UNL A   1      44.511  20.784  25.247  1.00  0.00     0.261 C 
BRANCH  29  30
ATOM     30  O   UNL A   1      43.871  21.847  25.971  1.00  0.00    -0.460 OA
BRANCH  30  31
ATOM     31  C   UNL A   1      43.501  22.918  25.221  1.00  0.00     0.338 C 
ATOM     32  O   UNL A   1      43.378  22.954  24.008  1.00  0.00    -0.246 OA
BRANCH  31  33
ATOM     33  C   UNL A   1      43.033  23.992  26.131  1.00  0.00     0.060 A 
ATOM     34  C   UNL A   1      43.470  25.302  25.880  1.00  0.00     0.016 A 
ATOM     35  C   UNL A   1      42.124  23.740  27.162  1.00  0.00     0.016 A 
ATOM     36  C   UNL A   1      43.017  26.358  26.673  1.00  0.00     0.010 A 
ATOM     37  C   UNL A   1      41.680  24.795  27.960  1.00  0.00     0.010 A 
ATOM     38  C   UNL A   1      42.141  26.104  27.735  1.00  0.00    -0.014 A 
BRANCH  38  39
ATOM     39  C   UNL A   1      41.833  27.155  28.735  1.00  0.00     0.031 A 
ATOM     40  C   UNL A   1      42.655  27.185  29.994  1.00  0.00     0.074 A 
ATOM     41  C   UNL A   1      40.815  28.017  28.557  1.00  0.00     0.049 A 
ATOM     42  N   UNL A   1      42.478  27.880  31.085  1.00  0.00    -0.248 NA
ATOM     43  C   UNL A   1      43.830  26.297  30.026  1.00  0.00     0.031 C 
ATOM     44  C   UNL A   1      39.980  28.103  27.359  1.00  0.00     0.029 A 
ATOM     45  N   UNL A   1      40.290  28.964  29.401  1.00  0.00    -0.354 N 
ATOM     46  C   UNL A   1      43.499  27.493  31.946  1.00  0.00     0.074 A 
ATOM     47  C   UNL A   1      44.284  26.495  31.254  1.00  0.00     0.031 C 
ATOM     48  C   UNL A   1      39.025  29.027  27.560  1.00  0.00     0.029 A 
ATOM     49  C   UNL A   1      39.149  29.561  28.917  1.00  0.00     0.049 A 
ATOM     50  H   UNL A   1      40.692  29.194  30.269  1.00  0.00     0.167 HD
ATOM     51  C   UNL A   1      43.750  27.931  33.203  1.00  0.00     0.034 A 
ATOM     52  C   UNL A   1      38.278  30.399  29.520  1.00  0.00     0.034 A 
ATOM     53  C   UNL A   1      42.957  28.928  33.872  1.00  0.00     0.049 A 
ATOM     54  C   UNL A   1      38.538  30.810  30.953  1.00  0.00     0.074 A 
ATOM     55  C   UNL A   1      43.157  29.489  35.120  1.00  0.00     0.029 A 
ATOM     56  N   UNL A   1      41.799  29.496  33.359  1.00  0.00    -0.354 N 
ATOM     57  N   UNL A   1      39.530  30.472  31.744  1.00  0.00    -0.248 NA
ATOM     58  C   UNL A   1      37.559  31.713  31.576  1.00  0.00     0.031 C 
ATOM     59  C   UNL A   1      42.076  30.334  35.396  1.00  0.00     0.029 A 
ATOM     60  C   UNL A   1      41.245  30.363  34.287  1.00  0.00     0.049 A 
ATOM     61  H   UNL A   1      41.426  29.311  32.467  1.00  0.00     0.167 HD
ATOM     62  C   UNL A   1      39.305  31.140  32.946  1.00  0.00     0.074 A 
ATOM     63  C   UNL A   1      38.095  31.914  32.771  1.00  0.00     0.031 C 
ATOM     64  C   UNL A   1      40.032  31.120  34.092  1.00  0.00     0.034 A 
BRANCH  51  65
ATOM     65  C   UNL A   1      44.886  27.286  33.956  1.00  0.00     0.023 A 
ATOM     66  C   UNL A   1      44.721  26.094  34.679  1.00  0.00     0.031 A 
ATOM     67  C   UNL A   1      46.159  27.883  33.946  1.00  0.00     0.131 A 
ATOM     68  C   UNL A   1      45.799  25.562  35.404  1.00  0.00     0.055 A 
ATOM     69  C   UNL A   1      47.245  27.313  34.612  1.00  0.00     0.041 A 
ATOM     70  F   UNL A   1      46.366  29.039  33.294  1.00  0.00    -0.206 F 
ATOM     71  C   UNL A   1      47.066  26.151  35.354  1.00  0.00     0.022 A 
BRANCH  68  72
ATOM     72  S   UNL A   1      45.497  24.152  36.503  1.00  0.00     0.124 S 
ATOM     73  O   UNL A   1      44.223  23.648  35.993  1.00  0.00    -0.237 OA
ATOM     74  O   UNL A   1      46.661  23.308  36.260  1.00  0.00    -0.237 OA
ATOM     75  O   UNL A   1      45.432  24.759  37.831  1.00  0.00    -0.744 OA
ENDBRANCH  68  72
ENDBRANCH  51  65
BRANCH  52  76
ATOM     76  C   UNL A   1      37.037  30.850  28.821  1.00  0.00     0.023 A 
ATOM     77  C   UNL A   1      36.665  32.203  28.795  1.00  0.00     0.031 A 
ATOM     78  C   UNL A   1      36.157  29.918  28.239  1.00  0.00     0.131 A 
ATOM     79  C   UNL A   1      35.425  32.581  28.257  1.00  0.00     0.055 A 
ATOM     80  C   UNL A   1      34.952  30.305  27.651  1.00  0.00     0.041 A 
ATOM     81  F   UNL A   1      36.455  28.609  28.239  1.00  0.00    -0.206 F 
ATOM     82  C   UNL A   1      34.571  31.643  27.672  1.00  0.00     0.022 A 
BRANCH  79  83
ATOM     83  S   UNL A   1      34.889  34.305  28.434  1.00  0.00     0.124 S 
ATOM     84  O   UNL A   1      35.979  34.876  29.218  1.00  0.00    -0.237 OA
ATOM     85  O   UNL A   1      34.802  34.737  27.043  1.00  0.00    -0.237 OA
ATOM     86  O   UNL A   1      33.609  34.195  29.131  1.00  0.00    -0.744 OA
ENDBRANCH  79  83
ENDBRANCH  52  76
BRANCH  64  87
ATOM     87  C   UNL A   1      39.558  31.993  35.229  1.00  0.00     0.023 A 
ATOM     88  C   UNL A   1      40.022  33.308  35.393  1.00  0.00     0.031 A 
ATOM     89  C   UNL A   1      38.611  31.503  36.146  1.00  0.00     0.131 A 
ATOM     90  C   UNL A   1      39.566  34.079  36.475  1.00  0.00     0.055 A 
ATOM     91  C   UNL A   1      38.119  32.293  37.186  1.00  0.00     0.041 A 
ATOM     92  F   UNL A   1      38.136  30.252  36.035  1.00  0.00    -0.206 F 
ATOM     93  C   UNL A   1      38.604  33.585  37.360  1.00  0.00     0.022 A 
BRANCH  90  94
ATOM     94  S   UNL A   1      40.299  35.715  36.751  1.00  0.00     0.124 S 
ATOM     95  O   UNL A   1      41.704  35.472  36.446  1.00  0.00    -0.237 OA
ATOM     96  O   UNL A   1      39.573  36.547  35.797  1.00  0.00    -0.237 OA
ATOM     97  O   UNL A   1      40.006  35.988  38.157  1.00  0.00    -0.744 OA
ENDBRANCH  90  94
ENDBRANCH  64  87
ENDBRANCH  38  39
ENDBRANCH  31  33
ENDBRANCH  30  31
ENDBRANCH  29  30
ENDBRANCH  28  29
ENDBRANCH   1  28
TORSDOF 20
ENDMDL
MODEL 3
REMARK VINA RESULT:     -10.2      1.508      2.176
REMARK SMILES O=C(CC[NH+]1CCN(C(=O)c2n[nH]c3ccccc23)CC1)OCCOCCOC(=O)c1ccc(-c2c3nc(c(-c4cc(S(=O)(=O)[O-])ccc4F)c4ccc([nH]4)c(-c4cc(S(=O)(=O)[O-])ccc4F)c4nc(c(-c5cc(S(=O)(=O)[O-])ccc5F)c5ccc2[nH]5)C=C4)C=C3)cc1
REMARK SMILES IDX 25 1 24 2 23 3 22 4 2 5 1 6 3 7 4 8 5 9 6 10 21 11 7 13
REMARK SMILES IDX 20 14 8 15 9 16 10 17 11 18 12 19 19 20 13 21 14 22 18 23
REMARK SMILES IDX 15 25 17 26 16 27 26 28 27 29 28 30 29 31 30 32 31 33 32 34
REMARK SMILES IDX 93 35 33 36 92 37 34 38 35 39 36 40 86 41 37 42 91 43 85 44
REMARK SMILES IDX 87 45 38 46 90 47 84 48 83 49 39 51 71 52 51 53 70 54 52 55
REMARK SMILES IDX 55 56 69 57 88 58 53 59 54 60 68 62 89 63 56 64 40 65 41 66
REMARK SMILES IDX 49 67 42 68 48 69 50 70 47 71 43 72 44 73 45 74 46 75 72 76
REMARK SMILES IDX 73 77 81 78 74 79 80 80 82 81 79 82 75 83 76 84 77 85 78 86
REMARK SMILES IDX 57 87 58 88 66 89 59 90 65 91 67 92 64 93 60 94 61 95 62 96
REMARK SMILES IDX 63 97
REMARK H PARENT 5 12 13 24 87 50 55 61
REMARK Flexibility Score: inf
ROOT
ATOM      1  O   UNL A   1      37.211  21.272  24.067  1.00  0.00    -0.374 OA
ENDROOT
BRANCH   1   2
ATOM      2  C   UNL A   1      36.339  22.279  24.575  1.00  0.00     0.202 C 
BRANCH   2   3
ATOM      3  C   UNL A   1      34.892  22.229  24.096  1.00  0.00     0.261 C 
BRANCH   3   4
ATOM      4  O   UNL A   1      33.967  21.676  25.041  1.00  0.00    -0.463 OA
BRANCH   4   5
ATOM      5  C   UNL A   1      32.626  21.800  24.934  1.00  0.00     0.311 C 
ATOM      6  O   UNL A   1      31.921  20.790  24.948  1.00  0.00    -0.252 OA
BRANCH   5   7
ATOM      7  C   UNL A   1      32.003  23.149  24.651  1.00  0.00     0.184 C 
BRANCH   7   8
ATOM      8  C   UNL A   1      32.292  24.221  25.690  1.00  0.00     0.274 C 
BRANCH   8   9
ATOM      9  N   UNL A   1      31.185  25.166  25.834  1.00  0.00    -0.332 N 
ATOM     10  C   UNL A   1      31.360  26.182  26.901  1.00  0.00     0.284 C 
ATOM     11  C   UNL A   1      30.821  25.799  24.555  1.00  0.00     0.284 C 
ATOM     12  H   UNL A   1      30.405  24.585  26.141  1.00  0.00     0.348 HD
ATOM     13  C   UNL A   1      32.202  27.420  26.515  1.00  0.00     0.181 C 
ATOM     14  C   UNL A   1      31.802  26.904  24.149  1.00  0.00     0.181 C 
ATOM     15  N   UNL A   1      31.824  27.927  25.196  1.00  0.00    -0.326 N 
ATOM     16  C   UNL A   1      31.424  29.255  25.032  1.00  0.00     0.275 C 
ATOM     17  O   UNL A   1      31.452  30.069  25.953  1.00  0.00    -0.267 OA
BRANCH  16  18
ATOM     18  C   UNL A   1      30.972  29.634  23.685  1.00  0.00     0.157 A 
ATOM     19  N   UNL A   1      31.603  29.183  22.582  1.00  0.00    -0.169 NA
ATOM     20  C   UNL A   1      29.784  30.354  23.347  1.00  0.00     0.033 A 
ATOM     21  N   UNL A   1      30.832  29.615  21.572  1.00  0.00    -0.277 N 
ATOM     22  C   UNL A   1      29.692  30.260  21.964  1.00  0.00     0.066 A 
ATOM     23  C   UNL A   1      28.753  31.005  24.053  1.00  0.00     0.013 A 
ATOM     24  H   UNL A   1      31.067  29.477  20.626  1.00  0.00     0.190 HD
ATOM     25  C   UNL A   1      28.605  30.750  21.234  1.00  0.00     0.028 A 
ATOM     26  C   UNL A   1      27.649  31.495  23.344  1.00  0.00     0.001 A 
ATOM     27  C   UNL A   1      27.576  31.361  21.957  1.00  0.00     0.002 A 
ENDBRANCH  16  18
ENDBRANCH   8   9
ENDBRANCH   7   8
ENDBRANCH   5   7
ENDBRANCH   4   5
ENDBRANCH   3   4
ENDBRANCH   2   3
ENDBRANCH   1   2
BRANCH   1  28
ATOM     28  C   UNL A   1      37.230  20.068  24.842  1.00  0.00     0.202 C 
BRANCH  28  29
ATOM     29  C   UNL A   1      38.645  19.625  25.234  1.00  0.00     0.261 C 
BRANCH  29  30
ATOM     30  O   UNL A   1      39.048  20.249  26.463  1.00  0.00    -0.460 OA
BRANCH  30  31
ATOM     31  C   UNL A   1      40.390  20.393  26.627  1.00  0.00     0.338 C 
ATOM     32  O   UNL A   1      41.249  19.560  26.392  1.00  0.00    -0.246 OA
BRANCH  31  33
ATOM     33  C   UNL A   1      40.679  21.818  26.919  1.00  0.00     0.060 A 
ATOM     34  C   UNL A   1      39.885  22.792  26.293  1.00  0.00     0.016 A 
ATOM     35  C   UNL A   1      41.654  22.196  27.846  1.00  0.00     0.016 A 
ATOM     36  C   UNL A   1      40.081  24.145  26.574  1.00  0.00     0.010 A 
ATOM     37  C   UNL A   1      41.855  23.550  28.118  1.00  0.00     0.010 A 
ATOM     38  C   UNL A   1      41.086  24.531  27.468  1.00  0.00    -0.014 A 
BRANCH  38  39
ATOM     39  C   UNL A   1      41.476  25.956  27.605  1.00  0.00     0.031 A 
ATOM     40  C   UNL A   1      42.813  26.371  27.056  1.00  0.00     0.074 A 
ATOM     41  C   UNL A   1      40.694  26.839  28.252  1.00  0.00     0.049 A 
ATOM     42  N   UNL A   1      43.455  27.498  27.199  1.00  0.00    -0.248 NA
ATOM     43  C   UNL A   1      43.524  25.368  26.246  1.00  0.00     0.031 C 
ATOM     44  C   UNL A   1      39.363  26.554  28.788  1.00  0.00     0.029 A 
ATOM     45  N   UNL A   1      40.922  28.148  28.596  1.00  0.00    -0.354 N 
ATOM     46  C   UNL A   1      44.659  27.332  26.523  1.00  0.00     0.074 A 
ATOM     47  C   UNL A   1      44.662  25.992  25.980  1.00  0.00     0.031 C 
ATOM     48  C   UNL A   1      38.907  27.648  29.425  1.00  0.00     0.029 A 
ATOM     49  C   UNL A   1      39.933  28.690  29.386  1.00  0.00     0.049 A 
ATOM     50  H   UNL A   1      41.716  28.651  28.306  1.00  0.00     0.167 HD
ATOM     51  C   UNL A   1      45.672  28.220  26.378  1.00  0.00     0.034 A 
ATOM     52  C   UNL A   1      39.888  29.869  30.042  1.00  0.00     0.034 A 
ATOM     53  C   UNL A   1      45.649  29.551  26.925  1.00  0.00     0.049 A 
ATOM     54  C   UNL A   1      41.068  30.811  29.929  1.00  0.00     0.074 A 
ATOM     55  C   UNL A   1      46.591  30.553  26.787  1.00  0.00     0.029 A 
ATOM     56  N   UNL A   1      44.641  30.058  27.734  1.00  0.00    -0.354 N 
ATOM     57  N   UNL A   1      42.184  30.661  29.253  1.00  0.00    -0.248 NA
ATOM     58  C   UNL A   1      40.985  32.078  30.670  1.00  0.00     0.031 C 
ATOM     59  C   UNL A   1      46.195  31.636  27.579  1.00  0.00     0.029 A 
ATOM     60  C   UNL A   1      44.964  31.341  28.145  1.00  0.00     0.049 A 
ATOM     61  H   UNL A   1      43.818  29.578  27.979  1.00  0.00     0.167 HD
ATOM     62  C   UNL A   1      42.920  31.824  29.469  1.00  0.00     0.074 A 
ATOM     63  C   UNL A   1      42.116  32.673  30.323  1.00  0.00     0.031 C 
ATOM     64  C   UNL A   1      44.149  32.166  29.003  1.00  0.00     0.034 A 
BRANCH  51  65
ATOM     65  C   UNL A   1      46.912  27.757  25.656  1.00  0.00     0.023 A 
ATOM     66  C   UNL A   1      47.125  28.022  24.293  1.00  0.00     0.031 A 
ATOM     67  C   UNL A   1      47.898  27.035  26.352  1.00  0.00     0.131 A 
ATOM     68  C   UNL A   1      48.274  27.525  23.657  1.00  0.00     0.055 A 
ATOM     69  C   UNL A   1      49.070  26.604  25.731  1.00  0.00     0.041 A 
ATOM     70  F   UNL A   1      47.732  26.730  27.649  1.00  0.00    -0.206 F 
ATOM     71  C   UNL A   1      49.259  26.839  24.374  1.00  0.00     0.022 A 
BRANCH  68  72
ATOM     72  S   UNL A   1      48.411  27.690  21.857  1.00  0.00     0.124 S 
ATOM     73  O   UNL A   1      48.705  26.316  21.456  1.00  0.00    -0.237 OA
ATOM     74  O   UNL A   1      47.096  28.197  21.485  1.00  0.00    -0.237 OA
ATOM     75  O   UNL A   1      49.516  28.632  21.683  1.00  0.00    -0.744 OA
ENDBRANCH  68  72
ENDBRANCH  51  65
BRANCH  52  76
ATOM     76  C   UNL A   1      38.737  30.209  30.932  1.00  0.00     0.023 A 
ATOM     77  C   UNL A   1      37.655  30.970  30.465  1.00  0.00     0.031 A 
ATOM     78  C   UNL A   1      38.746  29.848  32.293  1.00  0.00     0.131 A 
ATOM     79  C   UNL A   1      36.658  31.396  31.358  1.00  0.00     0.055 A 
ATOM     80  C   UNL A   1      37.721  30.222  33.164  1.00  0.00     0.041 A 
ATOM     81  F   UNL A   1      39.759  29.126  32.799  1.00  0.00    -0.206 F 
ATOM     82  C   UNL A   1      36.676  31.015  32.702  1.00  0.00     0.022 A 
BRANCH  79  83
ATOM     83  S   UNL A   1      35.392  32.551  30.762  1.00  0.00     0.124 S 
ATOM     84  O   UNL A   1      36.164  33.778  30.598  1.00  0.00    -0.237 OA
ATOM     85  O   UNL A   1      34.947  31.902  29.534  1.00  0.00    -0.237 OA
ATOM     86  O   UNL A   1      34.412  32.571  31.846  1.00  0.00    -0.744 OA
ENDBRANCH  79  83
ENDBRANCH  52  76
BRANCH  64  87
ATOM     87  C   UNL A   1      44.677  33.530  29.375  1.00  0.00     0.023 A 
ATOM     88  C   UNL A   1      45.473  33.728  30.516  1.00  0.00     0.031 A 
ATOM     89  C   UNL A   1      44.395  34.642  28.562  1.00  0.00     0.131 A 
ATOM     90  C   UNL A   1      45.928  35.017  30.834  1.00  0.00     0.055 A 
ATOM     91  C   UNL A   1      44.899  35.911  28.851  1.00  0.00     0.041 A 
ATOM     92  F   UNL A   1      43.638  34.508  27.460  1.00  0.00    -0.206 F 
ATOM     93  C   UNL A   1      45.662  36.105  29.997  1.00  0.00     0.022 A 
BRANCH  90  94
ATOM     94  S   UNL A   1      46.820  35.268  32.393  1.00  0.00     0.124 S 
ATOM     95  O   UNL A   1      47.636  34.062  32.472  1.00  0.00    -0.237 OA
ATOM     96  O   UNL A   1      47.542  36.511  32.143  1.00  0.00    -0.237 OA
ATOM     97  O   UNL A   1      45.752  35.363  33.387  1.00  0.00    -0.744 OA
ENDBRANCH  90  94
ENDBRANCH  64  87
ENDBRANCH  38  39
ENDBRANCH  31  33
ENDBRANCH  30  31
ENDBRANCH  29  30
ENDBRANCH  28  29
ENDBRANCH   1  28
TORSDOF 20
ENDMDL
