MODEL 1
REMARK VINA RESULT:     -11.1      0.000      0.000
REMARK SMILES C[C@@H](C(=O)OCCOCCOC(=O)c1ccc(-c2c3nc(c(-c4cc(S(=O)(=O)[O-])ccc4F)c4ccc([nH]4)c(-c4cc(S(=O)(=O)[O-])ccc4F)c4nc(c(-c5cc(S(=O)(=O)[O-])ccc5F)c5ccc2[nH]5)C=C4)C=C3)cc1)c1ccc2c3cc(Cl)ccc3n(C(=O)c3cocn3)c2c1
REMARK SMILES IDX 8 1 7 2 6 3 5 4 3 5 4 6 2 7 1 8 77 9 78 10 97 11 79 12 96 13
REMARK SMILES IDX 80 14 88 15 81 16 87 17 82 18 86 19 83 20 85 21 84 22 89 23
REMARK SMILES IDX 90 24 91 25 92 26 95 27 93 28 94 29 9 30 10 31 11 32 12 33
REMARK SMILES IDX 13 34 14 35 15 36 76 37 16 38 75 39 17 40 18 41 19 42 69 43
REMARK SMILES IDX 20 44 74 45 68 46 70 47 21 48 73 49 67 50 66 51 22 53 54 54
REMARK SMILES IDX 34 55 53 56 35 57 38 58 52 59 71 60 36 61 37 62 51 64 72 65
REMARK SMILES IDX 39 66 23 67 24 68 32 69 25 70 31 71 33 72 30 73 26 74 27 75
REMARK SMILES IDX 28 76 29 77 55 78 56 79 64 80 57 81 63 82 65 83 62 84 58 85
REMARK SMILES IDX 59 86 60 87 61 88 40 89 41 90 49 91 42 92 48 93 50 94 47 95
REMARK SMILES IDX 43 96 44 97 45 98 46 99
REMARK H PARENT 70 52 38 63
REMARK Flexibility Score: inf
ROOT
ATOM      1  O   UNL A   1      31.526  31.075  26.383  1.00  0.00    -0.374 OA
ENDROOT
BRANCH   1   2
ATOM      2  C   UNL A   1      32.390  29.999  26.749  1.00  0.00     0.202 C 
BRANCH   2   3
ATOM      3  C   UNL A   1      31.735  28.688  27.194  1.00  0.00     0.261 C 
BRANCH   3   4
ATOM      4  O   UNL A   1      32.184  27.579  26.395  1.00  0.00    -0.463 OA
BRANCH   4   5
ATOM      5  C   UNL A   1      31.729  27.563  25.113  1.00  0.00     0.313 C 
ATOM      6  O   UNL A   1      30.582  27.850  24.788  1.00  0.00    -0.252 OA
BRANCH   5   7
ATOM      7  C   UNL A   1      32.817  27.181  24.095  1.00  0.00     0.126 C 
ATOM      8  C   UNL A   1      32.875  28.066  22.847  1.00  0.00     0.025 C 
BRANCH   7   9
ATOM      9  C   UNL A   1      32.759  25.681  23.793  1.00  0.00    -0.032 A 
ATOM     10  C   UNL A   1      31.836  25.090  22.926  1.00  0.00     0.005 A 
ATOM     11  C   UNL A   1      33.636  24.849  24.509  1.00  0.00     0.032 A 
ATOM     12  C   UNL A   1      31.792  23.698  22.751  1.00  0.00     0.011 A 
ATOM     13  C   UNL A   1      33.550  23.450  24.381  1.00  0.00     0.058 A 
ATOM     14  C   UNL A   1      32.668  22.866  23.481  1.00  0.00     0.008 A 
ATOM     15  N   UNL A   1      34.247  22.437  25.047  1.00  0.00    -0.274 N 
ATOM     16  C   UNL A   1      32.873  21.459  23.542  1.00  0.00     0.009 A 
ATOM     17  C   UNL A   1      33.820  21.201  24.544  1.00  0.00     0.057 A 
ATOM     18  C   UNL A   1      32.281  20.380  22.847  1.00  0.00     0.031 A 
ATOM     19  C   UNL A   1      34.108  19.876  24.931  1.00  0.00     0.029 A 
ATOM     20  C   UNL A   1      32.612  19.073  23.197  1.00  0.00     0.041 A 
ATOM     21  C   UNL A   1      33.498  18.823  24.237  1.00  0.00     0.023 A 
ATOM     22  Cl  UNL A   1      31.888  17.759  22.353  1.00  0.00    -0.084 Cl
BRANCH  15  23
ATOM     23  C   UNL A   1      35.169  22.688  26.099  1.00  0.00     0.284 C 
ATOM     24  O   UNL A   1      34.672  22.968  27.188  1.00  0.00    -0.266 OA
BRANCH  23  25
ATOM     25  C   UNL A   1      36.622  22.698  25.962  1.00  0.00     0.167 A 
ATOM     26  C   UNL A   1      37.519  23.719  26.186  1.00  0.00     0.231 A 
ATOM     27  N   UNL A   1      37.340  21.535  25.712  1.00  0.00    -0.211 NA
ATOM     28  O   UNL A   1      38.784  23.216  26.083  1.00  0.00    -0.451 OA
ATOM     29  C   UNL A   1      38.594  21.896  25.817  1.00  0.00     0.308 A 
ENDBRANCH  23  25
ENDBRANCH  15  23
ENDBRANCH   7   9
ENDBRANCH   5   7
ENDBRANCH   4   5
ENDBRANCH   3   4
ENDBRANCH   2   3
ENDBRANCH   1   2
BRANCH   1  30
ATOM     30  C   UNL A   1      31.824  32.373  26.891  1.00  0.00     0.202 C 
BRANCH  30  31
ATOM     31  C   UNL A   1      33.137  32.563  27.664  1.00  0.00     0.261 C 
BRANCH  31  32
ATOM     32  O   UNL A   1      33.596  33.924  27.685  1.00  0.00    -0.460 OA
BRANCH  32  33
ATOM     33  C   UNL A   1      33.553  34.508  28.908  1.00  0.00     0.338 C 
ATOM     34  O   UNL A   1      32.650  35.208  29.355  1.00  0.00    -0.246 OA
BRANCH  33  35
ATOM     35  C   UNL A   1      34.667  34.037  29.747  1.00  0.00     0.060 A 
ATOM     36  C   UNL A   1      35.968  34.278  29.285  1.00  0.00     0.016 A 
ATOM     37  C   UNL A   1      34.452  33.299  30.912  1.00  0.00     0.016 A 
ATOM     38  C   UNL A   1      37.060  33.741  29.960  1.00  0.00     0.010 A 
ATOM     39  C   UNL A   1      35.552  32.750  31.583  1.00  0.00     0.010 A 
ATOM     40  C   UNL A   1      36.857  32.939  31.089  1.00  0.00    -0.014 A 
BRANCH  40  41
ATOM     41  C   UNL A   1      38.000  32.173  31.648  1.00  0.00     0.031 A 
ATOM     42  C   UNL A   1      38.512  32.530  33.017  1.00  0.00     0.074 A 
ATOM     43  C   UNL A   1      38.533  31.143  30.968  1.00  0.00     0.049 A 
ATOM     44  N   UNL A   1      39.507  32.018  33.691  1.00  0.00    -0.248 NA
ATOM     45  C   UNL A   1      37.804  33.613  33.717  1.00  0.00     0.031 C 
ATOM     46  C   UNL A   1      38.077  30.669  29.662  1.00  0.00     0.029 A 
ATOM     47  N   UNL A   1      39.574  30.307  31.284  1.00  0.00    -0.354 N 
ATOM     48  C   UNL A   1      39.552  32.719  34.893  1.00  0.00     0.074 A 
ATOM     49  C   UNL A   1      38.507  33.718  34.835  1.00  0.00     0.031 C 
ATOM     50  C   UNL A   1      38.839  29.628  29.286  1.00  0.00     0.029 A 
ATOM     51  C   UNL A   1      39.862  29.388  30.302  1.00  0.00     0.049 A 
ATOM     52  H   UNL A   1      40.068  30.359  32.133  1.00  0.00     0.167 HD
ATOM     53  C   UNL A   1      40.386  32.540  35.947  1.00  0.00     0.034 A 
ATOM     54  C   UNL A   1      40.853  28.477  30.223  1.00  0.00     0.034 A 
ATOM     55  C   UNL A   1      41.428  31.542  35.983  1.00  0.00     0.049 A 
ATOM     56  C   UNL A   1      41.830  28.360  31.369  1.00  0.00     0.074 A 
ATOM     57  C   UNL A   1      42.319  31.262  37.004  1.00  0.00     0.029 A 
ATOM     58  N   UNL A   1      41.730  30.669  34.945  1.00  0.00    -0.354 N 
ATOM     59  N   UNL A   1      41.860  29.027  32.502  1.00  0.00    -0.248 NA
ATOM     60  C   UNL A   1      42.899  27.364  31.231  1.00  0.00     0.031 C 
ATOM     61  C   UNL A   1      43.207  30.280  36.554  1.00  0.00     0.029 A 
ATOM     62  C   UNL A   1      42.818  29.879  35.286  1.00  0.00     0.049 A 
ATOM     63  H   UNL A   1      41.242  30.618  34.091  1.00  0.00     0.167 HD
ATOM     64  C   UNL A   1      42.931  28.503  33.222  1.00  0.00     0.074 A 
ATOM     65  C   UNL A   1      43.510  27.458  32.402  1.00  0.00     0.031 C 
ATOM     66  C   UNL A   1      43.392  28.848  34.453  1.00  0.00     0.034 A 
BRANCH  53  67
ATOM     67  C   UNL A   1      40.241  33.483  37.118  1.00  0.00     0.023 A 
ATOM     68  C   UNL A   1      41.122  34.560  37.322  1.00  0.00     0.031 A 
ATOM     69  C   UNL A   1      39.215  33.286  38.060  1.00  0.00     0.131 A 
ATOM     70  C   UNL A   1      41.004  35.352  38.475  1.00  0.00     0.055 A 
ATOM     71  C   UNL A   1      39.054  34.128  39.163  1.00  0.00     0.041 A 
ATOM     72  F   UNL A   1      38.359  32.261  37.933  1.00  0.00    -0.206 F 
ATOM     73  C   UNL A   1      39.960  35.160  39.383  1.00  0.00     0.022 A 
BRANCH  70  74
ATOM     74  S   UNL A   1      42.319  36.545  38.849  1.00  0.00     0.124 S 
ATOM     75  O   UNL A   1      41.645  37.445  39.781  1.00  0.00    -0.237 OA
ATOM     76  O   UNL A   1      43.361  35.698  39.416  1.00  0.00    -0.237 OA
ATOM     77  O   UNL A   1      42.631  37.130  37.546  1.00  0.00    -0.744 OA
ENDBRANCH  70  74
ENDBRANCH  53  67
BRANCH  54  78
ATOM     78  C   UNL A   1      41.008  27.629  29.004  1.00  0.00     0.023 A 
ATOM     79  C   UNL A   1      41.982  27.919  28.035  1.00  0.00     0.031 A 
ATOM     80  C   UNL A   1      40.140  26.548  28.763  1.00  0.00     0.131 A 
ATOM     81  C   UNL A   1      42.033  27.168  26.850  1.00  0.00     0.055 A 
ATOM     82  C   UNL A   1      40.233  25.769  27.608  1.00  0.00     0.041 A 
ATOM     83  F   UNL A   1      39.187  26.229  29.653  1.00  0.00    -0.206 F 
ATOM     84  C   UNL A   1      41.176  26.087  26.636  1.00  0.00     0.022 A 
BRANCH  81  85
ATOM     85  S   UNL A   1      43.176  27.691  25.541  1.00  0.00     0.124 S 
ATOM     86  O   UNL A   1      44.037  28.626  26.256  1.00  0.00    -0.237 OA
ATOM     87  O   UNL A   1      43.787  26.425  25.150  1.00  0.00    -0.237 OA
ATOM     88  O   UNL A   1      42.295  28.291  24.541  1.00  0.00    -0.744 OA
ENDBRANCH  81  85
ENDBRANCH  54  78
BRANCH  66  89
ATOM     89  C   UNL A   1      44.550  28.049  35.004  1.00  0.00     0.023 A 
ATOM     90  C   UNL A   1      44.383  26.749  35.510  1.00  0.00     0.031 A 
ATOM     91  C   UNL A   1      45.843  28.606  35.028  1.00  0.00     0.131 A 
ATOM     92  C   UNL A   1      45.475  26.072  36.073  1.00  0.00     0.055 A 
ATOM     93  C   UNL A   1      46.938  27.902  35.528  1.00  0.00     0.041 A 
ATOM     94  F   UNL A   1      46.062  29.846  34.560  1.00  0.00    -0.206 F 
ATOM     95  C   UNL A   1      46.756  26.632  36.068  1.00  0.00     0.022 A 
BRANCH  92  96
ATOM     96  S   UNL A   1      45.184  24.486  36.904  1.00  0.00     0.124 S 
ATOM     97  O   UNL A   1      45.213  24.870  38.311  1.00  0.00    -0.237 OA
ATOM     98  O   UNL A   1      43.882  24.092  36.377  1.00  0.00    -0.237 OA
ATOM     99  O   UNL A   1      46.306  23.657  36.464  1.00  0.00    -0.744 OA
ENDBRANCH  92  96
ENDBRANCH  66  89
ENDBRANCH  40  41
ENDBRANCH  33  35
ENDBRANCH  32  33
ENDBRANCH  31  32
ENDBRANCH  30  31
ENDBRANCH   1  30
TORSDOF 20
ENDMDL
MODEL 2
REMARK VINA RESULT:     -10.9      5.187     11.169
REMARK SMILES C[C@@H](C(=O)OCCOCCOC(=O)c1ccc(-c2c3nc(c(-c4cc(S(=O)(=O)[O-])ccc4F)c4ccc([nH]4)c(-c4cc(S(=O)(=O)[O-])ccc4F)c4nc(c(-c5cc(S(=O)(=O)[O-])ccc5F)c5ccc2[nH]5)C=C4)C=C3)cc1)c1ccc2c3cc(Cl)ccc3n(C(=O)c3cocn3)c2c1
REMARK SMILES IDX 8 1 7 2 6 3 5 4 3 5 4 6 2 7 1 8 77 9 78 10 97 11 79 12 96 13
REMARK SMILES IDX 80 14 88 15 81 16 87 17 82 18 86 19 83 20 85 21 84 22 89 23
REMARK SMILES IDX 90 24 91 25 92 26 95 27 93 28 94 29 9 30 10 31 11 32 12 33
REMARK SMILES IDX 13 34 14 35 15 36 76 37 16 38 75 39 17 40 18 41 19 42 69 43
REMARK SMILES IDX 20 44 74 45 68 46 70 47 21 48 73 49 67 50 66 51 22 53 54 54
REMARK SMILES IDX 34 55 53 56 35 57 38 58 52 59 71 60 36 61 37 62 51 64 72 65
REMARK SMILES IDX 39 66 23 67 24 68 32 69 25 70 31 71 33 72 30 73 26 74 27 75
REMARK SMILES IDX 28 76 29 77 55 78 56 79 64 80 57 81 63 82 65 83 62 84 58 85
REMARK SMILES IDX 59 86 60 87 61 88 40 89 41 90 49 91 42 92 48 93 50 94 47 95
REMARK SMILES IDX 43 96 44 97 45 98 46 99
REMARK H PARENT 70 52 38 63
REMARK Flexibility Score: inf
ROOT
ATOM      1  O   UNL A   1      36.616  19.646  24.923  1.00  0.00    -0.374 OA
ENDROOT
BRANCH   1   2
ATOM      2  C   UNL A   1      35.674  20.664  25.259  1.00  0.00     0.202 C 
BRANCH   2   3
ATOM      3  C   UNL A   1      34.241  20.498  24.744  1.00  0.00     0.261 C 
BRANCH   3   4
ATOM      4  O   UNL A   1      33.573  21.767  24.631  1.00  0.00    -0.463 OA
BRANCH   4   5
ATOM      5  C   UNL A   1      34.082  22.613  23.694  1.00  0.00     0.313 C 
ATOM      6  O   UNL A   1      35.221  22.537  23.248  1.00  0.00    -0.252 OA
BRANCH   5   7
ATOM      7  C   UNL A   1      33.064  23.662  23.216  1.00  0.00     0.126 C 
ATOM      8  C   UNL A   1      32.959  23.817  21.697  1.00  0.00     0.025 C 
BRANCH   7   9
ATOM      9  C   UNL A   1      33.270  24.981  23.966  1.00  0.00    -0.032 A 
ATOM     10  C   UNL A   1      34.305  25.214  24.876  1.00  0.00     0.005 A 
ATOM     11  C   UNL A   1      32.299  25.981  23.785  1.00  0.00     0.032 A 
ATOM     12  C   UNL A   1      34.393  26.423  25.583  1.00  0.00     0.011 A 
ATOM     13  C   UNL A   1      32.352  27.166  24.540  1.00  0.00     0.058 A 
ATOM     14  C   UNL A   1      33.408  27.419  25.405  1.00  0.00     0.008 A 
ATOM     15  N   UNL A   1      31.462  28.245  24.593  1.00  0.00    -0.274 N 
ATOM     16  C   UNL A   1      33.203  28.714  25.957  1.00  0.00     0.009 A 
ATOM     17  C   UNL A   1      31.976  29.199  25.481  1.00  0.00     0.057 A 
ATOM     18  C   UNL A   1      33.955  29.492  26.867  1.00  0.00     0.031 A 
ATOM     19  C   UNL A   1      31.440  30.404  25.982  1.00  0.00     0.029 A 
ATOM     20  C   UNL A   1      33.445  30.707  27.316  1.00  0.00     0.041 A 
ATOM     21  C   UNL A   1      32.197  31.149  26.896  1.00  0.00     0.023 A 
ATOM     22  Cl  UNL A   1      34.359  31.652  28.429  1.00  0.00    -0.084 Cl
BRANCH  15  23
ATOM     23  C   UNL A   1      30.227  28.270  23.891  1.00  0.00     0.284 C 
ATOM     24  O   UNL A   1      29.514  27.278  24.030  1.00  0.00    -0.266 OA
BRANCH  23  25
ATOM     25  C   UNL A   1      29.789  29.334  22.993  1.00  0.00     0.167 A 
ATOM     26  C   UNL A   1      30.134  29.575  21.682  1.00  0.00     0.231 A 
ATOM     27  N   UNL A   1      28.772  30.214  23.345  1.00  0.00    -0.211 NA
ATOM     28  O   UNL A   1      29.351  30.587  21.206  1.00  0.00    -0.451 OA
ATOM     29  C   UNL A   1      28.546  30.904  22.255  1.00  0.00     0.308 A 
ENDBRANCH  23  25
ENDBRANCH  15  23
ENDBRANCH   7   9
ENDBRANCH   5   7
ENDBRANCH   4   5
ENDBRANCH   3   4
ENDBRANCH   2   3
ENDBRANCH   1   2
BRANCH   1  30
ATOM     30  C   UNL A   1      38.001  19.977  24.968  1.00  0.00     0.202 C 
BRANCH  30  31
ATOM     31  C   UNL A   1      38.407  21.300  25.633  1.00  0.00     0.261 C 
BRANCH  31  32
ATOM     32  O   UNL A   1      39.829  21.470  25.748  1.00  0.00    -0.460 OA
BRANCH  32  33
ATOM     33  C   UNL A   1      40.298  21.401  27.019  1.00  0.00     0.338 C 
ATOM     34  O   UNL A   1      40.552  20.382  27.653  1.00  0.00    -0.246 OA
BRANCH  33  35
ATOM     35  C   UNL A   1      40.663  22.740  27.509  1.00  0.00     0.060 A 
ATOM     36  C   UNL A   1      40.061  23.841  26.885  1.00  0.00     0.016 A 
ATOM     37  C   UNL A   1      41.635  22.925  28.494  1.00  0.00     0.016 A 
ATOM     38  C   UNL A   1      40.463  25.133  27.208  1.00  0.00     0.010 A 
ATOM     39  C   UNL A   1      42.046  24.226  28.809  1.00  0.00     0.010 A 
ATOM     40  C   UNL A   1      41.487  25.333  28.142  1.00  0.00    -0.014 A 
BRANCH  40  41
ATOM     41  C   UNL A   1      42.075  26.688  28.292  1.00  0.00     0.031 A 
ATOM     42  C   UNL A   1      43.431  26.960  27.698  1.00  0.00     0.074 A 
ATOM     43  C   UNL A   1      41.387  27.672  28.897  1.00  0.00     0.049 A 
ATOM     44  N   UNL A   1      44.146  28.053  27.726  1.00  0.00    -0.248 NA
ATOM     45  C   UNL A   1      44.064  25.844  26.978  1.00  0.00     0.031 C 
ATOM     46  C   UNL A   1      40.041  27.539  29.454  1.00  0.00     0.029 A 
ATOM     47  N   UNL A   1      41.725  28.979  29.143  1.00  0.00    -0.354 N 
ATOM     48  C   UNL A   1      45.318  27.758  27.034  1.00  0.00     0.074 A 
ATOM     49  C   UNL A   1      45.229  26.370  26.634  1.00  0.00     0.031 C 
ATOM     50  C   UNL A   1      39.670  28.718  29.981  1.00  0.00     0.029 A 
ATOM     51  C   UNL A   1      40.765  29.676  29.838  1.00  0.00     0.049 A 
ATOM     52  H   UNL A   1      42.574  29.380  28.850  1.00  0.00     0.167 HD
ATOM     53  C   UNL A   1      46.365  28.573  26.756  1.00  0.00     0.034 A 
ATOM     54  C   UNL A   1      40.780  30.933  30.324  1.00  0.00     0.034 A 
ATOM     55  C   UNL A   1      46.437  29.953  27.170  1.00  0.00     0.049 A 
ATOM     56  C   UNL A   1      41.999  31.793  30.084  1.00  0.00     0.074 A 
ATOM     57  C   UNL A   1      47.441  30.875  26.930  1.00  0.00     0.029 A 
ATOM     58  N   UNL A   1      45.472  30.609  27.926  1.00  0.00    -0.354 N 
ATOM     59  N   UNL A   1      43.099  31.504  29.426  1.00  0.00    -0.248 NA
ATOM     60  C   UNL A   1      41.974  33.150  30.644  1.00  0.00     0.031 C 
ATOM     61  C   UNL A   1      47.123  32.057  27.606  1.00  0.00     0.029 A 
ATOM     62  C   UNL A   1      45.876  31.909  28.194  1.00  0.00     0.049 A 
ATOM     63  H   UNL A   1      44.624  30.209  28.227  1.00  0.00     0.167 HD
ATOM     64  C   UNL A   1      43.879  32.657  29.465  1.00  0.00     0.074 A 
ATOM     65  C   UNL A   1      43.118  33.647  30.200  1.00  0.00     0.031 C 
ATOM     66  C   UNL A   1      45.111  32.882  28.938  1.00  0.00     0.034 A 
BRANCH  53  67
ATOM     67  C   UNL A   1      47.539  27.972  26.019  1.00  0.00     0.023 A 
ATOM     68  C   UNL A   1      47.684  28.088  24.625  1.00  0.00     0.031 A 
ATOM     69  C   UNL A   1      48.518  27.249  26.723  1.00  0.00     0.131 A 
ATOM     70  C   UNL A   1      48.741  27.432  23.974  1.00  0.00     0.055 A 
ATOM     71  C   UNL A   1      49.612  26.667  26.079  1.00  0.00     0.041 A 
ATOM     72  F   UNL A   1      48.421  27.082  28.052  1.00  0.00    -0.206 F 
ATOM     73  C   UNL A   1      49.721  26.746  24.695  1.00  0.00     0.022 A 
BRANCH  70  74
ATOM     74  S   UNL A   1      48.738  27.368  22.161  1.00  0.00     0.124 S 
ATOM     75  O   UNL A   1      47.596  28.218  21.837  1.00  0.00    -0.237 OA
ATOM     76  O   UNL A   1      50.052  27.904  21.826  1.00  0.00    -0.237 OA
ATOM     77  O   UNL A   1      48.550  25.947  21.869  1.00  0.00    -0.744 OA
ENDBRANCH  70  74
ENDBRANCH  53  67
BRANCH  54  78
ATOM     78  C   UNL A   1      39.631  31.452  31.124  1.00  0.00     0.023 A 
ATOM     79  C   UNL A   1      39.635  31.393  32.526  1.00  0.00     0.031 A 
ATOM     80  C   UNL A   1      38.483  31.961  30.489  1.00  0.00     0.131 A 
ATOM     81  C   UNL A   1      38.496  31.789  33.245  1.00  0.00     0.055 A 
ATOM     82  C   UNL A   1      37.376  32.407  31.212  1.00  0.00     0.041 A 
ATOM     83  F   UNL A   1      38.422  32.035  29.150  1.00  0.00    -0.206 F 
ATOM     84  C   UNL A   1      37.373  32.309  32.600  1.00  0.00     0.022 A 
BRANCH  81  85
ATOM     85  S   UNL A   1      38.467  31.521  35.039  1.00  0.00     0.124 S 
ATOM     86  O   UNL A   1      38.610  30.072  35.125  1.00  0.00    -0.237 OA
ATOM     87  O   UNL A   1      39.614  32.307  35.482  1.00  0.00    -0.237 OA
ATOM     88  O   UNL A   1      37.162  32.045  35.440  1.00  0.00    -0.744 OA
ENDBRANCH  81  85
ENDBRANCH  54  78
BRANCH  66  89
ATOM     89  C   UNL A   1      45.685  34.271  29.095  1.00  0.00     0.023 A 
ATOM     90  C   UNL A   1      45.362  35.314  28.211  1.00  0.00     0.031 A 
ATOM     91  C   UNL A   1      46.579  34.550  30.146  1.00  0.00     0.131 A 
ATOM     92  C   UNL A   1      45.972  36.569  28.357  1.00  0.00     0.055 A 
ATOM     93  C   UNL A   1      47.131  35.818  30.326  1.00  0.00     0.041 A 
ATOM     94  F   UNL A   1      46.927  33.591  31.020  1.00  0.00    -0.206 F 
ATOM     95  C   UNL A   1      46.840  36.834  29.420  1.00  0.00     0.022 A 
BRANCH  92  96
ATOM     96  S   UNL A   1      45.693  37.828  27.081  1.00  0.00     0.124 S 
ATOM     97  O   UNL A   1      46.067  39.054  27.777  1.00  0.00    -0.237 OA
ATOM     98  O   UNL A   1      46.595  37.400  26.017  1.00  0.00    -0.237 OA
ATOM     99  O   UNL A   1      44.269  37.697  26.775  1.00  0.00    -0.744 OA
ENDBRANCH  92  96
ENDBRANCH  66  89
ENDBRANCH  40  41
ENDBRANCH  33  35
ENDBRANCH  32  33
ENDBRANCH  31  32
ENDBRANCH  30  31
ENDBRANCH   1  30
TORSDOF 20
ENDMDL
MODEL 3
REMARK VINA RESULT:     -10.9      1.727      2.009
REMARK SMILES C[C@@H](C(=O)OCCOCCOC(=O)c1ccc(-c2c3nc(c(-c4cc(S(=O)(=O)[O-])ccc4F)c4ccc([nH]4)c(-c4cc(S(=O)(=O)[O-])ccc4F)c4nc(c(-c5cc(S(=O)(=O)[O-])ccc5F)c5ccc2[nH]5)C=C4)C=C3)cc1)c1ccc2c3cc(Cl)ccc3n(C(=O)c3cocn3)c2c1
REMARK SMILES IDX 8 1 7 2 6 3 5 4 3 5 4 6 2 7 1 8 77 9 78 10 97 11 79 12 96 13
REMARK SMILES IDX 80 14 88 15 81 16 87 17 82 18 86 19 83 20 85 21 84 22 89 23
REMARK SMILES IDX 90 24 91 25 92 26 95 27 93 28 94 29 9 30 10 31 11 32 12 33
REMARK SMILES IDX 13 34 14 35 15 36 76 37 16 38 75 39 17 40 18 41 19 42 69 43
REMARK SMILES IDX 20 44 74 45 68 46 70 47 21 48 73 49 67 50 66 51 22 53 54 54
REMARK SMILES IDX 34 55 53 56 35 57 38 58 52 59 71 60 36 61 37 62 51 64 72 65
REMARK SMILES IDX 39 66 23 67 24 68 32 69 25 70 31 71 33 72 30 73 26 74 27 75
REMARK SMILES IDX 28 76 29 77 55 78 56 79 64 80 57 81 63 82 65 83 62 84 58 85
REMARK SMILES IDX 59 86 60 87 61 88 40 89 41 90 49 91 42 92 48 93 50 94 47 95
REMARK SMILES IDX 43 96 44 97 45 98 46 99
REMARK H PARENT 70 52 38 63
REMARK Flexibility Score: inf
ROOT
ATOM      1  O   UNL A   1      31.491  30.953  26.415  1.00  0.00    -0.374 OA
ENDROOT
BRANCH   1   2
ATOM      2  C   UNL A   1      32.377  29.899  26.792  1.00  0.00     0.202 C 
BRANCH   2   3
ATOM      3  C   UNL A   1      31.750  28.582  27.259  1.00  0.00     0.261 C 
BRANCH   3   4
ATOM      4  O   UNL A   1      32.132  27.488  26.407  1.00  0.00    -0.463 OA
BRANCH   4   5
ATOM      5  C   UNL A   1      31.743  27.597  25.108  1.00  0.00     0.313 C 
ATOM      6  O   UNL A   1      30.641  28.002  24.753  1.00  0.00    -0.252 OA
BRANCH   5   7
ATOM      7  C   UNL A   1      32.845  27.192  24.115  1.00  0.00     0.126 C 
ATOM      8  C   UNL A   1      32.949  28.074  22.869  1.00  0.00     0.025 C 
BRANCH   7   9
ATOM      9  C   UNL A   1      32.765  25.693  23.814  1.00  0.00    -0.032 A 
ATOM     10  C   UNL A   1      31.821  25.114  22.961  1.00  0.00     0.005 A 
ATOM     11  C   UNL A   1      33.644  24.850  24.514  1.00  0.00     0.032 A 
ATOM     12  C   UNL A   1      31.758  23.723  22.785  1.00  0.00     0.011 A 
ATOM     13  C   UNL A   1      33.539  23.453  24.386  1.00  0.00     0.058 A 
ATOM     14  C   UNL A   1      32.636  22.880  23.500  1.00  0.00     0.008 A 
ATOM     15  N   UNL A   1      34.235  22.430  25.041  1.00  0.00    -0.274 N 
ATOM     16  C   UNL A   1      32.824  21.470  23.557  1.00  0.00     0.009 A 
ATOM     17  C   UNL A   1      33.785  21.200  24.543  1.00  0.00     0.057 A 
ATOM     18  C   UNL A   1      32.209  20.399  22.871  1.00  0.00     0.031 A 
ATOM     19  C   UNL A   1      34.064  19.871  24.924  1.00  0.00     0.029 A 
ATOM     20  C   UNL A   1      32.530  19.089  23.215  1.00  0.00     0.041 A 
ATOM     21  C   UNL A   1      33.430  18.826  24.239  1.00  0.00     0.023 A 
ATOM     22  Cl  UNL A   1      31.776  17.783  22.381  1.00  0.00    -0.084 Cl
BRANCH  15  23
ATOM     23  C   UNL A   1      35.177  22.670  26.077  1.00  0.00     0.284 C 
ATOM     24  O   UNL A   1      34.702  22.966  27.171  1.00  0.00    -0.266 OA
BRANCH  23  25
ATOM     25  C   UNL A   1      36.627  22.650  25.919  1.00  0.00     0.167 A 
ATOM     26  C   UNL A   1      37.547  23.659  26.109  1.00  0.00     0.231 A 
ATOM     27  N   UNL A   1      37.320  21.469  25.683  1.00  0.00    -0.211 NA
ATOM     28  O   UNL A   1      38.800  23.130  25.998  1.00  0.00    -0.451 OA
ATOM     29  C   UNL A   1      38.582  21.808  25.763  1.00  0.00     0.308 A 
ENDBRANCH  23  25
ENDBRANCH  15  23
ENDBRANCH   7   9
ENDBRANCH   5   7
ENDBRANCH   4   5
ENDBRANCH   3   4
ENDBRANCH   2   3
ENDBRANCH   1   2
BRANCH   1  30
ATOM     30  C   UNL A   1      31.780  32.268  26.883  1.00  0.00     0.202 C 
BRANCH  30  31
ATOM     31  C   UNL A   1      33.122  32.504  27.593  1.00  0.00     0.261 C 
BRANCH  31  32
ATOM     32  O   UNL A   1      33.510  33.887  27.637  1.00  0.00    -0.460 OA
BRANCH  32  33
ATOM     33  C   UNL A   1      33.446  34.445  28.871  1.00  0.00     0.338 C 
ATOM     34  O   UNL A   1      32.529  35.124  29.323  1.00  0.00    -0.246 OA
BRANCH  33  35
ATOM     35  C   UNL A   1      34.557  33.969  29.712  1.00  0.00     0.060 A 
ATOM     36  C   UNL A   1      35.860  34.221  29.261  1.00  0.00     0.016 A 
ATOM     37  C   UNL A   1      34.338  33.216  30.867  1.00  0.00     0.016 A 
ATOM     38  C   UNL A   1      36.950  33.682  29.938  1.00  0.00     0.010 A 
ATOM     39  C   UNL A   1      35.436  32.665  31.540  1.00  0.00     0.010 A 
ATOM     40  C   UNL A   1      36.743  32.867  31.057  1.00  0.00    -0.014 A 
BRANCH  40  41
ATOM     41  C   UNL A   1      37.886  32.100  31.614  1.00  0.00     0.031 A 
ATOM     42  C   UNL A   1      38.411  32.467  32.975  1.00  0.00     0.074 A 
ATOM     43  C   UNL A   1      38.409  31.060  30.940  1.00  0.00     0.049 A 
ATOM     44  N   UNL A   1      39.409  31.956  33.647  1.00  0.00    -0.248 NA
ATOM     45  C   UNL A   1      37.715  33.562  33.670  1.00  0.00     0.031 C 
ATOM     46  C   UNL A   1      37.940  30.576  29.642  1.00  0.00     0.029 A 
ATOM     47  N   UNL A   1      39.447  30.221  31.257  1.00  0.00    -0.354 N 
ATOM     48  C   UNL A   1      39.467  32.670  34.841  1.00  0.00     0.074 A 
ATOM     49  C   UNL A   1      38.426  33.673  34.781  1.00  0.00     0.031 C 
ATOM     50  C   UNL A   1      38.693  29.527  29.271  1.00  0.00     0.029 A 
ATOM     51  C   UNL A   1      39.722  29.291  30.282  1.00  0.00     0.049 A 
ATOM     52  H   UNL A   1      39.948  30.279  32.101  1.00  0.00     0.167 HD
ATOM     53  C   UNL A   1      40.307  32.496  35.891  1.00  0.00     0.034 A 
ATOM     54  C   UNL A   1      40.708  28.374  30.204  1.00  0.00     0.034 A 
ATOM     55  C   UNL A   1      41.344  31.493  35.928  1.00  0.00     0.049 A 
ATOM     56  C   UNL A   1      41.693  28.263  31.344  1.00  0.00     0.074 A 
ATOM     57  C   UNL A   1      42.242  31.218  36.945  1.00  0.00     0.029 A 
ATOM     58  N   UNL A   1      41.633  30.608  34.897  1.00  0.00    -0.354 N 
ATOM     59  N   UNL A   1      41.736  28.941  32.469  1.00  0.00    -0.248 NA
ATOM     60  C   UNL A   1      42.755  27.260  31.207  1.00  0.00     0.031 C 
ATOM     61  C   UNL A   1      43.121  30.226  36.498  1.00  0.00     0.029 A 
ATOM     62  C   UNL A   1      42.720  29.815  35.237  1.00  0.00     0.049 A 
ATOM     63  H   UNL A   1      41.138  30.551  34.047  1.00  0.00     0.167 HD
ATOM     64  C   UNL A   1      42.809  28.418  33.186  1.00  0.00     0.074 A 
ATOM     65  C   UNL A   1      43.376  27.362  32.372  1.00  0.00     0.031 C 
ATOM     66  C   UNL A   1      43.282  28.773  34.410  1.00  0.00     0.034 A 
BRANCH  53  67
ATOM     67  C   UNL A   1      40.177  33.452  37.053  1.00  0.00     0.023 A 
ATOM     68  C   UNL A   1      39.560  33.078  38.260  1.00  0.00     0.031 A 
ATOM     69  C   UNL A   1      40.657  34.769  36.942  1.00  0.00     0.131 A 
ATOM     70  C   UNL A   1      39.377  34.028  39.277  1.00  0.00     0.055 A 
ATOM     71  C   UNL A   1      40.545  35.687  37.988  1.00  0.00     0.041 A 
ATOM     72  F   UNL A   1      41.232  35.193  35.805  1.00  0.00    -0.206 F 
ATOM     73  C   UNL A   1      39.889  35.323  39.160  1.00  0.00     0.022 A 
BRANCH  70  74
ATOM     74  S   UNL A   1      38.335  33.593  40.697  1.00  0.00     0.124 S 
ATOM     75  O   UNL A   1      37.481  32.554  40.128  1.00  0.00    -0.237 OA
ATOM     76  O   UNL A   1      39.314  33.151  41.682  1.00  0.00    -0.237 OA
ATOM     77  O   UNL A   1      37.650  34.845  41.016  1.00  0.00    -0.744 OA
ENDBRANCH  70  74
ENDBRANCH  53  67
BRANCH  54  78
ATOM     78  C   UNL A   1      40.849  27.513  28.992  1.00  0.00     0.023 A 
ATOM     79  C   UNL A   1      41.785  27.814  27.991  1.00  0.00     0.031 A 
ATOM     80  C   UNL A   1      40.004  26.406  28.793  1.00  0.00     0.131 A 
ATOM     81  C   UNL A   1      41.820  27.049  26.814  1.00  0.00     0.055 A 
ATOM     82  C   UNL A   1      40.083  25.614  27.646  1.00  0.00     0.041 A 
ATOM     83  F   UNL A   1      39.086  26.075  29.715  1.00  0.00    -0.206 F 
ATOM     84  C   UNL A   1      40.987  25.942  26.641  1.00  0.00     0.022 A 
BRANCH  81  85
ATOM     85  S   UNL A   1      42.909  27.583  25.465  1.00  0.00     0.124 S 
ATOM     86  O   UNL A   1      42.951  26.390  24.628  1.00  0.00    -0.237 OA
ATOM     87  O   UNL A   1      42.180  28.724  24.921  1.00  0.00    -0.237 OA
ATOM     88  O   UNL A   1      44.159  27.913  26.147  1.00  0.00    -0.744 OA
ENDBRANCH  81  85
ENDBRANCH  54  78
BRANCH  66  89
ATOM     89  C   UNL A   1      44.440  27.973  34.960  1.00  0.00     0.023 A 
ATOM     90  C   UNL A   1      45.775  28.312  34.684  1.00  0.00     0.031 A 
ATOM     91  C   UNL A   1      44.198  26.847  35.768  1.00  0.00     0.131 A 
ATOM     92  C   UNL A   1      46.815  27.500  35.161  1.00  0.00     0.055 A 
ATOM     93  C   UNL A   1      45.239  26.082  36.296  1.00  0.00     0.041 A 
ATOM     94  F   UNL A   1      42.941  26.474  36.063  1.00  0.00    -0.206 F 
ATOM     95  C   UNL A   1      46.557  26.398  35.982  1.00  0.00     0.022 A 
BRANCH  92  96
ATOM     96  S   UNL A   1      48.511  27.844  34.616  1.00  0.00     0.124 S 
ATOM     97  O   UNL A   1      48.809  29.088  35.318  1.00  0.00    -0.237 OA
ATOM     98  O   UNL A   1      49.234  26.663  35.077  1.00  0.00    -0.237 OA
ATOM     99  O   UNL A   1      48.387  27.966  33.164  1.00  0.00    -0.744 OA
ENDBRANCH  92  96
ENDBRANCH  66  89
ENDBRANCH  40  41
ENDBRANCH  33  35
ENDBRANCH  32  33
ENDBRANCH  31  32
ENDBRANCH  30  31
ENDBRANCH   1  30
TORSDOF 20
ENDMDL
