MODEL 1
REMARK VINA RESULT:     -11.0      0.000      0.000
REMARK SMILES CCOc1cnc(C(=O)c2[nH]c3cc(Cl)ccc3c2CC(=O)OCCOCCOC(=O)c2ccc(-c3c4nc(c(-c5cc(S(=O)(=O)[O-])ccc5F)c5ccc([nH]5)c(-c5cc(S(=O)(=O)[O-])ccc5F)c5nc(c(-c6cc(S(=O)(=O)[O-])ccc6F)c6ccc3[nH]6)C=C5)C=C4)cc2)cc1CC
REMARK SMILES IDX 25 1 24 2 23 3 21 4 22 5 20 6 19 7 10 8 11 9 12 10 18 12
REMARK SMILES IDX 13 13 17 14 14 15 16 16 15 17 8 18 9 19 7 20 4 21 5 22 96 23
REMARK SMILES IDX 6 24 95 25 3 26 2 27 1 28 97 29 98 30 26 31 27 32 28 33
REMARK SMILES IDX 29 34 30 35 31 36 32 37 33 38 94 39 34 40 93 41 35 42 36 43
REMARK SMILES IDX 37 44 87 45 38 46 92 47 86 48 88 49 39 50 91 51 85 52 84 53
REMARK SMILES IDX 40 55 72 56 52 57 71 58 53 59 56 60 70 61 89 62 54 63 55 64
REMARK SMILES IDX 69 66 90 67 57 68 41 69 42 70 50 71 43 72 49 73 51 74 48 75
REMARK SMILES IDX 44 76 45 77 46 78 47 79 73 80 74 81 82 82 75 83 81 84 83 85
REMARK SMILES IDX 80 86 76 87 77 88 78 89 79 90 58 91 59 92 67 93 60 94 66 95
REMARK SMILES IDX 68 96 65 97 61 98 62 99 63 100 64 101
REMARK H PARENT 11 11 88 54 56 65
REMARK Flexibility Score: inf
ROOT
ATOM      1  C   UNL A   1      32.967  29.384  27.151  1.00  0.00     0.202 C 
ENDROOT
BRANCH   1   2
ATOM      2  C   UNL A   1      31.734  28.664  26.594  1.00  0.00     0.261 C 
BRANCH   2   3
ATOM      3  O   UNL A   1      31.414  27.469  27.343  1.00  0.00    -0.463 OA
BRANCH   3   4
ATOM      4  C   UNL A   1      31.494  26.304  26.648  1.00  0.00     0.310 C 
ATOM      5  O   UNL A   1      30.541  25.550  26.458  1.00  0.00    -0.252 OA
BRANCH   4   6
ATOM      6  C   UNL A   1      32.881  25.928  26.173  1.00  0.00     0.161 C 
BRANCH   6   7
ATOM      7  C   UNL A   1      33.045  25.352  24.790  1.00  0.00     0.000 A 
ATOM      8  C   UNL A   1      33.112  26.050  23.580  1.00  0.00     0.093 A 
ATOM      9  N   UNL A   1      33.341  25.102  22.601  1.00  0.00    -0.351 N 
ATOM     10  C   UNL A   1      33.027  23.851  23.070  1.00  0.00     0.048 A 
ATOM     11  H   UNL A   1      33.681  25.297  21.698  1.00  0.00     0.167 HD
ATOM     12  C   UNL A   1      32.899  23.963  24.452  1.00  0.00     0.004 A 
ATOM     13  C   UNL A   1      32.844  22.646  22.379  1.00  0.00     0.047 A 
ATOM     14  C   UNL A   1      32.597  22.800  25.191  1.00  0.00     0.012 A 
ATOM     15  C   UNL A   1      32.489  21.526  23.133  1.00  0.00     0.043 A 
ATOM     16  C   UNL A   1      32.376  21.591  24.519  1.00  0.00     0.021 A 
ATOM     17  Cl  UNL A   1      32.154  20.041  22.325  1.00  0.00    -0.084 Cl
BRANCH   8  18
ATOM     18  C   UNL A   1      32.985  27.487  23.356  1.00  0.00     0.227 C 
ATOM     19  O   UNL A   1      33.914  28.260  23.581  1.00  0.00    -0.285 OA
BRANCH  18  20
ATOM     20  C   UNL A   1      31.673  28.074  22.914  1.00  0.00     0.113 A 
ATOM     21  C   UNL A   1      29.364  29.414  22.296  1.00  0.00     0.140 A 
ATOM     22  C   UNL A   1      30.609  29.801  21.813  1.00  0.00     0.158 A 
ATOM     23  C   UNL A   1      29.263  28.236  23.040  1.00  0.00    -0.002 A 
ATOM     24  N   UNL A   1      31.760  29.156  22.098  1.00  0.00    -0.249 NA
ATOM     25  C   UNL A   1      30.456  27.592  23.398  1.00  0.00     0.040 A 
BRANCH  21  26
ATOM     26  O   UNL A   1      28.256  30.170  22.034  1.00  0.00    -0.492 OA
BRANCH  26  27
ATOM     27  C   UNL A   1      28.597  31.561  21.901  1.00  0.00     0.226 C 
ATOM     28  C   UNL A   1      28.140  32.336  23.128  1.00  0.00     0.049 C 
ENDBRANCH  26  27
ENDBRANCH  21  26
BRANCH  23  29
ATOM     29  C   UNL A   1      27.935  27.692  23.509  1.00  0.00     0.036 C 
ATOM     30  C   UNL A   1      28.045  26.325  24.172  1.00  0.00     0.009 C 
ENDBRANCH  23  29
ENDBRANCH  18  20
ENDBRANCH   8  18
ENDBRANCH   6   7
ENDBRANCH   4   6
ENDBRANCH   3   4
ENDBRANCH   2   3
ENDBRANCH   1   2
BRANCH   1  31
ATOM     31  O   UNL A   1      33.095  30.769  26.817  1.00  0.00    -0.374 OA
BRANCH  31  32
ATOM     32  C   UNL A   1      31.893  31.535  26.816  1.00  0.00     0.202 C 
BRANCH  32  33
ATOM     33  C   UNL A   1      32.063  33.059  26.875  1.00  0.00     0.261 C 
BRANCH  33  34
ATOM     34  O   UNL A   1      32.254  33.543  28.215  1.00  0.00    -0.460 OA
BRANCH  34  35
ATOM     35  C   UNL A   1      33.355  34.319  28.369  1.00  0.00     0.338 C 
ATOM     36  O   UNL A   1      33.389  35.543  28.409  1.00  0.00    -0.246 OA
BRANCH  35  37
ATOM     37  C   UNL A   1      34.539  33.491  28.659  1.00  0.00     0.060 A 
ATOM     38  C   UNL A   1      34.345  32.365  29.468  1.00  0.00     0.016 A 
ATOM     39  C   UNL A   1      35.818  33.835  28.216  1.00  0.00     0.016 A 
ATOM     40  C   UNL A   1      35.437  31.611  29.888  1.00  0.00     0.010 A 
ATOM     41  C   UNL A   1      36.917  33.080  28.645  1.00  0.00     0.010 A 
ATOM     42  C   UNL A   1      36.732  31.989  29.514  1.00  0.00    -0.014 A 
BRANCH  42  43
ATOM     43  C   UNL A   1      37.888  31.330  30.171  1.00  0.00     0.031 A 
ATOM     44  C   UNL A   1      38.210  31.688  31.596  1.00  0.00     0.074 A 
ATOM     45  C   UNL A   1      38.594  30.385  29.526  1.00  0.00     0.049 A 
ATOM     46  N   UNL A   1      39.146  31.220  32.381  1.00  0.00    -0.248 NA
ATOM     47  C   UNL A   1      37.360  32.714  32.218  1.00  0.00     0.031 C 
ATOM     48  C   UNL A   1      38.342  29.935  28.157  1.00  0.00     0.029 A 
ATOM     49  N   UNL A   1      39.663  29.630  29.937  1.00  0.00    -0.354 N 
ATOM     50  C   UNL A   1      38.998  31.893  33.591  1.00  0.00     0.074 A 
ATOM     51  C   UNL A   1      37.910  32.832  33.417  1.00  0.00     0.031 C 
ATOM     52  C   UNL A   1      39.235  28.982  27.840  1.00  0.00     0.029 A 
ATOM     53  C   UNL A   1      40.138  28.775  28.970  1.00  0.00     0.049 A 
ATOM     54  H   UNL A   1      40.053  29.694  30.838  1.00  0.00     0.167 HD
ATOM     55  C   UNL A   1      39.698  31.731  34.741  1.00  0.00     0.034 A 
ATOM     56  C   UNL A   1      41.191  27.934  28.993  1.00  0.00     0.034 A 
ATOM     57  C   UNL A   1      40.791  30.799  34.885  1.00  0.00     0.049 A 
ATOM     58  C   UNL A   1      42.004  27.824  30.260  1.00  0.00     0.074 A 
ATOM     59  C   UNL A   1      41.565  30.541  36.002  1.00  0.00     0.029 A 
ATOM     60  N   UNL A   1      41.277  29.984  33.869  1.00  0.00    -0.354 N 
ATOM     61  N   UNL A   1      41.842  28.449  31.403  1.00  0.00    -0.248 NA
ATOM     62  C   UNL A   1      43.133  26.885  30.243  1.00  0.00     0.031 C 
ATOM     63  C   UNL A   1      42.561  29.625  35.643  1.00  0.00     0.029 A 
ATOM     64  C   UNL A   1      42.362  29.250  34.323  1.00  0.00     0.049 A 
ATOM     65  H   UNL A   1      40.903  29.934  32.959  1.00  0.00     0.167 HD
ATOM     66  C   UNL A   1      42.834  27.960  32.249  1.00  0.00     0.074 A 
ATOM     67  C   UNL A   1      43.577  26.976  31.488  1.00  0.00     0.031 C 
ATOM     68  C   UNL A   1      43.103  28.287  33.541  1.00  0.00     0.034 A 
BRANCH  55  69
ATOM     69  C   UNL A   1      39.331  32.624  35.905  1.00  0.00     0.023 A 
ATOM     70  C   UNL A   1      39.918  33.890  36.084  1.00  0.00     0.031 A 
ATOM     71  C   UNL A   1      38.417  32.181  36.877  1.00  0.00     0.131 A 
ATOM     72  C   UNL A   1      39.645  34.632  37.244  1.00  0.00     0.055 A 
ATOM     73  C   UNL A   1      38.088  32.960  37.989  1.00  0.00     0.041 A 
ATOM     74  F   UNL A   1      37.842  30.972  36.776  1.00  0.00    -0.206 F 
ATOM     75  C   UNL A   1      38.716  34.186  38.187  1.00  0.00     0.022 A 
BRANCH  72  76
ATOM     76  S   UNL A   1      40.637  36.113  37.582  1.00  0.00     0.124 S 
ATOM     77  O   UNL A   1      41.162  36.425  36.255  1.00  0.00    -0.237 OA
ATOM     78  O   UNL A   1      39.647  37.041  38.114  1.00  0.00    -0.237 OA
ATOM     79  O   UNL A   1      41.635  35.645  38.543  1.00  0.00    -0.744 OA
ENDBRANCH  72  76
ENDBRANCH  55  69
BRANCH  56  80
ATOM     80  C   UNL A   1      41.560  27.157  27.774  1.00  0.00     0.023 A 
ATOM     81  C   UNL A   1      41.327  25.775  27.688  1.00  0.00     0.031 A 
ATOM     82  C   UNL A   1      42.187  27.788  26.684  1.00  0.00     0.131 A 
ATOM     83  C   UNL A   1      41.751  25.064  26.553  1.00  0.00     0.055 A 
ATOM     84  C   UNL A   1      42.563  27.087  25.538  1.00  0.00     0.041 A 
ATOM     85  F   UNL A   1      42.434  29.108  26.715  1.00  0.00    -0.206 F 
ATOM     86  C   UNL A   1      42.354  25.712  25.473  1.00  0.00     0.022 A 
BRANCH  83  87
ATOM     87  S   UNL A   1      41.565  23.259  26.534  1.00  0.00     0.124 S 
ATOM     88  O   UNL A   1      42.203  22.881  27.790  1.00  0.00    -0.237 OA
ATOM     89  O   UNL A   1      40.115  23.105  26.479  1.00  0.00    -0.237 OA
ATOM     90  O   UNL A   1      42.279  22.855  25.325  1.00  0.00    -0.744 OA
ENDBRANCH  83  87
ENDBRANCH  56  80
BRANCH  68  91
ATOM     91  C   UNL A   1      44.230  27.541  34.213  1.00  0.00     0.023 A 
ATOM     92  C   UNL A   1      44.000  26.380  34.973  1.00  0.00     0.031 A 
ATOM     93  C   UNL A   1      45.552  28.006  34.098  1.00  0.00     0.131 A 
ATOM     94  C   UNL A   1      45.068  25.757  35.635  1.00  0.00     0.055 A 
ATOM     95  C   UNL A   1      46.619  27.345  34.708  1.00  0.00     0.041 A 
ATOM     96  F   UNL A   1      45.829  29.109  33.385  1.00  0.00    -0.206 F 
ATOM     97  C   UNL A   1      46.378  26.222  35.493  1.00  0.00     0.022 A 
BRANCH  94  98
ATOM     98  S   UNL A   1      44.710  24.379  36.759  1.00  0.00     0.124 S 
ATOM     99  O   UNL A   1      45.935  24.308  37.551  1.00  0.00    -0.237 OA
ATOM    100  O   UNL A   1      43.522  24.850  37.463  1.00  0.00    -0.237 OA
ATOM    101  O   UNL A   1      44.490  23.249  35.858  1.00  0.00    -0.744 OA
ENDBRANCH  94  98
ENDBRANCH  68  91
ENDBRANCH  42  43
ENDBRANCH  35  37
ENDBRANCH  34  35
ENDBRANCH  33  34
ENDBRANCH  32  33
ENDBRANCH  31  32
ENDBRANCH   1  31
TORSDOF 23
ENDMDL
MODEL 2
REMARK VINA RESULT:     -11.0      2.366      4.214
REMARK SMILES CCOc1cnc(C(=O)c2[nH]c3cc(Cl)ccc3c2CC(=O)OCCOCCOC(=O)c2ccc(-c3c4nc(c(-c5cc(S(=O)(=O)[O-])ccc5F)c5ccc([nH]5)c(-c5cc(S(=O)(=O)[O-])ccc5F)c5nc(c(-c6cc(S(=O)(=O)[O-])ccc6F)c6ccc3[nH]6)C=C5)C=C4)cc2)cc1CC
REMARK SMILES IDX 25 1 24 2 23 3 21 4 22 5 20 6 19 7 10 8 11 9 12 10 18 12
REMARK SMILES IDX 13 13 17 14 14 15 16 16 15 17 8 18 9 19 7 20 4 21 5 22 96 23
REMARK SMILES IDX 6 24 95 25 3 26 2 27 1 28 97 29 98 30 26 31 27 32 28 33
REMARK SMILES IDX 29 34 30 35 31 36 32 37 33 38 94 39 34 40 93 41 35 42 36 43
REMARK SMILES IDX 37 44 87 45 38 46 92 47 86 48 88 49 39 50 91 51 85 52 84 53
REMARK SMILES IDX 40 55 72 56 52 57 71 58 53 59 56 60 70 61 89 62 54 63 55 64
REMARK SMILES IDX 69 66 90 67 57 68 41 69 42 70 50 71 43 72 49 73 51 74 48 75
REMARK SMILES IDX 44 76 45 77 46 78 47 79 73 80 74 81 82 82 75 83 81 84 83 85
REMARK SMILES IDX 80 86 76 87 77 88 78 89 79 90 58 91 59 92 67 93 60 94 66 95
REMARK SMILES IDX 68 96 65 97 61 98 62 99 63 100 64 101
REMARK H PARENT 11 11 88 54 56 65
REMARK Flexibility Score: inf
ROOT
ATOM      1  C   UNL A   1      32.755  28.796  26.692  1.00  0.00     0.202 C 
ENDROOT
BRANCH   1   2
ATOM      2  C   UNL A   1      31.467  27.973  26.805  1.00  0.00     0.261 C 
BRANCH   2   3
ATOM      3  O   UNL A   1      31.669  26.588  26.445  1.00  0.00    -0.463 OA
BRANCH   3   4
ATOM      4  C   UNL A   1      30.608  25.974  25.859  1.00  0.00     0.310 C 
ATOM      5  O   UNL A   1      29.629  25.555  26.475  1.00  0.00    -0.252 OA
BRANCH   4   6
ATOM      6  C   UNL A   1      30.732  25.753  24.367  1.00  0.00     0.161 C 
BRANCH   6   7
ATOM      7  C   UNL A   1      30.938  26.947  23.469  1.00  0.00     0.000 A 
ATOM      8  C   UNL A   1      32.154  27.520  23.082  1.00  0.00     0.093 A 
ATOM      9  N   UNL A   1      31.837  28.535  22.201  1.00  0.00    -0.351 N 
ATOM     10  C   UNL A   1      30.513  28.876  22.327  1.00  0.00     0.048 A 
ATOM     11  H   UNL A   1      32.470  28.954  21.573  1.00  0.00     0.167 HD
ATOM     12  C   UNL A   1      29.908  27.863  23.064  1.00  0.00     0.004 A 
ATOM     13  C   UNL A   1      29.819  29.997  21.852  1.00  0.00     0.047 A 
ATOM     14  C   UNL A   1      28.523  27.958  23.320  1.00  0.00     0.012 A 
ATOM     15  C   UNL A   1      28.463  30.091  22.172  1.00  0.00     0.043 A 
ATOM     16  C   UNL A   1      27.816  29.085  22.885  1.00  0.00     0.021 A 
ATOM     17  Cl  UNL A   1      27.584  31.495  21.699  1.00  0.00    -0.084 Cl
BRANCH   8  18
ATOM     18  C   UNL A   1      33.503  27.144  23.492  1.00  0.00     0.227 C 
ATOM     19  O   UNL A   1      34.391  27.981  23.641  1.00  0.00    -0.285 OA
BRANCH  18  20
ATOM     20  C   UNL A   1      33.868  25.695  23.669  1.00  0.00     0.113 A 
ATOM     21  C   UNL A   1      34.200  22.994  23.989  1.00  0.00     0.140 A 
ATOM     22  C   UNL A   1      33.744  23.559  22.803  1.00  0.00     0.158 A 
ATOM     23  C   UNL A   1      34.606  23.836  25.027  1.00  0.00    -0.002 A 
ATOM     24  N   UNL A   1      33.577  24.886  22.618  1.00  0.00    -0.249 NA
ATOM     25  C   UNL A   1      34.378  25.210  24.874  1.00  0.00     0.040 A 
BRANCH  21  26
ATOM     26  O   UNL A   1      34.259  21.636  24.129  1.00  0.00    -0.492 OA
BRANCH  26  27
ATOM     27  C   UNL A   1      33.002  21.024  23.792  1.00  0.00     0.226 C 
ATOM     28  C   UNL A   1      32.133  20.886  25.033  1.00  0.00     0.049 C 
ENDBRANCH  26  27
ENDBRANCH  21  26
BRANCH  23  29
ATOM     29  C   UNL A   1      35.211  23.303  26.305  1.00  0.00     0.036 C 
ATOM     30  C   UNL A   1      34.170  22.813  27.304  1.00  0.00     0.009 C 
ENDBRANCH  23  29
ENDBRANCH  18  20
ENDBRANCH   8  18
ENDBRANCH   6   7
ENDBRANCH   4   6
ENDBRANCH   3   4
ENDBRANCH   2   3
ENDBRANCH   1   2
BRANCH   1  31
ATOM     31  O   UNL A   1      32.941  29.819  27.674  1.00  0.00    -0.374 OA
BRANCH  31  32
ATOM     32  C   UNL A   1      33.539  31.032  27.221  1.00  0.00     0.202 C 
BRANCH  32  33
ATOM     33  C   UNL A   1      32.722  32.311  27.444  1.00  0.00     0.261 C 
BRANCH  33  34
ATOM     34  O   UNL A   1      33.542  33.491  27.489  1.00  0.00    -0.460 OA
BRANCH  34  35
ATOM     35  C   UNL A   1      33.521  34.132  28.683  1.00  0.00     0.338 C 
ATOM     36  O   UNL A   1      32.651  34.889  29.094  1.00  0.00    -0.246 OA
BRANCH  35  37
ATOM     37  C   UNL A   1      34.630  33.673  29.538  1.00  0.00     0.060 A 
ATOM     38  C   UNL A   1      35.923  34.064  29.169  1.00  0.00     0.016 A 
ATOM     39  C   UNL A   1      34.429  32.827  30.632  1.00  0.00     0.016 A 
ATOM     40  C   UNL A   1      37.025  33.563  29.854  1.00  0.00     0.010 A 
ATOM     41  C   UNL A   1      35.540  32.318  31.316  1.00  0.00     0.010 A 
ATOM     42  C   UNL A   1      36.843  32.654  30.903  1.00  0.00    -0.014 A 
BRANCH  42  43
ATOM     43  C   UNL A   1      38.026  31.944  31.450  1.00  0.00     0.031 A 
ATOM     44  C   UNL A   1      38.526  32.318  32.817  1.00  0.00     0.074 A 
ATOM     45  C   UNL A   1      38.600  30.941  30.761  1.00  0.00     0.049 A 
ATOM     46  N   UNL A   1      39.516  31.816  33.508  1.00  0.00    -0.248 NA
ATOM     47  C   UNL A   1      37.812  33.411  33.495  1.00  0.00     0.031 C 
ATOM     48  C   UNL A   1      38.170  30.471  29.444  1.00  0.00     0.029 A 
ATOM     49  N   UNL A   1      39.663  30.134  31.076  1.00  0.00    -0.354 N 
ATOM     50  C   UNL A   1      39.544  32.528  34.704  1.00  0.00     0.074 A 
ATOM     51  C   UNL A   1      38.498  33.526  34.622  1.00  0.00     0.031 C 
ATOM     52  C   UNL A   1      38.965  29.458  29.062  1.00  0.00     0.029 A 
ATOM     53  C   UNL A   1      39.977  29.226  30.091  1.00  0.00     0.049 A 
ATOM     54  H   UNL A   1      40.155  30.198  31.926  1.00  0.00     0.167 HD
ATOM     55  C   UNL A   1      40.358  32.354  35.775  1.00  0.00     0.034 A 
ATOM     56  C   UNL A   1      40.976  28.324  30.025  1.00  0.00     0.034 A 
ATOM     57  C   UNL A   1      41.405  31.363  35.827  1.00  0.00     0.049 A 
ATOM     58  C   UNL A   1      41.919  28.198  31.197  1.00  0.00     0.074 A 
ATOM     59  C   UNL A   1      42.285  31.087  36.860  1.00  0.00     0.029 A 
ATOM     60  N   UNL A   1      41.727  30.493  34.792  1.00  0.00    -0.354 N 
ATOM     61  N   UNL A   1      41.922  28.862  32.330  1.00  0.00    -0.248 NA
ATOM     62  C   UNL A   1      42.983  27.193  31.086  1.00  0.00     0.031 C 
ATOM     63  C   UNL A   1      43.180  30.104  36.423  1.00  0.00     0.029 A 
ATOM     64  C   UNL A   1      42.812  29.707  35.146  1.00  0.00     0.049 A 
ATOM     65  H   UNL A   1      41.251  30.441  33.931  1.00  0.00     0.167 HD
ATOM     66  C   UNL A   1      42.973  28.336  33.077  1.00  0.00     0.074 A 
ATOM     67  C   UNL A   1      43.569  27.290  32.270  1.00  0.00     0.031 C 
ATOM     68  C   UNL A   1      43.404  28.680  34.319  1.00  0.00     0.034 A 
BRANCH  55  69
ATOM     69  C   UNL A   1      40.177  33.298  36.942  1.00  0.00     0.023 A 
ATOM     70  C   UNL A   1      39.464  32.926  38.096  1.00  0.00     0.031 A 
ATOM     71  C   UNL A   1      40.683  34.609  36.878  1.00  0.00     0.131 A 
ATOM     72  C   UNL A   1      39.210  33.874  39.100  1.00  0.00     0.055 A 
ATOM     73  C   UNL A   1      40.497  35.523  37.917  1.00  0.00     0.041 A 
ATOM     74  F   UNL A   1      41.350  35.033  35.793  1.00  0.00    -0.206 F 
ATOM     75  C   UNL A   1      39.742  35.163  39.030  1.00  0.00     0.022 A 
BRANCH  72  76
ATOM     76  S   UNL A   1      38.045  33.446  40.424  1.00  0.00     0.124 S 
ATOM     77  O   UNL A   1      37.940  34.712  41.145  1.00  0.00    -0.237 OA
ATOM     78  O   UNL A   1      36.861  33.030  39.681  1.00  0.00    -0.237 OA
ATOM     79  O   UNL A   1      38.732  32.380  41.153  1.00  0.00    -0.744 OA
ENDBRANCH  72  76
ENDBRANCH  55  69
BRANCH  56  80
ATOM     80  C   UNL A   1      41.160  27.494  28.799  1.00  0.00     0.023 A 
ATOM     81  C   UNL A   1      42.169  27.780  27.866  1.00  0.00     0.031 A 
ATOM     82  C   UNL A   1      40.299  26.415  28.528  1.00  0.00     0.131 A 
ATOM     83  C   UNL A   1      42.269  27.019  26.689  1.00  0.00     0.055 A 
ATOM     84  C   UNL A   1      40.432  25.631  27.381  1.00  0.00     0.041 A 
ATOM     85  F   UNL A   1      39.316  26.098  29.387  1.00  0.00    -0.206 F 
ATOM     86  C   UNL A   1      41.417  25.939  26.447  1.00  0.00     0.022 A 
BRANCH  83  87
ATOM     87  S   UNL A   1      43.490  27.504  25.438  1.00  0.00     0.124 S 
ATOM     88  O   UNL A   1      42.635  27.848  24.306  1.00  0.00    -0.237 OA
ATOM     89  O   UNL A   1      44.167  28.619  26.092  1.00  0.00    -0.237 OA
ATOM     90  O   UNL A   1      44.299  26.301  25.266  1.00  0.00    -0.744 OA
ENDBRANCH  83  87
ENDBRANCH  56  80
BRANCH  68  91
ATOM     91  C   UNL A   1      44.555  27.886  34.886  1.00  0.00     0.023 A 
ATOM     92  C   UNL A   1      44.360  26.634  35.497  1.00  0.00     0.031 A 
ATOM     93  C   UNL A   1      45.864  28.394  34.823  1.00  0.00     0.131 A 
ATOM     94  C   UNL A   1      45.450  25.960  36.070  1.00  0.00     0.055 A 
ATOM     95  C   UNL A   1      46.953  27.691  35.339  1.00  0.00     0.041 A 
ATOM     96  F   UNL A   1      46.108  29.585  34.251  1.00  0.00    -0.206 F 
ATOM     97  C   UNL A   1      46.747  26.473  35.980  1.00  0.00     0.022 A 
BRANCH  94  98
ATOM     98  S   UNL A   1      45.136  24.445  37.016  1.00  0.00     0.124 S 
ATOM     99  O   UNL A   1      46.436  23.783  36.968  1.00  0.00    -0.237 OA
ATOM    100  O   UNL A   1      44.734  24.966  38.318  1.00  0.00    -0.237 OA
ATOM    101  O   UNL A   1      44.075  23.782  36.260  1.00  0.00    -0.744 OA
ENDBRANCH  94  98
ENDBRANCH  68  91
ENDBRANCH  42  43
ENDBRANCH  35  37
ENDBRANCH  34  35
ENDBRANCH  33  34
ENDBRANCH  32  33
ENDBRANCH  31  32
ENDBRANCH   1  31
TORSDOF 23
ENDMDL
MODEL 3
REMARK VINA RESULT:     -10.9      2.389      4.488
REMARK SMILES CCOc1cnc(C(=O)c2[nH]c3cc(Cl)ccc3c2CC(=O)OCCOCCOC(=O)c2ccc(-c3c4nc(c(-c5cc(S(=O)(=O)[O-])ccc5F)c5ccc([nH]5)c(-c5cc(S(=O)(=O)[O-])ccc5F)c5nc(c(-c6cc(S(=O)(=O)[O-])ccc6F)c6ccc3[nH]6)C=C5)C=C4)cc2)cc1CC
REMARK SMILES IDX 25 1 24 2 23 3 21 4 22 5 20 6 19 7 10 8 11 9 12 10 18 12
REMARK SMILES IDX 13 13 17 14 14 15 16 16 15 17 8 18 9 19 7 20 4 21 5 22 96 23
REMARK SMILES IDX 6 24 95 25 3 26 2 27 1 28 97 29 98 30 26 31 27 32 28 33
REMARK SMILES IDX 29 34 30 35 31 36 32 37 33 38 94 39 34 40 93 41 35 42 36 43
REMARK SMILES IDX 37 44 87 45 38 46 92 47 86 48 88 49 39 50 91 51 85 52 84 53
REMARK SMILES IDX 40 55 72 56 52 57 71 58 53 59 56 60 70 61 89 62 54 63 55 64
REMARK SMILES IDX 69 66 90 67 57 68 41 69 42 70 50 71 43 72 49 73 51 74 48 75
REMARK SMILES IDX 44 76 45 77 46 78 47 79 73 80 74 81 82 82 75 83 81 84 83 85
REMARK SMILES IDX 80 86 76 87 77 88 78 89 79 90 58 91 59 92 67 93 60 94 66 95
REMARK SMILES IDX 68 96 65 97 61 98 62 99 63 100 64 101
REMARK H PARENT 11 11 88 54 56 65
REMARK Flexibility Score: inf
ROOT
ATOM      1  C   UNL A   1      32.243  28.513  26.665  1.00  0.00     0.202 C 
ENDROOT
BRANCH   1   2
ATOM      2  C   UNL A   1      31.378  27.417  27.297  1.00  0.00     0.261 C 
BRANCH   2   3
ATOM      3  O   UNL A   1      31.548  26.140  26.641  1.00  0.00    -0.463 OA
BRANCH   3   4
ATOM      4  C   UNL A   1      30.471  25.691  25.945  1.00  0.00     0.310 C 
ATOM      5  O   UNL A   1      29.391  25.401  26.458  1.00  0.00    -0.252 OA
BRANCH   4   6
ATOM      6  C   UNL A   1      30.701  25.481  24.464  1.00  0.00     0.161 C 
BRANCH   6   7
ATOM      7  C   UNL A   1      30.934  26.684  23.586  1.00  0.00     0.000 A 
ATOM      8  C   UNL A   1      32.160  27.272  23.256  1.00  0.00     0.093 A 
ATOM      9  N   UNL A   1      31.872  28.292  22.372  1.00  0.00    -0.351 N 
ATOM     10  C   UNL A   1      30.541  28.621  22.444  1.00  0.00     0.048 A 
ATOM     11  H   UNL A   1      32.528  28.722  21.775  1.00  0.00     0.167 HD
ATOM     12  C   UNL A   1      29.914  27.595  23.145  1.00  0.00     0.004 A 
ATOM     13  C   UNL A   1      29.858  29.739  21.949  1.00  0.00     0.047 A 
ATOM     14  C   UNL A   1      28.519  27.676  23.342  1.00  0.00     0.012 A 
ATOM     15  C   UNL A   1      28.489  29.818  22.211  1.00  0.00     0.043 A 
ATOM     16  C   UNL A   1      27.821  28.801  22.887  1.00  0.00     0.021 A 
ATOM     17  Cl  UNL A   1      27.618  31.219  21.713  1.00  0.00    -0.084 Cl
BRANCH   8  18
ATOM     18  C   UNL A   1      33.494  26.904  23.721  1.00  0.00     0.227 C 
ATOM     19  O   UNL A   1      34.361  27.749  23.932  1.00  0.00    -0.285 OA
BRANCH  18  20
ATOM     20  C   UNL A   1      33.871  25.456  23.879  1.00  0.00     0.113 A 
ATOM     21  C   UNL A   1      34.229  22.752  24.139  1.00  0.00     0.140 A 
ATOM     22  C   UNL A   1      33.855  23.348  22.940  1.00  0.00     0.158 A 
ATOM     23  C   UNL A   1      34.538  23.565  25.231  1.00  0.00    -0.002 A 
ATOM     24  N   UNL A   1      33.677  24.677  22.784  1.00  0.00    -0.249 NA
ATOM     25  C   UNL A   1      34.297  24.940  25.104  1.00  0.00     0.040 A 
BRANCH  21  26
ATOM     26  O   UNL A   1      34.303  21.391  24.240  1.00  0.00    -0.492 OA
BRANCH  26  27
ATOM     27  C   UNL A   1      33.019  20.783  24.010  1.00  0.00     0.226 C 
ATOM     28  C   UNL A   1      32.711  19.771  25.103  1.00  0.00     0.049 C 
ENDBRANCH  26  27
ENDBRANCH  21  26
BRANCH  23  29
ATOM     29  C   UNL A   1      35.053  23.001  26.534  1.00  0.00     0.036 C 
ATOM     30  C   UNL A   1      33.942  22.581  27.488  1.00  0.00     0.009 C 
ENDBRANCH  23  29
ENDBRANCH  18  20
ENDBRANCH   8  18
ENDBRANCH   6   7
ENDBRANCH   4   6
ENDBRANCH   3   4
ENDBRANCH   2   3
ENDBRANCH   1   2
BRANCH   1  31
ATOM     31  O   UNL A   1      31.560  29.461  25.839  1.00  0.00    -0.374 OA
BRANCH  31  32
ATOM     32  C   UNL A   1      31.910  30.831  26.023  1.00  0.00     0.202 C 
BRANCH  32  33
ATOM     33  C   UNL A   1      32.710  31.159  27.290  1.00  0.00     0.261 C 
BRANCH  33  34
ATOM     34  O   UNL A   1      34.130  31.082  27.084  1.00  0.00    -0.460 OA
BRANCH  34  35
ATOM     35  C   UNL A   1      34.831  32.069  27.693  1.00  0.00     0.338 C 
ATOM     36  O   UNL A   1      34.551  33.261  27.716  1.00  0.00    -0.246 OA
BRANCH  35  37
ATOM     37  C   UNL A   1      35.929  31.506  28.499  1.00  0.00     0.060 A 
ATOM     38  C   UNL A   1      37.151  32.189  28.477  1.00  0.00     0.016 A 
ATOM     39  C   UNL A   1      35.799  30.306  29.203  1.00  0.00     0.016 A 
ATOM     40  C   UNL A   1      38.265  31.647  29.108  1.00  0.00     0.010 A 
ATOM     41  C   UNL A   1      36.924  29.758  29.833  1.00  0.00     0.010 A 
ATOM     42  C   UNL A   1      38.169  30.408  29.753  1.00  0.00    -0.014 A 
BRANCH  42  43
ATOM     43  C   UNL A   1      39.414  29.734  30.198  1.00  0.00     0.031 A 
ATOM     44  C   UNL A   1      40.087  30.213  31.454  1.00  0.00     0.074 A 
ATOM     45  C   UNL A   1      39.895  28.674  29.525  1.00  0.00     0.049 A 
ATOM     46  N   UNL A   1      41.159  29.760  32.050  1.00  0.00    -0.248 NA
ATOM     47  C   UNL A   1      39.465  31.363  32.128  1.00  0.00     0.031 C 
ATOM     48  C   UNL A   1      39.299  28.103  28.317  1.00  0.00     0.029 A 
ATOM     49  N   UNL A   1      40.992  27.885  29.764  1.00  0.00    -0.354 N 
ATOM     50  C   UNL A   1      41.341  30.566  33.170  1.00  0.00     0.074 A 
ATOM     51  C   UNL A   1      40.292  31.564  33.143  1.00  0.00     0.031 C 
ATOM     52  C   UNL A   1      40.040  27.055  27.919  1.00  0.00     0.029 A 
ATOM     53  C   UNL A   1      41.177  26.898  28.824  1.00  0.00     0.049 A 
ATOM     54  H   UNL A   1      41.590  28.013  30.535  1.00  0.00     0.167 HD
ATOM     55  C   UNL A   1      42.287  30.472  34.137  1.00  0.00     0.034 A 
ATOM     56  C   UNL A   1      42.160  25.984  28.703  1.00  0.00     0.034 A 
ATOM     57  C   UNL A   1      43.334  29.479  34.134  1.00  0.00     0.049 A 
ATOM     58  C   UNL A   1      43.247  25.945  29.749  1.00  0.00     0.074 A 
ATOM     59  C   UNL A   1      44.341  29.280  35.063  1.00  0.00     0.029 A 
ATOM     60  N   UNL A   1      43.520  28.525  33.140  1.00  0.00    -0.354 N 
ATOM     61  N   UNL A   1      43.397  26.699  30.814  1.00  0.00    -0.248 NA
ATOM     62  C   UNL A   1      44.290  24.925  29.583  1.00  0.00     0.031 C 
ATOM     63  C   UNL A   1      45.173  28.256  34.595  1.00  0.00     0.029 A 
ATOM     64  C   UNL A   1      44.643  27.761  33.414  1.00  0.00     0.049 A 
ATOM     65  H   UNL A   1      42.936  28.408  32.355  1.00  0.00     0.167 HD
ATOM     66  C   UNL A   1      44.537  26.226  31.459  1.00  0.00     0.074 A 
ATOM     67  C   UNL A   1      45.024  25.112  30.670  1.00  0.00     0.031 C 
ATOM     68  C   UNL A   1      45.124  26.665  32.603  1.00  0.00     0.034 A 
BRANCH  55  69
ATOM     69  C   UNL A   1      42.257  31.509  35.237  1.00  0.00     0.023 A 
ATOM     70  C   UNL A   1      41.209  31.571  36.173  1.00  0.00     0.031 A 
ATOM     71  C   UNL A   1      43.268  32.483  35.320  1.00  0.00     0.131 A 
ATOM     72  C   UNL A   1      41.155  32.626  37.097  1.00  0.00     0.055 A 
ATOM     73  C   UNL A   1      43.251  33.483  36.295  1.00  0.00     0.041 A 
ATOM     74  F   UNL A   1      44.283  32.493  34.440  1.00  0.00    -0.206 F 
ATOM     75  C   UNL A   1      42.181  33.569  37.180  1.00  0.00     0.022 A 
BRANCH  72  76
ATOM     76  S   UNL A   1      39.648  32.839  38.085  1.00  0.00     0.124 S 
ATOM     77  O   UNL A   1      40.114  32.466  39.418  1.00  0.00    -0.237 OA
ATOM     78  O   UNL A   1      39.336  34.250  37.885  1.00  0.00    -0.237 OA
ATOM     79  O   UNL A   1      38.705  31.899  37.479  1.00  0.00    -0.744 OA
ENDBRANCH  72  76
ENDBRANCH  55  69
BRANCH  56  80
ATOM     80  C   UNL A   1      42.185  25.056  27.535  1.00  0.00     0.023 A 
ATOM     81  C   UNL A   1      41.507  23.827  27.562  1.00  0.00     0.031 A 
ATOM     82  C   UNL A   1      42.924  25.376  26.381  1.00  0.00     0.131 A 
ATOM     83  C   UNL A   1      41.610  22.948  26.470  1.00  0.00     0.055 A 
ATOM     84  C   UNL A   1      42.984  24.522  25.280  1.00  0.00     0.041 A 
ATOM     85  F   UNL A   1      43.592  26.539  26.304  1.00  0.00    -0.206 F 
ATOM     86  C   UNL A   1      42.332  23.293  25.325  1.00  0.00     0.022 A 
BRANCH  83  87
ATOM     87  S   UNL A   1      40.841  21.310  26.594  1.00  0.00     0.124 S 
ATOM     88  O   UNL A   1      39.547  21.540  25.961  1.00  0.00    -0.237 OA
ATOM     89  O   UNL A   1      41.781  20.478  25.851  1.00  0.00    -0.237 OA
ATOM     90  O   UNL A   1      40.797  21.062  28.033  1.00  0.00    -0.744 OA
ENDBRANCH  83  87
ENDBRANCH  56  80
BRANCH  68  91
ATOM     91  C   UNL A   1      46.341  25.909  33.079  1.00  0.00     0.023 A 
ATOM     92  C   UNL A   1      46.229  24.730  33.838  1.00  0.00     0.031 A 
ATOM     93  C   UNL A   1      47.630  26.381  32.777  1.00  0.00     0.131 A 
ATOM     94  C   UNL A   1      47.386  24.096  34.317  1.00  0.00     0.055 A 
ATOM     95  C   UNL A   1      48.778  25.712  33.202  1.00  0.00     0.041 A 
ATOM     96  F   UNL A   1      47.795  27.502  32.055  1.00  0.00    -0.206 F 
ATOM     97  C   UNL A   1      48.659  24.569  33.989  1.00  0.00     0.022 A 
BRANCH  94  98
ATOM     98  S   UNL A   1      47.203  22.692  35.450  1.00  0.00     0.124 S 
ATOM     99  O   UNL A   1      48.413  22.796  36.258  1.00  0.00    -0.237 OA
ATOM    100  O   UNL A   1      45.951  23.001  36.132  1.00  0.00    -0.237 OA
ATOM    101  O   UNL A   1      47.153  21.535  34.557  1.00  0.00    -0.744 OA
ENDBRANCH  94  98
ENDBRANCH  68  91
ENDBRANCH  42  43
ENDBRANCH  35  37
ENDBRANCH  34  35
ENDBRANCH  33  34
ENDBRANCH  32  33
ENDBRANCH  31  32
ENDBRANCH   1  31
TORSDOF 23
ENDMDL
