MODEL 1
REMARK VINA RESULT:     -12.5      0.000      0.000
REMARK SMILES Cc1ccc(C(=O)N2CCC3(CCC(=O)N(CC(=O)OCCOCCOC(=O)c4ccc(-c5c6nc(c(-c7cc(S(=O)(=O)[O-])ccc7F)c7ccc([nH]7)c(-c7cc(S(=O)(=O)[O-])ccc7F)c7nc(c(-c8cc(S(=O)(=O)[O-])ccc8F)c8ccc5[nH]8)C=C7)C=C6)cc4)C3)CC2)cc1O
REMARK SMILES IDX 23 1 22 2 21 3 20 4 18 5 19 6 17 7 16 8 6 9 7 10 8 11 9 12
REMARK SMILES IDX 94 13 10 14 93 15 11 16 12 17 92 18 13 19 14 20 15 21 5 22
REMARK SMILES IDX 1 23 2 24 3 25 96 26 4 27 95 28 97 29 24 31 25 32 26 33
REMARK SMILES IDX 27 34 28 35 29 36 30 37 91 38 31 39 90 40 32 41 33 42 34 43
REMARK SMILES IDX 84 44 35 45 89 46 83 47 85 48 36 49 88 50 82 51 81 52 37 54
REMARK SMILES IDX 69 55 49 56 68 57 50 58 53 59 67 60 86 61 51 62 52 63 66 65
REMARK SMILES IDX 87 66 54 67 38 68 39 69 47 70 40 71 46 72 48 73 45 74 41 75
REMARK SMILES IDX 42 76 43 77 44 78 70 79 71 80 79 81 72 82 78 83 80 84 77 85
REMARK SMILES IDX 73 86 74 87 75 88 76 89 55 90 56 91 64 92 57 93 63 94 65 95
REMARK SMILES IDX 62 96 58 97 59 98 60 99 61 100
REMARK H PARENT 97 30 85 53 53 64
REMARK Flexibility Score: inf
ROOT
ATOM      1  O   UNL A   1      37.132  22.561  24.164  1.00  0.00    -0.374 OA
ENDROOT
BRANCH   1   2
ATOM      2  C   UNL A   1      36.287  23.530  24.791  1.00  0.00     0.202 C 
BRANCH   2   3
ATOM      3  C   UNL A   1      35.963  23.287  26.270  1.00  0.00     0.261 C 
BRANCH   3   4
ATOM      4  O   UNL A   1      34.586  23.535  26.608  1.00  0.00    -0.462 OA
BRANCH   4   5
ATOM      5  C   UNL A   1      33.902  22.470  27.095  1.00  0.00     0.325 C 
ATOM      6  O   UNL A   1      34.407  21.517  27.686  1.00  0.00    -0.250 OA
BRANCH   5   7
ATOM      7  C   UNL A   1      32.384  22.594  26.985  1.00  0.00     0.242 C 
BRANCH   7   8
ATOM      8  N   UNL A   1      31.668  22.239  25.757  1.00  0.00    -0.331 N 
ATOM      9  C   UNL A   1      32.149  28.031  22.803  1.00  0.00     0.253 C 
ATOM     10  O   UNL A   1      33.232  28.591  22.643  1.00  0.00    -0.269 OA
ATOM     11  N   UNL A   1      32.044  26.651  22.920  1.00  0.00    -0.339 N 
ATOM     12  C   UNL A   1      33.145  25.929  23.524  1.00  0.00     0.120 C 
ATOM     13  C   UNL A   1      31.033  25.839  22.252  1.00  0.00     0.120 C 
ATOM     14  C   UNL A   1      32.583  24.971  24.571  1.00  0.00     0.030 C 
ATOM     15  C   UNL A   1      30.458  24.782  23.194  1.00  0.00     0.030 C 
ATOM     16  C   UNL A   1      31.535  23.988  23.982  1.00  0.00    -0.008 C 
ATOM     17  C   UNL A   1      32.212  22.950  23.043  1.00  0.00     0.019 C 
ATOM     18  C   UNL A   1      30.814  23.226  25.128  1.00  0.00     0.127 C 
ATOM     19  C   UNL A   1      33.058  21.943  23.810  1.00  0.00     0.101 C 
ATOM     20  C   UNL A   1      32.221  21.309  24.894  1.00  0.00     0.223 C 
ATOM     21  O   UNL A   1      32.077  20.103  24.986  1.00  0.00    -0.275 OA
BRANCH   9  22
ATOM     22  C   UNL A   1      30.942  28.866  23.064  1.00  0.00     0.043 A 
ATOM     23  C   UNL A   1      27.740  31.749  23.418  1.00  0.00     0.048 C 
ATOM     24  C   UNL A   1      28.819  30.712  23.292  1.00  0.00    -0.009 A 
ATOM     25  C   UNL A   1      29.841  30.680  24.247  1.00  0.00     0.008 A 
ATOM     26  C   UNL A   1      28.879  29.809  22.223  1.00  0.00     0.119 A 
ATOM     27  C   UNL A   1      30.901  29.781  24.122  1.00  0.00     0.014 A 
ATOM     28  C   UNL A   1      29.919  28.885  22.113  1.00  0.00     0.060 A 
BRANCH  26  29
ATOM     29  O   UNL A   1      27.958  29.800  21.215  1.00  0.00    -0.508 OA
ATOM     30  H   UNL A   1      27.387  30.533  21.095  1.00  0.00     0.293 HD
ENDBRANCH  26  29
ENDBRANCH   9  22
ENDBRANCH   7   8
ENDBRANCH   5   7
ENDBRANCH   4   5
ENDBRANCH   3   4
ENDBRANCH   2   3
ENDBRANCH   1   2
BRANCH   1  31
ATOM     31  C   UNL A   1      37.030  21.209  24.623  1.00  0.00     0.202 C 
BRANCH  31  32
ATOM     32  C   UNL A   1      38.339  20.548  25.057  1.00  0.00     0.261 C 
BRANCH  32  33
ATOM     33  O   UNL A   1      38.715  21.012  26.359  1.00  0.00    -0.460 OA
BRANCH  33  34
ATOM     34  C   UNL A   1      40.034  21.188  26.544  1.00  0.00     0.338 C 
ATOM     35  O   UNL A   1      40.940  20.460  26.158  1.00  0.00    -0.246 OA
BRANCH  34  36
ATOM     36  C   UNL A   1      40.250  22.496  27.181  1.00  0.00     0.060 A 
ATOM     37  C   UNL A   1      39.427  23.564  26.810  1.00  0.00     0.016 A 
ATOM     38  C   UNL A   1      41.332  22.693  28.041  1.00  0.00     0.016 A 
ATOM     39  C   UNL A   1      39.731  24.856  27.243  1.00  0.00     0.010 A 
ATOM     40  C   UNL A   1      41.633  23.990  28.475  1.00  0.00     0.010 A 
ATOM     41  C   UNL A   1      40.863  25.084  28.040  1.00  0.00    -0.014 A 
BRANCH  41  42
ATOM     42  C   UNL A   1      41.337  26.475  28.274  1.00  0.00     0.031 A 
ATOM     43  C   UNL A   1      42.736  26.846  27.852  1.00  0.00     0.074 A 
ATOM     44  C   UNL A   1      40.536  27.402  28.827  1.00  0.00     0.049 A 
ATOM     45  N   UNL A   1      43.377  27.977  28.002  1.00  0.00    -0.248 NA
ATOM     46  C   UNL A   1      43.512  25.799  27.171  1.00  0.00     0.031 C 
ATOM     47  C   UNL A   1      39.148  27.185  29.232  1.00  0.00     0.029 A 
ATOM     48  N   UNL A   1      40.779  28.715  29.153  1.00  0.00    -0.354 N 
ATOM     49  C   UNL A   1      44.633  27.779  27.437  1.00  0.00     0.074 A 
ATOM     50  C   UNL A   1      44.671  26.408  26.971  1.00  0.00     0.031 C 
ATOM     51  C   UNL A   1      38.667  28.322  29.765  1.00  0.00     0.029 A 
ATOM     52  C   UNL A   1      39.721  29.335  29.777  1.00  0.00     0.049 A 
ATOM     53  H   UNL A   1      41.631  29.169  28.957  1.00  0.00     0.167 HD
ATOM     54  C   UNL A   1      45.658  28.658  27.312  1.00  0.00     0.034 A 
ATOM     55  C   UNL A   1      39.625  30.566  30.321  1.00  0.00     0.034 A 
ATOM     56  C   UNL A   1      45.616  30.019  27.787  1.00  0.00     0.049 A 
ATOM     57  C   UNL A   1      40.810  31.501  30.251  1.00  0.00     0.074 A 
ATOM     58  C   UNL A   1      46.596  30.993  27.701  1.00  0.00     0.029 A 
ATOM     59  N   UNL A   1      44.541  30.596  28.451  1.00  0.00    -0.354 N 
ATOM     60  N   UNL A   1      41.991  31.300  29.715  1.00  0.00    -0.248 NA
ATOM     61  C   UNL A   1      40.647  32.831  30.857  1.00  0.00     0.031 C 
ATOM     62  C   UNL A   1      46.141  32.136  28.368  1.00  0.00     0.029 A 
ATOM     63  C   UNL A   1      44.848  31.901  28.806  1.00  0.00     0.049 A 
ATOM     64  H   UNL A   1      43.688  30.146  28.641  1.00  0.00     0.167 HD
ATOM     65  C   UNL A   1      42.695  32.490  29.886  1.00  0.00     0.074 A 
ATOM     66  C   UNL A   1      41.809  33.403  30.575  1.00  0.00     0.031 C 
ATOM     67  C   UNL A   1      43.956  32.803  29.494  1.00  0.00     0.034 A 
BRANCH  54  68
ATOM     68  C   UNL A   1      46.932  28.153  26.682  1.00  0.00     0.023 A 
ATOM     69  C   UNL A   1      47.134  28.181  25.291  1.00  0.00     0.031 A 
ATOM     70  C   UNL A   1      47.955  27.620  27.487  1.00  0.00     0.131 A 
ATOM     71  C   UNL A   1      48.304  27.634  24.744  1.00  0.00     0.055 A 
ATOM     72  C   UNL A   1      49.147  27.139  26.942  1.00  0.00     0.041 A 
ATOM     73  F   UNL A   1      47.807  27.549  28.819  1.00  0.00    -0.206 F 
ATOM     74  C   UNL A   1      49.322  27.133  25.561  1.00  0.00     0.022 A 
BRANCH  71  75
ATOM     75  S   UNL A   1      48.430  27.473  22.942  1.00  0.00     0.124 S 
ATOM     76  O   UNL A   1      47.274  28.247  22.494  1.00  0.00    -0.237 OA
ATOM     77  O   UNL A   1      49.737  28.058  22.663  1.00  0.00    -0.237 OA
ATOM     78  O   UNL A   1      48.332  26.033  22.718  1.00  0.00    -0.744 OA
ENDBRANCH  71  75
ENDBRANCH  54  68
BRANCH  55  79
ATOM     79  C   UNL A   1      38.380  30.980  31.030  1.00  0.00     0.023 A 
ATOM     80  C   UNL A   1      37.332  31.623  30.355  1.00  0.00     0.031 A 
ATOM     81  C   UNL A   1      38.251  30.787  32.418  1.00  0.00     0.131 A 
ATOM     82  C   UNL A   1      36.219  32.090  31.073  1.00  0.00     0.055 A 
ATOM     83  C   UNL A   1      37.119  31.207  33.120  1.00  0.00     0.041 A 
ATOM     84  F   UNL A   1      39.225  30.180  33.114  1.00  0.00    -0.206 F 
ATOM     85  C   UNL A   1      36.101  31.875  32.448  1.00  0.00     0.022 A 
BRANCH  82  86
ATOM     86  S   UNL A   1      34.962  33.061  30.198  1.00  0.00     0.124 S 
ATOM     87  O   UNL A   1      34.056  33.420  31.283  1.00  0.00    -0.237 OA
ATOM     88  O   UNL A   1      35.757  34.148  29.636  1.00  0.00    -0.237 OA
ATOM     89  O   UNL A   1      34.423  32.117  29.222  1.00  0.00    -0.744 OA
ENDBRANCH  82  86
ENDBRANCH  55  79
BRANCH  67  90
ATOM     90  C   UNL A   1      44.431  34.213  29.744  1.00  0.00     0.023 A 
ATOM     91  C   UNL A   1      44.375  35.206  28.752  1.00  0.00     0.031 A 
ATOM     92  C   UNL A   1      44.930  34.568  31.012  1.00  0.00     0.131 A 
ATOM     93  C   UNL A   1      44.847  36.499  29.032  1.00  0.00     0.055 A 
ATOM     94  C   UNL A   1      45.352  35.867  31.298  1.00  0.00     0.041 A 
ATOM     95  F   UNL A   1      45.003  33.658  31.995  1.00  0.00    -0.206 F 
ATOM     96  C   UNL A   1      45.319  36.839  30.302  1.00  0.00     0.022 A 
BRANCH  93  97
ATOM     97  S   UNL A   1      44.883  37.726  27.695  1.00  0.00     0.124 S 
ATOM     98  O   UNL A   1      45.396  38.907  28.383  1.00  0.00    -0.237 OA
ATOM     99  O   UNL A   1      45.784  37.110  26.726  1.00  0.00    -0.237 OA
ATOM    100  O   UNL A   1      43.486  37.815  27.272  1.00  0.00    -0.744 OA
ENDBRANCH  93  97
ENDBRANCH  67  90
ENDBRANCH  41  42
ENDBRANCH  34  36
ENDBRANCH  33  34
ENDBRANCH  32  33
ENDBRANCH  31  32
ENDBRANCH   1  31
TORSDOF 20
ENDMDL
MODEL 2
REMARK VINA RESULT:     -12.1      1.957      2.210
REMARK SMILES Cc1ccc(C(=O)N2CCC3(CCC(=O)N(CC(=O)OCCOCCOC(=O)c4ccc(-c5c6nc(c(-c7cc(S(=O)(=O)[O-])ccc7F)c7ccc([nH]7)c(-c7cc(S(=O)(=O)[O-])ccc7F)c7nc(c(-c8cc(S(=O)(=O)[O-])ccc8F)c8ccc5[nH]8)C=C7)C=C6)cc4)C3)CC2)cc1O
REMARK SMILES IDX 23 1 22 2 21 3 20 4 18 5 19 6 17 7 16 8 6 9 7 10 8 11 9 12
REMARK SMILES IDX 94 13 10 14 93 15 11 16 12 17 92 18 13 19 14 20 15 21 5 22
REMARK SMILES IDX 1 23 2 24 3 25 96 26 4 27 95 28 97 29 24 31 25 32 26 33
REMARK SMILES IDX 27 34 28 35 29 36 30 37 91 38 31 39 90 40 32 41 33 42 34 43
REMARK SMILES IDX 84 44 35 45 89 46 83 47 85 48 36 49 88 50 82 51 81 52 37 54
REMARK SMILES IDX 69 55 49 56 68 57 50 58 53 59 67 60 86 61 51 62 52 63 66 65
REMARK SMILES IDX 87 66 54 67 38 68 39 69 47 70 40 71 46 72 48 73 45 74 41 75
REMARK SMILES IDX 42 76 43 77 44 78 70 79 71 80 79 81 72 82 78 83 80 84 77 85
REMARK SMILES IDX 73 86 74 87 75 88 76 89 55 90 56 91 64 92 57 93 63 94 65 95
REMARK SMILES IDX 62 96 58 97 59 98 60 99 61 100
REMARK H PARENT 97 30 85 53 53 64
REMARK Flexibility Score: inf
ROOT
ATOM      1  O   UNL A   1      37.064  22.676  24.293  1.00  0.00    -0.374 OA
ENDROOT
BRANCH   1   2
ATOM      2  C   UNL A   1      35.847  23.215  24.814  1.00  0.00     0.202 C 
BRANCH   2   3
ATOM      3  C   UNL A   1      35.819  23.485  26.324  1.00  0.00     0.261 C 
BRANCH   3   4
ATOM      4  O   UNL A   1      34.492  23.648  26.857  1.00  0.00    -0.462 OA
BRANCH   4   5
ATOM      5  C   UNL A   1      33.845  22.499  27.178  1.00  0.00     0.325 C 
ATOM      6  O   UNL A   1      34.383  21.489  27.627  1.00  0.00    -0.250 OA
BRANCH   5   7
ATOM      7  C   UNL A   1      32.324  22.585  27.073  1.00  0.00     0.242 C 
BRANCH   7   8
ATOM      8  N   UNL A   1      31.614  22.223  25.844  1.00  0.00    -0.331 N 
ATOM      9  C   UNL A   1      32.231  27.957  22.802  1.00  0.00     0.253 C 
ATOM     10  O   UNL A   1      33.325  28.495  22.645  1.00  0.00    -0.269 OA
ATOM     11  N   UNL A   1      32.099  26.582  22.941  1.00  0.00    -0.339 N 
ATOM     12  C   UNL A   1      33.180  25.849  23.567  1.00  0.00     0.120 C 
ATOM     13  C   UNL A   1      31.080  25.777  22.276  1.00  0.00     0.120 C 
ATOM     14  C   UNL A   1      32.591  24.919  24.624  1.00  0.00     0.030 C 
ATOM     15  C   UNL A   1      30.476  24.746  23.228  1.00  0.00     0.030 C 
ATOM     16  C   UNL A   1      31.530  23.946  24.039  1.00  0.00    -0.008 C 
ATOM     17  C   UNL A   1      32.197  22.880  23.125  1.00  0.00     0.019 C 
ATOM     18  C   UNL A   1      30.784  23.215  25.190  1.00  0.00     0.127 C 
ATOM     19  C   UNL A   1      33.017  21.871  23.916  1.00  0.00     0.101 C 
ATOM     20  C   UNL A   1      32.158  21.270  25.001  1.00  0.00     0.223 C 
ATOM     21  O   UNL A   1      31.991  20.068  25.110  1.00  0.00    -0.275 OA
BRANCH   9  22
ATOM     22  C   UNL A   1      31.036  28.818  23.038  1.00  0.00     0.043 A 
ATOM     23  C   UNL A   1      27.928  31.800  23.401  1.00  0.00     0.048 C 
ATOM     24  C   UNL A   1      28.973  30.732  23.265  1.00  0.00    -0.009 A 
ATOM     25  C   UNL A   1      29.894  30.549  24.303  1.00  0.00     0.008 A 
ATOM     26  C   UNL A   1      29.105  29.944  22.115  1.00  0.00     0.119 A 
ATOM     27  C   UNL A   1      30.926  29.617  24.181  1.00  0.00     0.014 A 
ATOM     28  C   UNL A   1      30.114  28.986  22.003  1.00  0.00     0.060 A 
BRANCH  26  29
ATOM     29  O   UNL A   1      28.288  30.086  21.029  1.00  0.00    -0.508 OA
ATOM     30  H   UNL A   1      27.562  29.506  20.910  1.00  0.00     0.293 HD
ENDBRANCH  26  29
ENDBRANCH   9  22
ENDBRANCH   7   8
ENDBRANCH   5   7
ENDBRANCH   4   5
ENDBRANCH   3   4
ENDBRANCH   2   3
ENDBRANCH   1   2
BRANCH   1  31
ATOM     31  C   UNL A   1      37.150  21.252  24.172  1.00  0.00     0.202 C 
BRANCH  31  32
ATOM     32  C   UNL A   1      38.197  20.566  25.051  1.00  0.00     0.261 C 
BRANCH  32  33
ATOM     33  O   UNL A   1      38.516  21.398  26.174  1.00  0.00    -0.460 OA
BRANCH  33  34
ATOM     34  C   UNL A   1      39.799  21.359  26.567  1.00  0.00     0.338 C 
ATOM     35  O   UNL A   1      40.598  20.446  26.401  1.00  0.00    -0.246 OA
BRANCH  34  36
ATOM     36  C   UNL A   1      40.161  22.672  27.123  1.00  0.00     0.060 A 
ATOM     37  C   UNL A   1      39.516  23.808  26.628  1.00  0.00     0.016 A 
ATOM     38  C   UNL A   1      41.214  22.788  28.032  1.00  0.00     0.016 A 
ATOM     39  C   UNL A   1      39.973  25.078  26.987  1.00  0.00     0.010 A 
ATOM     40  C   UNL A   1      41.670  24.062  28.392  1.00  0.00     0.010 A 
ATOM     41  C   UNL A   1      41.083  25.212  27.835  1.00  0.00    -0.014 A 
BRANCH  41  42
ATOM     42  C   UNL A   1      41.732  26.541  28.000  1.00  0.00     0.031 A 
ATOM     43  C   UNL A   1      43.127  26.739  27.464  1.00  0.00     0.074 A 
ATOM     44  C   UNL A   1      41.090  27.564  28.592  1.00  0.00     0.049 A 
ATOM     45  N   UNL A   1      43.905  27.789  27.538  1.00  0.00    -0.248 NA
ATOM     46  C   UNL A   1      43.720  25.599  26.749  1.00  0.00     0.031 C 
ATOM     47  C   UNL A   1      39.724  27.517  29.108  1.00  0.00     0.029 A 
ATOM     48  N   UNL A   1      41.510  28.843  28.869  1.00  0.00    -0.354 N 
ATOM     49  C   UNL A   1      45.081  27.436  26.883  1.00  0.00     0.074 A 
ATOM     50  C   UNL A   1      44.923  26.064  26.446  1.00  0.00     0.031 C 
ATOM     51  C   UNL A   1      39.422  28.710  29.650  1.00  0.00     0.029 A 
ATOM     52  C   UNL A   1      40.584  29.592  29.558  1.00  0.00     0.049 A 
ATOM     53  H   UNL A   1      42.390  29.191  28.598  1.00  0.00     0.167 HD
ATOM     54  C   UNL A   1      46.188  28.187  26.660  1.00  0.00     0.034 A 
ATOM     55  C   UNL A   1      40.675  30.833  30.080  1.00  0.00     0.034 A 
ATOM     56  C   UNL A   1      46.343  29.550  27.106  1.00  0.00     0.049 A 
ATOM     57  C   UNL A   1      41.952  31.621  29.898  1.00  0.00     0.074 A 
ATOM     58  C   UNL A   1      47.420  30.400  26.922  1.00  0.00     0.029 A 
ATOM     59  N   UNL A   1      45.399  30.258  27.837  1.00  0.00    -0.354 N 
ATOM     60  N   UNL A   1      43.056  31.274  29.277  1.00  0.00    -0.248 NA
ATOM     61  C   UNL A   1      41.993  32.969  30.484  1.00  0.00     0.031 C 
ATOM     62  C   UNL A   1      47.154  31.597  27.596  1.00  0.00     0.029 A 
ATOM     63  C   UNL A   1      45.882  31.523  28.138  1.00  0.00     0.049 A 
ATOM     64  H   UNL A   1      44.516  29.914  28.102  1.00  0.00     0.167 HD
ATOM     65  C   UNL A   1      43.904  32.376  29.366  1.00  0.00     0.074 A 
ATOM     66  C   UNL A   1      43.188  33.396  30.101  1.00  0.00     0.031 C 
ATOM     67  C   UNL A   1      45.159  32.533  28.872  1.00  0.00     0.034 A 
BRANCH  54  68
ATOM     68  C   UNL A   1      47.341  27.527  25.945  1.00  0.00     0.023 A 
ATOM     69  C   UNL A   1      48.310  26.777  26.634  1.00  0.00     0.031 A 
ATOM     70  C   UNL A   1      47.480  27.664  24.552  1.00  0.00     0.131 A 
ATOM     71  C   UNL A   1      49.404  26.242  25.939  1.00  0.00     0.055 A 
ATOM     72  C   UNL A   1      48.535  27.072  23.855  1.00  0.00     0.041 A 
ATOM     73  F   UNL A   1      46.596  28.386  23.846  1.00  0.00    -0.206 F 
ATOM     74  C   UNL A   1      49.512  26.366  24.550  1.00  0.00     0.022 A 
BRANCH  71  75
ATOM     75  S   UNL A   1      50.753  25.485  26.886  1.00  0.00     0.124 S 
ATOM     76  O   UNL A   1      50.066  24.378  27.547  1.00  0.00    -0.237 OA
ATOM     77  O   UNL A   1      51.703  25.116  25.843  1.00  0.00    -0.237 OA
ATOM     78  O   UNL A   1      51.191  26.558  27.777  1.00  0.00    -0.744 OA
ENDBRANCH  71  75
ENDBRANCH  54  68
BRANCH  55  79
ATOM     79  C   UNL A   1      39.547  31.400  30.873  1.00  0.00     0.023 A 
ATOM     80  C   UNL A   1      39.527  31.324  32.274  1.00  0.00     0.031 A 
ATOM     81  C   UNL A   1      38.438  31.976  30.228  1.00  0.00     0.131 A 
ATOM     82  C   UNL A   1      38.403  31.777  32.984  1.00  0.00     0.055 A 
ATOM     83  C   UNL A   1      37.344  32.471  30.940  1.00  0.00     0.041 A 
ATOM     84  F   UNL A   1      38.403  32.071  28.889  1.00  0.00    -0.206 F 
ATOM     85  C   UNL A   1      37.317  32.361  32.326  1.00  0.00     0.022 A 
BRANCH  82  86
ATOM     86  S   UNL A   1      38.340  31.514  34.777  1.00  0.00     0.124 S 
ATOM     87  O   UNL A   1      39.556  32.188  35.218  1.00  0.00    -0.237 OA
ATOM     88  O   UNL A   1      37.081  32.159  35.133  1.00  0.00    -0.237 OA
ATOM     89  O   UNL A   1      38.351  30.059  34.907  1.00  0.00    -0.744 OA
ENDBRANCH  82  86
ENDBRANCH  55  79
BRANCH  67  90
ATOM     90  C   UNL A   1      45.812  33.880  29.052  1.00  0.00     0.023 A 
ATOM     91  C   UNL A   1      45.660  34.915  28.114  1.00  0.00     0.031 A 
ATOM     92  C   UNL A   1      46.587  34.133  30.200  1.00  0.00     0.131 A 
ATOM     93  C   UNL A   1      46.305  36.145  28.322  1.00  0.00     0.055 A 
ATOM     94  C   UNL A   1      47.185  35.373  30.425  1.00  0.00     0.041 A 
ATOM     95  F   UNL A   1      46.763  33.178  31.128  1.00  0.00    -0.206 F 
ATOM     96  C   UNL A   1      47.053  36.386  29.478  1.00  0.00     0.022 A 
BRANCH  93  97
ATOM     97  S   UNL A   1      46.197  37.419  27.035  1.00  0.00     0.124 S 
ATOM     98  O   UNL A   1      47.032  38.481  27.588  1.00  0.00    -0.237 OA
ATOM     99  O   UNL A   1      46.733  36.730  25.865  1.00  0.00    -0.237 OA
ATOM    100  O   UNL A   1      44.768  37.724  26.971  1.00  0.00    -0.744 OA
ENDBRANCH  93  97
ENDBRANCH  67  90
ENDBRANCH  41  42
ENDBRANCH  34  36
ENDBRANCH  33  34
ENDBRANCH  32  33
ENDBRANCH  31  32
ENDBRANCH   1  31
TORSDOF 20
ENDMDL
MODEL 3
REMARK VINA RESULT:     -12.0      2.102      9.106
REMARK SMILES Cc1ccc(C(=O)N2CCC3(CCC(=O)N(CC(=O)OCCOCCOC(=O)c4ccc(-c5c6nc(c(-c7cc(S(=O)(=O)[O-])ccc7F)c7ccc([nH]7)c(-c7cc(S(=O)(=O)[O-])ccc7F)c7nc(c(-c8cc(S(=O)(=O)[O-])ccc8F)c8ccc5[nH]8)C=C7)C=C6)cc4)C3)CC2)cc1O
REMARK SMILES IDX 23 1 22 2 21 3 20 4 18 5 19 6 17 7 16 8 6 9 7 10 8 11 9 12
REMARK SMILES IDX 94 13 10 14 93 15 11 16 12 17 92 18 13 19 14 20 15 21 5 22
REMARK SMILES IDX 1 23 2 24 3 25 96 26 4 27 95 28 97 29 24 31 25 32 26 33
REMARK SMILES IDX 27 34 28 35 29 36 30 37 91 38 31 39 90 40 32 41 33 42 34 43
REMARK SMILES IDX 84 44 35 45 89 46 83 47 85 48 36 49 88 50 82 51 81 52 37 54
REMARK SMILES IDX 69 55 49 56 68 57 50 58 53 59 67 60 86 61 51 62 52 63 66 65
REMARK SMILES IDX 87 66 54 67 38 68 39 69 47 70 40 71 46 72 48 73 45 74 41 75
REMARK SMILES IDX 42 76 43 77 44 78 70 79 71 80 79 81 72 82 78 83 80 84 77 85
REMARK SMILES IDX 73 86 74 87 75 88 76 89 55 90 56 91 64 92 57 93 63 94 65 95
REMARK SMILES IDX 62 96 58 97 59 98 60 99 61 100
REMARK H PARENT 97 30 85 53 53 64
REMARK Flexibility Score: inf
ROOT
ATOM      1  O   UNL A   1      34.050  32.739  28.708  1.00  0.00    -0.374 OA
ENDROOT
BRANCH   1   2
ATOM      2  C   UNL A   1      33.004  32.862  27.741  1.00  0.00     0.202 C 
BRANCH   2   3
ATOM      3  C   UNL A   1      32.491  31.553  27.130  1.00  0.00     0.261 C 
BRANCH   3   4
ATOM      4  O   UNL A   1      33.539  30.680  26.668  1.00  0.00    -0.462 OA
BRANCH   4   5
ATOM      5  C   UNL A   1      33.128  29.578  25.992  1.00  0.00     0.325 C 
ATOM      6  O   UNL A   1      33.722  28.502  25.971  1.00  0.00    -0.250 OA
BRANCH   5   7
ATOM      7  C   UNL A   1      31.754  29.717  25.340  1.00  0.00     0.242 C 
BRANCH   7   8
ATOM      8  N   UNL A   1      31.444  29.091  24.053  1.00  0.00    -0.331 N 
ATOM      9  C   UNL A   1      30.942  22.958  26.208  1.00  0.00     0.253 C 
ATOM     10  O   UNL A   1      30.199  22.654  27.140  1.00  0.00    -0.269 OA
ATOM     11  N   UNL A   1      30.700  24.062  25.402  1.00  0.00    -0.339 N 
ATOM     12  C   UNL A   1      30.041  25.210  25.992  1.00  0.00     0.120 C 
ATOM     13  C   UNL A   1      30.816  24.067  23.948  1.00  0.00     0.120 C 
ATOM     14  C   UNL A   1      30.821  26.466  25.613  1.00  0.00     0.030 C 
ATOM     15  C   UNL A   1      31.514  25.331  23.450  1.00  0.00     0.030 C 
ATOM     16  C   UNL A   1      30.965  26.641  24.077  1.00  0.00    -0.008 C 
ATOM     17  C   UNL A   1      29.599  27.000  23.427  1.00  0.00     0.019 C 
ATOM     18  C   UNL A   1      31.978  27.776  23.761  1.00  0.00     0.127 C 
ATOM     19  C   UNL A   1      29.148  28.412  23.773  1.00  0.00     0.101 C 
ATOM     20  C   UNL A   1      30.246  29.387  23.426  1.00  0.00     0.223 C 
ATOM     21  O   UNL A   1      30.066  30.335  22.682  1.00  0.00    -0.275 OA
BRANCH   9  22
ATOM     22  C   UNL A   1      32.235  22.231  26.057  1.00  0.00     0.043 A 
ATOM     23  C   UNL A   1      36.096  20.544  25.092  1.00  0.00     0.048 C 
ATOM     24  C   UNL A   1      34.767  21.127  25.474  1.00  0.00    -0.009 A 
ATOM     25  C   UNL A   1      33.602  20.553  24.952  1.00  0.00     0.008 A 
ATOM     26  C   UNL A   1      34.643  22.259  26.288  1.00  0.00     0.119 A 
ATOM     27  C   UNL A   1      32.352  21.113  25.224  1.00  0.00     0.014 A 
ATOM     28  C   UNL A   1      33.394  22.801  26.591  1.00  0.00     0.060 A 
BRANCH  26  29
ATOM     29  O   UNL A   1      35.724  22.919  26.799  1.00  0.00    -0.508 OA
ATOM     30  H   UNL A   1      36.553  22.867  26.366  1.00  0.00     0.293 HD
ENDBRANCH  26  29
ENDBRANCH   9  22
ENDBRANCH   7   8
ENDBRANCH   5   7
ENDBRANCH   4   5
ENDBRANCH   3   4
ENDBRANCH   2   3
ENDBRANCH   1   2
BRANCH   1  31
ATOM     31  C   UNL A   1      34.389  33.911  29.458  1.00  0.00     0.202 C 
BRANCH  31  32
ATOM     32  C   UNL A   1      34.392  33.754  30.980  1.00  0.00     0.261 C 
BRANCH  32  33
ATOM     33  O   UNL A   1      34.481  32.367  31.331  1.00  0.00    -0.460 OA
BRANCH  33  34
ATOM     34  C   UNL A   1      35.395  32.073  32.270  1.00  0.00     0.338 C 
ATOM     35  O   UNL A   1      35.357  32.367  33.459  1.00  0.00    -0.246 OA
BRANCH  34  36
ATOM     36  C   UNL A   1      36.418  31.201  31.674  1.00  0.00     0.060 A 
ATOM     37  C   UNL A   1      37.552  30.888  32.431  1.00  0.00     0.016 A 
ATOM     38  C   UNL A   1      36.317  30.800  30.341  1.00  0.00     0.016 A 
ATOM     39  C   UNL A   1      38.628  30.232  31.829  1.00  0.00     0.010 A 
ATOM     40  C   UNL A   1      37.396  30.141  29.740  1.00  0.00     0.010 A 
ATOM     41  C   UNL A   1      38.575  29.896  30.468  1.00  0.00    -0.014 A 
BRANCH  41  42
ATOM     42  C   UNL A   1      39.810  29.449  29.767  1.00  0.00     0.031 A 
ATOM     43  C   UNL A   1      40.961  30.414  29.637  1.00  0.00     0.074 A 
ATOM     44  C   UNL A   1      39.921  28.202  29.275  1.00  0.00     0.049 A 
ATOM     45  N   UNL A   1      42.108  30.261  29.026  1.00  0.00    -0.248 NA
ATOM     46  C   UNL A   1      40.792  31.723  30.283  1.00  0.00     0.031 C 
ATOM     47  C   UNL A   1      38.901  27.160  29.379  1.00  0.00     0.029 A 
ATOM     48  N   UNL A   1      40.944  27.603  28.579  1.00  0.00    -0.354 N 
ATOM     49  C   UNL A   1      42.798  31.455  29.211  1.00  0.00     0.074 A 
ATOM     50  C   UNL A   1      41.925  32.331  29.965  1.00  0.00     0.031 C 
ATOM     51  C   UNL A   1      39.345  26.054  28.757  1.00  0.00     0.029 A 
ATOM     52  C   UNL A   1      40.660  26.319  28.176  1.00  0.00     0.049 A 
ATOM     53  H   UNL A   1      41.799  28.052  28.388  1.00  0.00     0.167 HD
ATOM     54  C   UNL A   1      44.046  31.790  28.798  1.00  0.00     0.034 A 
ATOM     55  C   UNL A   1      41.367  25.468  27.403  1.00  0.00     0.034 A 
ATOM     56  C   UNL A   1      44.906  30.915  28.039  1.00  0.00     0.049 A 
ATOM     57  C   UNL A   1      42.717  25.893  26.876  1.00  0.00     0.074 A 
ATOM     58  C   UNL A   1      46.190  31.155  27.581  1.00  0.00     0.029 A 
ATOM     59  N   UNL A   1      44.566  29.637  27.615  1.00  0.00    -0.354 N 
ATOM     60  N   UNL A   1      43.356  27.026  27.058  1.00  0.00    -0.248 NA
ATOM     61  C   UNL A   1      43.444  24.924  26.042  1.00  0.00     0.031 C 
ATOM     62  C   UNL A   1      46.601  30.050  26.826  1.00  0.00     0.029 A 
ATOM     63  C   UNL A   1      45.603  29.091  26.875  1.00  0.00     0.049 A 
ATOM     64  H   UNL A   1      43.714  29.186  27.812  1.00  0.00     0.167 HD
ATOM     65  C   UNL A   1      44.573  26.887  26.395  1.00  0.00     0.074 A 
ATOM     66  C   UNL A   1      44.580  25.565  25.807  1.00  0.00     0.031 C 
ATOM     67  C   UNL A   1      45.599  27.770  26.293  1.00  0.00     0.034 A 
BRANCH  54  68
ATOM     68  C   UNL A   1      44.530  33.183  29.112  1.00  0.00     0.023 A 
ATOM     69  C   UNL A   1      44.279  34.267  28.254  1.00  0.00     0.031 A 
ATOM     70  C   UNL A   1      45.269  33.426  30.284  1.00  0.00     0.131 A 
ATOM     71  C   UNL A   1      44.811  35.531  28.550  1.00  0.00     0.055 A 
ATOM     72  C   UNL A   1      45.738  34.700  30.608  1.00  0.00     0.041 A 
ATOM     73  F   UNL A   1      45.556  32.424  31.129  1.00  0.00    -0.206 F 
ATOM     74  C   UNL A   1      45.520  35.760  29.733  1.00  0.00     0.022 A 
BRANCH  71  75
ATOM     75  S   UNL A   1      44.669  36.848  27.311  1.00  0.00     0.124 S 
ATOM     76  O   UNL A   1      45.777  36.530  26.413  1.00  0.00    -0.237 OA
ATOM     77  O   UNL A   1      43.330  36.633  26.774  1.00  0.00    -0.237 OA
ATOM     78  O   UNL A   1      44.839  38.072  28.090  1.00  0.00    -0.744 OA
ENDBRANCH  71  75
ENDBRANCH  54  68
BRANCH  55  79
ATOM     79  C   UNL A   1      40.796  24.142  27.029  1.00  0.00     0.023 A 
ATOM     80  C   UNL A   1      41.571  22.973  27.071  1.00  0.00     0.031 A 
ATOM     81  C   UNL A   1      39.472  24.039  26.562  1.00  0.00     0.131 A 
ATOM     82  C   UNL A   1      41.032  21.758  26.615  1.00  0.00     0.055 A 
ATOM     83  C   UNL A   1      38.924  22.820  26.158  1.00  0.00     0.041 A 
ATOM     84  F   UNL A   1      38.688  25.126  26.498  1.00  0.00    -0.206 F 
ATOM     85  C   UNL A   1      39.711  21.673  26.171  1.00  0.00     0.022 A 
BRANCH  82  86
ATOM     86  S   UNL A   1      42.112  20.304  26.529  1.00  0.00     0.124 S 
ATOM     87  O   UNL A   1      43.401  20.909  26.214  1.00  0.00    -0.237 OA
ATOM     88  O   UNL A   1      41.974  19.745  27.870  1.00  0.00    -0.237 OA
ATOM     89  O   UNL A   1      41.520  19.504  25.459  1.00  0.00    -0.744 OA
ENDBRANCH  82  86
ENDBRANCH  55  79
BRANCH  67  90
ATOM     90  C   UNL A   1      46.842  27.311  25.572  1.00  0.00     0.023 A 
ATOM     91  C   UNL A   1      47.098  27.655  24.234  1.00  0.00     0.031 A 
ATOM     92  C   UNL A   1      47.795  26.530  26.252  1.00  0.00     0.131 A 
ATOM     93  C   UNL A   1      48.263  27.187  23.605  1.00  0.00     0.055 A 
ATOM     94  C   UNL A   1      48.974  26.108  25.636  1.00  0.00     0.041 A 
ATOM     95  F   UNL A   1      47.599  26.175  27.531  1.00  0.00    -0.206 F 
ATOM     96  C   UNL A   1      49.210  26.430  24.301  1.00  0.00     0.022 A 
BRANCH  93  97
ATOM     97  S   UNL A   1      48.507  27.537  21.841  1.00  0.00     0.124 S 
ATOM     98  O   UNL A   1      47.221  28.116  21.466  1.00  0.00    -0.237 OA
ATOM     99  O   UNL A   1      49.640  28.457  21.857  1.00  0.00    -0.237 OA
ATOM    100  O   UNL A   1      48.787  26.223  21.265  1.00  0.00    -0.744 OA
ENDBRANCH  93  97
ENDBRANCH  67  90
ENDBRANCH  41  42
ENDBRANCH  34  36
ENDBRANCH  33  34
ENDBRANCH  32  33
ENDBRANCH  31  32
ENDBRANCH   1  31
TORSDOF 20
ENDMDL
