MODEL 1
REMARK VINA RESULT:     -12.5      0.000      0.000
REMARK SMILES O=C(OCCOCCOC(=O)c1nn(Cc2ccc(F)cc2)c2c1CN(C(=O)[C@H]1CC1(F)F)CC2)c1ccc(-c2c3nc(c(-c4cc(S(=O)(=O)[O-])ccc4F)c4ccc([nH]4)c(-c4cc(S(=O)(=O)[O-])ccc4F)c4nc(c(-c5cc(S(=O)(=O)[O-])ccc5F)c5ccc2[nH]5)C=C4)C=C3)cc1
REMARK SMILES IDX 5 1 4 2 3 3 2 4 1 5 36 6 37 7 98 8 38 9 97 10 39 11 40 12
REMARK SMILES IDX 41 13 91 14 42 15 96 16 90 17 92 18 43 19 95 20 89 21 88 22
REMARK SMILES IDX 44 24 76 25 56 26 75 27 57 28 60 29 74 30 93 31 58 32 59 33
REMARK SMILES IDX 73 35 94 36 61 37 45 38 46 39 54 40 47 41 53 42 55 43 52 44
REMARK SMILES IDX 48 45 49 46 50 47 51 48 77 49 78 50 86 51 79 52 85 53 87 54
REMARK SMILES IDX 84 55 80 56 81 57 82 58 83 59 62 60 63 61 71 62 64 63 70 64
REMARK SMILES IDX 72 65 69 66 65 67 66 68 67 69 68 70 6 71 7 72 8 73 9 74
REMARK SMILES IDX 10 75 11 76 12 77 13 78 24 79 14 80 23 81 25 82 35 83 26 84
REMARK SMILES IDX 34 85 15 86 16 87 17 88 22 89 18 90 21 91 19 92 20 93 27 94
REMARK SMILES IDX 28 95 29 96 30 97 31 98 32 99 33 100
REMARK H PARENT 92 23 60 34
REMARK Flexibility Score: inf
ROOT
ATOM      1  C   UNL A   1      33.362  30.920  27.518  1.00  0.00     0.202 C 
ENDROOT
BRANCH   1   2
ATOM      2  C   UNL A   1      34.576  31.794  27.858  1.00  0.00     0.261 C 
BRANCH   2   3
ATOM      3  O   UNL A   1      35.797  31.049  27.754  1.00  0.00    -0.460 OA
BRANCH   3   4
ATOM      4  C   UNL A   1      36.531  30.591  28.793  1.00  0.00     0.338 C 
ATOM      5  O   UNL A   1      36.238  30.934  29.937  1.00  0.00    -0.246 OA
BRANCH   4   6
ATOM      6  C   UNL A   1      37.566  29.546  28.593  1.00  0.00     0.060 A 
ATOM      7  C   UNL A   1      37.898  28.541  29.503  1.00  0.00     0.016 A 
ATOM      8  C   UNL A   1      38.328  29.681  27.426  1.00  0.00     0.016 A 
ATOM      9  C   UNL A   1      39.140  27.948  29.450  1.00  0.00     0.010 A 
ATOM     10  C   UNL A   1      39.525  29.004  27.306  1.00  0.00     0.010 A 
ATOM     11  C   UNL A   1      39.982  28.262  28.393  1.00  0.00    -0.014 A 
BRANCH  11  12
ATOM     12  C   UNL A   1      41.356  27.798  28.478  1.00  0.00     0.031 A 
ATOM     13  C   UNL A   1      41.631  26.460  27.887  1.00  0.00     0.074 A 
ATOM     14  C   UNL A   1      42.308  28.616  28.969  1.00  0.00     0.049 A 
ATOM     15  N   UNL A   1      42.284  25.463  28.394  1.00  0.00    -0.248 NA
ATOM     16  C   UNL A   1      41.008  26.166  26.584  1.00  0.00     0.031 C 
ATOM     17  C   UNL A   1      42.168  30.026  29.350  1.00  0.00     0.029 A 
ATOM     18  N   UNL A   1      43.648  28.409  29.054  1.00  0.00    -0.354 N 
ATOM     19  C   UNL A   1      42.317  24.488  27.400  1.00  0.00     0.074 A 
ATOM     20  C   UNL A   1      41.409  24.915  26.368  1.00  0.00     0.031 C 
ATOM     21  C   UNL A   1      43.382  30.611  29.316  1.00  0.00     0.029 A 
ATOM     22  C   UNL A   1      44.378  29.591  29.039  1.00  0.00     0.049 A 
ATOM     23  H   UNL A   1      44.058  27.517  29.121  1.00  0.00     0.167 HD
ATOM     24  C   UNL A   1      43.232  23.481  27.385  1.00  0.00     0.034 A 
ATOM     25  C   UNL A   1      45.675  29.729  28.666  1.00  0.00     0.034 A 
ATOM     26  C   UNL A   1      43.794  23.230  28.682  1.00  0.00     0.049 A 
ATOM     27  C   UNL A   1      46.303  28.388  28.789  1.00  0.00     0.074 A 
ATOM     28  C   UNL A   1      43.264  22.852  29.901  1.00  0.00     0.029 A 
ATOM     29  N   UNL A   1      45.051  23.708  28.964  1.00  0.00    -0.354 N 
ATOM     30  N   UNL A   1      46.432  27.747  29.920  1.00  0.00    -0.248 NA
ATOM     31  C   UNL A   1      46.376  27.557  27.596  1.00  0.00     0.031 C 
ATOM     32  C   UNL A   1      44.003  23.591  30.869  1.00  0.00     0.029 A 
ATOM     33  C   UNL A   1      44.967  24.334  30.184  1.00  0.00     0.049 A 
ATOM     34  H   UNL A   1      45.856  23.618  28.402  1.00  0.00     0.167 HD
ATOM     35  C   UNL A   1      46.188  26.417  29.611  1.00  0.00     0.074 A 
ATOM     36  C   UNL A   1      46.256  26.348  28.153  1.00  0.00     0.031 C 
ATOM     37  C   UNL A   1      45.676  25.548  30.532  1.00  0.00     0.034 A 
BRANCH  24  38
ATOM     38  C   UNL A   1      43.803  22.916  26.112  1.00  0.00     0.023 A 
ATOM     39  C   UNL A   1      43.688  21.541  25.851  1.00  0.00     0.031 A 
ATOM     40  C   UNL A   1      44.677  23.643  25.267  1.00  0.00     0.131 A 
ATOM     41  C   UNL A   1      44.426  20.948  24.809  1.00  0.00     0.055 A 
ATOM     42  C   UNL A   1      45.353  23.064  24.193  1.00  0.00     0.041 A 
ATOM     43  F   UNL A   1      44.991  24.925  25.502  1.00  0.00    -0.206 F 
ATOM     44  C   UNL A   1      45.243  21.704  23.969  1.00  0.00     0.022 A 
BRANCH  41  45
ATOM     45  S   UNL A   1      44.425  19.141  24.654  1.00  0.00     0.124 S 
ATOM     46  O   UNL A   1      43.096  18.797  25.151  1.00  0.00    -0.237 OA
ATOM     47  O   UNL A   1      44.644  18.961  23.223  1.00  0.00    -0.237 OA
ATOM     48  O   UNL A   1      45.534  18.726  25.510  1.00  0.00    -0.744 OA
ENDBRANCH  41  45
ENDBRANCH  24  38
BRANCH  25  49
ATOM     49  C   UNL A   1      46.233  30.843  27.850  1.00  0.00     0.023 A 
ATOM     50  C   UNL A   1      45.409  31.645  27.039  1.00  0.00     0.031 A 
ATOM     51  C   UNL A   1      47.568  31.281  28.022  1.00  0.00     0.131 A 
ATOM     52  C   UNL A   1      45.928  32.810  26.429  1.00  0.00     0.055 A 
ATOM     53  C   UNL A   1      48.083  32.419  27.397  1.00  0.00     0.041 A 
ATOM     54  F   UNL A   1      48.405  30.670  28.875  1.00  0.00    -0.206 F 
ATOM     55  C   UNL A   1      47.259  33.196  26.603  1.00  0.00     0.022 A 
BRANCH  52  56
ATOM     56  S   UNL A   1      44.829  33.924  25.502  1.00  0.00     0.124 S 
ATOM     57  O   UNL A   1      44.610  33.176  24.268  1.00  0.00    -0.237 OA
ATOM     58  O   UNL A   1      43.680  34.053  26.392  1.00  0.00    -0.237 OA
ATOM     59  O   UNL A   1      45.629  35.140  25.356  1.00  0.00    -0.744 OA
ENDBRANCH  52  56
ENDBRANCH  25  49
BRANCH  37  60
ATOM     60  C   UNL A   1      45.609  25.976  31.983  1.00  0.00     0.023 A 
ATOM     61  C   UNL A   1      44.449  26.483  32.612  1.00  0.00     0.031 A 
ATOM     62  C   UNL A   1      46.721  25.690  32.793  1.00  0.00     0.131 A 
ATOM     63  C   UNL A   1      44.436  26.687  34.007  1.00  0.00     0.055 A 
ATOM     64  C   UNL A   1      46.700  25.882  34.174  1.00  0.00     0.041 A 
ATOM     65  F   UNL A   1      47.838  25.168  32.256  1.00  0.00    -0.206 F 
ATOM     66  C   UNL A   1      45.557  26.382  34.787  1.00  0.00     0.022 A 
BRANCH  63  67
ATOM     67  S   UNL A   1      42.944  27.325  34.837  1.00  0.00     0.124 S 
ATOM     68  O   UNL A   1      43.436  27.728  36.151  1.00  0.00    -0.237 OA
ATOM     69  O   UNL A   1      42.518  28.404  33.951  1.00  0.00    -0.237 OA
ATOM     70  O   UNL A   1      42.043  26.170  34.857  1.00  0.00    -0.744 OA
ENDBRANCH  63  67
ENDBRANCH  37  60
ENDBRANCH  11  12
ENDBRANCH   4   6
ENDBRANCH   3   4
ENDBRANCH   2   3
ENDBRANCH   1   2
BRANCH   1  71
ATOM     71  O   UNL A   1      33.230  30.414  26.195  1.00  0.00    -0.374 OA
BRANCH  71  72
ATOM     72  C   UNL A   1      33.388  29.001  26.012  1.00  0.00     0.202 C 
BRANCH  72  73
ATOM     73  C   UNL A   1      34.227  28.520  24.818  1.00  0.00     0.261 C 
BRANCH  73  74
ATOM     74  O   UNL A   1      33.907  29.215  23.598  1.00  0.00    -0.458 OA
BRANCH  74  75
ATOM     75  C   UNL A   1      33.435  28.450  22.568  1.00  0.00     0.359 C 
ATOM     76  O   UNL A   1      34.106  28.098  21.602  1.00  0.00    -0.244 OA
BRANCH  75  77
ATOM     77  C   UNL A   1      32.096  27.907  22.839  1.00  0.00     0.175 A 
ATOM     78  N   UNL A   1      30.974  28.650  22.748  1.00  0.00    -0.165 NA
ATOM     79  C   UNL A   1      31.787  26.578  23.252  1.00  0.00     0.028 A 
ATOM     80  N   UNL A   1      29.971  27.814  23.106  1.00  0.00    -0.264 N 
ATOM     81  C   UNL A   1      30.421  26.571  23.440  1.00  0.00     0.046 A 
ATOM     82  C   UNL A   1      32.667  25.403  23.520  1.00  0.00     0.159 C 
ATOM     83  C   UNL A   1      29.638  25.389  23.888  1.00  0.00     0.078 C 
ATOM     84  N   UNL A   1      31.838  24.206  23.729  1.00  0.00    -0.337 N 
ATOM     85  C   UNL A   1      30.611  24.379  24.536  1.00  0.00     0.126 C 
BRANCH  80  86
ATOM     86  C   UNL A   1      28.588  28.240  22.934  1.00  0.00     0.180 C 
BRANCH  86  87
ATOM     87  C   UNL A   1      28.454  29.697  22.568  1.00  0.00    -0.026 A 
ATOM     88  C   UNL A   1      28.303  30.082  21.224  1.00  0.00     0.008 A 
ATOM     89  C   UNL A   1      28.430  30.686  23.564  1.00  0.00     0.008 A 
ATOM     90  C   UNL A   1      28.114  31.422  20.885  1.00  0.00     0.039 A 
ATOM     91  C   UNL A   1      28.239  32.027  23.222  1.00  0.00     0.039 A 
ATOM     92  C   UNL A   1      28.076  32.381  21.888  1.00  0.00     0.123 A 
ATOM     93  F   UNL A   1      27.869  33.665  21.566  1.00  0.00    -0.207 F 
ENDBRANCH  86  87
ENDBRANCH  80  86
BRANCH  84  94
ATOM     94  C   UNL A   1      32.349  22.991  23.302  1.00  0.00     0.232 C 
ATOM     95  O   UNL A   1      32.724  22.780  22.156  1.00  0.00    -0.274 OA
BRANCH  94  96
ATOM     96  C   UNL A   1      32.434  21.911  24.301  1.00  0.00     0.154 C 
ATOM     97  C   UNL A   1      32.755  20.494  23.849  1.00  0.00     0.097 C 
ATOM     98  C   UNL A   1      33.745  21.292  24.611  1.00  0.00     0.260 C 
ATOM     99  F   UNL A   1      34.920  21.643  23.992  1.00  0.00    -0.206 F 
ATOM    100  F   UNL A   1      34.060  20.894  25.892  1.00  0.00    -0.206 F 
ENDBRANCH  94  96
ENDBRANCH  84  94
ENDBRANCH  75  77
ENDBRANCH  74  75
ENDBRANCH  73  74
ENDBRANCH  72  73
ENDBRANCH  71  72
ENDBRANCH   1  71
TORSDOF 21
ENDMDL
MODEL 2
REMARK VINA RESULT:     -12.5      2.456      8.021
REMARK SMILES O=C(OCCOCCOC(=O)c1nn(Cc2ccc(F)cc2)c2c1CN(C(=O)[C@H]1CC1(F)F)CC2)c1ccc(-c2c3nc(c(-c4cc(S(=O)(=O)[O-])ccc4F)c4ccc([nH]4)c(-c4cc(S(=O)(=O)[O-])ccc4F)c4nc(c(-c5cc(S(=O)(=O)[O-])ccc5F)c5ccc2[nH]5)C=C4)C=C3)cc1
REMARK SMILES IDX 5 1 4 2 3 3 2 4 1 5 36 6 37 7 98 8 38 9 97 10 39 11 40 12
REMARK SMILES IDX 41 13 91 14 42 15 96 16 90 17 92 18 43 19 95 20 89 21 88 22
REMARK SMILES IDX 44 24 76 25 56 26 75 27 57 28 60 29 74 30 93 31 58 32 59 33
REMARK SMILES IDX 73 35 94 36 61 37 45 38 46 39 54 40 47 41 53 42 55 43 52 44
REMARK SMILES IDX 48 45 49 46 50 47 51 48 77 49 78 50 86 51 79 52 85 53 87 54
REMARK SMILES IDX 84 55 80 56 81 57 82 58 83 59 62 60 63 61 71 62 64 63 70 64
REMARK SMILES IDX 72 65 69 66 65 67 66 68 67 69 68 70 6 71 7 72 8 73 9 74
REMARK SMILES IDX 10 75 11 76 12 77 13 78 24 79 14 80 23 81 25 82 35 83 26 84
REMARK SMILES IDX 34 85 15 86 16 87 17 88 22 89 18 90 21 91 19 92 20 93 27 94
REMARK SMILES IDX 28 95 29 96 30 97 31 98 32 99 33 100
REMARK H PARENT 92 23 60 34
REMARK Flexibility Score: inf
ROOT
ATOM      1  C   UNL A   1      34.198  32.951  28.149  1.00  0.00     0.202 C 
ENDROOT
BRANCH   1   2
ATOM      2  C   UNL A   1      34.543  33.255  29.612  1.00  0.00     0.261 C 
BRANCH   2   3
ATOM      3  O   UNL A   1      34.663  32.049  30.379  1.00  0.00    -0.460 OA
BRANCH   3   4
ATOM      4  C   UNL A   1      35.742  31.682  31.106  1.00  0.00     0.338 C 
ATOM      5  O   UNL A   1      35.731  31.840  32.325  1.00  0.00    -0.246 OA
BRANCH   4   6
ATOM      6  C   UNL A   1      36.860  30.931  30.482  1.00  0.00     0.060 A 
ATOM      7  C   UNL A   1      36.949  29.542  30.371  1.00  0.00     0.016 A 
ATOM      8  C   UNL A   1      37.951  31.714  30.083  1.00  0.00     0.016 A 
ATOM      9  C   UNL A   1      38.180  28.941  30.232  1.00  0.00     0.010 A 
ATOM     10  C   UNL A   1      39.168  31.114  29.828  1.00  0.00     0.010 A 
ATOM     11  C   UNL A   1      39.297  29.745  30.055  1.00  0.00    -0.014 A 
BRANCH  11  12
ATOM     12  C   UNL A   1      40.598  29.103  30.131  1.00  0.00     0.031 A 
ATOM     13  C   UNL A   1      41.158  28.923  31.498  1.00  0.00     0.074 A 
ATOM     14  C   UNL A   1      41.168  28.615  29.012  1.00  0.00     0.049 A 
ATOM     15  N   UNL A   1      42.346  29.196  31.935  1.00  0.00    -0.248 NA
ATOM     16  C   UNL A   1      40.229  28.457  32.544  1.00  0.00     0.031 C 
ATOM     17  C   UNL A   1      40.582  28.539  27.668  1.00  0.00     0.029 A 
ATOM     18  N   UNL A   1      42.324  27.915  28.880  1.00  0.00    -0.354 N 
ATOM     19  C   UNL A   1      42.372  28.761  33.258  1.00  0.00     0.074 A 
ATOM     20  C   UNL A   1      41.015  28.442  33.618  1.00  0.00     0.031 C 
ATOM     21  C   UNL A   1      41.223  27.582  26.966  1.00  0.00     0.029 A 
ATOM     22  C   UNL A   1      42.328  27.085  27.765  1.00  0.00     0.049 A 
ATOM     23  H   UNL A   1      43.079  27.988  29.507  1.00  0.00     0.167 HD
ATOM     24  C   UNL A   1      43.529  28.499  33.925  1.00  0.00     0.034 A 
ATOM     25  C   UNL A   1      43.085  25.972  27.596  1.00  0.00     0.034 A 
ATOM     26  C   UNL A   1      44.660  29.168  33.348  1.00  0.00     0.049 A 
ATOM     27  C   UNL A   1      44.240  26.091  28.524  1.00  0.00     0.074 A 
ATOM     28  C   UNL A   1      44.981  30.493  33.127  1.00  0.00     0.029 A 
ATOM     29  N   UNL A   1      45.526  28.446  32.561  1.00  0.00    -0.354 N 
ATOM     30  N   UNL A   1      45.146  27.028  28.441  1.00  0.00    -0.248 NA
ATOM     31  C   UNL A   1      44.139  25.442  29.824  1.00  0.00     0.031 C 
ATOM     32  C   UNL A   1      45.642  30.507  31.865  1.00  0.00     0.029 A 
ATOM     33  C   UNL A   1      45.724  29.186  31.420  1.00  0.00     0.049 A 
ATOM     34  H   UNL A   1      45.927  27.572  32.774  1.00  0.00     0.167 HD
ATOM     35  C   UNL A   1      45.434  27.370  29.754  1.00  0.00     0.074 A 
ATOM     36  C   UNL A   1      44.858  26.296  30.559  1.00  0.00     0.031 C 
ATOM     37  C   UNL A   1      45.862  28.622  30.092  1.00  0.00     0.034 A 
BRANCH  24  38
ATOM     38  C   UNL A   1      43.649  27.403  34.949  1.00  0.00     0.023 A 
ATOM     39  C   UNL A   1      44.070  26.123  34.550  1.00  0.00     0.031 A 
ATOM     40  C   UNL A   1      43.123  27.508  36.260  1.00  0.00     0.131 A 
ATOM     41  C   UNL A   1      43.946  25.026  35.424  1.00  0.00     0.055 A 
ATOM     42  C   UNL A   1      43.067  26.433  37.146  1.00  0.00     0.041 A 
ATOM     43  F   UNL A   1      42.551  28.635  36.709  1.00  0.00    -0.206 F 
ATOM     44  C   UNL A   1      43.465  25.177  36.724  1.00  0.00     0.022 A 
BRANCH  41  45
ATOM     45  S   UNL A   1      44.283  23.361  34.791  1.00  0.00     0.124 S 
ATOM     46  O   UNL A   1      45.325  23.620  33.802  1.00  0.00    -0.237 OA
ATOM     47  O   UNL A   1      44.704  22.658  35.999  1.00  0.00    -0.237 OA
ATOM     48  O   UNL A   1      42.997  22.939  34.242  1.00  0.00    -0.744 OA
ENDBRANCH  41  45
ENDBRANCH  24  38
BRANCH  25  49
ATOM     49  C   UNL A   1      42.626  24.691  26.990  1.00  0.00     0.023 A 
ATOM     50  C   UNL A   1      43.462  23.934  26.148  1.00  0.00     0.031 A 
ATOM     51  C   UNL A   1      41.421  24.074  27.405  1.00  0.00     0.131 A 
ATOM     52  C   UNL A   1      43.077  22.635  25.744  1.00  0.00     0.055 A 
ATOM     53  C   UNL A   1      41.034  22.801  26.983  1.00  0.00     0.041 A 
ATOM     54  F   UNL A   1      40.612  24.648  28.309  1.00  0.00    -0.206 F 
ATOM     55  C   UNL A   1      41.867  22.070  26.155  1.00  0.00     0.022 A 
BRANCH  52  56
ATOM     56  S   UNL A   1      44.219  21.601  24.779  1.00  0.00     0.124 S 
ATOM     57  O   UNL A   1      44.181  22.247  23.471  1.00  0.00    -0.237 OA
ATOM     58  O   UNL A   1      45.467  21.723  25.524  1.00  0.00    -0.237 OA
ATOM     59  O   UNL A   1      43.601  20.277  24.834  1.00  0.00    -0.744 OA
ENDBRANCH  52  56
ENDBRANCH  25  49
BRANCH  37  60
ATOM     60  C   UNL A   1      46.270  29.578  28.992  1.00  0.00     0.023 A 
ATOM     61  C   UNL A   1      45.368  30.397  28.274  1.00  0.00     0.031 A 
ATOM     62  C   UNL A   1      47.645  29.787  28.794  1.00  0.00     0.131 A 
ATOM     63  C   UNL A   1      45.861  31.381  27.392  1.00  0.00     0.055 A 
ATOM     64  C   UNL A   1      48.128  30.770  27.931  1.00  0.00     0.041 A 
ATOM     65  F   UNL A   1      48.548  29.066  29.480  1.00  0.00    -0.206 F 
ATOM     66  C   UNL A   1      47.237  31.571  27.225  1.00  0.00     0.022 A 
BRANCH  63  67
ATOM     67  S   UNL A   1      44.714  32.457  26.469  1.00  0.00     0.124 S 
ATOM     68  O   UNL A   1      45.576  33.098  25.481  1.00  0.00    -0.237 OA
ATOM     69  O   UNL A   1      43.732  31.510  25.949  1.00  0.00    -0.237 OA
ATOM     70  O   UNL A   1      44.193  33.363  27.496  1.00  0.00    -0.744 OA
ENDBRANCH  63  67
ENDBRANCH  37  60
ENDBRANCH  11  12
ENDBRANCH   4   6
ENDBRANCH   3   4
ENDBRANCH   2   3
ENDBRANCH   1   2
BRANCH   1  71
ATOM     71  O   UNL A   1      34.473  31.653  27.635  1.00  0.00    -0.374 OA
BRANCH  71  72
ATOM     72  C   UNL A   1      33.353  30.836  27.274  1.00  0.00     0.202 C 
BRANCH  72  73
ATOM     73  C   UNL A   1      33.628  29.548  26.481  1.00  0.00     0.261 C 
BRANCH  73  74
ATOM     74  O   UNL A   1      33.513  28.363  27.291  1.00  0.00    -0.458 OA
BRANCH  74  75
ATOM     75  C   UNL A   1      32.288  27.757  27.312  1.00  0.00     0.359 C 
ATOM     76  O   UNL A   1      31.363  28.088  28.048  1.00  0.00    -0.244 OA
BRANCH  75  77
ATOM     77  C   UNL A   1      32.116  26.801  26.208  1.00  0.00     0.175 A 
ATOM     78  N   UNL A   1      32.546  25.525  26.272  1.00  0.00    -0.165 NA
ATOM     79  C   UNL A   1      31.520  27.068  24.940  1.00  0.00     0.028 A 
ATOM     80  N   UNL A   1      32.241  24.992  25.066  1.00  0.00    -0.264 N 
ATOM     81  C   UNL A   1      31.648  25.892  24.231  1.00  0.00     0.046 A 
ATOM     82  C   UNL A   1      30.928  28.316  24.377  1.00  0.00     0.159 C 
ATOM     83  C   UNL A   1      31.177  25.695  22.835  1.00  0.00     0.078 C 
ATOM     84  N   UNL A   1      30.269  28.012  23.097  1.00  0.00    -0.337 N 
ATOM     85  C   UNL A   1      30.976  27.083  22.189  1.00  0.00     0.126 C 
BRANCH  80  86
ATOM     86  C   UNL A   1      32.396  23.557  24.857  1.00  0.00     0.180 C 
BRANCH  86  87
ATOM     87  C   UNL A   1      33.837  23.122  24.757  1.00  0.00    -0.026 A 
ATOM     88  C   UNL A   1      34.671  23.650  23.756  1.00  0.00     0.008 A 
ATOM     89  C   UNL A   1      34.379  22.222  25.688  1.00  0.00     0.008 A 
ATOM     90  C   UNL A   1      36.021  23.301  23.698  1.00  0.00     0.039 A 
ATOM     91  C   UNL A   1      35.732  21.876  25.629  1.00  0.00     0.039 A 
ATOM     92  C   UNL A   1      36.540  22.424  24.640  1.00  0.00     0.123 A 
ATOM     93  F   UNL A   1      37.841  22.107  24.601  1.00  0.00    -0.207 F 
ENDBRANCH  86  87
ENDBRANCH  80  86
BRANCH  84  94
ATOM     94  C   UNL A   1      29.135  28.739  22.772  1.00  0.00     0.232 C 
ATOM     95  O   UNL A   1      27.997  28.369  23.030  1.00  0.00    -0.274 OA
BRANCH  94  96
ATOM     96  C   UNL A   1      29.338  30.024  22.079  1.00  0.00     0.154 C 
ATOM     97  C   UNL A   1      28.195  30.633  21.279  1.00  0.00     0.097 C 
ATOM     98  C   UNL A   1      28.639  31.241  22.556  1.00  0.00     0.260 C 
ATOM     99  F   UNL A   1      27.765  31.252  23.616  1.00  0.00    -0.206 F 
ATOM    100  F   UNL A   1      29.250  32.474  22.517  1.00  0.00    -0.206 F 
ENDBRANCH  94  96
ENDBRANCH  84  94
ENDBRANCH  75  77
ENDBRANCH  74  75
ENDBRANCH  73  74
ENDBRANCH  72  73
ENDBRANCH  71  72
ENDBRANCH   1  71
TORSDOF 21
ENDMDL
MODEL 3
REMARK VINA RESULT:     -12.3      2.208      6.763
REMARK SMILES O=C(OCCOCCOC(=O)c1nn(Cc2ccc(F)cc2)c2c1CN(C(=O)[C@H]1CC1(F)F)CC2)c1ccc(-c2c3nc(c(-c4cc(S(=O)(=O)[O-])ccc4F)c4ccc([nH]4)c(-c4cc(S(=O)(=O)[O-])ccc4F)c4nc(c(-c5cc(S(=O)(=O)[O-])ccc5F)c5ccc2[nH]5)C=C4)C=C3)cc1
REMARK SMILES IDX 5 1 4 2 3 3 2 4 1 5 36 6 37 7 98 8 38 9 97 10 39 11 40 12
REMARK SMILES IDX 41 13 91 14 42 15 96 16 90 17 92 18 43 19 95 20 89 21 88 22
REMARK SMILES IDX 44 24 76 25 56 26 75 27 57 28 60 29 74 30 93 31 58 32 59 33
REMARK SMILES IDX 73 35 94 36 61 37 45 38 46 39 54 40 47 41 53 42 55 43 52 44
REMARK SMILES IDX 48 45 49 46 50 47 51 48 77 49 78 50 86 51 79 52 85 53 87 54
REMARK SMILES IDX 84 55 80 56 81 57 82 58 83 59 62 60 63 61 71 62 64 63 70 64
REMARK SMILES IDX 72 65 69 66 65 67 66 68 67 69 68 70 6 71 7 72 8 73 9 74
REMARK SMILES IDX 10 75 11 76 12 77 13 78 24 79 14 80 23 81 25 82 35 83 26 84
REMARK SMILES IDX 34 85 15 86 16 87 17 88 22 89 18 90 21 91 19 92 20 93 27 94
REMARK SMILES IDX 28 95 29 96 30 97 31 98 32 99 33 100
REMARK H PARENT 92 23 60 34
REMARK Flexibility Score: inf
ROOT
ATOM      1  C   UNL A   1      32.932  29.677  25.707  1.00  0.00     0.202 C 
ENDROOT
BRANCH   1   2
ATOM      2  C   UNL A   1      33.369  30.481  26.936  1.00  0.00     0.261 C 
BRANCH   2   3
ATOM      3  O   UNL A   1      34.738  30.214  27.272  1.00  0.00    -0.460 OA
BRANCH   3   4
ATOM      4  C   UNL A   1      35.631  31.126  27.720  1.00  0.00     0.338 C 
ATOM      5  O   UNL A   1      35.420  32.322  27.530  1.00  0.00    -0.246 OA
BRANCH   4   6
ATOM      6  C   UNL A   1      36.763  30.719  28.591  1.00  0.00     0.060 A 
ATOM      7  C   UNL A   1      37.802  31.547  29.018  1.00  0.00     0.016 A 
ATOM      8  C   UNL A   1      36.815  29.353  28.895  1.00  0.00     0.016 A 
ATOM      9  C   UNL A   1      39.008  30.998  29.394  1.00  0.00     0.010 A 
ATOM     10  C   UNL A   1      37.984  28.804  29.382  1.00  0.00     0.010 A 
ATOM     11  C   UNL A   1      39.111  29.617  29.481  1.00  0.00    -0.014 A 
BRANCH  11  12
ATOM     12  C   UNL A   1      40.441  29.060  29.663  1.00  0.00     0.031 A 
ATOM     13  C   UNL A   1      40.934  28.992  31.066  1.00  0.00     0.074 A 
ATOM     14  C   UNL A   1      41.101  28.546  28.607  1.00  0.00     0.049 A 
ATOM     15  N   UNL A   1      42.077  29.362  31.548  1.00  0.00    -0.248 NA
ATOM     16  C   UNL A   1      39.976  28.530  32.088  1.00  0.00     0.031 C 
ATOM     17  C   UNL A   1      40.596  28.358  27.241  1.00  0.00     0.029 A 
ATOM     18  N   UNL A   1      42.301  27.911  28.578  1.00  0.00    -0.354 N 
ATOM     19  C   UNL A   1      42.054  29.005  32.894  1.00  0.00     0.074 A 
ATOM     20  C   UNL A   1      40.700  28.625  33.200  1.00  0.00     0.031 C 
ATOM     21  C   UNL A   1      41.330  27.405  26.632  1.00  0.00     0.029 A 
ATOM     22  C   UNL A   1      42.416  27.022  27.517  1.00  0.00     0.049 A 
ATOM     23  H   UNL A   1      43.014  28.065  29.239  1.00  0.00     0.167 HD
ATOM     24  C   UNL A   1      43.185  28.852  33.635  1.00  0.00     0.034 A 
ATOM     25  C   UNL A   1      43.244  25.949  27.454  1.00  0.00     0.034 A 
ATOM     26  C   UNL A   1      44.306  29.555  33.080  1.00  0.00     0.049 A 
ATOM     27  C   UNL A   1      44.336  26.191  28.433  1.00  0.00     0.074 A 
ATOM     28  C   UNL A   1      44.562  30.883  32.797  1.00  0.00     0.029 A 
ATOM     29  N   UNL A   1      45.255  28.845  32.384  1.00  0.00    -0.354 N 
ATOM     30  N   UNL A   1      45.189  27.175  28.341  1.00  0.00    -0.248 NA
ATOM     31  C   UNL A   1      44.201  25.611  29.762  1.00  0.00     0.031 C 
ATOM     32  C   UNL A   1      45.290  30.865  31.573  1.00  0.00     0.029 A 
ATOM     33  C   UNL A   1      45.474  29.529  31.212  1.00  0.00     0.049 A 
ATOM     34  H   UNL A   1      45.693  28.009  32.669  1.00  0.00     0.167 HD
ATOM     35  C   UNL A   1      45.383  27.608  29.645  1.00  0.00     0.074 A 
ATOM     36  C   UNL A   1      44.827  26.547  30.482  1.00  0.00     0.031 C 
ATOM     37  C   UNL A   1      45.719  28.900  29.930  1.00  0.00     0.034 A 
BRANCH  24  38
ATOM     38  C   UNL A   1      43.311  27.825  34.728  1.00  0.00     0.023 A 
ATOM     39  C   UNL A   1      43.610  26.492  34.397  1.00  0.00     0.031 A 
ATOM     40  C   UNL A   1      42.900  28.061  36.063  1.00  0.00     0.131 A 
ATOM     41  C   UNL A   1      43.481  25.472  35.359  1.00  0.00     0.055 A 
ATOM     42  C   UNL A   1      42.840  27.058  37.030  1.00  0.00     0.041 A 
ATOM     43  F   UNL A   1      42.444  29.256  36.466  1.00  0.00    -0.206 F 
ATOM     44  C   UNL A   1      43.116  25.750  36.676  1.00  0.00     0.022 A 
BRANCH  41  45
ATOM     45  S   UNL A   1      43.652  23.746  34.831  1.00  0.00     0.124 S 
ATOM     46  O   UNL A   1      44.340  23.889  33.551  1.00  0.00    -0.237 OA
ATOM     47  O   UNL A   1      44.434  23.173  35.921  1.00  0.00    -0.237 OA
ATOM     48  O   UNL A   1      42.271  23.279  34.744  1.00  0.00    -0.744 OA
ENDBRANCH  41  45
ENDBRANCH  24  38
BRANCH  25  49
ATOM     49  C   UNL A   1      42.895  24.611  26.902  1.00  0.00     0.023 A 
ATOM     50  C   UNL A   1      43.758  23.928  26.026  1.00  0.00     0.031 A 
ATOM     51  C   UNL A   1      41.792  23.876  27.402  1.00  0.00     0.131 A 
ATOM     52  C   UNL A   1      43.496  22.585  25.671  1.00  0.00     0.055 A 
ATOM     53  C   UNL A   1      41.524  22.558  27.030  1.00  0.00     0.041 A 
ATOM     54  F   UNL A   1      40.979  24.381  28.343  1.00  0.00    -0.206 F 
ATOM     55  C   UNL A   1      42.382  21.902  26.167  1.00  0.00     0.022 A 
BRANCH  52  56
ATOM     56  S   UNL A   1      44.687  21.657  24.657  1.00  0.00     0.124 S 
ATOM     57  O   UNL A   1      44.698  22.430  23.420  1.00  0.00    -0.237 OA
ATOM     58  O   UNL A   1      45.901  21.709  25.464  1.00  0.00    -0.237 OA
ATOM     59  O   UNL A   1      44.078  20.331  24.553  1.00  0.00    -0.744 OA
ENDBRANCH  52  56
ENDBRANCH  25  49
BRANCH  37  60
ATOM     60  C   UNL A   1      46.131  29.816  28.797  1.00  0.00     0.023 A 
ATOM     61  C   UNL A   1      45.240  30.649  28.082  1.00  0.00     0.031 A 
ATOM     62  C   UNL A   1      47.507  29.972  28.561  1.00  0.00     0.131 A 
ATOM     63  C   UNL A   1      45.745  31.595  27.165  1.00  0.00     0.055 A 
ATOM     64  C   UNL A   1      48.002  30.918  27.664  1.00  0.00     0.041 A 
ATOM     65  F   UNL A   1      48.402  29.237  29.243  1.00  0.00    -0.206 F 
ATOM     66  C   UNL A   1      47.122  31.732  26.961  1.00  0.00     0.022 A 
BRANCH  63  67
ATOM     67  S   UNL A   1      44.613  32.688  26.244  1.00  0.00     0.124 S 
ATOM     68  O   UNL A   1      44.121  33.604  27.269  1.00  0.00    -0.237 OA
ATOM     69  O   UNL A   1      45.483  33.270  25.227  1.00  0.00    -0.237 OA
ATOM     70  O   UNL A   1      43.602  31.769  25.718  1.00  0.00    -0.744 OA
ENDBRANCH  63  67
ENDBRANCH  37  60
ENDBRANCH  11  12
ENDBRANCH   4   6
ENDBRANCH   3   4
ENDBRANCH   2   3
ENDBRANCH   1   2
BRANCH   1  71
ATOM     71  O   UNL A   1      33.927  29.212  24.801  1.00  0.00    -0.374 OA
BRANCH  71  72
ATOM     72  C   UNL A   1      33.530  28.996  23.441  1.00  0.00     0.202 C 
BRANCH  72  73
ATOM     73  C   UNL A   1      34.387  28.051  22.583  1.00  0.00     0.261 C 
BRANCH  73  74
ATOM     74  O   UNL A   1      33.683  27.561  21.427  1.00  0.00    -0.458 OA
BRANCH  74  75
ATOM     75  C   UNL A   1      32.975  26.403  21.591  1.00  0.00     0.359 C 
ATOM     76  O   UNL A   1      33.348  25.301  21.200  1.00  0.00    -0.244 OA
BRANCH  75  77
ATOM     77  C   UNL A   1      31.815  26.576  22.478  1.00  0.00     0.175 A 
ATOM     78  N   UNL A   1      30.730  27.298  22.129  1.00  0.00    -0.165 NA
ATOM     79  C   UNL A   1      31.670  26.056  23.797  1.00  0.00     0.028 A 
ATOM     80  N   UNL A   1      29.916  27.249  23.209  1.00  0.00    -0.264 N 
ATOM     81  C   UNL A   1      30.455  26.535  24.239  1.00  0.00     0.046 A 
ATOM     82  C   UNL A   1      32.591  25.232  24.634  1.00  0.00     0.159 C 
ATOM     83  C   UNL A   1      29.879  26.261  25.582  1.00  0.00     0.078 C 
ATOM     84  N   UNL A   1      31.888  24.792  25.849  1.00  0.00    -0.337 N 
ATOM     85  C   UNL A   1      31.018  25.788  26.512  1.00  0.00     0.126 C 
BRANCH  80  86
ATOM     86  C   UNL A   1      28.558  27.770  23.108  1.00  0.00     0.180 C 
BRANCH  86  87
ATOM     87  C   UNL A   1      28.508  29.258  22.872  1.00  0.00    -0.026 A 
ATOM     88  C   UNL A   1      29.361  29.858  21.928  1.00  0.00     0.008 A 
ATOM     89  C   UNL A   1      27.578  30.061  23.552  1.00  0.00     0.008 A 
ATOM     90  C   UNL A   1      29.275  31.224  21.659  1.00  0.00     0.039 A 
ATOM     91  C   UNL A   1      27.492  31.428  23.278  1.00  0.00     0.039 A 
ATOM     92  C   UNL A   1      28.336  31.994  22.330  1.00  0.00     0.123 A 
ATOM     93  F   UNL A   1      28.235  33.301  22.054  1.00  0.00    -0.207 F 
ENDBRANCH  86  87
ENDBRANCH  80  86
BRANCH  84  94
ATOM     94  C   UNL A   1      32.220  23.551  26.368  1.00  0.00     0.232 C 
ATOM     95  O   UNL A   1      31.707  23.080  27.374  1.00  0.00    -0.274 OA
BRANCH  94  96
ATOM     96  C   UNL A   1      33.247  22.776  25.649  1.00  0.00     0.154 C 
ATOM     97  C   UNL A   1      33.777  21.487  26.259  1.00  0.00     0.097 C 
ATOM     98  C   UNL A   1      32.905  21.459  25.061  1.00  0.00     0.260 C 
ATOM     99  F   UNL A   1      31.665  20.876  25.166  1.00  0.00    -0.206 F 
ATOM    100  F   UNL A   1      33.449  21.051  23.864  1.00  0.00    -0.206 F 
ENDBRANCH  94  96
ENDBRANCH  84  94
ENDBRANCH  75  77
ENDBRANCH  74  75
ENDBRANCH  73  74
ENDBRANCH  72  73
ENDBRANCH  71  72
ENDBRANCH   1  71
TORSDOF 21
ENDMDL
