MODEL 1
REMARK VINA RESULT:     -11.4      0.000      0.000
REMARK SMILES CC(C)C[C@H](C(=O)OCCOCCOC(=O)c1ccc(-c2c3nc(c(-c4cc(S(=O)(=O)[O-])ccc4F)c4ccc([nH]4)c(-c4cc(S(=O)(=O)[O-])ccc4F)c4nc(c(-c5cc(S(=O)(=O)[O-])ccc5F)c5ccc2[nH]5)C=C4)C=C3)cc1)N1C(=O)/C(=C2\C(=O)Nc3ccc(Br)cc32)SC1=S
REMARK SMILES IDX 12 1 11 2 10 3 9 4 8 5 6 6 7 7 5 8 4 9 2 10 1 11 3 12 80 13
REMARK SMILES IDX 81 14 96 15 82 16 83 17 95 18 97 19 84 20 85 21 94 22 86 23
REMARK SMILES IDX 87 24 88 25 93 26 89 28 91 29 90 30 92 31 13 32 14 33 15 34
REMARK SMILES IDX 16 35 17 36 18 37 79 38 19 39 78 40 20 41 21 42 22 43 72 44
REMARK SMILES IDX 23 45 77 46 71 47 73 48 24 49 76 50 70 51 69 52 25 54 57 55
REMARK SMILES IDX 37 56 56 57 38 58 41 59 55 60 74 61 39 62 40 63 54 65 75 66
REMARK SMILES IDX 42 67 26 68 27 69 35 70 28 71 34 72 36 73 33 74 29 75 30 76
REMARK SMILES IDX 31 77 32 78 58 79 59 80 67 81 60 82 66 83 68 84 65 85 61 86
REMARK SMILES IDX 62 87 63 88 64 89 43 90 44 91 52 92 45 93 51 94 53 95 50 96
REMARK SMILES IDX 46 97 47 98 48 99 49 100
REMARK H PARENT 87 27 73 53 41 64
REMARK Flexibility Score: inf
ROOT
ATOM      1  C   UNL A   1      32.698  32.104  27.369  1.00  0.00     0.202 C 
ENDROOT
BRANCH   1   2
ATOM      2  O   UNL A   1      33.874  31.307  27.270  1.00  0.00    -0.374 OA
BRANCH   2   3
ATOM      3  C   UNL A   1      33.720  29.889  27.244  1.00  0.00     0.202 C 
BRANCH   3   4
ATOM      4  C   UNL A   1      33.243  29.251  25.936  1.00  0.00     0.261 C 
BRANCH   4   5
ATOM      5  O   UNL A   1      31.844  28.886  25.979  1.00  0.00    -0.462 OA
BRANCH   5   6
ATOM      6  C   UNL A   1      31.057  29.569  25.104  1.00  0.00     0.329 C 
ATOM      7  O   UNL A   1      31.076  30.793  24.974  1.00  0.00    -0.250 OA
BRANCH   6   8
ATOM      8  C   UNL A   1      30.289  28.675  24.090  1.00  0.00     0.202 C 
BRANCH   8   9
ATOM      9  C   UNL A   1      29.706  29.746  23.094  1.00  0.00     0.040 C 
BRANCH   9  10
ATOM     10  C   UNL A   1      28.231  30.010  22.785  1.00  0.00    -0.015 C 
ATOM     11  C   UNL A   1      27.345  28.821  23.121  1.00  0.00     0.007 C 
ATOM     12  C   UNL A   1      27.747  31.237  23.581  1.00  0.00     0.007 C 
ENDBRANCH   9  10
ENDBRANCH   8   9
BRANCH   8  13
ATOM     13  N   UNL A   1      30.915  27.382  23.675  1.00  0.00    -0.278 N 
ATOM     14  C   UNL A   1      30.531  26.133  24.129  1.00  0.00     0.267 C 
ATOM     15  C   UNL A   1      32.159  27.360  23.056  1.00  0.00     0.149 C 
ATOM     16  O   UNL A   1      29.406  25.671  24.060  1.00  0.00    -0.268 OA
ATOM     17  C   UNL A   1      31.747  25.298  24.444  1.00  0.00     0.093 C 
ATOM     18  S   UNL A   1      32.973  25.827  23.357  1.00  0.00    -0.053 SA
ATOM     19  S   UNL A   1      32.938  28.559  22.195  1.00  0.00    -0.052 S 
ATOM     20  C   UNL A   1      31.905  24.387  25.424  1.00  0.00     0.069 C 
ATOM     21  C   UNL A   1      30.806  24.027  26.397  1.00  0.00     0.257 C 
ATOM     22  C   UNL A   1      33.089  23.582  25.843  1.00  0.00     0.013 A 
ATOM     23  O   UNL A   1      29.683  24.480  26.493  1.00  0.00    -0.269 OA
ATOM     24  N   UNL A   1      31.344  23.078  27.242  1.00  0.00    -0.321 N 
ATOM     25  C   UNL A   1      32.664  22.802  26.930  1.00  0.00     0.049 A 
ATOM     26  C   UNL A   1      34.410  23.471  25.431  1.00  0.00     0.026 A 
ATOM     27  H   UNL A   1      30.849  22.648  27.977  1.00  0.00     0.170 HD
ATOM     28  C   UNL A   1      33.472  21.898  27.598  1.00  0.00     0.028 A 
ATOM     29  C   UNL A   1      35.249  22.561  26.097  1.00  0.00     0.018 A 
ATOM     30  C   UNL A   1      34.787  21.773  27.164  1.00  0.00     0.018 A 
ATOM     31  Br  UNL A   1      37.056  22.386  25.557  1.00  0.00    -0.051 Br
ENDBRANCH   8  13
ENDBRANCH   6   8
ENDBRANCH   5   6
ENDBRANCH   4   5
ENDBRANCH   3   4
ENDBRANCH   2   3
ENDBRANCH   1   2
BRANCH   1  32
ATOM     32  C   UNL A   1      32.831  33.631  27.436  1.00  0.00     0.261 C 
BRANCH  32  33
ATOM     33  O   UNL A   1      32.510  34.195  28.716  1.00  0.00    -0.460 OA
BRANCH  33  34
ATOM     34  C   UNL A   1      33.543  34.853  29.302  1.00  0.00     0.338 C 
ATOM     35  O   UNL A   1      33.534  35.993  29.736  1.00  0.00    -0.246 OA
BRANCH  34  36
ATOM     36  C   UNL A   1      34.672  33.931  29.529  1.00  0.00     0.060 A 
ATOM     37  C   UNL A   1      34.441  32.806  30.331  1.00  0.00     0.016 A 
ATOM     38  C   UNL A   1      35.953  34.214  29.052  1.00  0.00     0.016 A 
ATOM     39  C   UNL A   1      35.499  31.980  30.696  1.00  0.00     0.010 A 
ATOM     40  C   UNL A   1      37.016  33.385  29.428  1.00  0.00     0.010 A 
ATOM     41  C   UNL A   1      36.801  32.284  30.279  1.00  0.00    -0.014 A 
BRANCH  41  42
ATOM     42  C   UNL A   1      37.945  31.534  30.857  1.00  0.00     0.031 A 
ATOM     43  C   UNL A   1      38.351  31.801  32.282  1.00  0.00     0.074 A 
ATOM     44  C   UNL A   1      38.585  30.596  30.135  1.00  0.00     0.049 A 
ATOM     45  N   UNL A   1      39.343  31.299  32.971  1.00  0.00    -0.248 NA
ATOM     46  C   UNL A   1      37.531  32.770  33.024  1.00  0.00     0.031 C 
ATOM     47  C   UNL A   1      38.246  30.212  28.765  1.00  0.00     0.029 A 
ATOM     48  N   UNL A   1      39.656  29.799  30.453  1.00  0.00    -0.354 N 
ATOM     49  C   UNL A   1      39.273  31.895  34.226  1.00  0.00     0.074 A 
ATOM     50  C   UNL A   1      38.165  32.827  34.185  1.00  0.00     0.031 C 
ATOM     51  C   UNL A   1      39.095  29.253  28.360  1.00  0.00     0.029 A 
ATOM     52  C   UNL A   1      40.067  28.990  29.419  1.00  0.00     0.049 A 
ATOM     53  H   UNL A   1      40.088  29.804  31.338  1.00  0.00     0.167 HD
ATOM     54  C   UNL A   1      40.056  31.679  35.312  1.00  0.00     0.034 A 
ATOM     55  C   UNL A   1      41.126  28.158  29.328  1.00  0.00     0.034 A 
ATOM     56  C   UNL A   1      41.161  30.751  35.332  1.00  0.00     0.049 A 
ATOM     57  C   UNL A   1      42.043  28.007  30.518  1.00  0.00     0.074 A 
ATOM     58  C   UNL A   1      42.008  30.443  36.382  1.00  0.00     0.029 A 
ATOM     59  N   UNL A   1      41.584  29.991  34.247  1.00  0.00    -0.354 N 
ATOM     60  N   UNL A   1      41.966  28.575  31.701  1.00  0.00    -0.248 NA
ATOM     61  C   UNL A   1      43.187  27.099  30.363  1.00  0.00     0.031 C 
ATOM     62  C   UNL A   1      42.993  29.568  35.911  1.00  0.00     0.029 A 
ATOM     63  C   UNL A   1      42.705  29.250  34.593  1.00  0.00     0.049 A 
ATOM     64  H   UNL A   1      41.153  29.980  33.364  1.00  0.00     0.167 HD
ATOM     65  C   UNL A   1      43.030  28.061  32.439  1.00  0.00     0.074 A 
ATOM     66  C   UNL A   1      43.725  27.130  31.574  1.00  0.00     0.031 C 
ATOM     67  C   UNL A   1      43.398  28.329  33.719  1.00  0.00     0.034 A 
BRANCH  54  68
ATOM     68  C   UNL A   1      39.778  32.503  36.548  1.00  0.00     0.023 A 
ATOM     69  C   UNL A   1      38.865  32.087  37.531  1.00  0.00     0.031 A 
ATOM     70  C   UNL A   1      40.424  33.739  36.734  1.00  0.00     0.131 A 
ATOM     71  C   UNL A   1      38.569  32.930  38.615  1.00  0.00     0.055 A 
ATOM     72  C   UNL A   1      40.191  34.533  37.858  1.00  0.00     0.041 A 
ATOM     73  F   UNL A   1      41.288  34.204  35.817  1.00  0.00    -0.206 F 
ATOM     74  C   UNL A   1      39.246  34.137  38.800  1.00  0.00     0.022 A 
BRANCH  71  75
ATOM     75  S   UNL A   1      37.177  32.497  39.695  1.00  0.00     0.124 S 
ATOM     76  O   UNL A   1      37.510  31.126  40.070  1.00  0.00    -0.237 OA
ATOM     77  O   UNL A   1      37.279  33.493  40.756  1.00  0.00    -0.237 OA
ATOM     78  O   UNL A   1      36.011  32.632  38.823  1.00  0.00    -0.744 OA
ENDBRANCH  71  75
ENDBRANCH  54  68
BRANCH  55  79
ATOM     79  C   UNL A   1      41.410  27.435  28.054  1.00  0.00     0.023 A 
ATOM     80  C   UNL A   1      41.254  26.044  27.956  1.00  0.00     0.031 A 
ATOM     81  C   UNL A   1      41.905  28.122  26.930  1.00  0.00     0.131 A 
ATOM     82  C   UNL A   1      41.636  25.378  26.779  1.00  0.00     0.055 A 
ATOM     83  C   UNL A   1      42.223  27.464  25.741  1.00  0.00     0.041 A 
ATOM     84  F   UNL A   1      42.084  29.453  26.970  1.00  0.00    -0.206 F 
ATOM     85  C   UNL A   1      42.103  26.080  25.667  1.00  0.00     0.022 A 
BRANCH  82  86
ATOM     86  S   UNL A   1      41.615  23.564  26.764  1.00  0.00     0.124 S 
ATOM     87  O   UNL A   1      42.426  23.269  25.589  1.00  0.00    -0.237 OA
ATOM     88  O   UNL A   1      42.213  23.243  28.055  1.00  0.00    -0.237 OA
ATOM     89  O   UNL A   1      40.195  23.242  26.639  1.00  0.00    -0.744 OA
ENDBRANCH  82  86
ENDBRANCH  55  79
BRANCH  67  90
ATOM     90  C   UNL A   1      44.574  27.562  34.280  1.00  0.00     0.023 A 
ATOM     91  C   UNL A   1      44.421  26.307  34.894  1.00  0.00     0.031 A 
ATOM     92  C   UNL A   1      45.871  28.103  34.202  1.00  0.00     0.131 A 
ATOM     93  C   UNL A   1      45.535  25.665  35.460  1.00  0.00     0.055 A 
ATOM     94  C   UNL A   1      46.984  27.427  34.702  1.00  0.00     0.041 A 
ATOM     95  F   UNL A   1      46.079  29.301  33.631  1.00  0.00    -0.206 F 
ATOM     96  C   UNL A   1      46.818  26.206  35.348  1.00  0.00     0.022 A 
BRANCH  93  97
ATOM     97  S   UNL A   1      45.270  24.159  36.437  1.00  0.00     0.124 S 
ATOM     98  O   UNL A   1      44.743  24.699  37.686  1.00  0.00    -0.237 OA
ATOM     99  O   UNL A   1      44.323  23.414  35.615  1.00  0.00    -0.237 OA
ATOM    100  O   UNL A   1      46.605  23.571  36.530  1.00  0.00    -0.744 OA
ENDBRANCH  93  97
ENDBRANCH  67  90
ENDBRANCH  41  42
ENDBRANCH  34  36
ENDBRANCH  33  34
ENDBRANCH  32  33
ENDBRANCH   1  32
TORSDOF 20
ENDMDL
MODEL 2
REMARK VINA RESULT:     -11.4      2.076      2.440
REMARK SMILES CC(C)C[C@H](C(=O)OCCOCCOC(=O)c1ccc(-c2c3nc(c(-c4cc(S(=O)(=O)[O-])ccc4F)c4ccc([nH]4)c(-c4cc(S(=O)(=O)[O-])ccc4F)c4nc(c(-c5cc(S(=O)(=O)[O-])ccc5F)c5ccc2[nH]5)C=C4)C=C3)cc1)N1C(=O)/C(=C2\C(=O)Nc3ccc(Br)cc32)SC1=S
REMARK SMILES IDX 12 1 11 2 10 3 9 4 8 5 6 6 7 7 5 8 4 9 2 10 1 11 3 12 80 13
REMARK SMILES IDX 81 14 96 15 82 16 83 17 95 18 97 19 84 20 85 21 94 22 86 23
REMARK SMILES IDX 87 24 88 25 93 26 89 28 91 29 90 30 92 31 13 32 14 33 15 34
REMARK SMILES IDX 16 35 17 36 18 37 79 38 19 39 78 40 20 41 21 42 22 43 72 44
REMARK SMILES IDX 23 45 77 46 71 47 73 48 24 49 76 50 70 51 69 52 25 54 57 55
REMARK SMILES IDX 37 56 56 57 38 58 41 59 55 60 74 61 39 62 40 63 54 65 75 66
REMARK SMILES IDX 42 67 26 68 27 69 35 70 28 71 34 72 36 73 33 74 29 75 30 76
REMARK SMILES IDX 31 77 32 78 58 79 59 80 67 81 60 82 66 83 68 84 65 85 61 86
REMARK SMILES IDX 62 87 63 88 64 89 43 90 44 91 52 92 45 93 51 94 53 95 50 96
REMARK SMILES IDX 46 97 47 98 48 99 49 100
REMARK H PARENT 87 27 73 53 41 64
REMARK Flexibility Score: inf
ROOT
ATOM      1  C   UNL A   1      33.848  31.691  28.059  1.00  0.00     0.202 C 
ENDROOT
BRANCH   1   2
ATOM      2  O   UNL A   1      34.671  30.843  27.265  1.00  0.00    -0.374 OA
BRANCH   2   3
ATOM      3  C   UNL A   1      34.394  29.443  27.276  1.00  0.00     0.202 C 
BRANCH   3   4
ATOM      4  C   UNL A   1      33.739  28.840  26.029  1.00  0.00     0.261 C 
BRANCH   4   5
ATOM      5  O   UNL A   1      32.335  28.557  26.228  1.00  0.00    -0.462 OA
BRANCH   5   6
ATOM      6  C   UNL A   1      31.493  29.371  25.534  1.00  0.00     0.329 C 
ATOM      7  O   UNL A   1      31.526  30.600  25.589  1.00  0.00    -0.250 OA
BRANCH   6   8
ATOM      8  C   UNL A   1      30.629  28.647  24.463  1.00  0.00     0.202 C 
BRANCH   8   9
ATOM      9  C   UNL A   1      30.100  29.857  23.605  1.00  0.00     0.040 C 
BRANCH   9  10
ATOM     10  C   UNL A   1      28.730  29.984  22.937  1.00  0.00    -0.015 C 
ATOM     11  C   UNL A   1      27.880  28.735  23.113  1.00  0.00     0.007 C 
ATOM     12  C   UNL A   1      27.977  31.191  23.526  1.00  0.00     0.007 C 
ENDBRANCH   9  10
ENDBRANCH   8   9
BRANCH   8  13
ATOM     13  N   UNL A   1      31.141  27.363  23.894  1.00  0.00    -0.278 N 
ATOM     14  C   UNL A   1      30.750  26.102  24.306  1.00  0.00     0.267 C 
ATOM     15  C   UNL A   1      32.306  27.334  23.136  1.00  0.00     0.149 C 
ATOM     16  O   UNL A   1      29.602  25.692  24.336  1.00  0.00    -0.268 OA
ATOM     17  C   UNL A   1      31.951  25.197  24.423  1.00  0.00     0.093 C 
ATOM     18  S   UNL A   1      33.072  25.751  23.239  1.00  0.00    -0.053 SA
ATOM     19  S   UNL A   1      33.040  28.558  22.272  1.00  0.00    -0.052 S 
ATOM     20  C   UNL A   1      32.173  24.213  25.316  1.00  0.00     0.069 C 
ATOM     21  C   UNL A   1      31.174  23.830  26.383  1.00  0.00     0.257 C 
ATOM     22  C   UNL A   1      33.356  23.333  25.543  1.00  0.00     0.013 A 
ATOM     23  O   UNL A   1      30.092  24.320  26.637  1.00  0.00    -0.269 OA
ATOM     24  N   UNL A   1      31.756  22.802  27.096  1.00  0.00    -0.321 N 
ATOM     25  C   UNL A   1      33.018  22.496  26.618  1.00  0.00     0.049 A 
ATOM     26  C   UNL A   1      34.616  23.198  24.975  1.00  0.00     0.026 A 
ATOM     27  H   UNL A   1      31.326  22.341  27.853  1.00  0.00     0.170 HD
ATOM     28  C   UNL A   1      33.851  21.514  27.127  1.00  0.00     0.028 A 
ATOM     29  C   UNL A   1      35.479  22.209  25.478  1.00  0.00     0.018 A 
ATOM     30  C   UNL A   1      35.102  21.367  26.537  1.00  0.00     0.018 A 
ATOM     31  Br  UNL A   1      37.204  21.999  24.724  1.00  0.00    -0.051 Br
ENDBRANCH   8  13
ENDBRANCH   6   8
ENDBRANCH   5   6
ENDBRANCH   4   5
ENDBRANCH   3   4
ENDBRANCH   2   3
ENDBRANCH   1   2
BRANCH   1  32
ATOM     32  C   UNL A   1      33.345  33.014  27.468  1.00  0.00     0.261 C 
BRANCH  32  33
ATOM     33  O   UNL A   1      32.676  33.864  28.412  1.00  0.00    -0.460 OA
BRANCH  33  34
ATOM     34  C   UNL A   1      33.425  34.914  28.835  1.00  0.00     0.338 C 
ATOM     35  O   UNL A   1      33.164  36.099  28.709  1.00  0.00    -0.246 OA
BRANCH  34  36
ATOM     36  C   UNL A   1      34.550  34.438  29.662  1.00  0.00     0.060 A 
ATOM     37  C   UNL A   1      35.842  34.563  29.136  1.00  0.00     0.016 A 
ATOM     38  C   UNL A   1      34.338  33.790  30.879  1.00  0.00     0.016 A 
ATOM     39  C   UNL A   1      36.926  34.005  29.805  1.00  0.00     0.010 A 
ATOM     40  C   UNL A   1      35.429  33.221  31.546  1.00  0.00     0.010 A 
ATOM     41  C   UNL A   1      36.723  33.296  30.996  1.00  0.00    -0.014 A 
BRANCH  41  42
ATOM     42  C   UNL A   1      37.844  32.514  31.579  1.00  0.00     0.031 A 
ATOM     43  C   UNL A   1      38.403  32.922  32.916  1.00  0.00     0.074 A 
ATOM     44  C   UNL A   1      38.328  31.431  30.945  1.00  0.00     0.049 A 
ATOM     45  N   UNL A   1      39.404  32.415  33.587  1.00  0.00    -0.248 NA
ATOM     46  C   UNL A   1      37.745  34.057  33.580  1.00  0.00     0.031 C 
ATOM     47  C   UNL A   1      37.830  30.908  29.673  1.00  0.00     0.029 A 
ATOM     48  N   UNL A   1      39.347  30.577  31.284  1.00  0.00    -0.354 N 
ATOM     49  C   UNL A   1      39.505  33.174  34.749  1.00  0.00     0.074 A 
ATOM     50  C   UNL A   1      38.486  34.200  34.667  1.00  0.00     0.031 C 
ATOM     51  C   UNL A   1      38.548  29.823  29.338  1.00  0.00     0.029 A 
ATOM     52  C   UNL A   1      39.586  29.603  30.343  1.00  0.00     0.049 A 
ATOM     53  H   UNL A   1      39.858  30.653  32.123  1.00  0.00     0.167 HD
ATOM     54  C   UNL A   1      40.362  33.022  35.789  1.00  0.00     0.034 A 
ATOM     55  C   UNL A   1      40.553  28.662  30.284  1.00  0.00     0.034 A 
ATOM     56  C   UNL A   1      41.377  31.997  35.849  1.00  0.00     0.049 A 
ATOM     57  C   UNL A   1      41.559  28.575  31.406  1.00  0.00     0.074 A 
ATOM     58  C   UNL A   1      42.286  31.743  36.862  1.00  0.00     0.029 A 
ATOM     59  N   UNL A   1      41.627  31.063  34.850  1.00  0.00    -0.354 N 
ATOM     60  N   UNL A   1      41.643  29.297  32.502  1.00  0.00    -0.248 NA
ATOM     61  C   UNL A   1      42.597  27.543  31.289  1.00  0.00     0.031 C 
ATOM     62  C   UNL A   1      43.140  30.719  36.439  1.00  0.00     0.029 A 
ATOM     63  C   UNL A   1      42.704  30.263  35.205  1.00  0.00     0.049 A 
ATOM     64  H   UNL A   1      41.116  30.982  34.013  1.00  0.00     0.167 HD
ATOM     65  C   UNL A   1      42.720  28.778  33.217  1.00  0.00     0.074 A 
ATOM     66  C   UNL A   1      43.245  27.677  32.436  1.00  0.00     0.031 C 
ATOM     67  C   UNL A   1      43.227  29.171  34.415  1.00  0.00     0.034 A 
BRANCH  54  68
ATOM     68  C   UNL A   1      40.275  34.024  36.917  1.00  0.00     0.023 A 
ATOM     69  C   UNL A   1      41.214  35.058  37.069  1.00  0.00     0.031 A 
ATOM     70  C   UNL A   1      39.246  33.928  37.871  1.00  0.00     0.131 A 
ATOM     71  C   UNL A   1      41.148  35.907  38.185  1.00  0.00     0.055 A 
ATOM     72  C   UNL A   1      39.134  34.830  38.931  1.00  0.00     0.041 A 
ATOM     73  F   UNL A   1      38.333  32.946  37.797  1.00  0.00    -0.206 F 
ATOM     74  C   UNL A   1      40.098  35.818  39.101  1.00  0.00     0.022 A 
BRANCH  71  75
ATOM     75  S   UNL A   1      42.537  37.030  38.504  1.00  0.00     0.124 S 
ATOM     76  O   UNL A   1      43.481  36.146  39.182  1.00  0.00    -0.237 OA
ATOM     77  O   UNL A   1      42.912  37.458  37.161  1.00  0.00    -0.237 OA
ATOM     78  O   UNL A   1      41.950  38.069  39.349  1.00  0.00    -0.744 OA
ENDBRANCH  71  75
ENDBRANCH  54  68
BRANCH  55  79
ATOM     79  C   UNL A   1      40.652  27.755  29.104  1.00  0.00     0.023 A 
ATOM     80  C   UNL A   1      41.576  27.995  28.076  1.00  0.00     0.031 A 
ATOM     81  C   UNL A   1      39.776  26.662  28.958  1.00  0.00     0.131 A 
ATOM     82  C   UNL A   1      41.570  27.188  26.926  1.00  0.00     0.055 A 
ATOM     83  C   UNL A   1      39.817  25.825  27.843  1.00  0.00     0.041 A 
ATOM     84  F   UNL A   1      38.865  26.391  29.907  1.00  0.00    -0.206 F 
ATOM     85  C   UNL A   1      40.709  26.095  26.811  1.00  0.00     0.022 A 
BRANCH  82  86
ATOM     86  S   UNL A   1      42.635  27.655  25.533  1.00  0.00     0.124 S 
ATOM     87  O   UNL A   1      41.930  28.814  24.997  1.00  0.00    -0.237 OA
ATOM     88  O   UNL A   1      43.904  27.926  26.199  1.00  0.00    -0.237 OA
ATOM     89  O   UNL A   1      42.621  26.467  24.682  1.00  0.00    -0.744 OA
ENDBRANCH  82  86
ENDBRANCH  55  79
BRANCH  67  90
ATOM     90  C   UNL A   1      44.376  28.368  34.980  1.00  0.00     0.023 A 
ATOM     91  C   UNL A   1      44.169  27.203  35.740  1.00  0.00     0.031 A 
ATOM     92  C   UNL A   1      45.703  28.782  34.760  1.00  0.00     0.131 A 
ATOM     93  C   UNL A   1      45.266  26.529  36.301  1.00  0.00     0.055 A 
ATOM     94  C   UNL A   1      46.792  28.068  35.260  1.00  0.00     0.041 A 
ATOM     95  F   UNL A   1      45.963  29.890  34.047  1.00  0.00    -0.206 F 
ATOM     96  C   UNL A   1      46.576  26.942  36.047  1.00  0.00     0.022 A 
BRANCH  93  97
ATOM     97  S   UNL A   1      44.954  25.165  37.455  1.00  0.00     0.124 S 
ATOM     98  O   UNL A   1      45.665  24.061  36.818  1.00  0.00    -0.237 OA
ATOM     99  O   UNL A   1      45.537  25.665  38.696  1.00  0.00    -0.237 OA
ATOM    100  O   UNL A   1      43.498  25.045  37.460  1.00  0.00    -0.744 OA
ENDBRANCH  93  97
ENDBRANCH  67  90
ENDBRANCH  41  42
ENDBRANCH  34  36
ENDBRANCH  33  34
ENDBRANCH  32  33
ENDBRANCH   1  32
TORSDOF 20
ENDMDL
MODEL 3
REMARK VINA RESULT:     -11.3      2.089      7.514
REMARK SMILES CC(C)C[C@H](C(=O)OCCOCCOC(=O)c1ccc(-c2c3nc(c(-c4cc(S(=O)(=O)[O-])ccc4F)c4ccc([nH]4)c(-c4cc(S(=O)(=O)[O-])ccc4F)c4nc(c(-c5cc(S(=O)(=O)[O-])ccc5F)c5ccc2[nH]5)C=C4)C=C3)cc1)N1C(=O)/C(=C2\C(=O)Nc3ccc(Br)cc32)SC1=S
REMARK SMILES IDX 12 1 11 2 10 3 9 4 8 5 6 6 7 7 5 8 4 9 2 10 1 11 3 12 80 13
REMARK SMILES IDX 81 14 96 15 82 16 83 17 95 18 97 19 84 20 85 21 94 22 86 23
REMARK SMILES IDX 87 24 88 25 93 26 89 28 91 29 90 30 92 31 13 32 14 33 15 34
REMARK SMILES IDX 16 35 17 36 18 37 79 38 19 39 78 40 20 41 21 42 22 43 72 44
REMARK SMILES IDX 23 45 77 46 71 47 73 48 24 49 76 50 70 51 69 52 25 54 57 55
REMARK SMILES IDX 37 56 56 57 38 58 41 59 55 60 74 61 39 62 40 63 54 65 75 66
REMARK SMILES IDX 42 67 26 68 27 69 35 70 28 71 34 72 36 73 33 74 29 75 30 76
REMARK SMILES IDX 31 77 32 78 58 79 59 80 67 81 60 82 66 83 68 84 65 85 61 86
REMARK SMILES IDX 62 87 63 88 64 89 43 90 44 91 52 92 45 93 51 94 53 95 50 96
REMARK SMILES IDX 46 97 47 98 48 99 49 100
REMARK H PARENT 87 27 73 53 41 64
REMARK Flexibility Score: inf
ROOT
ATOM      1  C   UNL A   1      34.976  31.663  27.638  1.00  0.00     0.202 C 
ENDROOT
BRANCH   1   2
ATOM      2  O   UNL A   1      35.207  30.398  28.249  1.00  0.00    -0.374 OA
BRANCH   2   3
ATOM      3  C   UNL A   1      34.586  29.251  27.668  1.00  0.00     0.202 C 
BRANCH   3   4
ATOM      4  C   UNL A   1      33.909  29.426  26.305  1.00  0.00     0.261 C 
BRANCH   4   5
ATOM      5  O   UNL A   1      32.590  28.834  26.267  1.00  0.00    -0.462 OA
BRANCH   5   6
ATOM      6  C   UNL A   1      31.643  29.608  25.668  1.00  0.00     0.329 C 
ATOM      7  O   UNL A   1      31.608  30.836  25.749  1.00  0.00    -0.250 OA
BRANCH   6   8
ATOM      8  C   UNL A   1      30.731  28.852  24.661  1.00  0.00     0.202 C 
BRANCH   8   9
ATOM      9  C   UNL A   1      30.115  30.040  23.831  1.00  0.00     0.040 C 
BRANCH   9  10
ATOM     10  C   UNL A   1      28.815  30.024  23.025  1.00  0.00    -0.015 C 
ATOM     11  C   UNL A   1      27.811  31.053  23.521  1.00  0.00     0.007 C 
ATOM     12  C   UNL A   1      29.123  30.298  21.541  1.00  0.00     0.007 C 
ENDBRANCH   9  10
ENDBRANCH   8   9
BRANCH   8  13
ATOM     13  N   UNL A   1      31.240  27.577  24.068  1.00  0.00    -0.278 N 
ATOM     14  C   UNL A   1      30.808  26.311  24.419  1.00  0.00     0.267 C 
ATOM     15  C   UNL A   1      32.434  27.549  23.357  1.00  0.00     0.149 C 
ATOM     16  O   UNL A   1      29.652  25.925  24.390  1.00  0.00    -0.268 OA
ATOM     17  C   UNL A   1      31.985  25.378  24.552  1.00  0.00     0.093 C 
ATOM     18  S   UNL A   1      33.164  25.948  23.435  1.00  0.00    -0.053 SA
ATOM     19  S   UNL A   1      33.227  28.787  22.567  1.00  0.00    -0.052 S 
ATOM     20  C   UNL A   1      32.151  24.359  25.419  1.00  0.00     0.069 C 
ATOM     21  C   UNL A   1      31.101  23.961  26.431  1.00  0.00     0.257 C 
ATOM     22  C   UNL A   1      33.306  23.447  25.661  1.00  0.00     0.013 A 
ATOM     23  O   UNL A   1      30.020  24.465  26.658  1.00  0.00    -0.269 OA
ATOM     24  N   UNL A   1      31.634  22.897  27.130  1.00  0.00    -0.321 N 
ATOM     25  C   UNL A   1      32.908  22.580  26.692  1.00  0.00     0.049 A 
ATOM     26  C   UNL A   1      34.584  23.304  25.139  1.00  0.00     0.026 A 
ATOM     27  H   UNL A   1      31.164  22.420  27.852  1.00  0.00     0.170 HD
ATOM     28  C   UNL A   1      33.699  21.564  27.199  1.00  0.00     0.028 A 
ATOM     29  C   UNL A   1      35.407  22.281  25.642  1.00  0.00     0.018 A 
ATOM     30  C   UNL A   1      34.970  21.411  26.655  1.00  0.00     0.018 A 
ATOM     31  Br  UNL A   1      37.156  22.060  24.950  1.00  0.00    -0.051 Br
ENDBRANCH   8  13
ENDBRANCH   6   8
ENDBRANCH   5   6
ENDBRANCH   4   5
ENDBRANCH   3   4
ENDBRANCH   2   3
ENDBRANCH   1   2
BRANCH   1  32
ATOM     32  C   UNL A   1      33.660  32.401  27.917  1.00  0.00     0.261 C 
BRANCH  32  33
ATOM     33  O   UNL A   1      33.785  33.830  27.964  1.00  0.00    -0.460 OA
BRANCH  33  34
ATOM     34  C   UNL A   1      33.621  34.356  29.205  1.00  0.00     0.338 C 
ATOM     35  O   UNL A   1      32.648  34.962  29.621  1.00  0.00    -0.246 OA
BRANCH  34  36
ATOM     36  C   UNL A   1      34.724  33.934  30.088  1.00  0.00     0.060 A 
ATOM     37  C   UNL A   1      36.015  34.378  29.773  1.00  0.00     0.016 A 
ATOM     38  C   UNL A   1      34.517  33.042  31.141  1.00  0.00     0.016 A 
ATOM     39  C   UNL A   1      37.111  33.899  30.483  1.00  0.00     0.010 A 
ATOM     40  C   UNL A   1      35.622  32.555  31.848  1.00  0.00     0.010 A 
ATOM     41  C   UNL A   1      36.927  32.955  31.501  1.00  0.00    -0.014 A 
BRANCH  41  42
ATOM     42  C   UNL A   1      38.112  32.283  32.095  1.00  0.00     0.031 A 
ATOM     43  C   UNL A   1      38.779  31.169  31.333  1.00  0.00     0.074 A 
ATOM     44  C   UNL A   1      38.611  32.690  33.276  1.00  0.00     0.049 A 
ATOM     45  N   UNL A   1      39.791  30.416  31.679  1.00  0.00    -0.248 NA
ATOM     46  C   UNL A   1      38.225  30.861  30.007  1.00  0.00     0.031 C 
ATOM     47  C   UNL A   1      38.083  33.793  34.078  1.00  0.00     0.029 A 
ATOM     48  N   UNL A   1      39.672  32.220  34.008  1.00  0.00    -0.354 N 
ATOM     49  C   UNL A   1      39.992  29.539  30.619  1.00  0.00     0.074 A 
ATOM     50  C   UNL A   1      38.967  29.829  29.637  1.00  0.00     0.031 C 
ATOM     51  C   UNL A   1      38.823  33.913  35.193  1.00  0.00     0.029 A 
ATOM     52  C   UNL A   1      39.843  32.867  35.209  1.00  0.00     0.049 A 
ATOM     53  H   UNL A   1      40.257  31.489  33.702  1.00  0.00     0.167 HD
ATOM     54  C   UNL A   1      40.947  28.586  30.476  1.00  0.00     0.034 A 
ATOM     55  C   UNL A   1      40.702  32.622  36.220  1.00  0.00     0.034 A 
ATOM     56  C   UNL A   1      41.956  28.306  31.470  1.00  0.00     0.049 A 
ATOM     57  C   UNL A   1      41.693  31.491  36.081  1.00  0.00     0.074 A 
ATOM     58  C   UNL A   1      42.979  27.376  31.419  1.00  0.00     0.029 A 
ATOM     59  N   UNL A   1      42.062  28.944  32.700  1.00  0.00    -0.354 N 
ATOM     60  N   UNL A   1      41.875  30.668  35.072  1.00  0.00    -0.248 NA
ATOM     61  C   UNL A   1      42.599  31.259  37.214  1.00  0.00     0.031 C 
ATOM     62  C   UNL A   1      43.645  27.389  32.649  1.00  0.00     0.029 A 
ATOM     63  C   UNL A   1      43.105  28.396  33.432  1.00  0.00     0.049 A 
ATOM     64  H   UNL A   1      41.482  29.677  33.007  1.00  0.00     0.167 HD
ATOM     65  C   UNL A   1      42.940  29.848  35.438  1.00  0.00     0.074 A 
ATOM     66  C   UNL A   1      43.367  30.283  36.752  1.00  0.00     0.031 C 
ATOM     67  C   UNL A   1      43.518  28.831  34.748  1.00  0.00     0.034 A 
BRANCH  54  68
ATOM     68  C   UNL A   1      40.906  27.740  29.224  1.00  0.00     0.023 A 
ATOM     69  C   UNL A   1      41.816  27.925  28.170  1.00  0.00     0.031 A 
ATOM     70  C   UNL A   1      39.924  26.744  29.075  1.00  0.00     0.131 A 
ATOM     71  C   UNL A   1      41.681  27.180  26.988  1.00  0.00     0.055 A 
ATOM     72  C   UNL A   1      39.849  25.945  27.933  1.00  0.00     0.041 A 
ATOM     73  F   UNL A   1      39.009  26.536  30.036  1.00  0.00    -0.206 F 
ATOM     74  C   UNL A   1      40.722  26.171  26.873  1.00  0.00     0.022 A 
BRANCH  71  75
ATOM     75  S   UNL A   1      42.678  27.650  25.547  1.00  0.00     0.124 S 
ATOM     76  O   UNL A   1      43.967  27.949  26.165  1.00  0.00    -0.237 OA
ATOM     77  O   UNL A   1      42.627  26.448  24.722  1.00  0.00    -0.237 OA
ATOM     78  O   UNL A   1      41.971  28.809  25.005  1.00  0.00    -0.744 OA
ENDBRANCH  71  75
ENDBRANCH  54  68
BRANCH  55  79
ATOM     79  C   UNL A   1      40.643  33.428  37.475  1.00  0.00     0.023 A 
ATOM     80  C   UNL A   1      41.570  34.450  37.729  1.00  0.00     0.031 A 
ATOM     81  C   UNL A   1      39.689  33.143  38.470  1.00  0.00     0.131 A 
ATOM     82  C   UNL A   1      41.558  35.115  38.967  1.00  0.00     0.055 A 
ATOM     83  C   UNL A   1      39.640  33.850  39.672  1.00  0.00     0.041 A 
ATOM     84  F   UNL A   1      38.783  32.170  38.284  1.00  0.00    -0.206 F 
ATOM     85  C   UNL A   1      40.588  34.834  39.931  1.00  0.00     0.022 A 
BRANCH  82  86
ATOM     86  S   UNL A   1      42.897  36.281  39.338  1.00  0.00     0.124 S 
ATOM     87  O   UNL A   1      42.575  36.675  40.705  1.00  0.00    -0.237 OA
ATOM     88  O   UNL A   1      44.081  35.445  39.173  1.00  0.00    -0.237 OA
ATOM     89  O   UNL A   1      42.727  37.326  38.330  1.00  0.00    -0.744 OA
ENDBRANCH  82  86
ENDBRANCH  55  79
BRANCH  67  90
ATOM     90  C   UNL A   1      44.714  28.155  35.379  1.00  0.00     0.023 A 
ATOM     91  C   UNL A   1      44.580  27.041  36.227  1.00  0.00     0.031 A 
ATOM     92  C   UNL A   1      46.012  28.641  35.132  1.00  0.00     0.131 A 
ATOM     93  C   UNL A   1      45.716  26.490  36.843  1.00  0.00     0.055 A 
ATOM     94  C   UNL A   1      47.142  28.044  35.691  1.00  0.00     0.041 A 
ATOM     95  F   UNL A   1      46.203  29.706  34.336  1.00  0.00    -0.206 F 
ATOM     96  C   UNL A   1      46.997  26.970  36.563  1.00  0.00     0.022 A 
BRANCH  93  97
ATOM     97  S   UNL A   1      45.487  25.201  38.100  1.00  0.00     0.124 S 
ATOM     98  O   UNL A   1      44.912  24.113  37.315  1.00  0.00    -0.237 OA
ATOM     99  O   UNL A   1      46.848  24.988  38.581  1.00  0.00    -0.237 OA
ATOM    100  O   UNL A   1      44.579  25.819  39.064  1.00  0.00    -0.744 OA
ENDBRANCH  93  97
ENDBRANCH  67  90
ENDBRANCH  41  42
ENDBRANCH  34  36
ENDBRANCH  33  34
ENDBRANCH  32  33
ENDBRANCH   1  32
TORSDOF 20
ENDMDL
