MODEL 1
REMARK VINA RESULT:     -11.9      0.000      0.000
REMARK SMILES C[C@H]1CC[C@@](C[C@@H]2CCCc3ccccc32)(C(=O)OCCOCCOC(=O)c2ccc(-c3c4nc(c(-c5cc(S(=O)(=O)[O-])ccc5F)c5ccc([nH]5)c(-c5cc(S(=O)(=O)[O-])ccc5F)c5nc(c(-c6cc(S(=O)(=O)[O-])ccc6F)c6ccc3[nH]6)C=C5)C=C4)cc2)C1
REMARK SMILES IDX 23 1 22 2 21 3 20 4 19 5 17 6 18 7 5 8 1 9 2 10 3 11 91 12
REMARK SMILES IDX 4 13 6 14 7 15 8 16 16 17 9 18 11 19 15 20 10 21 12 22 14 23
REMARK SMILES IDX 13 24 24 25 25 26 26 27 27 28 28 29 29 30 90 31 30 32 89 33
REMARK SMILES IDX 31 34 32 35 33 36 83 37 34 38 88 39 82 40 84 41 35 42 87 43
REMARK SMILES IDX 81 44 80 45 36 47 68 48 48 49 67 50 49 51 52 52 66 53 85 54
REMARK SMILES IDX 50 55 51 56 65 58 86 59 53 60 37 61 38 62 46 63 39 64 45 65
REMARK SMILES IDX 47 66 44 67 40 68 41 69 42 70 43 71 69 72 70 73 78 74 71 75
REMARK SMILES IDX 77 76 79 77 76 78 72 79 73 80 74 81 75 82 54 83 55 84 63 85
REMARK SMILES IDX 56 86 62 87 64 88 61 89 57 90 58 91 59 92 60 93
REMARK H PARENT 84 46 52 57
REMARK Flexibility Score: inf
ROOT
ATOM      1  C   UNL A   1      31.645  29.841  25.138  1.00  0.00     0.202 C 
ENDROOT
BRANCH   1   2
ATOM      2  O   UNL A   1      30.542  29.567  24.279  1.00  0.00    -0.374 OA
BRANCH   2   3
ATOM      3  C   UNL A   1      30.860  28.944  23.031  1.00  0.00     0.202 C 
BRANCH   3   4
ATOM      4  C   UNL A   1      32.131  28.086  23.049  1.00  0.00     0.261 C 
BRANCH   4   5
ATOM      5  O   UNL A   1      31.843  26.773  22.518  1.00  0.00    -0.463 OA
BRANCH   5   6
ATOM      6  C   UNL A   1      32.871  25.940  22.255  1.00  0.00     0.312 C 
ATOM      7  O   UNL A   1      33.653  26.130  21.331  1.00  0.00    -0.252 OA
BRANCH   6   8
ATOM      8  C   UNL A   1      32.945  24.750  23.260  1.00  0.00     0.069 C 
ATOM      9  C   UNL A   1      36.333  22.916  23.348  1.00  0.00     0.007 C 
ATOM     10  C   UNL A   1      34.944  23.349  23.795  1.00  0.00    -0.013 C 
ATOM     11  C   UNL A   1      34.994  24.604  24.650  1.00  0.00     0.004 C 
ATOM     12  C   UNL A   1      34.021  23.768  22.648  1.00  0.00     0.022 C 
ATOM     13  C   UNL A   1      33.545  25.057  24.653  1.00  0.00     0.019 C 
BRANCH   8  14
ATOM     14  C   UNL A   1      31.547  24.051  23.375  1.00  0.00     0.027 C 
BRANCH  14  15
ATOM     15  C   UNL A   1      31.119  23.106  24.571  1.00  0.00     0.020 C 
ATOM     16  C   UNL A   1      30.695  23.778  25.887  1.00  0.00     0.009 C 
ATOM     17  C   UNL A   1      32.024  21.907  24.829  1.00  0.00    -0.042 A 
ATOM     18  C   UNL A   1      31.836  23.978  26.875  1.00  0.00     0.005 C 
ATOM     19  C   UNL A   1      32.746  21.765  26.031  1.00  0.00    -0.045 A 
ATOM     20  C   UNL A   1      32.158  20.911  23.847  1.00  0.00     0.004 A 
ATOM     21  C   UNL A   1      32.564  22.690  27.203  1.00  0.00     0.036 C 
ATOM     22  C   UNL A   1      33.639  20.693  26.190  1.00  0.00     0.004 A 
ATOM     23  C   UNL A   1      33.029  19.835  24.029  1.00  0.00     0.000 A 
ATOM     24  C   UNL A   1      33.787  19.738  25.190  1.00  0.00     0.000 A 
ENDBRANCH  14  15
ENDBRANCH   8  14
ENDBRANCH   6   8
ENDBRANCH   5   6
ENDBRANCH   4   5
ENDBRANCH   3   4
ENDBRANCH   2   3
ENDBRANCH   1   2
BRANCH   1  25
ATOM     25  C   UNL A   1      31.485  31.035  26.085  1.00  0.00     0.261 C 
BRANCH  25  26
ATOM     26  O   UNL A   1      32.338  30.941  27.240  1.00  0.00    -0.460 OA
BRANCH  26  27
ATOM     27  C   UNL A   1      33.125  32.024  27.441  1.00  0.00     0.338 C 
ATOM     28  O   UNL A   1      32.782  33.198  27.373  1.00  0.00    -0.246 OA
BRANCH  27  29
ATOM     29  C   UNL A   1      34.456  31.612  27.923  1.00  0.00     0.060 A 
ATOM     30  C   UNL A   1      34.641  30.260  28.235  1.00  0.00     0.016 A 
ATOM     31  C   UNL A   1      35.484  32.532  28.138  1.00  0.00     0.016 A 
ATOM     32  C   UNL A   1      35.834  29.833  28.814  1.00  0.00     0.010 A 
ATOM     33  C   UNL A   1      36.691  32.097  28.700  1.00  0.00     0.010 A 
ATOM     34  C   UNL A   1      36.856  30.753  29.085  1.00  0.00    -0.014 A 
BRANCH  34  35
ATOM     35  C   UNL A   1      38.020  30.338  29.913  1.00  0.00     0.031 A 
ATOM     36  C   UNL A   1      39.003  29.346  29.348  1.00  0.00     0.074 A 
ATOM     37  C   UNL A   1      38.222  30.854  31.139  1.00  0.00     0.049 A 
ATOM     38  N   UNL A   1      40.063  28.813  29.902  1.00  0.00    -0.248 NA
ATOM     39  C   UNL A   1      38.743  28.883  27.978  1.00  0.00     0.031 C 
ATOM     40  C   UNL A   1      37.362  31.841  31.789  1.00  0.00     0.029 A 
ATOM     41  N   UNL A   1      39.213  30.611  32.058  1.00  0.00    -0.354 N 
ATOM     42  C   UNL A   1      40.586  27.938  28.955  1.00  0.00     0.074 A 
ATOM     43  C   UNL A   1      39.694  27.978  27.815  1.00  0.00     0.031 C 
ATOM     44  C   UNL A   1      37.857  32.112  33.008  1.00  0.00     0.029 A 
ATOM     45  C   UNL A   1      39.042  31.287  33.244  1.00  0.00     0.049 A 
ATOM     46  H   UNL A   1      39.974  30.010  31.886  1.00  0.00     0.167 HD
ATOM     47  C   UNL A   1      41.711  27.182  29.022  1.00  0.00     0.034 A 
ATOM     48  C   UNL A   1      39.737  31.226  34.397  1.00  0.00     0.034 A 
ATOM     49  C   UNL A   1      42.588  27.153  30.168  1.00  0.00     0.049 A 
ATOM     50  C   UNL A   1      40.946  30.328  34.486  1.00  0.00     0.074 A 
ATOM     51  C   UNL A   1      43.777  26.461  30.325  1.00  0.00     0.029 A 
ATOM     52  N   UNL A   1      42.363  27.825  31.365  1.00  0.00    -0.354 N 
ATOM     53  N   UNL A   1      41.451  29.529  33.573  1.00  0.00    -0.248 NA
ATOM     54  C   UNL A   1      41.684  30.328  35.756  1.00  0.00     0.031 C 
ATOM     55  C   UNL A   1      44.219  26.639  31.641  1.00  0.00     0.029 A 
ATOM     56  C   UNL A   1      43.362  27.523  32.279  1.00  0.00     0.049 A 
ATOM     57  H   UNL A   1      41.604  28.428  31.537  1.00  0.00     0.167 HD
ATOM     58  C   UNL A   1      42.580  28.952  34.152  1.00  0.00     0.074 A 
ATOM     59  C   UNL A   1      42.686  29.502  35.489  1.00  0.00     0.031 C 
ATOM     60  C   UNL A   1      43.454  28.058  33.620  1.00  0.00     0.034 A 
BRANCH  47  61
ATOM     61  C   UNL A   1      42.010  26.281  27.845  1.00  0.00     0.023 A 
ATOM     62  C   UNL A   1      41.561  24.948  27.793  1.00  0.00     0.031 A 
ATOM     63  C   UNL A   1      42.815  26.741  26.787  1.00  0.00     0.131 A 
ATOM     64  C   UNL A   1      42.008  24.098  26.770  1.00  0.00     0.055 A 
ATOM     65  C   UNL A   1      43.172  25.917  25.718  1.00  0.00     0.041 A 
ATOM     66  F   UNL A   1      43.295  27.995  26.786  1.00  0.00    -0.206 F 
ATOM     67  C   UNL A   1      42.788  24.580  25.717  1.00  0.00     0.022 A 
BRANCH  64  68
ATOM     68  S   UNL A   1      41.727  22.313  26.947  1.00  0.00     0.124 S 
ATOM     69  O   UNL A   1      40.317  22.274  27.330  1.00  0.00    -0.237 OA
ATOM     70  O   UNL A   1      42.042  21.812  25.616  1.00  0.00    -0.237 OA
ATOM     71  O   UNL A   1      42.660  21.923  28.002  1.00  0.00    -0.744 OA
ENDBRANCH  64  68
ENDBRANCH  47  61
BRANCH  48  72
ATOM     72  C   UNL A   1      39.268  32.001  35.583  1.00  0.00     0.023 A 
ATOM     73  C   UNL A   1      38.519  31.403  36.607  1.00  0.00     0.031 A 
ATOM     74  C   UNL A   1      39.566  33.372  35.697  1.00  0.00     0.131 A 
ATOM     75  C   UNL A   1      38.076  32.179  37.692  1.00  0.00     0.055 A 
ATOM     76  C   UNL A   1      39.166  34.126  36.799  1.00  0.00     0.041 A 
ATOM     77  F   UNL A   1      40.278  33.992  34.742  1.00  0.00    -0.206 F 
ATOM     78  C   UNL A   1      38.409  33.531  37.802  1.00  0.00     0.022 A 
BRANCH  75  79
ATOM     79  S   UNL A   1      37.009  31.408  38.940  1.00  0.00     0.124 S 
ATOM     80  O   UNL A   1      37.836  31.503  40.137  1.00  0.00    -0.237 OA
ATOM     81  O   UNL A   1      35.830  32.267  38.904  1.00  0.00    -0.237 OA
ATOM     82  O   UNL A   1      36.805  30.055  38.425  1.00  0.00    -0.744 OA
ENDBRANCH  75  79
ENDBRANCH  48  72
BRANCH  60  83
ATOM     83  C   UNL A   1      44.635  27.644  34.472  1.00  0.00     0.023 A 
ATOM     84  C   UNL A   1      44.647  26.443  35.201  1.00  0.00     0.031 A 
ATOM     85  C   UNL A   1      45.774  28.468  34.540  1.00  0.00     0.131 A 
ATOM     86  C   UNL A   1      45.755  26.122  36.003  1.00  0.00     0.055 A 
ATOM     87  C   UNL A   1      46.898  28.112  35.288  1.00  0.00     0.041 A 
ATOM     88  F   UNL A   1      45.819  29.630  33.870  1.00  0.00    -0.206 F 
ATOM     89  C   UNL A   1      46.888  26.938  36.034  1.00  0.00     0.022 A 
BRANCH  86  90
ATOM     90  S   UNL A   1      45.663  24.664  37.080  1.00  0.00     0.124 S 
ATOM     91  O   UNL A   1      47.013  24.611  37.633  1.00  0.00    -0.237 OA
ATOM     92  O   UNL A   1      44.606  25.031  38.016  1.00  0.00    -0.237 OA
ATOM     93  O   UNL A   1      45.328  23.579  36.161  1.00  0.00    -0.744 OA
ENDBRANCH  86  90
ENDBRANCH  60  83
ENDBRANCH  34  35
ENDBRANCH  27  29
ENDBRANCH  26  27
ENDBRANCH  25  26
ENDBRANCH   1  25
TORSDOF 19
ENDMDL
MODEL 2
REMARK VINA RESULT:     -11.8      1.507      7.543
REMARK SMILES C[C@H]1CC[C@@](C[C@@H]2CCCc3ccccc32)(C(=O)OCCOCCOC(=O)c2ccc(-c3c4nc(c(-c5cc(S(=O)(=O)[O-])ccc5F)c5ccc([nH]5)c(-c5cc(S(=O)(=O)[O-])ccc5F)c5nc(c(-c6cc(S(=O)(=O)[O-])ccc6F)c6ccc3[nH]6)C=C5)C=C4)cc2)C1
REMARK SMILES IDX 23 1 22 2 21 3 20 4 19 5 17 6 18 7 5 8 1 9 2 10 3 11 91 12
REMARK SMILES IDX 4 13 6 14 7 15 8 16 16 17 9 18 11 19 15 20 10 21 12 22 14 23
REMARK SMILES IDX 13 24 24 25 25 26 26 27 27 28 28 29 29 30 90 31 30 32 89 33
REMARK SMILES IDX 31 34 32 35 33 36 83 37 34 38 88 39 82 40 84 41 35 42 87 43
REMARK SMILES IDX 81 44 80 45 36 47 68 48 48 49 67 50 49 51 52 52 66 53 85 54
REMARK SMILES IDX 50 55 51 56 65 58 86 59 53 60 37 61 38 62 46 63 39 64 45 65
REMARK SMILES IDX 47 66 44 67 40 68 41 69 42 70 43 71 69 72 70 73 78 74 71 75
REMARK SMILES IDX 77 76 79 77 76 78 72 79 73 80 74 81 75 82 54 83 55 84 63 85
REMARK SMILES IDX 56 86 62 87 64 88 61 89 57 90 58 91 59 92 60 93
REMARK H PARENT 84 46 52 57
REMARK Flexibility Score: inf
ROOT
ATOM      1  C   UNL A   1      31.528  29.691  25.531  1.00  0.00     0.202 C 
ENDROOT
BRANCH   1   2
ATOM      2  O   UNL A   1      30.957  29.615  24.228  1.00  0.00    -0.374 OA
BRANCH   2   3
ATOM      3  C   UNL A   1      31.291  28.451  23.466  1.00  0.00     0.202 C 
BRANCH   3   4
ATOM      4  C   UNL A   1      32.678  28.489  22.814  1.00  0.00     0.261 C 
BRANCH   4   5
ATOM      5  O   UNL A   1      33.471  27.375  23.286  1.00  0.00    -0.463 OA
BRANCH   5   6
ATOM      6  C   UNL A   1      33.497  26.242  22.554  1.00  0.00     0.312 C 
ATOM      7  O   UNL A   1      33.632  26.247  21.336  1.00  0.00    -0.252 OA
BRANCH   6   8
ATOM      8  C   UNL A   1      33.360  24.962  23.434  1.00  0.00     0.069 C 
ATOM      9  C   UNL A   1      36.492  22.718  23.524  1.00  0.00     0.007 C 
ATOM     10  C   UNL A   1      35.137  23.277  23.934  1.00  0.00    -0.013 C 
ATOM     11  C   UNL A   1      35.278  24.429  24.915  1.00  0.00     0.004 C 
ATOM     12  C   UNL A   1      34.352  23.915  22.786  1.00  0.00     0.022 C 
ATOM     13  C   UNL A   1      33.896  25.057  24.883  1.00  0.00     0.019 C 
BRANCH   8  14
ATOM     14  C   UNL A   1      31.884  24.436  23.398  1.00  0.00     0.027 C 
BRANCH  14  15
ATOM     15  C   UNL A   1      31.258  23.467  24.481  1.00  0.00     0.020 C 
ATOM     16  C   UNL A   1      30.780  24.094  25.800  1.00  0.00     0.009 C 
ATOM     17  C   UNL A   1      32.013  22.166  24.730  1.00  0.00    -0.042 A 
ATOM     18  C   UNL A   1      31.838  24.113  26.895  1.00  0.00     0.005 C 
ATOM     19  C   UNL A   1      32.603  21.876  25.976  1.00  0.00    -0.045 A 
ATOM     20  C   UNL A   1      32.141  21.226  23.693  1.00  0.00     0.004 A 
ATOM     21  C   UNL A   1      32.403  22.739  27.191  1.00  0.00     0.036 C 
ATOM     22  C   UNL A   1      33.369  20.709  26.134  1.00  0.00     0.004 A 
ATOM     23  C   UNL A   1      32.883  20.056  23.872  1.00  0.00     0.000 A 
ATOM     24  C   UNL A   1      33.516  19.809  25.084  1.00  0.00     0.000 A 
ENDBRANCH  14  15
ENDBRANCH   8  14
ENDBRANCH   6   8
ENDBRANCH   5   6
ENDBRANCH   4   5
ENDBRANCH   3   4
ENDBRANCH   2   3
ENDBRANCH   1   2
BRANCH   1  25
ATOM     25  C   UNL A   1      31.723  31.099  26.103  1.00  0.00     0.261 C 
BRANCH  25  26
ATOM     26  O   UNL A   1      32.432  31.092  27.355  1.00  0.00    -0.460 OA
BRANCH  26  27
ATOM     27  C   UNL A   1      33.310  32.112  27.505  1.00  0.00     0.338 C 
ATOM     28  O   UNL A   1      33.052  33.309  27.463  1.00  0.00    -0.246 OA
BRANCH  27  29
ATOM     29  C   UNL A   1      34.636  31.598  27.893  1.00  0.00     0.060 A 
ATOM     30  C   UNL A   1      34.752  30.225  28.136  1.00  0.00     0.016 A 
ATOM     31  C   UNL A   1      35.730  32.443  28.090  1.00  0.00     0.016 A 
ATOM     32  C   UNL A   1      35.945  29.700  28.628  1.00  0.00     0.010 A 
ATOM     33  C   UNL A   1      36.935  31.910  28.564  1.00  0.00     0.010 A 
ATOM     34  C   UNL A   1      37.036  30.543  28.880  1.00  0.00    -0.014 A 
BRANCH  34  35
ATOM     35  C   UNL A   1      38.214  30.019  29.624  1.00  0.00     0.031 A 
ATOM     36  C   UNL A   1      38.471  30.508  31.025  1.00  0.00     0.074 A 
ATOM     37  C   UNL A   1      39.030  29.099  29.077  1.00  0.00     0.049 A 
ATOM     38  N   UNL A   1      39.452  30.222  31.842  1.00  0.00    -0.248 NA
ATOM     39  C   UNL A   1      37.494  31.463  31.568  1.00  0.00     0.031 C 
ATOM     40  C   UNL A   1      38.876  28.525  27.742  1.00  0.00     0.029 A 
ATOM     41  N   UNL A   1      40.156  28.494  29.578  1.00  0.00    -0.354 N 
ATOM     42  C   UNL A   1      39.222  30.975  32.990  1.00  0.00     0.074 A 
ATOM     43  C   UNL A   1      38.036  31.765  32.737  1.00  0.00     0.031 C 
ATOM     44  C   UNL A   1      39.878  27.657  27.525  1.00  0.00     0.029 A 
ATOM     45  C   UNL A   1      40.769  27.646  28.686  1.00  0.00     0.049 A 
ATOM     46  H   UNL A   1      40.494  28.652  30.490  1.00  0.00     0.167 HD
ATOM     47  C   UNL A   1      39.924  30.994  34.151  1.00  0.00     0.034 A 
ATOM     48  C   UNL A   1      41.929  26.966  28.776  1.00  0.00     0.034 A 
ATOM     49  C   UNL A   1      41.106  30.200  34.385  1.00  0.00     0.049 A 
ATOM     50  C   UNL A   1      42.740  27.051  30.046  1.00  0.00     0.074 A 
ATOM     51  C   UNL A   1      41.867  30.107  35.539  1.00  0.00     0.029 A 
ATOM     52  N   UNL A   1      41.717  29.379  33.445  1.00  0.00    -0.354 N 
ATOM     53  N   UNL A   1      42.496  27.740  31.137  1.00  0.00    -0.248 NA
ATOM     54  C   UNL A   1      43.977  26.262  30.099  1.00  0.00     0.031 C 
ATOM     55  C   UNL A   1      42.983  29.309  35.266  1.00  0.00     0.029 A 
ATOM     56  C   UNL A   1      42.871  28.818  33.974  1.00  0.00     0.049 A 
ATOM     57  H   UNL A   1      41.379  29.219  32.534  1.00  0.00     0.167 HD
ATOM     58  C   UNL A   1      43.537  27.446  32.016  1.00  0.00     0.074 A 
ATOM     59  C   UNL A   1      44.405  26.510  31.330  1.00  0.00     0.031 C 
ATOM     60  C   UNL A   1      43.747  27.901  33.279  1.00  0.00     0.034 A 
BRANCH  47  61
ATOM     61  C   UNL A   1      39.460  31.956  35.223  1.00  0.00     0.023 A 
ATOM     62  C   UNL A   1      39.901  33.291  35.269  1.00  0.00     0.031 A 
ATOM     63  C   UNL A   1      38.615  31.511  36.256  1.00  0.00     0.131 A 
ATOM     64  C   UNL A   1      39.588  34.095  36.374  1.00  0.00     0.055 A 
ATOM     65  C   UNL A   1      38.223  32.349  37.302  1.00  0.00     0.041 A 
ATOM     66  F   UNL A   1      38.176  30.243  36.284  1.00  0.00    -0.206 F 
ATOM     67  C   UNL A   1      38.729  33.643  37.378  1.00  0.00     0.022 A 
BRANCH  64  68
ATOM     68  S   UNL A   1      40.482  35.661  36.584  1.00  0.00     0.124 S 
ATOM     69  O   UNL A   1      40.370  35.873  38.026  1.00  0.00    -0.237 OA
ATOM     70  O   UNL A   1      41.812  35.332  36.088  1.00  0.00    -0.237 OA
ATOM     71  O   UNL A   1      39.721  36.603  35.765  1.00  0.00    -0.744 OA
ENDBRANCH  64  68
ENDBRANCH  47  61
BRANCH  48  72
ATOM     72  C   UNL A   1      42.421  26.188  27.602  1.00  0.00     0.023 A 
ATOM     73  C   UNL A   1      42.158  24.817  27.460  1.00  0.00     0.031 A 
ATOM     74  C   UNL A   1      43.177  26.823  26.598  1.00  0.00     0.131 A 
ATOM     75  C   UNL A   1      42.665  24.121  26.350  1.00  0.00     0.055 A 
ATOM     76  C   UNL A   1      43.636  26.137  25.473  1.00  0.00     0.041 A 
ATOM     77  F   UNL A   1      43.458  28.133  26.688  1.00  0.00    -0.206 F 
ATOM     78  C   UNL A   1      43.386  24.776  25.348  1.00  0.00     0.022 A 
BRANCH  75  79
ATOM     79  S   UNL A   1      42.412  22.327  26.254  1.00  0.00     0.124 S 
ATOM     80  O   UNL A   1      41.007  22.245  25.873  1.00  0.00    -0.237 OA
ATOM     81  O   UNL A   1      43.379  21.939  25.231  1.00  0.00    -0.237 OA
ATOM     82  O   UNL A   1      42.723  21.867  27.606  1.00  0.00    -0.744 OA
ENDBRANCH  75  79
ENDBRANCH  48  72
BRANCH  60  83
ATOM     83  C   UNL A   1      44.947  27.360  34.026  1.00  0.00     0.023 A 
ATOM     84  C   UNL A   1      44.908  26.137  34.719  1.00  0.00     0.031 A 
ATOM     85  C   UNL A   1      46.156  28.081  34.032  1.00  0.00     0.131 A 
ATOM     86  C   UNL A   1      46.039  25.696  35.425  1.00  0.00     0.055 A 
ATOM     87  C   UNL A   1      47.296  27.606  34.681  1.00  0.00     0.041 A 
ATOM     88  F   UNL A   1      46.252  29.258  33.393  1.00  0.00    -0.206 F 
ATOM     89  C   UNL A   1      47.238  26.411  35.392  1.00  0.00     0.022 A 
BRANCH  86  90
ATOM     90  S   UNL A   1      45.900  24.215  36.464  1.00  0.00     0.124 S 
ATOM     91  O   UNL A   1      46.183  24.749  37.792  1.00  0.00    -0.237 OA
ATOM     92  O   UNL A   1      44.524  23.792  36.226  1.00  0.00    -0.237 OA
ATOM     93  O   UNL A   1      46.924  23.321  35.926  1.00  0.00    -0.744 OA
ENDBRANCH  86  90
ENDBRANCH  60  83
ENDBRANCH  34  35
ENDBRANCH  27  29
ENDBRANCH  26  27
ENDBRANCH  25  26
ENDBRANCH   1  25
TORSDOF 19
ENDMDL
MODEL 3
REMARK VINA RESULT:     -11.8      5.128     10.337
REMARK SMILES C[C@H]1CC[C@@](C[C@@H]2CCCc3ccccc32)(C(=O)OCCOCCOC(=O)c2ccc(-c3c4nc(c(-c5cc(S(=O)(=O)[O-])ccc5F)c5ccc([nH]5)c(-c5cc(S(=O)(=O)[O-])ccc5F)c5nc(c(-c6cc(S(=O)(=O)[O-])ccc6F)c6ccc3[nH]6)C=C5)C=C4)cc2)C1
REMARK SMILES IDX 23 1 22 2 21 3 20 4 19 5 17 6 18 7 5 8 1 9 2 10 3 11 91 12
REMARK SMILES IDX 4 13 6 14 7 15 8 16 16 17 9 18 11 19 15 20 10 21 12 22 14 23
REMARK SMILES IDX 13 24 24 25 25 26 26 27 27 28 28 29 29 30 90 31 30 32 89 33
REMARK SMILES IDX 31 34 32 35 33 36 83 37 34 38 88 39 82 40 84 41 35 42 87 43
REMARK SMILES IDX 81 44 80 45 36 47 68 48 48 49 67 50 49 51 52 52 66 53 85 54
REMARK SMILES IDX 50 55 51 56 65 58 86 59 53 60 37 61 38 62 46 63 39 64 45 65
REMARK SMILES IDX 47 66 44 67 40 68 41 69 42 70 43 71 69 72 70 73 78 74 71 75
REMARK SMILES IDX 77 76 79 77 76 78 72 79 73 80 74 81 75 82 54 83 55 84 63 85
REMARK SMILES IDX 56 86 62 87 64 88 61 89 57 90 58 91 59 92 60 93
REMARK H PARENT 84 46 52 57
REMARK Flexibility Score: inf
ROOT
ATOM      1  C   UNL A   1      35.703  20.544  25.014  1.00  0.00     0.202 C 
ENDROOT
BRANCH   1   2
ATOM      2  O   UNL A   1      34.697  19.596  24.669  1.00  0.00    -0.374 OA
BRANCH   2   3
ATOM      3  C   UNL A   1      33.355  19.955  25.014  1.00  0.00     0.202 C 
BRANCH   3   4
ATOM      4  C   UNL A   1      33.234  20.909  26.208  1.00  0.00     0.261 C 
BRANCH   4   5
ATOM      5  O   UNL A   1      32.064  21.742  26.051  1.00  0.00    -0.463 OA
BRANCH   5   6
ATOM      6  C   UNL A   1      32.091  22.998  26.543  1.00  0.00     0.312 C 
ATOM      7  O   UNL A   1      32.302  23.237  27.726  1.00  0.00    -0.252 OA
BRANCH   6   8
ATOM      8  C   UNL A   1      31.848  24.075  25.442  1.00  0.00     0.069 C 
ATOM      9  C   UNL A   1      33.393  23.252  22.008  1.00  0.00     0.007 C 
ATOM     10  C   UNL A   1      32.510  23.947  23.035  1.00  0.00    -0.013 C 
ATOM     11  C   UNL A   1      31.179  23.236  23.205  1.00  0.00     0.004 C 
ATOM     12  C   UNL A   1      33.076  23.933  24.457  1.00  0.00     0.022 C 
ATOM     13  C   UNL A   1      30.648  23.838  24.495  1.00  0.00     0.019 C 
BRANCH   8  14
ATOM     14  C   UNL A   1      31.803  25.505  26.083  1.00  0.00     0.027 C 
BRANCH  14  15
ATOM     15  C   UNL A   1      32.536  26.773  25.483  1.00  0.00     0.020 C 
ATOM     16  C   UNL A   1      33.433  27.586  26.430  1.00  0.00     0.009 C 
ATOM     17  C   UNL A   1      31.682  27.686  24.611  1.00  0.00    -0.042 A 
ATOM     18  C   UNL A   1      32.715  28.730  27.132  1.00  0.00     0.005 C 
ATOM     19  C   UNL A   1      31.402  29.017  24.980  1.00  0.00    -0.045 A 
ATOM     20  C   UNL A   1      31.144  27.198  23.408  1.00  0.00     0.004 A 
ATOM     21  C   UNL A   1      32.043  29.685  26.165  1.00  0.00     0.036 C 
ATOM     22  C   UNL A   1      30.535  29.795  24.194  1.00  0.00     0.004 A 
ATOM     23  C   UNL A   1      30.306  27.991  22.622  1.00  0.00     0.000 A 
ATOM     24  C   UNL A   1      29.982  29.281  23.026  1.00  0.00     0.000 A 
ENDBRANCH  14  15
ENDBRANCH   8  14
ENDBRANCH   6   8
ENDBRANCH   5   6
ENDBRANCH   4   5
ENDBRANCH   3   4
ENDBRANCH   2   3
ENDBRANCH   1   2
BRANCH   1  25
ATOM     25  C   UNL A   1      37.149  20.037  24.982  1.00  0.00     0.261 C 
BRANCH  25  26
ATOM     26  O   UNL A   1      38.109  21.104  25.082  1.00  0.00    -0.460 OA
BRANCH  26  27
ATOM     27  C   UNL A   1      39.157  20.837  25.897  1.00  0.00     0.338 C 
ATOM     28  O   UNL A   1      39.716  19.756  26.036  1.00  0.00    -0.246 OA
BRANCH  27  29
ATOM     29  C   UNL A   1      39.667  22.079  26.505  1.00  0.00     0.060 A 
ATOM     30  C   UNL A   1      39.086  23.285  26.097  1.00  0.00     0.016 A 
ATOM     31  C   UNL A   1      40.739  22.080  27.400  1.00  0.00     0.016 A 
ATOM     32  C   UNL A   1      39.610  24.498  26.539  1.00  0.00     0.010 A 
ATOM     33  C   UNL A   1      41.250  23.300  27.860  1.00  0.00     0.010 A 
ATOM     34  C   UNL A   1      40.719  24.518  27.396  1.00  0.00    -0.014 A 
BRANCH  34  35
ATOM     35  C   UNL A   1      41.414  25.804  27.670  1.00  0.00     0.031 A 
ATOM     36  C   UNL A   1      40.690  26.879  28.439  1.00  0.00     0.074 A 
ATOM     37  C   UNL A   1      42.682  26.009  27.270  1.00  0.00     0.049 A 
ATOM     38  N   UNL A   1      41.082  28.086  28.757  1.00  0.00    -0.248 NA
ATOM     39  C   UNL A   1      39.333  26.547  28.894  1.00  0.00     0.031 C 
ATOM     40  C   UNL A   1      43.503  25.042  26.543  1.00  0.00     0.029 A 
ATOM     41  N   UNL A   1      43.498  27.105  27.413  1.00  0.00    -0.354 N 
ATOM     42  C   UNL A   1      40.014  28.666  29.435  1.00  0.00     0.074 A 
ATOM     43  C   UNL A   1      38.943  27.691  29.432  1.00  0.00     0.031 C 
ATOM     44  C   UNL A   1      44.703  25.591  26.294  1.00  0.00     0.029 A 
ATOM     45  C   UNL A   1      44.723  26.963  26.803  1.00  0.00     0.049 A 
ATOM     46  H   UNL A   1      43.232  27.915  27.905  1.00  0.00     0.167 HD
ATOM     47  C   UNL A   1      39.936  29.889  30.017  1.00  0.00     0.034 A 
ATOM     48  C   UNL A   1      45.731  27.843  26.642  1.00  0.00     0.034 A 
ATOM     49  C   UNL A   1      41.014  30.849  30.007  1.00  0.00     0.049 A 
ATOM     50  C   UNL A   1      45.606  29.227  27.232  1.00  0.00     0.074 A 
ATOM     51  C   UNL A   1      41.060  32.097  30.605  1.00  0.00     0.029 A 
ATOM     52  N   UNL A   1      42.227  30.683  29.349  1.00  0.00    -0.354 N 
ATOM     53  N   UNL A   1      44.604  29.754  27.899  1.00  0.00    -0.248 NA
ATOM     54  C   UNL A   1      46.749  30.132  27.054  1.00  0.00     0.031 C 
ATOM     55  C   UNL A   1      42.257  32.720  30.231  1.00  0.00     0.029 A 
ATOM     56  C   UNL A   1      43.006  31.824  29.482  1.00  0.00     0.049 A 
ATOM     57  H   UNL A   1      42.495  29.872  28.859  1.00  0.00     0.167 HD
ATOM     58  C   UNL A   1      45.008  31.042  28.241  1.00  0.00     0.074 A 
ATOM     59  C   UNL A   1      46.348  31.209  27.715  1.00  0.00     0.031 C 
ATOM     60  C   UNL A   1      44.335  31.995  28.938  1.00  0.00     0.034 A 
BRANCH  47  61
ATOM     61  C   UNL A   1      38.617  30.271  30.650  1.00  0.00     0.023 A 
ATOM     62  C   UNL A   1      37.575  30.857  29.908  1.00  0.00     0.031 A 
ATOM     63  C   UNL A   1      38.422  30.108  32.034  1.00  0.00     0.131 A 
ATOM     64  C   UNL A   1      36.441  31.356  30.566  1.00  0.00     0.055 A 
ATOM     65  C   UNL A   1      37.246  30.514  32.667  1.00  0.00     0.041 A 
ATOM     66  F   UNL A   1      39.385  29.575  32.803  1.00  0.00    -0.206 F 
ATOM     67  C   UNL A   1      36.256  31.164  31.936  1.00  0.00     0.022 A 
BRANCH  64  68
ATOM     68  S   UNL A   1      35.313  32.437  29.641  1.00  0.00     0.124 S 
ATOM     69  O   UNL A   1      36.237  33.428  29.094  1.00  0.00    -0.237 OA
ATOM     70  O   UNL A   1      34.716  31.519  28.679  1.00  0.00    -0.237 OA
ATOM     71  O   UNL A   1      34.406  32.945  30.669  1.00  0.00    -0.744 OA
ENDBRANCH  64  68
ENDBRANCH  47  61
BRANCH  48  72
ATOM     72  C   UNL A   1      46.925  27.457  25.837  1.00  0.00     0.023 A 
ATOM     73  C   UNL A   1      47.049  27.808  24.484  1.00  0.00     0.031 A 
ATOM     74  C   UNL A   1      47.967  26.716  26.425  1.00  0.00     0.131 A 
ATOM     75  C   UNL A   1      48.181  27.399  23.758  1.00  0.00     0.055 A 
ATOM     76  C   UNL A   1      49.111  26.355  25.713  1.00  0.00     0.041 A 
ATOM     77  F   UNL A   1      47.896  26.353  27.717  1.00  0.00    -0.206 F 
ATOM     78  C   UNL A   1      49.219  26.691  24.369  1.00  0.00     0.022 A 
BRANCH  75  79
ATOM     79  S   UNL A   1      48.259  27.762  21.983  1.00  0.00     0.124 S 
ATOM     80  O   UNL A   1      46.976  28.417  21.757  1.00  0.00    -0.237 OA
ATOM     81  O   UNL A   1      49.439  28.616  21.899  1.00  0.00    -0.237 OA
ATOM     82  O   UNL A   1      48.405  26.442  21.371  1.00  0.00    -0.744 OA
ENDBRANCH  75  79
ENDBRANCH  48  72
BRANCH  60  83
ATOM     83  C   UNL A   1      45.053  33.299  29.212  1.00  0.00     0.023 A 
ATOM     84  C   UNL A   1      44.906  34.423  28.382  1.00  0.00     0.031 A 
ATOM     85  C   UNL A   1      45.893  33.415  30.336  1.00  0.00     0.131 A 
ATOM     86  C   UNL A   1      45.622  35.599  28.663  1.00  0.00     0.055 A 
ATOM     87  C   UNL A   1      46.551  34.607  30.645  1.00  0.00     0.041 A 
ATOM     88  F   UNL A   1      46.078  32.373  31.162  1.00  0.00    -0.206 F 
ATOM     89  C   UNL A   1      46.426  35.705  29.800  1.00  0.00     0.022 A 
BRANCH  86  90
ATOM     90  S   UNL A   1      45.561  36.966  27.471  1.00  0.00     0.124 S 
ATOM     91  O   UNL A   1      46.450  36.489  26.417  1.00  0.00    -0.237 OA
ATOM     92  O   UNL A   1      44.143  37.024  27.132  1.00  0.00    -0.237 OA
ATOM     93  O   UNL A   1      46.062  38.108  28.233  1.00  0.00    -0.744 OA
ENDBRANCH  86  90
ENDBRANCH  60  83
ENDBRANCH  34  35
ENDBRANCH  27  29
ENDBRANCH  26  27
ENDBRANCH  25  26
ENDBRANCH   1  25
TORSDOF 19
ENDMDL
