MODEL 1
REMARK VINA RESULT:     -11.6      0.000      0.000
REMARK SMILES O=C(OCCOCCOC(=O)[C@@H]1CC=CC[C@H]1C(=O)N1CC[NH+](Cc2ccc3c(c2)OCO3)CC1)c1ccc(-c2c3nc(c(-c4cc(S(=O)(=O)[O-])ccc4F)c4ccc([nH]4)c(-c4cc(S(=O)(=O)[O-])ccc4F)c4nc(c(-c5cc(S(=O)(=O)[O-])ccc5F)c5ccc2[nH]5)C=C4)C=C3)cc1
REMARK SMILES IDX 6 1 5 2 4 3 3 4 2 5 1 6 36 7 37 8 98 9 38 10 97 11 39 12
REMARK SMILES IDX 40 13 41 14 91 15 42 16 96 17 90 18 92 19 43 20 95 21 89 22
REMARK SMILES IDX 88 23 44 25 76 26 56 27 75 28 57 29 60 30 74 31 93 32 58 33
REMARK SMILES IDX 59 34 73 36 94 37 61 38 45 39 46 40 54 41 47 42 53 43 55 44
REMARK SMILES IDX 52 45 48 46 49 47 50 48 51 49 77 50 78 51 86 52 79 53 85 54
REMARK SMILES IDX 87 55 84 56 80 57 81 58 82 59 83 60 62 61 63 62 71 63 64 64
REMARK SMILES IDX 70 65 72 66 69 67 65 68 66 69 67 70 68 71 7 72 8 73 9 74
REMARK SMILES IDX 10 75 11 76 12 77 13 78 17 79 14 80 16 81 15 82 18 83 19 84
REMARK SMILES IDX 20 85 21 86 35 87 22 88 34 89 23 90 24 92 25 93 26 94 30 95
REMARK SMILES IDX 27 96 29 97 28 98 31 99 33 100 32 101
REMARK H PARENT 92 24 60 35 23 91
REMARK Flexibility Score: inf
ROOT
ATOM      1  O   UNL A   1      38.475  21.643  25.692  1.00  0.00    -0.374 OA
ENDROOT
BRANCH   1   2
ATOM      2  C   UNL A   1      38.783  20.301  25.312  1.00  0.00     0.202 C 
BRANCH   2   3
ATOM      3  C   UNL A   1      39.675  19.509  26.273  1.00  0.00     0.261 C 
BRANCH   3   4
ATOM      4  O   UNL A   1      40.937  19.202  25.654  1.00  0.00    -0.460 OA
BRANCH   4   5
ATOM      5  C   UNL A   1      42.147  19.714  25.989  1.00  0.00     0.338 C 
ATOM      6  O   UNL A   1      43.134  18.980  25.975  1.00  0.00    -0.246 OA
BRANCH   5   7
ATOM      7  C   UNL A   1      42.336  21.148  26.349  1.00  0.00     0.060 A 
ATOM      8  C   UNL A   1      42.290  22.185  25.424  1.00  0.00     0.016 A 
ATOM      9  C   UNL A   1      42.513  21.480  27.700  1.00  0.00     0.016 A 
ATOM     10  C   UNL A   1      42.484  23.495  25.781  1.00  0.00     0.010 A 
ATOM     11  C   UNL A   1      42.654  22.818  28.087  1.00  0.00     0.010 A 
ATOM     12  C   UNL A   1      42.639  23.825  27.115  1.00  0.00    -0.014 A 
BRANCH  12  13
ATOM     13  C   UNL A   1      42.922  25.238  27.383  1.00  0.00     0.031 A 
ATOM     14  C   UNL A   1      44.214  25.789  26.885  1.00  0.00     0.074 A 
ATOM     15  C   UNL A   1      41.939  26.028  27.851  1.00  0.00     0.049 A 
ATOM     16  N   UNL A   1      44.751  26.953  27.102  1.00  0.00    -0.248 NA
ATOM     17  C   UNL A   1      45.002  24.903  26.013  1.00  0.00     0.031 C 
ATOM     18  C   UNL A   1      40.568  25.588  28.138  1.00  0.00     0.029 A 
ATOM     19  N   UNL A   1      41.919  27.366  28.120  1.00  0.00    -0.354 N 
ATOM     20  C   UNL A   1      45.977  26.919  26.450  1.00  0.00     0.074 A 
ATOM     21  C   UNL A   1      46.089  25.628  25.809  1.00  0.00     0.031 C 
ATOM     22  C   UNL A   1      39.840  26.647  28.522  1.00  0.00     0.029 A 
ATOM     23  C   UNL A   1      40.719  27.803  28.628  1.00  0.00     0.049 A 
ATOM     24  H   UNL A   1      42.690  27.960  27.965  1.00  0.00     0.167 HD
ATOM     25  C   UNL A   1      46.925  27.886  26.436  1.00  0.00     0.034 A 
ATOM     26  C   UNL A   1      40.407  28.987  29.188  1.00  0.00     0.034 A 
ATOM     27  C   UNL A   1      46.736  29.146  27.109  1.00  0.00     0.049 A 
ATOM     28  C   UNL A   1      41.517  30.004  29.286  1.00  0.00     0.074 A 
ATOM     29  C   UNL A   1      47.634  30.178  27.299  1.00  0.00     0.029 A 
ATOM     30  N   UNL A   1      45.542  29.539  27.712  1.00  0.00    -0.354 N 
ATOM     31  N   UNL A   1      42.749  29.922  28.830  1.00  0.00    -0.248 NA
ATOM     32  C   UNL A   1      41.212  31.251  29.990  1.00  0.00     0.031 C 
ATOM     33  C   UNL A   1      47.003  31.162  28.071  1.00  0.00     0.029 A 
ATOM     34  C   UNL A   1      45.684  30.787  28.291  1.00  0.00     0.049 A 
ATOM     35  H   UNL A   1      44.715  29.005  27.722  1.00  0.00     0.167 HD
ATOM     36  C   UNL A   1      43.366  31.116  29.183  1.00  0.00     0.074 A 
ATOM     37  C   UNL A   1      42.359  31.905  29.871  1.00  0.00     0.031 C 
ATOM     38  C   UNL A   1      44.642  31.530  28.966  1.00  0.00     0.034 A 
BRANCH  25  39
ATOM     39  C   UNL A   1      48.253  27.519  25.821  1.00  0.00     0.023 A 
ATOM     40  C   UNL A   1      48.551  27.770  24.469  1.00  0.00     0.031 A 
ATOM     41  C   UNL A   1      49.177  26.766  26.568  1.00  0.00     0.131 A 
ATOM     42  C   UNL A   1      49.685  27.183  23.884  1.00  0.00     0.055 A 
ATOM     43  C   UNL A   1      50.351  26.265  26.003  1.00  0.00     0.041 A 
ATOM     44  F   UNL A   1      48.931  26.459  27.852  1.00  0.00    -0.206 F 
ATOM     45  C   UNL A   1      50.600  26.454  24.647  1.00  0.00     0.022 A 
BRANCH  42  46
ATOM     46  S   UNL A   1      49.842  27.212  22.075  1.00  0.00     0.124 S 
ATOM     47  O   UNL A   1      51.270  26.958  21.900  1.00  0.00    -0.237 OA
ATOM     48  O   UNL A   1      48.946  26.138  21.663  1.00  0.00    -0.237 OA
ATOM     49  O   UNL A   1      49.408  28.560  21.714  1.00  0.00    -0.744 OA
ENDBRANCH  42  46
ENDBRANCH  25  39
BRANCH  26  50
ATOM     50  C   UNL A   1      39.063  29.217  29.794  1.00  0.00     0.023 A 
ATOM     51  C   UNL A   1      38.067  29.939  29.120  1.00  0.00     0.031 A 
ATOM     52  C   UNL A   1      38.761  28.739  31.086  1.00  0.00     0.131 A 
ATOM     53  C   UNL A   1      36.835  30.189  29.749  1.00  0.00     0.055 A 
ATOM     54  C   UNL A   1      37.515  28.938  31.682  1.00  0.00     0.041 A 
ATOM     55  F   UNL A   1      39.677  28.052  31.789  1.00  0.00    -0.206 F 
ATOM     56  C   UNL A   1      36.546  29.678  31.018  1.00  0.00     0.022 A 
BRANCH  53  57
ATOM     57  S   UNL A   1      35.635  31.268  28.919  1.00  0.00     0.124 S 
ATOM     58  O   UNL A   1      36.509  32.137  28.139  1.00  0.00    -0.237 OA
ATOM     59  O   UNL A   1      34.839  30.309  28.162  1.00  0.00    -0.237 OA
ATOM     60  O   UNL A   1      34.938  31.917  30.028  1.00  0.00    -0.744 OA
ENDBRANCH  53  57
ENDBRANCH  26  50
BRANCH  38  61
ATOM     61  C   UNL A   1      44.985  32.921  29.430  1.00  0.00     0.023 A 
ATOM     62  C   UNL A   1      44.723  34.051  28.639  1.00  0.00     0.031 A 
ATOM     63  C   UNL A   1      45.570  33.107  30.695  1.00  0.00     0.131 A 
ATOM     64  C   UNL A   1      45.090  35.321  29.106  1.00  0.00     0.055 A 
ATOM     65  C   UNL A   1      45.872  34.378  31.179  1.00  0.00     0.041 A 
ATOM     66  F   UNL A   1      45.841  32.055  31.483  1.00  0.00    -0.206 F 
ATOM     67  C   UNL A   1      45.643  35.492  30.378  1.00  0.00     0.022 A 
BRANCH  64  68
ATOM     68  S   UNL A   1      44.909  36.740  27.993  1.00  0.00     0.124 S 
ATOM     69  O   UNL A   1      44.455  37.784  28.905  1.00  0.00    -0.237 OA
ATOM     70  O   UNL A   1      46.260  36.898  27.465  1.00  0.00    -0.237 OA
ATOM     71  O   UNL A   1      43.914  36.288  27.022  1.00  0.00    -0.744 OA
ENDBRANCH  64  68
ENDBRANCH  38  61
ENDBRANCH  12  13
ENDBRANCH   5   7
ENDBRANCH   4   5
ENDBRANCH   3   4
ENDBRANCH   2   3
ENDBRANCH   1   2
BRANCH   1  72
ATOM     72  C   UNL A   1      37.355  22.236  25.050  1.00  0.00     0.202 C 
BRANCH  72  73
ATOM     73  C   UNL A   1      36.096  21.952  25.857  1.00  0.00     0.261 C 
BRANCH  73  74
ATOM     74  O   UNL A   1      35.341  20.915  25.200  1.00  0.00    -0.463 OA
BRANCH  74  75
ATOM     75  C   UNL A   1      34.006  20.879  25.458  1.00  0.00     0.310 C 
ATOM     76  O   UNL A   1      33.446  21.602  26.274  1.00  0.00    -0.252 OA
BRANCH  75  77
ATOM     77  C   UNL A   1      33.278  19.820  24.633  1.00  0.00     0.115 C 
ATOM     78  C   UNL A   1      34.085  18.499  24.665  1.00  0.00     0.043 C 
ATOM     79  C   UNL A   1      32.988  20.187  23.167  1.00  0.00     0.097 C 
ATOM     80  C   UNL A   1      33.508  17.422  23.796  1.00  0.00    -0.030 C 
ATOM     81  C   UNL A   1      32.181  19.064  22.475  1.00  0.00     0.041 C 
ATOM     82  C   UNL A   1      32.638  17.680  22.813  1.00  0.00    -0.030 C 
BRANCH  79  83
ATOM     83  C   UNL A   1      32.293  21.472  22.699  1.00  0.00     0.227 C 
ATOM     84  O   UNL A   1      31.176  21.352  22.176  1.00  0.00    -0.275 OA
ATOM     85  N   UNL A   1      32.733  22.704  23.139  1.00  0.00    -0.331 N 
ATOM     86  C   UNL A   1      31.719  23.739  23.323  1.00  0.00     0.181 C 
ATOM     87  C   UNL A   1      34.049  23.236  22.801  1.00  0.00     0.181 C 
ATOM     88  C   UNL A   1      32.187  24.855  24.276  1.00  0.00     0.284 C 
ATOM     89  C   UNL A   1      34.509  24.361  23.741  1.00  0.00     0.284 C 
ATOM     90  N   UNL A   1      33.527  25.408  24.038  1.00  0.00    -0.328 N 
ATOM     91  H   UNL A   1      33.810  25.808  24.933  1.00  0.00     0.348 HD
BRANCH  90  92
ATOM     92  C   UNL A   1      33.592  26.594  23.179  1.00  0.00     0.299 C 
BRANCH  92  93
ATOM     93  C   UNL A   1      32.517  27.639  23.357  1.00  0.00     0.010 A 
ATOM     94  C   UNL A   1      32.436  28.394  24.551  1.00  0.00     0.013 A 
ATOM     95  C   UNL A   1      31.575  27.866  22.339  1.00  0.00     0.060 A 
ATOM     96  C   UNL A   1      31.387  29.291  24.770  1.00  0.00     0.051 A 
ATOM     97  C   UNL A   1      30.567  28.775  22.573  1.00  0.00     0.166 A 
ATOM     98  C   UNL A   1      30.462  29.452  23.764  1.00  0.00     0.165 A 
ATOM     99  O   UNL A   1      29.573  29.096  21.703  1.00  0.00    -0.454 OA
ATOM    100  O   UNL A   1      29.371  30.260  23.806  1.00  0.00    -0.454 OA
ATOM    101  C   UNL A   1      28.841  30.072  22.475  1.00  0.00     0.468 C 
ENDBRANCH  92  93
ENDBRANCH  90  92
ENDBRANCH  79  83
ENDBRANCH  75  77
ENDBRANCH  74  75
ENDBRANCH  73  74
ENDBRANCH  72  73
ENDBRANCH   1  72
TORSDOF 20
ENDMDL
MODEL 2
REMARK VINA RESULT:     -10.6      1.951      2.307
REMARK SMILES O=C(OCCOCCOC(=O)[C@@H]1CC=CC[C@H]1C(=O)N1CC[NH+](Cc2ccc3c(c2)OCO3)CC1)c1ccc(-c2c3nc(c(-c4cc(S(=O)(=O)[O-])ccc4F)c4ccc([nH]4)c(-c4cc(S(=O)(=O)[O-])ccc4F)c4nc(c(-c5cc(S(=O)(=O)[O-])ccc5F)c5ccc2[nH]5)C=C4)C=C3)cc1
REMARK SMILES IDX 6 1 5 2 4 3 3 4 2 5 1 6 36 7 37 8 98 9 38 10 97 11 39 12
REMARK SMILES IDX 40 13 41 14 91 15 42 16 96 17 90 18 92 19 43 20 95 21 89 22
REMARK SMILES IDX 88 23 44 25 76 26 56 27 75 28 57 29 60 30 74 31 93 32 58 33
REMARK SMILES IDX 59 34 73 36 94 37 61 38 45 39 46 40 54 41 47 42 53 43 55 44
REMARK SMILES IDX 52 45 48 46 49 47 50 48 51 49 77 50 78 51 86 52 79 53 85 54
REMARK SMILES IDX 87 55 84 56 80 57 81 58 82 59 83 60 62 61 63 62 71 63 64 64
REMARK SMILES IDX 70 65 72 66 69 67 65 68 66 69 67 70 68 71 7 72 8 73 9 74
REMARK SMILES IDX 10 75 11 76 12 77 13 78 17 79 14 80 16 81 15 82 18 83 19 84
REMARK SMILES IDX 20 85 21 86 35 87 22 88 34 89 23 90 24 92 25 93 26 94 30 95
REMARK SMILES IDX 27 96 29 97 28 98 31 99 33 100 32 101
REMARK H PARENT 92 24 60 35 23 91
REMARK Flexibility Score: inf
ROOT
ATOM      1  O   UNL A   1      37.776  21.177  25.084  1.00  0.00    -0.374 OA
ENDROOT
BRANCH   1   2
ATOM      2  C   UNL A   1      38.039  19.802  24.802  1.00  0.00     0.202 C 
BRANCH   2   3
ATOM      3  C   UNL A   1      39.180  19.151  25.591  1.00  0.00     0.261 C 
BRANCH   3   4
ATOM      4  O   UNL A   1      39.731  20.079  26.543  1.00  0.00    -0.460 OA
BRANCH   4   5
ATOM      5  C   UNL A   1      41.044  20.360  26.732  1.00  0.00     0.338 C 
ATOM      6  O   UNL A   1      41.858  19.439  26.751  1.00  0.00    -0.246 OA
BRANCH   5   7
ATOM      7  C   UNL A   1      41.548  21.754  26.891  1.00  0.00     0.060 A 
ATOM      8  C   UNL A   1      42.180  22.216  28.040  1.00  0.00     0.016 A 
ATOM      9  C   UNL A   1      41.432  22.633  25.805  1.00  0.00     0.016 A 
ATOM     10  C   UNL A   1      42.619  23.510  28.165  1.00  0.00     0.010 A 
ATOM     11  C   UNL A   1      41.929  23.940  25.897  1.00  0.00     0.010 A 
ATOM     12  C   UNL A   1      42.523  24.371  27.089  1.00  0.00    -0.014 A 
BRANCH  12  13
ATOM     13  C   UNL A   1      42.944  25.751  27.350  1.00  0.00     0.031 A 
ATOM     14  C   UNL A   1      44.264  26.183  26.810  1.00  0.00     0.074 A 
ATOM     15  C   UNL A   1      42.053  26.626  27.850  1.00  0.00     0.049 A 
ATOM     16  N   UNL A   1      44.913  27.292  27.011  1.00  0.00    -0.248 NA
ATOM     17  C   UNL A   1      44.939  25.233  25.912  1.00  0.00     0.031 C 
ATOM     18  C   UNL A   1      40.658  26.313  28.181  1.00  0.00     0.029 A 
ATOM     19  N   UNL A   1      42.166  27.959  28.121  1.00  0.00    -0.354 N 
ATOM     20  C   UNL A   1      46.109  27.148  26.320  1.00  0.00     0.074 A 
ATOM     21  C   UNL A   1      46.081  25.855  25.674  1.00  0.00     0.031 C 
ATOM     22  C   UNL A   1      40.042  27.433  28.590  1.00  0.00     0.029 A 
ATOM     23  C   UNL A   1      41.028  28.503  28.668  1.00  0.00     0.049 A 
ATOM     24  H   UNL A   1      42.982  28.481  27.942  1.00  0.00     0.167 HD
ATOM     25  C   UNL A   1      47.141  28.024  26.276  1.00  0.00     0.034 A 
ATOM     26  C   UNL A   1      40.844  29.708  29.240  1.00  0.00     0.034 A 
ATOM     27  C   UNL A   1      47.091  29.293  26.957  1.00  0.00     0.049 A 
ATOM     28  C   UNL A   1      42.045  30.619  29.303  1.00  0.00     0.074 A 
ATOM     29  C   UNL A   1      48.086  30.238  27.119  1.00  0.00     0.029 A 
ATOM     30  N   UNL A   1      45.958  29.792  27.598  1.00  0.00    -0.354 N 
ATOM     31  N   UNL A   1      43.250  30.426  28.807  1.00  0.00    -0.248 NA
ATOM     32  C   UNL A   1      41.879  31.885  30.018  1.00  0.00     0.031 C 
ATOM     33  C   UNL A   1      47.573  31.272  27.912  1.00  0.00     0.029 A 
ATOM     34  C   UNL A   1      46.232  31.018  28.174  1.00  0.00     0.049 A 
ATOM     35  H   UNL A   1      45.086  29.336  27.635  1.00  0.00     0.167 HD
ATOM     36  C   UNL A   1      43.985  31.556  29.141  1.00  0.00     0.074 A 
ATOM     37  C   UNL A   1      43.078  32.432  29.862  1.00  0.00     0.031 C 
ATOM     38  C   UNL A   1      45.286  31.852  28.884  1.00  0.00     0.034 A 
BRANCH  25  39
ATOM     39  C   UNL A   1      48.409  27.539  25.618  1.00  0.00     0.023 A 
ATOM     40  C   UNL A   1      48.703  27.801  24.268  1.00  0.00     0.031 A 
ATOM     41  C   UNL A   1      49.263  26.668  26.319  1.00  0.00     0.131 A 
ATOM     42  C   UNL A   1      49.755  27.117  23.637  1.00  0.00     0.055 A 
ATOM     43  C   UNL A   1      50.365  26.065  25.710  1.00  0.00     0.041 A 
ATOM     44  F   UNL A   1      49.013  26.348  27.598  1.00  0.00    -0.206 F 
ATOM     45  C   UNL A   1      50.603  26.270  24.355  1.00  0.00     0.022 A 
BRANCH  42  46
ATOM     46  S   UNL A   1      49.876  27.188  21.826  1.00  0.00     0.124 S 
ATOM     47  O   UNL A   1      48.801  26.283  21.425  1.00  0.00    -0.237 OA
ATOM     48  O   UNL A   1      49.656  28.603  21.551  1.00  0.00    -0.237 OA
ATOM     49  O   UNL A   1      51.226  26.700  21.552  1.00  0.00    -0.744 OA
ENDBRANCH  42  46
ENDBRANCH  25  39
BRANCH  26  50
ATOM     50  C   UNL A   1      39.547  30.058  29.889  1.00  0.00     0.023 A 
ATOM     51  C   UNL A   1      39.386  30.010  31.282  1.00  0.00     0.031 A 
ATOM     52  C   UNL A   1      38.425  30.419  29.115  1.00  0.00     0.131 A 
ATOM     53  C   UNL A   1      38.131  30.287  31.853  1.00  0.00     0.055 A 
ATOM     54  C   UNL A   1      37.198  30.752  29.690  1.00  0.00     0.041 A 
ATOM     55  F   UNL A   1      38.510  30.470  27.775  1.00  0.00    -0.206 F 
ATOM     56  C   UNL A   1      37.042  30.674  31.068  1.00  0.00     0.022 A 
BRANCH  53  57
ATOM     57  S   UNL A   1      37.915  30.051  33.639  1.00  0.00     0.124 S 
ATOM     58  O   UNL A   1      39.296  29.905  34.087  1.00  0.00    -0.237 OA
ATOM     59  O   UNL A   1      37.241  31.285  34.027  1.00  0.00    -0.237 OA
ATOM     60  O   UNL A   1      37.098  28.843  33.726  1.00  0.00    -0.744 OA
ENDBRANCH  53  57
ENDBRANCH  26  50
BRANCH  38  61
ATOM     61  C   UNL A   1      45.770  33.203  29.337  1.00  0.00     0.023 A 
ATOM     62  C   UNL A   1      46.367  33.393  30.593  1.00  0.00     0.031 A 
ATOM     63  C   UNL A   1      45.642  34.311  28.481  1.00  0.00     0.131 A 
ATOM     64  C   UNL A   1      46.774  34.678  30.978  1.00  0.00     0.055 A 
ATOM     65  C   UNL A   1      46.107  35.572  28.844  1.00  0.00     0.041 A 
ATOM     66  F   UNL A   1      45.075  34.176  27.271  1.00  0.00    -0.206 F 
ATOM     67  C   UNL A   1      46.666  35.763  30.104  1.00  0.00     0.022 A 
BRANCH  64  68
ATOM     68  S   UNL A   1      47.371  34.929  32.671  1.00  0.00     0.124 S 
ATOM     69  O   UNL A   1      48.587  34.122  32.685  1.00  0.00    -0.237 OA
ATOM     70  O   UNL A   1      47.565  36.374  32.724  1.00  0.00    -0.237 OA
ATOM     71  O   UNL A   1      46.279  34.419  33.497  1.00  0.00    -0.744 OA
ENDBRANCH  64  68
ENDBRANCH  38  61
ENDBRANCH  12  13
ENDBRANCH   5   7
ENDBRANCH   4   5
ENDBRANCH   3   4
ENDBRANCH   2   3
ENDBRANCH   1   2
BRANCH   1  72
ATOM     72  C   UNL A   1      36.457  21.631  24.814  1.00  0.00     0.202 C 
BRANCH  72  73
ATOM     73  C   UNL A   1      35.774  22.017  26.118  1.00  0.00     0.261 C 
BRANCH  73  74
ATOM     74  O   UNL A   1      34.754  21.044  26.418  1.00  0.00    -0.463 OA
BRANCH  74  75
ATOM     75  C   UNL A   1      33.467  21.427  26.202  1.00  0.00     0.310 C 
ATOM     76  O   UNL A   1      32.884  22.276  26.865  1.00  0.00    -0.252 OA
BRANCH  75  77
ATOM     77  C   UNL A   1      32.815  20.664  25.052  1.00  0.00     0.115 C 
ATOM     78  C   UNL A   1      33.552  19.318  24.842  1.00  0.00     0.043 C 
ATOM     79  C   UNL A   1      32.744  21.403  23.704  1.00  0.00     0.097 C 
ATOM     80  C   UNL A   1      33.055  18.537  23.663  1.00  0.00    -0.030 C 
ATOM     81  C   UNL A   1      31.993  20.551  22.654  1.00  0.00     0.041 C 
ATOM     82  C   UNL A   1      32.340  19.097  22.680  1.00  0.00    -0.030 C 
BRANCH  79  83
ATOM     83  C   UNL A   1      32.176  22.813  23.499  1.00  0.00     0.227 C 
ATOM     84  O   UNL A   1      31.036  22.899  23.021  1.00  0.00    -0.275 OA
ATOM     85  N   UNL A   1      32.761  23.899  24.119  1.00  0.00    -0.331 N 
ATOM     86  C   UNL A   1      31.870  24.982  24.529  1.00  0.00     0.181 C 
ATOM     87  C   UNL A   1      34.113  24.348  23.809  1.00  0.00     0.181 C 
ATOM     88  C   UNL A   1      32.487  25.861  25.633  1.00  0.00     0.284 C 
ATOM     89  C   UNL A   1      34.723  25.239  24.902  1.00  0.00     0.284 C 
ATOM     90  N   UNL A   1      33.870  26.310  25.424  1.00  0.00    -0.328 N 
ATOM     91  H   UNL A   1      34.224  26.518  26.358  1.00  0.00     0.348 HD
BRANCH  90  92
ATOM     92  C   UNL A   1      34.033  27.616  24.778  1.00  0.00     0.299 C 
BRANCH  92  93
ATOM     93  C   UNL A   1      32.778  28.373  24.417  1.00  0.00     0.010 A 
ATOM     94  C   UNL A   1      32.283  29.393  25.263  1.00  0.00     0.013 A 
ATOM     95  C   UNL A   1      32.079  28.064  23.237  1.00  0.00     0.060 A 
ATOM     96  C   UNL A   1      31.069  30.032  24.993  1.00  0.00     0.051 A 
ATOM     97  C   UNL A   1      30.899  28.728  22.984  1.00  0.00     0.166 A 
ATOM     98  C   UNL A   1      30.396  29.669  23.849  1.00  0.00     0.165 A 
ATOM     99  O   UNL A   1      30.099  28.535  21.902  1.00  0.00    -0.454 OA
ATOM    100  O   UNL A   1      29.199  30.164  23.437  1.00  0.00    -0.454 OA
ATOM    101  C   UNL A   1      29.042  29.481  22.174  1.00  0.00     0.468 C 
ENDBRANCH  92  93
ENDBRANCH  90  92
ENDBRANCH  79  83
ENDBRANCH  75  77
ENDBRANCH  74  75
ENDBRANCH  73  74
ENDBRANCH  72  73
ENDBRANCH   1  72
TORSDOF 20
ENDMDL
MODEL 3
REMARK VINA RESULT:     -10.4      4.863     10.595
REMARK SMILES O=C(OCCOCCOC(=O)[C@@H]1CC=CC[C@H]1C(=O)N1CC[NH+](Cc2ccc3c(c2)OCO3)CC1)c1ccc(-c2c3nc(c(-c4cc(S(=O)(=O)[O-])ccc4F)c4ccc([nH]4)c(-c4cc(S(=O)(=O)[O-])ccc4F)c4nc(c(-c5cc(S(=O)(=O)[O-])ccc5F)c5ccc2[nH]5)C=C4)C=C3)cc1
REMARK SMILES IDX 6 1 5 2 4 3 3 4 2 5 1 6 36 7 37 8 98 9 38 10 97 11 39 12
REMARK SMILES IDX 40 13 41 14 91 15 42 16 96 17 90 18 92 19 43 20 95 21 89 22
REMARK SMILES IDX 88 23 44 25 76 26 56 27 75 28 57 29 60 30 74 31 93 32 58 33
REMARK SMILES IDX 59 34 73 36 94 37 61 38 45 39 46 40 54 41 47 42 53 43 55 44
REMARK SMILES IDX 52 45 48 46 49 47 50 48 51 49 77 50 78 51 86 52 79 53 85 54
REMARK SMILES IDX 87 55 84 56 80 57 81 58 82 59 83 60 62 61 63 62 71 63 64 64
REMARK SMILES IDX 70 65 72 66 69 67 65 68 66 69 67 70 68 71 7 72 8 73 9 74
REMARK SMILES IDX 10 75 11 76 12 77 13 78 17 79 14 80 16 81 15 82 18 83 19 84
REMARK SMILES IDX 20 85 21 86 35 87 22 88 34 89 23 90 24 92 25 93 26 94 30 95
REMARK SMILES IDX 27 96 29 97 28 98 31 99 33 100 32 101
REMARK H PARENT 92 24 60 35 23 91
REMARK Flexibility Score: inf
ROOT
ATOM      1  O   UNL A   1      35.076  33.106  34.308  1.00  0.00    -0.374 OA
ENDROOT
BRANCH   1   2
ATOM      2  C   UNL A   1      36.489  32.896  34.316  1.00  0.00     0.202 C 
BRANCH   2   3
ATOM      3  C   UNL A   1      37.364  34.147  34.195  1.00  0.00     0.261 C 
BRANCH   3   4
ATOM      4  O   UNL A   1      38.412  33.939  33.231  1.00  0.00    -0.460 OA
BRANCH   4   5
ATOM      5  C   UNL A   1      38.423  34.363  31.943  1.00  0.00     0.338 C 
ATOM      6  O   UNL A   1      37.360  34.655  31.399  1.00  0.00    -0.246 OA
BRANCH   5   7
ATOM      7  C   UNL A   1      39.685  34.519  31.164  1.00  0.00     0.060 A 
ATOM      8  C   UNL A   1      40.952  34.429  31.728  1.00  0.00     0.016 A 
ATOM      9  C   UNL A   1      39.594  34.709  29.778  1.00  0.00     0.016 A 
ATOM     10  C   UNL A   1      42.097  34.592  30.989  1.00  0.00     0.010 A 
ATOM     11  C   UNL A   1      40.754  34.820  29.001  1.00  0.00     0.010 A 
ATOM     12  C   UNL A   1      42.008  34.761  29.620  1.00  0.00    -0.014 A 
BRANCH  12  13
ATOM     13  C   UNL A   1      43.280  35.009  28.935  1.00  0.00     0.031 A 
ATOM     14  C   UNL A   1      44.078  33.824  28.511  1.00  0.00     0.074 A 
ATOM     15  C   UNL A   1      43.568  36.254  28.515  1.00  0.00     0.049 A 
ATOM     16  N   UNL A   1      45.279  33.775  28.014  1.00  0.00    -0.248 NA
ATOM     17  C   UNL A   1      43.423  32.515  28.664  1.00  0.00     0.031 C 
ATOM     18  C   UNL A   1      42.703  37.426  28.696  1.00  0.00     0.029 A 
ATOM     19  N   UNL A   1      44.633  36.736  27.810  1.00  0.00    -0.354 N 
ATOM     20  C   UNL A   1      45.555  32.423  27.856  1.00  0.00     0.074 A 
ATOM     21  C   UNL A   1      44.385  31.690  28.286  1.00  0.00     0.031 C 
ATOM     22  C   UNL A   1      43.269  38.485  28.096  1.00  0.00     0.029 A 
ATOM     23  C   UNL A   1      44.583  38.094  27.603  1.00  0.00     0.049 A 
ATOM     24  H   UNL A   1      45.367  36.166  27.482  1.00  0.00     0.167 HD
ATOM     25  C   UNL A   1      46.711  31.868  27.420  1.00  0.00     0.034 A 
ATOM     26  C   UNL A   1      45.534  38.926  27.141  1.00  0.00     0.034 A 
ATOM     27  C   UNL A   1      47.836  32.673  27.015  1.00  0.00     0.049 A 
ATOM     28  C   UNL A   1      46.864  38.305  26.788  1.00  0.00     0.074 A 
ATOM     29  C   UNL A   1      49.113  32.278  26.669  1.00  0.00     0.029 A 
ATOM     30  N   UNL A   1      47.804  34.063  26.906  1.00  0.00    -0.354 N 
ATOM     31  N   UNL A   1      47.207  37.034  26.803  1.00  0.00    -0.248 NA
ATOM     32  C   UNL A   1      47.936  39.218  26.387  1.00  0.00     0.031 C 
ATOM     33  C   UNL A   1      49.868  33.431  26.417  1.00  0.00     0.029 A 
ATOM     34  C   UNL A   1      49.041  34.543  26.519  1.00  0.00     0.049 A 
ATOM     35  H   UNL A   1      47.012  34.622  27.079  1.00  0.00     0.167 HD
ATOM     36  C   UNL A   1      48.536  36.994  26.400  1.00  0.00     0.074 A 
ATOM     37  C   UNL A   1      48.921  38.369  26.131  1.00  0.00     0.031 C 
ATOM     38  C   UNL A   1      49.370  35.929  26.264  1.00  0.00     0.034 A 
BRANCH  25  39
ATOM     39  C   UNL A   1      46.823  30.368  27.533  1.00  0.00     0.023 A 
ATOM     40  C   UNL A   1      46.499  29.507  26.469  1.00  0.00     0.031 A 
ATOM     41  C   UNL A   1      47.114  29.788  28.782  1.00  0.00     0.131 A 
ATOM     42  C   UNL A   1      46.370  28.127  26.702  1.00  0.00     0.055 A 
ATOM     43  C   UNL A   1      47.077  28.407  28.981  1.00  0.00     0.041 A 
ATOM     44  F   UNL A   1      47.392  30.558  29.845  1.00  0.00    -0.206 F 
ATOM     45  C   UNL A   1      46.682  27.569  27.944  1.00  0.00     0.022 A 
BRANCH  42  46
ATOM     46  S   UNL A   1      45.595  27.099  25.421  1.00  0.00     0.124 S 
ATOM     47  O   UNL A   1      44.176  27.272  25.725  1.00  0.00    -0.237 OA
ATOM     48  O   UNL A   1      46.064  27.722  24.189  1.00  0.00    -0.237 OA
ATOM     49  O   UNL A   1      46.123  25.763  25.686  1.00  0.00    -0.744 OA
ENDBRANCH  42  46
ENDBRANCH  25  39
BRANCH  26  50
ATOM     50  C   UNL A   1      45.313  40.401  27.109  1.00  0.00     0.023 A 
ATOM     51  C   UNL A   1      44.977  41.067  25.922  1.00  0.00     0.031 A 
ATOM     52  C   UNL A   1      45.468  41.181  28.274  1.00  0.00     0.131 A 
ATOM     53  C   UNL A   1      44.838  42.467  25.917  1.00  0.00     0.055 A 
ATOM     54  C   UNL A   1      45.270  42.562  28.278  1.00  0.00     0.041 A 
ATOM     55  F   UNL A   1      45.803  40.604  29.440  1.00  0.00    -0.206 F 
ATOM     56  C   UNL A   1      44.965  43.215  27.091  1.00  0.00     0.022 A 
BRANCH  53  57
ATOM     57  S   UNL A   1      44.571  43.313  24.335  1.00  0.00     0.124 S 
ATOM     58  O   UNL A   1      43.117  43.441  24.311  1.00  0.00    -0.237 OA
ATOM     59  O   UNL A   1      45.322  44.549  24.522  1.00  0.00    -0.237 OA
ATOM     60  O   UNL A   1      45.132  42.386  23.355  1.00  0.00    -0.744 OA
ENDBRANCH  53  57
ENDBRANCH  26  50
BRANCH  38  61
ATOM     61  C   UNL A   1      50.753  36.220  25.745  1.00  0.00     0.023 A 
ATOM     62  C   UNL A   1      51.873  36.233  26.590  1.00  0.00     0.031 A 
ATOM     63  C   UNL A   1      50.942  36.470  24.375  1.00  0.00     0.131 A 
ATOM     64  C   UNL A   1      53.134  36.538  26.061  1.00  0.00     0.055 A 
ATOM     65  C   UNL A   1      52.208  36.710  23.846  1.00  0.00     0.041 A 
ATOM     66  F   UNL A   1      49.899  36.471  23.530  1.00  0.00    -0.206 F 
ATOM     67  C   UNL A   1      53.311  36.756  24.692  1.00  0.00     0.022 A 
BRANCH  64  68
ATOM     68  S   UNL A   1      54.531  36.728  27.201  1.00  0.00     0.124 S 
ATOM     69  O   UNL A   1      55.609  37.116  26.297  1.00  0.00    -0.237 OA
ATOM     70  O   UNL A   1      54.055  37.768  28.109  1.00  0.00    -0.237 OA
ATOM     71  O   UNL A   1      54.668  35.401  27.797  1.00  0.00    -0.744 OA
ENDBRANCH  64  68
ENDBRANCH  38  61
ENDBRANCH  12  13
ENDBRANCH   5   7
ENDBRANCH   4   5
ENDBRANCH   3   4
ENDBRANCH   2   3
ENDBRANCH   1   2
BRANCH   1  72
ATOM     72  C   UNL A   1      34.512  33.527  33.074  1.00  0.00     0.202 C 
BRANCH  72  73
ATOM     73  C   UNL A   1      34.807  32.490  31.999  1.00  0.00     0.261 C 
BRANCH  73  74
ATOM     74  O   UNL A   1      34.099  32.848  30.795  1.00  0.00    -0.463 OA
BRANCH  74  75
ATOM     75  C   UNL A   1      34.855  33.042  29.681  1.00  0.00     0.310 C 
ATOM     76  O   UNL A   1      34.956  34.115  29.099  1.00  0.00    -0.252 OA
BRANCH  75  77
ATOM     77  C   UNL A   1      35.553  31.765  29.218  1.00  0.00     0.115 C 
ATOM     78  C   UNL A   1      37.086  31.986  29.219  1.00  0.00     0.043 C 
ATOM     79  C   UNL A   1      35.132  31.227  27.839  1.00  0.00     0.097 C 
ATOM     80  C   UNL A   1      37.861  30.823  28.678  1.00  0.00    -0.030 C 
ATOM     81  C   UNL A   1      35.855  29.895  27.532  1.00  0.00     0.041 C 
ATOM     82  C   UNL A   1      37.298  29.872  27.924  1.00  0.00    -0.030 C 
BRANCH  79  83
ATOM     83  C   UNL A   1      33.687  30.965  27.396  1.00  0.00     0.227 C 
ATOM     84  O   UNL A   1      32.920  31.938  27.366  1.00  0.00    -0.275 OA
ATOM     85  N   UNL A   1      33.357  29.790  26.751  1.00  0.00    -0.331 N 
ATOM     86  C   UNL A   1      32.304  29.867  25.741  1.00  0.00     0.181 C 
ATOM     87  C   UNL A   1      33.445  28.486  27.398  1.00  0.00     0.181 C 
ATOM     88  C   UNL A   1      32.365  28.696  24.743  1.00  0.00     0.284 C 
ATOM     89  C   UNL A   1      33.488  27.316  26.403  1.00  0.00     0.284 C 
ATOM     90  N   UNL A   1      32.510  27.349  25.312  1.00  0.00    -0.328 N 
ATOM     91  H   UNL A   1      32.912  26.788  24.561  1.00  0.00     0.348 HD
BRANCH  90  92
ATOM     92  C   UNL A   1      31.265  26.616  25.560  1.00  0.00     0.299 C 
BRANCH  92  93
ATOM     93  C   UNL A   1      31.316  25.110  25.463  1.00  0.00     0.010 A 
ATOM     94  C   UNL A   1      30.477  24.308  26.272  1.00  0.00     0.013 A 
ATOM     95  C   UNL A   1      32.206  24.488  24.572  1.00  0.00     0.060 A 
ATOM     96  C   UNL A   1      30.584  22.914  26.266  1.00  0.00     0.051 A 
ATOM     97  C   UNL A   1      32.271  23.111  24.570  1.00  0.00     0.166 A 
ATOM     98  C   UNL A   1      31.499  22.346  25.409  1.00  0.00     0.165 A 
ATOM     99  O   UNL A   1      33.088  22.360  23.784  1.00  0.00    -0.454 OA
ATOM    100  O   UNL A   1      31.756  21.018  25.282  1.00  0.00    -0.454 OA
ATOM    101  C   UNL A   1      32.725  21.029  24.211  1.00  0.00     0.468 C 
ENDBRANCH  92  93
ENDBRANCH  90  92
ENDBRANCH  79  83
ENDBRANCH  75  77
ENDBRANCH  74  75
ENDBRANCH  73  74
ENDBRANCH  72  73
ENDBRANCH   1  72
TORSDOF 20
ENDMDL
