MODEL 1
REMARK VINA RESULT:     -10.5      0.000      0.000
REMARK SMILES C[N@@H+](CC(=O)OCCOCCOC(=O)c1ccc(-c2c3nc(c(-c4cc(S(=O)(=O)[O-])ccc4F)c4ccc([nH]4)c(-c4cc(S(=O)(=O)[O-])ccc4F)c4nc(c(-c5cc(S(=O)(=O)[O-])ccc5F)c5ccc2[nH]5)C=C4)C=C3)cc1)Cc1nccs1
REMARK SMILES IDX 9 1 8 2 7 3 6 4 4 5 5 6 3 7 2 8 1 9 78 11 79 12 80 13 83 14
REMARK SMILES IDX 81 15 82 16 10 17 11 18 12 19 13 20 14 21 15 22 16 23 77 24
REMARK SMILES IDX 17 25 76 26 18 27 19 28 20 29 70 30 21 31 75 32 69 33 71 34
REMARK SMILES IDX 22 35 74 36 68 37 67 38 23 40 55 41 35 42 54 43 36 44 39 45
REMARK SMILES IDX 53 46 72 47 37 48 38 49 52 51 73 52 40 53 24 54 25 55 33 56
REMARK SMILES IDX 26 57 32 58 34 59 31 60 27 61 28 62 29 63 30 64 56 65 57 66
REMARK SMILES IDX 65 67 58 68 64 69 66 70 63 71 59 72 60 73 61 74 62 75 41 76
REMARK SMILES IDX 42 77 50 78 43 79 49 80 51 81 48 82 44 83 45 84 46 85 47 86
REMARK H PARENT 2 10 71 39 39 50
REMARK Flexibility Score: inf
ROOT
ATOM      1  O   UNL A   1      32.250  29.293  27.251  1.00  0.00    -0.374 OA
ENDROOT
BRANCH   1   2
ATOM      2  C   UNL A   1      33.160  28.253  26.831  1.00  0.00     0.202 C 
BRANCH   2   3
ATOM      3  C   UNL A   1      32.596  27.017  26.136  1.00  0.00     0.261 C 
BRANCH   3   4
ATOM      4  O   UNL A   1      31.649  26.301  26.932  1.00  0.00    -0.459 OA
BRANCH   4   5
ATOM      5  C   UNL A   1      31.331  25.063  26.491  1.00  0.00     0.361 C 
ATOM      6  O   UNL A   1      30.618  24.265  27.093  1.00  0.00    -0.245 OA
BRANCH   5   7
ATOM      7  C   UNL A   1      32.020  24.692  25.187  1.00  0.00     0.386 C 
BRANCH   7   8
ATOM      8  N   UNL A   1      33.055  23.643  25.189  1.00  0.00    -0.322 N 
ATOM      9  C   UNL A   1      34.201  23.867  26.052  1.00  0.00     0.333 C 
ATOM     10  H   UNL A   1      32.541  22.895  25.657  1.00  0.00     0.348 HD
BRANCH   8  11
ATOM     11  C   UNL A   1      33.398  23.064  23.894  1.00  0.00     0.331 C 
BRANCH  11  12
ATOM     12  C   UNL A   1      33.143  21.598  23.695  1.00  0.00     0.147 A 
ATOM     13  N   UNL A   1      32.111  20.659  22.788  1.00  0.00    -0.244 NA
ATOM     14  S   UNL A   1      34.457  20.254  25.020  1.00  0.00    -0.122 S 
ATOM     15  C   UNL A   1      32.332  18.754  22.966  1.00  0.00     0.123 A 
ATOM     16  C   UNL A   1      33.505  18.367  24.147  1.00  0.00     0.087 A 
ENDBRANCH  11  12
ENDBRANCH   8  11
ENDBRANCH   7   8
ENDBRANCH   5   7
ENDBRANCH   4   5
ENDBRANCH   3   4
ENDBRANCH   2   3
ENDBRANCH   1   2
BRANCH   1  17
ATOM     17  C   UNL A   1      31.874  30.564  26.321  1.00  0.00     0.202 C 
BRANCH  17  18
ATOM     18  C   UNL A   1      31.508  32.686  26.922  1.00  0.00     0.261 C 
BRANCH  18  19
ATOM     19  O   UNL A   1      32.696  33.805  27.088  1.00  0.00    -0.460 OA
BRANCH  19  20
ATOM     20  C   UNL A   1      33.301  33.927  28.290  1.00  0.00     0.338 C 
ATOM     21  O   UNL A   1      32.823  34.437  29.293  1.00  0.00    -0.246 OA
BRANCH  20  22
ATOM     22  C   UNL A   1      34.522  33.097  28.339  1.00  0.00     0.060 A 
ATOM     23  C   UNL A   1      34.371  31.714  28.537  1.00  0.00     0.016 A 
ATOM     24  C   UNL A   1      35.784  33.683  28.365  1.00  0.00     0.016 A 
ATOM     25  C   UNL A   1      35.465  30.936  28.904  1.00  0.00     0.010 A 
ATOM     26  C   UNL A   1      36.881  32.903  28.736  1.00  0.00     0.010 A 
ATOM     27  C   UNL A   1      36.708  31.550  29.084  1.00  0.00    -0.014 A 
BRANCH  27  28
ATOM     28  C   UNL A   1      37.780  30.849  29.827  1.00  0.00     0.031 A 
ATOM     29  C   UNL A   1      38.039  31.242  31.257  1.00  0.00     0.074 A 
ATOM     30  C   UNL A   1      38.509  29.891  29.233  1.00  0.00     0.049 A 
ATOM     31  N   UNL A   1      39.007  30.881  32.057  1.00  0.00    -0.248 NA
ATOM     32  C   UNL A   1      37.083  32.187  31.860  1.00  0.00     0.031 C 
ATOM     33  C   UNL A   1      38.293  29.394  27.876  1.00  0.00     0.029 A 
ATOM     34  N   UNL A   1      39.590  29.183  29.688  1.00  0.00    -0.354 N 
ATOM     35  C   UNL A   1      38.794  31.570  33.247  1.00  0.00     0.074 A 
ATOM     36  C   UNL A   1      37.623  32.397  33.050  1.00  0.00     0.031 C 
ATOM     37  C   UNL A   1      39.229  28.471  27.599  1.00  0.00     0.029 A 
ATOM     38  C   UNL A   1      40.140  28.360  28.735  1.00  0.00     0.049 A 
ATOM     39  H   UNL A   1      39.937  29.255  30.606  1.00  0.00     0.167 HD
ATOM     40  C   UNL A   1      39.514  31.513  34.393  1.00  0.00     0.034 A 
ATOM     41  C   UNL A   1      41.278  27.639  28.763  1.00  0.00     0.034 A 
ATOM     42  C   UNL A   1      40.688  30.688  34.548  1.00  0.00     0.049 A 
ATOM     43  C   UNL A   1      42.121  27.667  30.013  1.00  0.00     0.074 A 
ATOM     44  C   UNL A   1      41.490  30.531  35.664  1.00  0.00     0.029 A 
ATOM     45  N   UNL A   1      41.240  29.895  33.548  1.00  0.00    -0.354 N 
ATOM     46  N   UNL A   1      41.918  28.323  31.135  1.00  0.00    -0.248 NA
ATOM     47  C   UNL A   1      43.342  26.853  30.007  1.00  0.00     0.031 C 
ATOM     48  C   UNL A   1      42.579  29.730  35.309  1.00  0.00     0.029 A 
ATOM     49  C   UNL A   1      42.396  29.286  34.009  1.00  0.00     0.049 A 
ATOM     50  H   UNL A   1      40.864  29.782  32.646  1.00  0.00     0.167 HD
ATOM     51  C   UNL A   1      42.965  27.965  31.980  1.00  0.00     0.074 A 
ATOM     52  C   UNL A   1      43.789  27.032  31.241  1.00  0.00     0.031 C 
ATOM     53  C   UNL A   1      43.215  28.363  33.255  1.00  0.00     0.034 A 
BRANCH  40  54
ATOM     54  C   UNL A   1      39.097  32.411  35.536  1.00  0.00     0.023 A 
ATOM     55  C   UNL A   1      39.560  33.733  35.655  1.00  0.00     0.031 A 
ATOM     56  C   UNL A   1      38.234  31.928  36.538  1.00  0.00     0.131 A 
ATOM     57  C   UNL A   1      39.222  34.496  36.783  1.00  0.00     0.055 A 
ATOM     58  C   UNL A   1      37.825  32.724  37.609  1.00  0.00     0.041 A 
ATOM     59  F   UNL A   1      37.780  30.665  36.499  1.00  0.00    -0.206 F 
ATOM     60  C   UNL A   1      38.333  34.012  37.746  1.00  0.00     0.022 A 
BRANCH  57  61
ATOM     61  S   UNL A   1      40.093  36.061  37.062  1.00  0.00     0.124 S 
ATOM     62  O   UNL A   1      41.449  35.597  37.347  1.00  0.00    -0.237 OA
ATOM     63  O   UNL A   1      39.910  36.756  35.794  1.00  0.00    -0.237 OA
ATOM     64  O   UNL A   1      39.392  36.647  38.203  1.00  0.00    -0.744 OA
ENDBRANCH  57  61
ENDBRANCH  40  54
BRANCH  41  65
ATOM     65  C   UNL A   1      41.702  26.865  27.564  1.00  0.00     0.023 A 
ATOM     66  C   UNL A   1      41.451  25.489  27.468  1.00  0.00     0.031 A 
ATOM     67  C   UNL A   1      42.397  27.484  26.507  1.00  0.00     0.131 A 
ATOM     68  C   UNL A   1      41.932  24.767  26.366  1.00  0.00     0.055 A 
ATOM     69  C   UNL A   1      42.809  26.774  25.379  1.00  0.00     0.041 A 
ATOM     70  F   UNL A   1      42.671  28.798  26.550  1.00  0.00    -0.206 F 
ATOM     71  C   UNL A   1      42.589  25.403  25.310  1.00  0.00     0.022 A 
BRANCH  68  72
ATOM     72  S   UNL A   1      41.787  22.960  26.389  1.00  0.00     0.124 S 
ATOM     73  O   UNL A   1      42.504  22.593  25.172  1.00  0.00    -0.237 OA
ATOM     74  O   UNL A   1      42.441  22.619  27.647  1.00  0.00    -0.237 OA
ATOM     75  O   UNL A   1      40.344  22.735  26.356  1.00  0.00    -0.744 OA
ENDBRANCH  68  72
ENDBRANCH  41  65
BRANCH  53  76
ATOM     76  C   UNL A   1      44.397  27.737  33.955  1.00  0.00     0.023 A 
ATOM     77  C   UNL A   1      44.342  26.446  34.505  1.00  0.00     0.031 A 
ATOM     78  C   UNL A   1      45.603  28.454  34.074  1.00  0.00     0.131 A 
ATOM     79  C   UNL A   1      45.445  25.939  35.206  1.00  0.00     0.055 A 
ATOM     80  C   UNL A   1      46.726  27.909  34.697  1.00  0.00     0.041 A 
ATOM     81  F   UNL A   1      45.712  29.696  33.577  1.00  0.00    -0.206 F 
ATOM     82  C   UNL A   1      46.646  26.651  35.283  1.00  0.00     0.022 A 
BRANCH  79  83
ATOM     83  S   UNL A   1      45.249  24.392  36.134  1.00  0.00     0.124 S 
ATOM     84  O   UNL A   1      46.010  23.452  35.317  1.00  0.00    -0.237 OA
ATOM     85  O   UNL A   1      45.830  24.728  37.430  1.00  0.00    -0.237 OA
ATOM     86  O   UNL A   1      43.802  24.178  36.140  1.00  0.00    -0.744 OA
ENDBRANCH  79  83
ENDBRANCH  53  76
ENDBRANCH  27  28
ENDBRANCH  20  22
ENDBRANCH  19  20
ENDBRANCH  18  19
ENDBRANCH  17  18
ENDBRANCH   1  17
TORSDOF 20
ENDMDL
MODEL 2
REMARK VINA RESULT:     -10.5      4.922     10.608
REMARK SMILES C[N@@H+](CC(=O)OCCOCCOC(=O)c1ccc(-c2c3nc(c(-c4cc(S(=O)(=O)[O-])ccc4F)c4ccc([nH]4)c(-c4cc(S(=O)(=O)[O-])ccc4F)c4nc(c(-c5cc(S(=O)(=O)[O-])ccc5F)c5ccc2[nH]5)C=C4)C=C3)cc1)Cc1nccs1
REMARK SMILES IDX 9 1 8 2 7 3 6 4 4 5 5 6 3 7 2 8 1 9 78 11 79 12 80 13 83 14
REMARK SMILES IDX 81 15 82 16 10 17 11 18 12 19 13 20 14 21 15 22 16 23 77 24
REMARK SMILES IDX 17 25 76 26 18 27 19 28 20 29 70 30 21 31 75 32 69 33 71 34
REMARK SMILES IDX 22 35 74 36 68 37 67 38 23 40 55 41 35 42 54 43 36 44 39 45
REMARK SMILES IDX 53 46 72 47 37 48 38 49 52 51 73 52 40 53 24 54 25 55 33 56
REMARK SMILES IDX 26 57 32 58 34 59 31 60 27 61 28 62 29 63 30 64 56 65 57 66
REMARK SMILES IDX 65 67 58 68 64 69 66 70 63 71 59 72 60 73 61 74 62 75 41 76
REMARK SMILES IDX 42 77 50 78 43 79 49 80 51 81 48 82 44 83 45 84 46 85 47 86
REMARK H PARENT 2 10 71 39 39 50
REMARK Flexibility Score: inf
ROOT
ATOM      1  O   UNL A   1      35.447  21.494  25.203  1.00  0.00    -0.374 OA
ENDROOT
BRANCH   1   2
ATOM      2  C   UNL A   1      35.212  21.806  26.593  1.00  0.00     0.202 C 
BRANCH   2   3
ATOM      3  C   UNL A   1      34.164  22.858  26.945  1.00  0.00     0.261 C 
BRANCH   3   4
ATOM      4  O   UNL A   1      32.833  22.340  26.997  1.00  0.00    -0.459 OA
BRANCH   4   5
ATOM      5  C   UNL A   1      31.856  23.199  26.629  1.00  0.00     0.361 C 
ATOM      6  O   UNL A   1      31.524  24.197  27.264  1.00  0.00    -0.245 OA
BRANCH   5   7
ATOM      7  C   UNL A   1      31.118  22.770  25.372  1.00  0.00     0.386 C 
BRANCH   7   8
ATOM      8  N   UNL A   1      31.712  23.052  24.053  1.00  0.00    -0.322 N 
ATOM      9  C   UNL A   1      32.428  21.958  23.421  1.00  0.00     0.333 C 
ATOM     10  H   UNL A   1      30.862  23.139  23.496  1.00  0.00     0.348 HD
BRANCH   8  11
ATOM     11  C   UNL A   1      32.360  24.349  23.893  1.00  0.00     0.331 C 
BRANCH  11  12
ATOM     12  C   UNL A   1      31.486  25.536  23.605  1.00  0.00     0.147 A 
ATOM     13  N   UNL A   1      29.870  25.909  23.727  1.00  0.00    -0.244 NA
ATOM     14  S   UNL A   1      32.628  27.310  22.691  1.00  0.00    -0.122 S 
ATOM     15  C   UNL A   1      29.378  27.698  23.209  1.00  0.00     0.123 A 
ATOM     16  C   UNL A   1      30.717  28.561  22.591  1.00  0.00     0.087 A 
ENDBRANCH  11  12
ENDBRANCH   8  11
ENDBRANCH   7   8
ENDBRANCH   5   7
ENDBRANCH   4   5
ENDBRANCH   3   4
ENDBRANCH   2   3
ENDBRANCH   1   2
BRANCH   1  17
ATOM     17  C   UNL A   1      36.929  21.278  24.588  1.00  0.00     0.202 C 
BRANCH  17  18
ATOM     18  C   UNL A   1      38.397  19.643  24.999  1.00  0.00     0.261 C 
BRANCH  18  19
ATOM     19  O   UNL A   1      39.330  19.572  26.346  1.00  0.00    -0.460 OA
BRANCH  19  20
ATOM     20  C   UNL A   1      40.575  20.096  26.294  1.00  0.00     0.338 C 
ATOM     21  O   UNL A   1      41.497  19.703  25.594  1.00  0.00    -0.246 OA
BRANCH  20  22
ATOM     22  C   UNL A   1      40.611  21.405  26.976  1.00  0.00     0.060 A 
ATOM     23  C   UNL A   1      39.740  22.410  26.524  1.00  0.00     0.016 A 
ATOM     24  C   UNL A   1      41.596  21.693  27.918  1.00  0.00     0.016 A 
ATOM     25  C   UNL A   1      39.940  23.734  26.901  1.00  0.00     0.010 A 
ATOM     26  C   UNL A   1      41.799  23.023  28.294  1.00  0.00     0.010 A 
ATOM     27  C   UNL A   1      41.025  24.051  27.724  1.00  0.00    -0.014 A 
BRANCH  27  28
ATOM     28  C   UNL A   1      41.489  25.453  27.832  1.00  0.00     0.031 A 
ATOM     29  C   UNL A   1      42.859  25.799  27.314  1.00  0.00     0.074 A 
ATOM     30  C   UNL A   1      40.706  26.390  28.388  1.00  0.00     0.049 A 
ATOM     31  N   UNL A   1      43.536  26.911  27.428  1.00  0.00    -0.248 NA
ATOM     32  C   UNL A   1      43.570  24.737  26.583  1.00  0.00     0.031 C 
ATOM     33  C   UNL A   1      39.339  26.171  28.859  1.00  0.00     0.029 A 
ATOM     34  N   UNL A   1      40.955  27.708  28.670  1.00  0.00    -0.354 N 
ATOM     35  C   UNL A   1      44.759  26.677  26.807  1.00  0.00     0.074 A 
ATOM     36  C   UNL A   1      44.742  25.305  26.349  1.00  0.00     0.031 C 
ATOM     37  C   UNL A   1      38.876  27.312  29.391  1.00  0.00     0.029 A 
ATOM     38  C   UNL A   1      39.932  28.321  29.352  1.00  0.00     0.049 A 
ATOM     39  H   UNL A   1      41.784  28.170  28.408  1.00  0.00     0.167 HD
ATOM     40  C   UNL A   1      45.796  27.534  26.641  1.00  0.00     0.034 A 
ATOM     41  C   UNL A   1      39.877  29.540  29.922  1.00  0.00     0.034 A 
ATOM     42  C   UNL A   1      45.783  28.893  27.127  1.00  0.00     0.049 A 
ATOM     43  C   UNL A   1      41.080  30.444  29.813  1.00  0.00     0.074 A 
ATOM     44  C   UNL A   1      46.763  29.861  27.003  1.00  0.00     0.029 A 
ATOM     45  N   UNL A   1      44.744  29.470  27.848  1.00  0.00    -0.354 N 
ATOM     46  N   UNL A   1      42.235  30.218  29.228  1.00  0.00    -0.248 NA
ATOM     47  C   UNL A   1      40.969  31.770  30.432  1.00  0.00     0.031 C 
ATOM     48  C   UNL A   1      46.362  30.982  27.736  1.00  0.00     0.029 A 
ATOM     49  C   UNL A   1      45.080  30.763  28.216  1.00  0.00     0.049 A 
ATOM     50  H   UNL A   1      43.893  29.025  28.066  1.00  0.00     0.167 HD
ATOM     51  C   UNL A   1      42.972  31.390  29.375  1.00  0.00     0.074 A 
ATOM     52  C   UNL A   1      42.127  32.320  30.095  1.00  0.00     0.031 C 
ATOM     53  C   UNL A   1      44.228  31.676  28.944  1.00  0.00     0.034 A 
BRANCH  40  54
ATOM     54  C   UNL A   1      47.045  27.010  25.969  1.00  0.00     0.023 A 
ATOM     55  C   UNL A   1      48.046  26.329  26.682  1.00  0.00     0.031 A 
ATOM     56  C   UNL A   1      47.248  27.215  24.591  1.00  0.00     0.131 A 
ATOM     57  C   UNL A   1      49.232  25.946  26.035  1.00  0.00     0.055 A 
ATOM     58  C   UNL A   1      48.387  26.747  23.934  1.00  0.00     0.041 A 
ATOM     59  F   UNL A   1      46.343  27.884  23.859  1.00  0.00    -0.206 F 
ATOM     60  C   UNL A   1      49.396  26.122  24.660  1.00  0.00     0.022 A 
BRANCH  57  61
ATOM     61  S   UNL A   1      50.623  25.371  27.046  1.00  0.00     0.124 S 
ATOM     62  O   UNL A   1      49.996  24.314  27.836  1.00  0.00    -0.237 OA
ATOM     63  O   UNL A   1      51.584  24.932  26.042  1.00  0.00    -0.237 OA
ATOM     64  O   UNL A   1      51.010  26.558  27.805  1.00  0.00    -0.744 OA
ENDBRANCH  57  61
ENDBRANCH  40  54
BRANCH  41  65
ATOM     65  C   UNL A   1      38.662  29.960  30.674  1.00  0.00     0.023 A 
ATOM     66  C   UNL A   1      37.641  30.686  30.046  1.00  0.00     0.031 A 
ATOM     67  C   UNL A   1      38.519  29.669  32.045  1.00  0.00     0.131 A 
ATOM     68  C   UNL A   1      36.545  31.140  30.795  1.00  0.00     0.055 A 
ATOM     69  C   UNL A   1      37.392  30.061  32.768  1.00  0.00     0.041 A 
ATOM     70  F   UNL A   1      39.471  28.984  32.698  1.00  0.00    -0.206 F 
ATOM     71  C   UNL A   1      36.402  30.813  32.146  1.00  0.00     0.022 A 
BRANCH  68  72
ATOM     72  S   UNL A   1      35.365  32.264  30.002  1.00  0.00     0.124 S 
ATOM     73  O   UNL A   1      36.233  33.367  29.603  1.00  0.00    -0.237 OA
ATOM     74  O   UNL A   1      34.838  31.438  28.922  1.00  0.00    -0.237 OA
ATOM     75  O   UNL A   1      34.417  32.571  31.071  1.00  0.00    -0.744 OA
ENDBRANCH  68  72
ENDBRANCH  41  65
BRANCH  53  76
ATOM     76  C   UNL A   1      44.739  33.076  29.183  1.00  0.00     0.023 A 
ATOM     77  C   UNL A   1      44.456  34.136  28.305  1.00  0.00     0.031 A 
ATOM     78  C   UNL A   1      45.531  33.351  30.315  1.00  0.00     0.131 A 
ATOM     79  C   UNL A   1      45.014  35.401  28.537  1.00  0.00     0.055 A 
ATOM     80  C   UNL A   1      46.010  34.632  30.585  1.00  0.00     0.041 A 
ATOM     81  F   UNL A   1      45.844  32.376  31.183  1.00  0.00    -0.206 F 
ATOM     82  C   UNL A   1      45.766  35.663  29.685  1.00  0.00     0.022 A 
BRANCH  79  83
ATOM     83  S   UNL A   1      44.854  36.669  27.249  1.00  0.00     0.124 S 
ATOM     84  O   UNL A   1      44.956  37.901  28.024  1.00  0.00    -0.237 OA
ATOM     85  O   UNL A   1      45.984  36.370  26.374  1.00  0.00    -0.237 OA
ATOM     86  O   UNL A   1      43.537  36.407  26.671  1.00  0.00    -0.744 OA
ENDBRANCH  79  83
ENDBRANCH  53  76
ENDBRANCH  27  28
ENDBRANCH  20  22
ENDBRANCH  19  20
ENDBRANCH  18  19
ENDBRANCH  17  18
ENDBRANCH   1  17
TORSDOF 20
ENDMDL
MODEL 3
REMARK VINA RESULT:     -10.3      5.097     10.874
REMARK SMILES C[N@@H+](CC(=O)OCCOCCOC(=O)c1ccc(-c2c3nc(c(-c4cc(S(=O)(=O)[O-])ccc4F)c4ccc([nH]4)c(-c4cc(S(=O)(=O)[O-])ccc4F)c4nc(c(-c5cc(S(=O)(=O)[O-])ccc5F)c5ccc2[nH]5)C=C4)C=C3)cc1)Cc1nccs1
REMARK SMILES IDX 9 1 8 2 7 3 6 4 4 5 5 6 3 7 2 8 1 9 78 11 79 12 80 13 83 14
REMARK SMILES IDX 81 15 82 16 10 17 11 18 12 19 13 20 14 21 15 22 16 23 77 24
REMARK SMILES IDX 17 25 76 26 18 27 19 28 20 29 70 30 21 31 75 32 69 33 71 34
REMARK SMILES IDX 22 35 74 36 68 37 67 38 23 40 55 41 35 42 54 43 36 44 39 45
REMARK SMILES IDX 53 46 72 47 37 48 38 49 52 51 73 52 40 53 24 54 25 55 33 56
REMARK SMILES IDX 26 57 32 58 34 59 31 60 27 61 28 62 29 63 30 64 56 65 57 66
REMARK SMILES IDX 65 67 58 68 64 69 66 70 63 71 59 72 60 73 61 74 62 75 41 76
REMARK SMILES IDX 42 77 50 78 43 79 49 80 51 81 48 82 44 83 45 84 46 85 47 86
REMARK H PARENT 2 10 71 39 39 50
REMARK Flexibility Score: inf
ROOT
ATOM      1  O   UNL A   1      37.489  22.034  24.451  1.00  0.00    -0.374 OA
ENDROOT
BRANCH   1   2
ATOM      2  C   UNL A   1      36.329  22.673  23.875  1.00  0.00     0.202 C 
BRANCH   2   3
ATOM      3  C   UNL A   1      35.426  23.511  24.776  1.00  0.00     0.261 C 
BRANCH   3   4
ATOM      4  O   UNL A   1      34.479  22.733  25.511  1.00  0.00    -0.459 OA
BRANCH   4   5
ATOM      5  C   UNL A   1      33.362  22.379  24.836  1.00  0.00     0.361 C 
ATOM      6  O   UNL A   1      33.349  21.728  23.794  1.00  0.00    -0.245 OA
BRANCH   5   7
ATOM      7  C   UNL A   1      32.087  22.943  25.441  1.00  0.00     0.386 C 
BRANCH   7   8
ATOM      8  N   UNL A   1      31.657  24.306  25.083  1.00  0.00    -0.322 N 
ATOM      9  C   UNL A   1      31.441  25.226  26.185  1.00  0.00     0.333 C 
ATOM     10  H   UNL A   1      32.513  24.647  24.646  1.00  0.00     0.348 HD
BRANCH   8  11
ATOM     11  C   UNL A   1      30.663  24.418  24.020  1.00  0.00     0.331 C 
BRANCH  11  12
ATOM     12  C   UNL A   1      30.194  25.793  23.644  1.00  0.00     0.147 A 
ATOM     13  N   UNL A   1      28.790  26.675  23.781  1.00  0.00    -0.244 NA
ATOM     14  S   UNL A   1      31.779  27.023  22.521  1.00  0.00    -0.122 S 
ATOM     15  C   UNL A   1      28.859  28.477  23.104  1.00  0.00     0.123 A 
ATOM     16  C   UNL A   1      30.360  28.808  22.358  1.00  0.00     0.087 A 
ENDBRANCH  11  12
ENDBRANCH   8  11
ENDBRANCH   7   8
ENDBRANCH   5   7
ENDBRANCH   4   5
ENDBRANCH   3   4
ENDBRANCH   2   3
ENDBRANCH   1   2
BRANCH   1  17
ATOM     17  C   UNL A   1      37.481  20.500  24.971  1.00  0.00     0.202 C 
BRANCH  17  18
ATOM     18  C   UNL A   1      39.205  19.217  25.587  1.00  0.00     0.261 C 
BRANCH  18  19
ATOM     19  O   UNL A   1      40.229  19.591  26.812  1.00  0.00    -0.460 OA
BRANCH  19  20
ATOM     20  C   UNL A   1      41.317  20.343  26.534  1.00  0.00     0.338 C 
ATOM     21  O   UNL A   1      42.191  20.078  25.721  1.00  0.00    -0.246 OA
BRANCH  20  22
ATOM     22  C   UNL A   1      41.177  21.689  27.124  1.00  0.00     0.060 A 
ATOM     23  C   UNL A   1      40.361  22.620  26.459  1.00  0.00     0.016 A 
ATOM     24  C   UNL A   1      41.964  22.081  28.204  1.00  0.00     0.016 A 
ATOM     25  C   UNL A   1      40.437  23.972  26.778  1.00  0.00     0.010 A 
ATOM     26  C   UNL A   1      42.042  23.439  28.521  1.00  0.00     0.010 A 
ATOM     27  C   UNL A   1      41.342  24.391  27.757  1.00  0.00    -0.014 A 
BRANCH  27  28
ATOM     28  C   UNL A   1      41.722  25.819  27.853  1.00  0.00     0.031 A 
ATOM     29  C   UNL A   1      43.031  26.257  27.252  1.00  0.00     0.074 A 
ATOM     30  C   UNL A   1      40.918  26.699  28.470  1.00  0.00     0.049 A 
ATOM     31  N   UNL A   1      43.641  27.410  27.337  1.00  0.00    -0.248 NA
ATOM     32  C   UNL A   1      43.758  25.250  26.463  1.00  0.00     0.031 C 
ATOM     33  C   UNL A   1      39.602  26.388  29.026  1.00  0.00     0.029 A 
ATOM     34  N   UNL A   1      41.101  28.028  28.752  1.00  0.00    -0.354 N 
ATOM     35  C   UNL A   1      44.834  27.261  26.636  1.00  0.00     0.074 A 
ATOM     36  C   UNL A   1      44.874  25.894  26.162  1.00  0.00     0.031 C 
ATOM     37  C   UNL A   1      39.103  27.493  29.601  1.00  0.00     0.029 A 
ATOM     38  C   UNL A   1      40.088  28.568  29.507  1.00  0.00     0.049 A 
ATOM     39  H   UNL A   1      41.880  28.545  28.444  1.00  0.00     0.167 HD
ATOM     40  C   UNL A   1      45.800  28.184  26.414  1.00  0.00     0.034 A 
ATOM     41  C   UNL A   1      39.992  29.775  30.095  1.00  0.00     0.034 A 
ATOM     42  C   UNL A   1      45.733  29.535  26.918  1.00  0.00     0.049 A 
ATOM     43  C   UNL A   1      41.125  30.756  29.921  1.00  0.00     0.074 A 
ATOM     44  C   UNL A   1      46.639  30.565  26.744  1.00  0.00     0.029 A 
ATOM     45  N   UNL A   1      44.708  30.038  27.712  1.00  0.00    -0.354 N 
ATOM     46  N   UNL A   1      42.252  30.610  29.260  1.00  0.00    -0.248 NA
ATOM     47  C   UNL A   1      40.971  32.067  30.563  1.00  0.00     0.031 C 
ATOM     48  C   UNL A   1      46.216  31.651  27.515  1.00  0.00     0.029 A 
ATOM     49  C   UNL A   1      44.985  31.346  28.074  1.00  0.00     0.049 A 
ATOM     50  H   UNL A   1      43.903  29.537  27.978  1.00  0.00     0.167 HD
ATOM     51  C   UNL A   1      42.921  31.826  29.374  1.00  0.00     0.074 A 
ATOM     52  C   UNL A   1      42.066  32.693  30.159  1.00  0.00     0.031 C 
ATOM     53  C   UNL A   1      44.126  32.196  28.867  1.00  0.00     0.034 A 
BRANCH  40  54
ATOM     54  C   UNL A   1      47.034  27.748  25.657  1.00  0.00     0.023 A 
ATOM     55  C   UNL A   1      47.215  28.039  24.293  1.00  0.00     0.031 A 
ATOM     56  C   UNL A   1      48.040  27.008  26.306  1.00  0.00     0.131 A 
ATOM     57  C   UNL A   1      48.330  27.531  23.609  1.00  0.00     0.055 A 
ATOM     58  C   UNL A   1      49.194  26.587  25.642  1.00  0.00     0.041 A 
ATOM     59  F   UNL A   1      47.914  26.671  27.600  1.00  0.00    -0.206 F 
ATOM     60  C   UNL A   1      49.336  26.833  24.281  1.00  0.00     0.022 A 
BRANCH  57  61
ATOM     61  S   UNL A   1      48.362  27.647  21.800  1.00  0.00     0.124 S 
ATOM     62  O   UNL A   1      49.473  28.570  21.583  1.00  0.00    -0.237 OA
ATOM     63  O   UNL A   1      48.593  26.264  21.398  1.00  0.00    -0.237 OA
ATOM     64  O   UNL A   1      47.044  28.182  21.466  1.00  0.00    -0.744 OA
ENDBRANCH  57  61
ENDBRANCH  40  54
BRANCH  41  65
ATOM     65  C   UNL A   1      38.804  30.109  30.930  1.00  0.00     0.023 A 
ATOM     66  C   UNL A   1      37.729  30.832  30.395  1.00  0.00     0.031 A 
ATOM     67  C   UNL A   1      38.742  29.739  32.286  1.00  0.00     0.131 A 
ATOM     68  C   UNL A   1      36.658  31.205  31.222  1.00  0.00     0.055 A 
ATOM     69  C   UNL A   1      37.641  30.050  33.086  1.00  0.00     0.041 A 
ATOM     70  F   UNL A   1      39.748  29.053  32.852  1.00  0.00    -0.206 F 
ATOM     71  C   UNL A   1      36.597  30.799  32.557  1.00  0.00     0.022 A 
BRANCH  68  72
ATOM     72  S   UNL A   1      35.402  32.328  30.554  1.00  0.00     0.124 S 
ATOM     73  O   UNL A   1      36.157  33.571  30.431  1.00  0.00    -0.237 OA
ATOM     74  O   UNL A   1      35.041  31.669  29.304  1.00  0.00    -0.237 OA
ATOM     75  O   UNL A   1      34.364  32.327  31.582  1.00  0.00    -0.744 OA
ENDBRANCH  68  72
ENDBRANCH  41  65
BRANCH  53  76
ATOM     76  C   UNL A   1      44.561  33.624  29.091  1.00  0.00     0.023 A 
ATOM     77  C   UNL A   1      44.079  34.684  28.305  1.00  0.00     0.031 A 
ATOM     78  C   UNL A   1      45.482  33.926  30.112  1.00  0.00     0.131 A 
ATOM     79  C   UNL A   1      44.569  35.982  28.509  1.00  0.00     0.055 A 
ATOM     80  C   UNL A   1      45.899  35.232  30.366  1.00  0.00     0.041 A 
ATOM     81  F   UNL A   1      45.985  32.952  30.888  1.00  0.00    -0.206 F 
ATOM     82  C   UNL A   1      45.455  36.267  29.552  1.00  0.00     0.022 A 
BRANCH  79  83
ATOM     83  S   UNL A   1      44.137  37.272  27.309  1.00  0.00     0.124 S 
ATOM     84  O   UNL A   1      43.099  36.615  26.521  1.00  0.00    -0.237 OA
ATOM     85  O   UNL A   1      43.690  38.363  28.170  1.00  0.00    -0.237 OA
ATOM     86  O   UNL A   1      45.392  37.516  26.601  1.00  0.00    -0.744 OA
ENDBRANCH  79  83
ENDBRANCH  53  76
ENDBRANCH  27  28
ENDBRANCH  20  22
ENDBRANCH  19  20
ENDBRANCH  18  19
ENDBRANCH  17  18
ENDBRANCH   1  17
TORSDOF 20
ENDMDL
