MODEL 1
REMARK VINA RESULT:     -12.5      0.000      0.000
REMARK SMILES Cc1ccc(C(=O)OCCOCCOC(=O)c2ccc(-c3c4nc(c(-c5cc(S(=O)(=O)[O-])ccc5F)c5ccc([nH]5)c(-c5cc(S(=O)(=O)[O-])ccc5F)c5nc(c(-c6cc(S(=O)(=O)[O-])ccc6F)c6ccc3[nH]6)C=C5)C=C4)cc2)c2c1N[C@H](c1ccccc1F)[C@H]1CC=C[C@@H]21
REMARK SMILES IDX 12 1 11 2 10 3 9 4 8 5 6 6 7 7 5 8 1 9 2 10 3 11 81 12 4 13
REMARK SMILES IDX 80 14 82 15 95 16 83 17 91 19 94 20 92 21 93 22 84 23 85 24
REMARK SMILES IDX 89 25 86 26 88 27 90 28 87 29 13 30 14 31 15 32 16 33 17 34
REMARK SMILES IDX 18 35 79 36 19 37 78 38 20 39 21 40 22 41 72 42 23 43 77 44
REMARK SMILES IDX 71 45 73 46 24 47 76 48 70 49 69 50 25 52 57 53 37 54 56 55
REMARK SMILES IDX 38 56 41 57 55 58 74 59 39 60 40 61 54 63 75 64 42 65 26 66
REMARK SMILES IDX 27 67 35 68 28 69 34 70 36 71 33 72 29 73 30 74 31 75 32 76
REMARK SMILES IDX 58 77 59 78 67 79 60 80 66 81 68 82 65 83 61 84 62 85 63 86
REMARK SMILES IDX 64 87 43 88 44 89 52 90 45 91 51 92 53 93 50 94 46 95 47 96
REMARK SMILES IDX 48 97 49 98
REMARK H PARENT 82 18 73 51 41 62
REMARK Flexibility Score: inf
ROOT
ATOM      1  C   UNL A   1      36.446  19.928  24.826  1.00  0.00     0.202 C 
ENDROOT
BRANCH   1   2
ATOM      2  O   UNL A   1      35.856  21.217  24.631  1.00  0.00    -0.374 OA
BRANCH   2   3
ATOM      3  C   UNL A   1      34.435  21.299  24.602  1.00  0.00     0.202 C 
BRANCH   3   4
ATOM      4  C   UNL A   1      33.793  22.347  23.687  1.00  0.00     0.261 C 
BRANCH   4   5
ATOM      5  O   UNL A   1      34.417  23.630  23.807  1.00  0.00    -0.460 OA
BRANCH   5   6
ATOM      6  C   UNL A   1      34.285  24.213  25.022  1.00  0.00     0.338 C 
ATOM      7  O   UNL A   1      35.191  24.521  25.785  1.00  0.00    -0.246 OA
BRANCH   6   8
ATOM      8  C   UNL A   1      32.857  24.488  25.294  1.00  0.00     0.065 A 
ATOM      9  C   UNL A   1      28.812  25.223  26.556  1.00  0.00     0.046 C 
ATOM     10  C   UNL A   1      30.193  24.966  26.008  1.00  0.00    -0.028 A 
ATOM     11  C   UNL A   1      30.857  23.812  26.453  1.00  0.00     0.006 A 
ATOM     12  C   UNL A   1      30.855  25.883  25.155  1.00  0.00     0.042 A 
ATOM     13  C   UNL A   1      32.177  23.568  26.097  1.00  0.00     0.016 A 
ATOM     14  C   UNL A   1      32.201  25.638  24.785  1.00  0.00    -0.003 A 
ATOM     15  N   UNL A   1      30.176  26.988  24.646  1.00  0.00    -0.377 N 
ATOM     16  C   UNL A   1      32.876  26.530  23.760  1.00  0.00     0.050 C 
ATOM     17  C   UNL A   1      30.927  28.089  24.059  1.00  0.00     0.117 C 
ATOM     18  H   UNL A   1      29.193  27.023  24.683  1.00  0.00     0.161 HD
ATOM     19  C   UNL A   1      31.929  27.516  23.034  1.00  0.00     0.031 C 
ATOM     20  C   UNL A   1      33.941  27.479  24.248  1.00  0.00    -0.023 C 
ATOM     21  C   UNL A   1      32.888  28.589  22.485  1.00  0.00     0.034 C 
ATOM     22  C   UNL A   1      33.974  28.595  23.510  1.00  0.00    -0.030 C 
BRANCH  17  23
ATOM     23  C   UNL A   1      29.962  29.169  23.591  1.00  0.00     0.010 A 
ATOM     24  C   UNL A   1      29.021  28.833  22.595  1.00  0.00     0.009 A 
ATOM     25  C   UNL A   1      29.906  30.463  24.118  1.00  0.00     0.128 A 
ATOM     26  C   UNL A   1      28.040  29.740  22.188  1.00  0.00     0.001 A 
ATOM     27  C   UNL A   1      28.920  31.369  23.724  1.00  0.00     0.039 A 
ATOM     28  F   UNL A   1      30.774  30.867  25.055  1.00  0.00    -0.207 F 
ATOM     29  C   UNL A   1      27.981  31.006  22.763  1.00  0.00     0.003 A 
ENDBRANCH  17  23
ENDBRANCH   6   8
ENDBRANCH   5   6
ENDBRANCH   4   5
ENDBRANCH   3   4
ENDBRANCH   2   3
ENDBRANCH   1   2
BRANCH   1  30
ATOM     30  C   UNL A   1      37.967  19.835  24.991  1.00  0.00     0.261 C 
BRANCH  30  31
ATOM     31  O   UNL A   1      38.543  21.052  25.495  1.00  0.00    -0.460 OA
BRANCH  31  32
ATOM     32  C   UNL A   1      39.673  20.892  26.223  1.00  0.00     0.338 C 
ATOM     33  O   UNL A   1      40.400  19.908  26.261  1.00  0.00    -0.246 OA
BRANCH  32  34
ATOM     34  C   UNL A   1      40.034  22.170  26.850  1.00  0.00     0.060 A 
ATOM     35  C   UNL A   1      39.465  23.344  26.336  1.00  0.00     0.016 A 
ATOM     36  C   UNL A   1      40.995  22.220  27.860  1.00  0.00     0.016 A 
ATOM     37  C   UNL A   1      39.882  24.582  26.810  1.00  0.00     0.010 A 
ATOM     38  C   UNL A   1      41.432  23.464  28.316  1.00  0.00     0.010 A 
ATOM     39  C   UNL A   1      40.904  24.646  27.765  1.00  0.00    -0.014 A 
BRANCH  39  40
ATOM     40  C   UNL A   1      41.552  25.945  28.046  1.00  0.00     0.031 A 
ATOM     41  C   UNL A   1      40.756  26.999  28.758  1.00  0.00     0.074 A 
ATOM     42  C   UNL A   1      42.825  26.169  27.683  1.00  0.00     0.049 A 
ATOM     43  N   UNL A   1      41.101  28.219  29.071  1.00  0.00    -0.248 NA
ATOM     44  C   UNL A   1      39.393  26.629  29.177  1.00  0.00     0.031 C 
ATOM     45  C   UNL A   1      43.696  25.196  27.030  1.00  0.00     0.029 A 
ATOM     46  N   UNL A   1      43.601  27.295  27.803  1.00  0.00    -0.354 N 
ATOM     47  C   UNL A   1      39.999  28.765  29.719  1.00  0.00     0.074 A 
ATOM     48  C   UNL A   1      38.967  27.754  29.733  1.00  0.00     0.031 C 
ATOM     49  C   UNL A   1      44.884  25.775  26.785  1.00  0.00     0.029 A 
ATOM     50  C   UNL A   1      44.843  27.167  27.234  1.00  0.00     0.049 A 
ATOM     51  H   UNL A   1      43.294  28.115  28.253  1.00  0.00     0.167 HD
ATOM     52  C   UNL A   1      39.870  29.998  30.258  1.00  0.00     0.034 A 
ATOM     53  C   UNL A   1      45.826  28.078  27.072  1.00  0.00     0.034 A 
ATOM     54  C   UNL A   1      40.905  30.994  30.231  1.00  0.00     0.049 A 
ATOM     55  C   UNL A   1      45.632  29.470  27.618  1.00  0.00     0.074 A 
ATOM     56  C   UNL A   1      40.878  32.267  30.772  1.00  0.00     0.029 A 
ATOM     57  N   UNL A   1      42.144  30.840  29.628  1.00  0.00    -0.354 N 
ATOM     58  N   UNL A   1      44.608  29.961  28.278  1.00  0.00    -0.248 NA
ATOM     59  C   UNL A   1      46.720  30.435  27.404  1.00  0.00     0.031 C 
ATOM     60  C   UNL A   1      42.076  32.902  30.445  1.00  0.00     0.029 A 
ATOM     61  C   UNL A   1      42.877  32.006  29.755  1.00  0.00     0.049 A 
ATOM     62  H   UNL A   1      42.455  30.022  29.176  1.00  0.00     0.167 HD
ATOM     63  C   UNL A   1      44.938  31.280  28.577  1.00  0.00     0.074 A 
ATOM     64  C   UNL A   1      46.263  31.507  28.040  1.00  0.00     0.031 C 
ATOM     65  C   UNL A   1      44.207  32.216  29.232  1.00  0.00     0.034 A 
BRANCH  52  66
ATOM     66  C   UNL A   1      38.571  30.356  30.926  1.00  0.00     0.023 A 
ATOM     67  C   UNL A   1      37.594  31.076  30.215  1.00  0.00     0.031 A 
ATOM     68  C   UNL A   1      38.354  30.099  32.291  1.00  0.00     0.131 A 
ATOM     69  C   UNL A   1      36.459  31.549  30.882  1.00  0.00     0.055 A 
ATOM     70  C   UNL A   1      37.203  30.543  32.943  1.00  0.00     0.041 A 
ATOM     71  F   UNL A   1      39.257  29.409  33.007  1.00  0.00    -0.206 F 
ATOM     72  C   UNL A   1      36.255  31.282  32.241  1.00  0.00     0.022 A 
BRANCH  69  73
ATOM     73  S   UNL A   1      35.227  32.564  30.024  1.00  0.00     0.124 S 
ATOM     74  O   UNL A   1      36.029  33.702  29.578  1.00  0.00    -0.237 OA
ATOM     75  O   UNL A   1      34.776  31.665  28.966  1.00  0.00    -0.237 OA
ATOM     76  O   UNL A   1      34.243  32.870  31.058  1.00  0.00    -0.744 OA
ENDBRANCH  69  73
ENDBRANCH  52  66
BRANCH  53  77
ATOM     77  C   UNL A   1      47.081  27.672  26.380  1.00  0.00     0.023 A 
ATOM     78  C   UNL A   1      47.262  27.926  25.008  1.00  0.00     0.031 A 
ATOM     79  C   UNL A   1      48.072  26.943  27.056  1.00  0.00     0.131 A 
ATOM     80  C   UNL A   1      48.377  27.400  24.344  1.00  0.00     0.055 A 
ATOM     81  C   UNL A   1      49.213  26.472  26.403  1.00  0.00     0.041 A 
ATOM     82  F   UNL A   1      47.938  26.672  28.363  1.00  0.00    -0.206 F 
ATOM     83  C   UNL A   1      49.362  26.688  25.035  1.00  0.00     0.022 A 
BRANCH  80  84
ATOM     84  S   UNL A   1      48.536  27.541  22.542  1.00  0.00     0.124 S 
ATOM     85  O   UNL A   1      48.574  26.142  22.126  1.00  0.00    -0.237 OA
ATOM     86  O   UNL A   1      47.317  28.269  22.195  1.00  0.00    -0.237 OA
ATOM     87  O   UNL A   1      49.778  28.284  22.362  1.00  0.00    -0.744 OA
ENDBRANCH  80  84
ENDBRANCH  53  77
BRANCH  65  88
ATOM     88  C   UNL A   1      44.795  33.590  29.433  1.00  0.00     0.023 A 
ATOM     89  C   UNL A   1      44.571  34.596  28.474  1.00  0.00     0.031 A 
ATOM     90  C   UNL A   1      45.715  33.843  30.465  1.00  0.00     0.131 A 
ATOM     91  C   UNL A   1      45.298  35.791  28.537  1.00  0.00     0.055 A 
ATOM     92  C   UNL A   1      46.402  35.054  30.549  1.00  0.00     0.041 A 
ATOM     93  F   UNL A   1      45.968  32.909  31.396  1.00  0.00    -0.206 F 
ATOM     94  C   UNL A   1      46.206  36.029  29.573  1.00  0.00     0.022 A 
BRANCH  91  95
ATOM     95  S   UNL A   1      45.147  37.046  27.236  1.00  0.00     0.124 S 
ATOM     96  O   UNL A   1      43.750  36.900  26.831  1.00  0.00    -0.237 OA
ATOM     97  O   UNL A   1      45.461  38.275  27.959  1.00  0.00    -0.237 OA
ATOM     98  O   UNL A   1      46.127  36.636  26.236  1.00  0.00    -0.744 OA
ENDBRANCH  91  95
ENDBRANCH  65  88
ENDBRANCH  39  40
ENDBRANCH  32  34
ENDBRANCH  31  32
ENDBRANCH  30  31
ENDBRANCH   1  30
TORSDOF 18
ENDMDL
MODEL 2
REMARK VINA RESULT:     -12.2      5.066     10.540
REMARK SMILES Cc1ccc(C(=O)OCCOCCOC(=O)c2ccc(-c3c4nc(c(-c5cc(S(=O)(=O)[O-])ccc5F)c5ccc([nH]5)c(-c5cc(S(=O)(=O)[O-])ccc5F)c5nc(c(-c6cc(S(=O)(=O)[O-])ccc6F)c6ccc3[nH]6)C=C5)C=C4)cc2)c2c1N[C@H](c1ccccc1F)[C@H]1CC=C[C@@H]21
REMARK SMILES IDX 12 1 11 2 10 3 9 4 8 5 6 6 7 7 5 8 1 9 2 10 3 11 81 12 4 13
REMARK SMILES IDX 80 14 82 15 95 16 83 17 91 19 94 20 92 21 93 22 84 23 85 24
REMARK SMILES IDX 89 25 86 26 88 27 90 28 87 29 13 30 14 31 15 32 16 33 17 34
REMARK SMILES IDX 18 35 79 36 19 37 78 38 20 39 21 40 22 41 72 42 23 43 77 44
REMARK SMILES IDX 71 45 73 46 24 47 76 48 70 49 69 50 25 52 57 53 37 54 56 55
REMARK SMILES IDX 38 56 41 57 55 58 74 59 39 60 40 61 54 63 75 64 42 65 26 66
REMARK SMILES IDX 27 67 35 68 28 69 34 70 36 71 33 72 29 73 30 74 31 75 32 76
REMARK SMILES IDX 58 77 59 78 67 79 60 80 66 81 68 82 65 83 61 84 62 85 63 86
REMARK SMILES IDX 64 87 43 88 44 89 52 90 45 91 51 92 53 93 50 94 46 95 47 96
REMARK SMILES IDX 48 97 49 98
REMARK H PARENT 82 18 73 51 41 62
REMARK Flexibility Score: inf
ROOT
ATOM      1  C   UNL A   1      31.403  29.315  25.358  1.00  0.00     0.202 C 
ENDROOT
BRANCH   1   2
ATOM      2  O   UNL A   1      31.743  27.934  25.205  1.00  0.00    -0.374 OA
BRANCH   2   3
ATOM      3  C   UNL A   1      32.853  27.437  25.946  1.00  0.00     0.202 C 
BRANCH   3   4
ATOM      4  C   UNL A   1      32.998  25.919  26.094  1.00  0.00     0.261 C 
BRANCH   4   5
ATOM      5  O   UNL A   1      34.356  25.485  25.958  1.00  0.00    -0.460 OA
BRANCH   5   6
ATOM      6  C   UNL A   1      34.672  24.986  24.740  1.00  0.00     0.338 C 
ATOM      7  O   UNL A   1      34.343  25.449  23.655  1.00  0.00    -0.246 OA
BRANCH   6   8
ATOM      8  C   UNL A   1      35.541  23.799  24.893  1.00  0.00     0.065 A 
ATOM      9  C   UNL A   1      38.226  20.551  25.752  1.00  0.00     0.046 C 
ATOM     10  C   UNL A   1      37.267  21.643  25.350  1.00  0.00    -0.028 A 
ATOM     11  C   UNL A   1      37.747  22.962  25.376  1.00  0.00     0.006 A 
ATOM     12  C   UNL A   1      35.905  21.388  25.051  1.00  0.00     0.042 A 
ATOM     13  C   UNL A   1      36.896  24.035  25.144  1.00  0.00     0.016 A 
ATOM     14  C   UNL A   1      35.033  22.478  24.810  1.00  0.00    -0.003 A 
ATOM     15  N   UNL A   1      35.442  20.078  24.946  1.00  0.00    -0.377 N 
ATOM     16  C   UNL A   1      33.611  22.218  24.348  1.00  0.00     0.050 C 
ATOM     17  C   UNL A   1      34.010  19.816  24.975  1.00  0.00     0.117 C 
ATOM     18  H   UNL A   1      36.079  19.334  24.854  1.00  0.00     0.161 HD
ATOM     19  C   UNL A   1      33.314  20.749  23.960  1.00  0.00     0.031 C 
ATOM     20  C   UNL A   1      32.496  22.476  25.327  1.00  0.00    -0.023 C 
ATOM     21  C   UNL A   1      31.778  20.666  24.041  1.00  0.00     0.034 C 
ATOM     22  C   UNL A   1      31.466  21.647  25.123  1.00  0.00    -0.030 C 
BRANCH  17  23
ATOM     23  C   UNL A   1      33.765  18.319  24.856  1.00  0.00     0.010 A 
ATOM     24  C   UNL A   1      34.486  17.604  23.877  1.00  0.00     0.009 A 
ATOM     25  C   UNL A   1      32.911  17.588  25.688  1.00  0.00     0.128 A 
ATOM     26  C   UNL A   1      34.389  16.213  23.776  1.00  0.00     0.001 A 
ATOM     27  C   UNL A   1      32.820  16.198  25.599  1.00  0.00     0.039 A 
ATOM     28  F   UNL A   1      32.178  18.193  26.632  1.00  0.00    -0.207 F 
ATOM     29  C   UNL A   1      33.566  15.508  24.648  1.00  0.00     0.003 A 
ENDBRANCH  17  23
ENDBRANCH   6   8
ENDBRANCH   5   6
ENDBRANCH   4   5
ENDBRANCH   3   4
ENDBRANCH   2   3
ENDBRANCH   1   2
BRANCH   1  30
ATOM     30  C   UNL A   1      32.509  30.305  25.737  1.00  0.00     0.261 C 
BRANCH  30  31
ATOM     31  O   UNL A   1      32.369  30.802  27.079  1.00  0.00    -0.460 OA
BRANCH  31  32
ATOM     32  C   UNL A   1      33.094  31.912  27.357  1.00  0.00     0.338 C 
ATOM     33  O   UNL A   1      32.690  33.065  27.427  1.00  0.00    -0.246 OA
BRANCH  32  34
ATOM     34  C   UNL A   1      34.451  31.520  27.760  1.00  0.00     0.060 A 
ATOM     35  C   UNL A   1      34.697  30.165  28.027  1.00  0.00     0.016 A 
ATOM     36  C   UNL A   1      35.436  32.484  27.972  1.00  0.00     0.016 A 
ATOM     37  C   UNL A   1      35.927  29.772  28.540  1.00  0.00     0.010 A 
ATOM     38  C   UNL A   1      36.660  32.091  28.513  1.00  0.00     0.010 A 
ATOM     39  C   UNL A   1      36.894  30.741  28.832  1.00  0.00    -0.014 A 
BRANCH  39  40
ATOM     40  C   UNL A   1      38.069  30.369  29.648  1.00  0.00     0.031 A 
ATOM     41  C   UNL A   1      39.075  29.424  29.059  1.00  0.00     0.074 A 
ATOM     42  C   UNL A   1      38.238  30.874  30.881  1.00  0.00     0.049 A 
ATOM     43  N   UNL A   1      40.154  28.927  29.601  1.00  0.00    -0.248 NA
ATOM     44  C   UNL A   1      38.835  28.982  27.674  1.00  0.00     0.031 C 
ATOM     45  C   UNL A   1      37.344  31.834  31.524  1.00  0.00     0.029 A 
ATOM     46  N   UNL A   1      39.215  30.638  31.814  1.00  0.00    -0.354 N 
ATOM     47  C   UNL A   1      40.721  28.112  28.628  1.00  0.00     0.074 A 
ATOM     48  C   UNL A   1      39.856  28.161  27.471  1.00  0.00     0.031 C 
ATOM     49  C   UNL A   1      37.803  32.089  32.761  1.00  0.00     0.029 A 
ATOM     50  C   UNL A   1      39.002  31.286  33.006  1.00  0.00     0.049 A 
ATOM     51  H   UNL A   1      39.993  30.059  31.646  1.00  0.00     0.167 HD
ATOM     52  C   UNL A   1      41.866  27.397  28.697  1.00  0.00     0.034 A 
ATOM     53  C   UNL A   1      39.683  31.218  34.169  1.00  0.00     0.034 A 
ATOM     54  C   UNL A   1      42.713  27.355  29.857  1.00  0.00     0.049 A 
ATOM     55  C   UNL A   1      40.918  30.355  34.246  1.00  0.00     0.074 A 
ATOM     56  C   UNL A   1      43.908  26.677  30.015  1.00  0.00     0.029 A 
ATOM     57  N   UNL A   1      42.457  28.006  31.054  1.00  0.00    -0.354 N 
ATOM     58  N   UNL A   1      41.477  29.632  33.303  1.00  0.00    -0.248 NA
ATOM     59  C   UNL A   1      41.618  30.298  35.536  1.00  0.00     0.031 C 
ATOM     60  C   UNL A   1      44.343  26.869  31.327  1.00  0.00     0.029 A 
ATOM     61  C   UNL A   1      43.455  27.718  31.968  1.00  0.00     0.049 A 
ATOM     62  H   UNL A   1      41.680  28.585  31.228  1.00  0.00     0.167 HD
ATOM     63  C   UNL A   1      42.605  29.053  33.880  1.00  0.00     0.074 A 
ATOM     64  C   UNL A   1      42.658  29.523  35.248  1.00  0.00     0.031 C 
ATOM     65  C   UNL A   1      43.509  28.207  33.325  1.00  0.00     0.034 A 
BRANCH  52  66
ATOM     66  C   UNL A   1      42.284  26.594  27.495  1.00  0.00     0.023 A 
ATOM     67  C   UNL A   1      42.039  25.210  27.460  1.00  0.00     0.031 A 
ATOM     68  C   UNL A   1      43.030  27.171  26.453  1.00  0.00     0.131 A 
ATOM     69  C   UNL A   1      42.571  24.439  26.420  1.00  0.00     0.055 A 
ATOM     70  C   UNL A   1      43.527  26.403  25.400  1.00  0.00     0.041 A 
ATOM     71  F   UNL A   1      43.280  28.491  26.443  1.00  0.00    -0.206 F 
ATOM     72  C   UNL A   1      43.308  25.028  25.387  1.00  0.00     0.022 A 
BRANCH  69  73
ATOM     73  S   UNL A   1      42.361  22.639  26.392  1.00  0.00     0.124 S 
ATOM     74  O   UNL A   1      43.361  22.201  27.364  1.00  0.00    -0.237 OA
ATOM     75  O   UNL A   1      40.972  22.488  26.814  1.00  0.00    -0.237 OA
ATOM     76  O   UNL A   1      42.646  22.274  25.008  1.00  0.00    -0.744 OA
ENDBRANCH  69  73
ENDBRANCH  52  66
BRANCH  53  77
ATOM     77  C   UNL A   1      39.207  32.016  35.333  1.00  0.00     0.023 A 
ATOM     78  C   UNL A   1      39.642  33.341  35.524  1.00  0.00     0.031 A 
ATOM     79  C   UNL A   1      38.390  31.438  36.318  1.00  0.00     0.131 A 
ATOM     80  C   UNL A   1      39.309  34.020  36.703  1.00  0.00     0.055 A 
ATOM     81  C   UNL A   1      38.010  32.140  37.463  1.00  0.00     0.041 A 
ATOM     82  F   UNL A   1      37.958  30.176  36.180  1.00  0.00    -0.206 F 
ATOM     83  C   UNL A   1      38.482  33.434  37.666  1.00  0.00     0.022 A 
BRANCH  80  84
ATOM     84  S   UNL A   1      40.016  35.650  37.067  1.00  0.00     0.124 S 
ATOM     85  O   UNL A   1      39.344  36.007  38.313  1.00  0.00    -0.237 OA
ATOM     86  O   UNL A   1      41.438  35.334  37.186  1.00  0.00    -0.237 OA
ATOM     87  O   UNL A   1      39.653  36.452  35.904  1.00  0.00    -0.744 OA
ENDBRANCH  80  84
ENDBRANCH  53  77
BRANCH  65  88
ATOM     88  C   UNL A   1      44.658  27.716  34.169  1.00  0.00     0.023 A 
ATOM     89  C   UNL A   1      44.511  26.550  34.943  1.00  0.00     0.031 A 
ATOM     90  C   UNL A   1      45.816  28.493  34.343  1.00  0.00     0.131 A 
ATOM     91  C   UNL A   1      45.483  26.220  35.896  1.00  0.00     0.055 A 
ATOM     92  C   UNL A   1      46.803  28.135  35.262  1.00  0.00     0.041 A 
ATOM     93  F   UNL A   1      45.994  29.618  33.633  1.00  0.00    -0.206 F 
ATOM     94  C   UNL A   1      46.632  27.002  36.054  1.00  0.00     0.022 A 
BRANCH  91  95
ATOM     95  S   UNL A   1      45.255  24.812  37.016  1.00  0.00     0.124 S 
ATOM     96  O   UNL A   1      46.624  24.547  37.456  1.00  0.00    -0.237 OA
ATOM     97  O   UNL A   1      44.370  25.370  38.034  1.00  0.00    -0.237 OA
ATOM     98  O   UNL A   1      44.668  23.779  36.168  1.00  0.00    -0.744 OA
ENDBRANCH  91  95
ENDBRANCH  65  88
ENDBRANCH  39  40
ENDBRANCH  32  34
ENDBRANCH  31  32
ENDBRANCH  30  31
ENDBRANCH   1  30
TORSDOF 18
ENDMDL
MODEL 3
REMARK VINA RESULT:     -12.1      1.585      7.468
REMARK SMILES Cc1ccc(C(=O)OCCOCCOC(=O)c2ccc(-c3c4nc(c(-c5cc(S(=O)(=O)[O-])ccc5F)c5ccc([nH]5)c(-c5cc(S(=O)(=O)[O-])ccc5F)c5nc(c(-c6cc(S(=O)(=O)[O-])ccc6F)c6ccc3[nH]6)C=C5)C=C4)cc2)c2c1N[C@H](c1ccccc1F)[C@H]1CC=C[C@@H]21
REMARK SMILES IDX 12 1 11 2 10 3 9 4 8 5 6 6 7 7 5 8 1 9 2 10 3 11 81 12 4 13
REMARK SMILES IDX 80 14 82 15 95 16 83 17 91 19 94 20 92 21 93 22 84 23 85 24
REMARK SMILES IDX 89 25 86 26 88 27 90 28 87 29 13 30 14 31 15 32 16 33 17 34
REMARK SMILES IDX 18 35 79 36 19 37 78 38 20 39 21 40 22 41 72 42 23 43 77 44
REMARK SMILES IDX 71 45 73 46 24 47 76 48 70 49 69 50 25 52 57 53 37 54 56 55
REMARK SMILES IDX 38 56 41 57 55 58 74 59 39 60 40 61 54 63 75 64 42 65 26 66
REMARK SMILES IDX 27 67 35 68 28 69 34 70 36 71 33 72 29 73 30 74 31 75 32 76
REMARK SMILES IDX 58 77 59 78 67 79 60 80 66 81 68 82 65 83 61 84 62 85 63 86
REMARK SMILES IDX 64 87 43 88 44 89 52 90 45 91 51 92 53 93 50 94 46 95 47 96
REMARK SMILES IDX 48 97 49 98
REMARK H PARENT 82 18 73 51 41 62
REMARK Flexibility Score: inf
ROOT
ATOM      1  C   UNL A   1      37.160  20.048  24.894  1.00  0.00     0.202 C 
ENDROOT
BRANCH   1   2
ATOM      2  O   UNL A   1      36.929  21.451  24.737  1.00  0.00    -0.374 OA
BRANCH   2   3
ATOM      3  C   UNL A   1      36.513  22.188  25.883  1.00  0.00     0.202 C 
BRANCH   3   4
ATOM      4  C   UNL A   1      35.050  22.640  25.956  1.00  0.00     0.261 C 
BRANCH   4   5
ATOM      5  O   UNL A   1      34.569  23.132  24.700  1.00  0.00    -0.460 OA
BRANCH   5   6
ATOM      6  C   UNL A   1      33.473  22.494  24.225  1.00  0.00     0.338 C 
ATOM      7  O   UNL A   1      33.460  21.563  23.430  1.00  0.00    -0.246 OA
BRANCH   6   8
ATOM      8  C   UNL A   1      32.256  23.052  24.852  1.00  0.00     0.065 A 
ATOM      9  C   UNL A   1      28.943  24.619  27.103  1.00  0.00     0.046 C 
ATOM     10  C   UNL A   1      30.038  24.072  26.223  1.00  0.00    -0.028 A 
ATOM     11  C   UNL A   1      30.603  22.840  26.591  1.00  0.00     0.006 A 
ATOM     12  C   UNL A   1      30.564  24.795  25.124  1.00  0.00     0.042 A 
ATOM     13  C   UNL A   1      31.699  22.327  25.909  1.00  0.00     0.016 A 
ATOM     14  C   UNL A   1      31.680  24.276  24.423  1.00  0.00    -0.003 A 
ATOM     15  N   UNL A   1      29.958  25.978  24.706  1.00  0.00    -0.377 N 
ATOM     16  C   UNL A   1      32.163  24.962  23.159  1.00  0.00     0.050 C 
ATOM     17  C   UNL A   1      30.676  26.880  23.816  1.00  0.00     0.117 C 
ATOM     18  H   UNL A   1      29.050  26.203  25.012  1.00  0.00     0.161 HD
ATOM     19  C   UNL A   1      31.222  26.067  22.621  1.00  0.00     0.031 C 
ATOM     20  C   UNL A   1      33.466  25.715  23.222  1.00  0.00    -0.023 C 
ATOM     21  C   UNL A   1      32.142  26.903  21.712  1.00  0.00     0.034 C 
ATOM     22  C   UNL A   1      33.466  26.760  22.386  1.00  0.00    -0.030 C 
BRANCH  17  23
ATOM     23  C   UNL A   1      29.810  28.095  23.519  1.00  0.00     0.010 A 
ATOM     24  C   UNL A   1      28.472  27.879  23.126  1.00  0.00     0.009 A 
ATOM     25  C   UNL A   1      30.233  29.421  23.659  1.00  0.00     0.128 A 
ATOM     26  C   UNL A   1      27.590  28.946  22.936  1.00  0.00     0.001 A 
ATOM     27  C   UNL A   1      29.353  30.490  23.481  1.00  0.00     0.039 A 
ATOM     28  F   UNL A   1      31.492  29.713  24.011  1.00  0.00    -0.207 F 
ATOM     29  C   UNL A   1      28.028  30.253  23.127  1.00  0.00     0.003 A 
ENDBRANCH  17  23
ENDBRANCH   6   8
ENDBRANCH   5   6
ENDBRANCH   4   5
ENDBRANCH   3   4
ENDBRANCH   2   3
ENDBRANCH   1   2
BRANCH   1  30
ATOM     30  C   UNL A   1      38.606  19.544  24.950  1.00  0.00     0.261 C 
BRANCH  30  31
ATOM     31  O   UNL A   1      39.170  19.631  26.269  1.00  0.00    -0.460 OA
BRANCH  31  32
ATOM     32  C   UNL A   1      40.484  19.955  26.309  1.00  0.00     0.338 C 
ATOM     33  O   UNL A   1      41.422  19.315  25.853  1.00  0.00    -0.246 OA
BRANCH  32  34
ATOM     34  C   UNL A   1      40.634  21.320  26.830  1.00  0.00     0.060 A 
ATOM     35  C   UNL A   1      40.069  22.374  26.098  1.00  0.00     0.016 A 
ATOM     36  C   UNL A   1      41.405  21.567  27.966  1.00  0.00     0.016 A 
ATOM     37  C   UNL A   1      40.302  23.689  26.483  1.00  0.00     0.010 A 
ATOM     38  C   UNL A   1      41.661  22.888  28.335  1.00  0.00     0.010 A 
ATOM     39  C   UNL A   1      41.141  23.950  27.573  1.00  0.00    -0.014 A 
BRANCH  39  40
ATOM     40  C   UNL A   1      41.630  25.327  27.797  1.00  0.00     0.031 A 
ATOM     41  C   UNL A   1      43.015  25.676  27.336  1.00  0.00     0.074 A 
ATOM     42  C   UNL A   1      40.847  26.246  28.386  1.00  0.00     0.049 A 
ATOM     43  N   UNL A   1      43.666  26.800  27.463  1.00  0.00    -0.248 NA
ATOM     44  C   UNL A   1      43.765  24.618  26.637  1.00  0.00     0.031 C 
ATOM     45  C   UNL A   1      39.473  26.021  28.826  1.00  0.00     0.029 A 
ATOM     46  N   UNL A   1      41.106  27.550  28.726  1.00  0.00    -0.354 N 
ATOM     47  C   UNL A   1      44.902  26.587  26.865  1.00  0.00     0.074 A 
ATOM     48  C   UNL A   1      44.921  25.220  26.397  1.00  0.00     0.031 C 
ATOM     49  C   UNL A   1      39.014  27.146  29.401  1.00  0.00     0.029 A 
ATOM     50  C   UNL A   1      40.073  28.156  29.397  1.00  0.00     0.049 A 
ATOM     51  H   UNL A   1      41.951  28.006  28.509  1.00  0.00     0.167 HD
ATOM     52  C   UNL A   1      45.923  27.461  26.715  1.00  0.00     0.034 A 
ATOM     53  C   UNL A   1      40.000  29.377  29.967  1.00  0.00     0.034 A 
ATOM     54  C   UNL A   1      45.890  28.817  27.191  1.00  0.00     0.049 A 
ATOM     55  C   UNL A   1      41.179  30.311  29.851  1.00  0.00     0.074 A 
ATOM     56  C   UNL A   1      46.867  29.788  27.066  1.00  0.00     0.029 A 
ATOM     57  N   UNL A   1      44.837  29.391  27.886  1.00  0.00    -0.354 N 
ATOM     58  N   UNL A   1      42.324  30.120  29.235  1.00  0.00    -0.248 NA
ATOM     59  C   UNL A   1      41.064  31.624  30.500  1.00  0.00     0.031 C 
ATOM     60  C   UNL A   1      46.429  30.930  27.737  1.00  0.00     0.029 A 
ATOM     61  C   UNL A   1      45.154  30.695  28.226  1.00  0.00     0.049 A 
ATOM     62  H   UNL A   1      43.990  28.940  28.106  1.00  0.00     0.167 HD
ATOM     63  C   UNL A   1      43.052  31.294  29.404  1.00  0.00     0.074 A 
ATOM     64  C   UNL A   1      42.215  32.196  30.164  1.00  0.00     0.031 C 
ATOM     65  C   UNL A   1      44.303  31.594  28.969  1.00  0.00     0.034 A 
BRANCH  52  66
ATOM     66  C   UNL A   1      47.169  26.996  26.013  1.00  0.00     0.023 A 
ATOM     67  C   UNL A   1      48.188  26.361  26.745  1.00  0.00     0.031 A 
ATOM     68  C   UNL A   1      47.399  27.291  24.659  1.00  0.00     0.131 A 
ATOM     69  C   UNL A   1      49.410  26.076  26.127  1.00  0.00     0.055 A 
ATOM     70  C   UNL A   1      48.607  26.972  24.038  1.00  0.00     0.041 A 
ATOM     71  F   UNL A   1      46.450  27.890  23.920  1.00  0.00    -0.206 F 
ATOM     72  C   UNL A   1      49.624  26.372  24.776  1.00  0.00     0.022 A 
BRANCH  69  73
ATOM     73  S   UNL A   1      50.783  25.350  27.062  1.00  0.00     0.124 S 
ATOM     74  O   UNL A   1      50.117  24.269  27.788  1.00  0.00    -0.237 OA
ATOM     75  O   UNL A   1      51.684  24.923  25.996  1.00  0.00    -0.237 OA
ATOM     76  O   UNL A   1      51.261  26.450  27.894  1.00  0.00    -0.744 OA
ENDBRANCH  69  73
ENDBRANCH  52  66
BRANCH  53  77
ATOM     77  C   UNL A   1      38.749  29.774  30.670  1.00  0.00     0.023 A 
ATOM     78  C   UNL A   1      37.787  30.577  30.031  1.00  0.00     0.031 A 
ATOM     79  C   UNL A   1      38.543  29.437  32.018  1.00  0.00     0.131 A 
ATOM     80  C   UNL A   1      36.695  31.067  30.758  1.00  0.00     0.055 A 
ATOM     81  C   UNL A   1      37.421  29.878  32.722  1.00  0.00     0.041 A 
ATOM     82  F   UNL A   1      39.438  28.679  32.669  1.00  0.00    -0.206 F 
ATOM     83  C   UNL A   1      36.497  30.710  32.096  1.00  0.00     0.022 A 
BRANCH  80  84
ATOM     84  S   UNL A   1      35.548  32.262  30.018  1.00  0.00     0.124 S 
ATOM     85  O   UNL A   1      36.383  33.452  29.890  1.00  0.00    -0.237 OA
ATOM     86  O   UNL A   1      35.200  31.597  28.764  1.00  0.00    -0.237 OA
ATOM     87  O   UNL A   1      34.468  32.353  30.994  1.00  0.00    -0.744 OA
ENDBRANCH  80  84
ENDBRANCH  53  77
BRANCH  65  88
ATOM     88  C   UNL A   1      44.876  32.952  29.283  1.00  0.00     0.023 A 
ATOM     89  C   UNL A   1      44.704  34.013  28.374  1.00  0.00     0.031 A 
ATOM     90  C   UNL A   1      45.735  33.143  30.379  1.00  0.00     0.131 A 
ATOM     91  C   UNL A   1      45.423  35.202  28.549  1.00  0.00     0.055 A 
ATOM     92  C   UNL A   1      46.414  34.346  30.573  1.00  0.00     0.041 A 
ATOM     93  F   UNL A   1      45.937  32.155  31.266  1.00  0.00    -0.206 F 
ATOM     94  C   UNL A   1      46.271  35.377  29.647  1.00  0.00     0.022 A 
BRANCH  91  95
ATOM     95  S   UNL A   1      45.343  36.532  27.318  1.00  0.00     0.124 S 
ATOM     96  O   UNL A   1      45.924  35.892  26.139  1.00  0.00    -0.237 OA
ATOM     97  O   UNL A   1      43.909  36.794  27.243  1.00  0.00    -0.237 OA
ATOM     98  O   UNL A   1      46.148  37.600  27.901  1.00  0.00    -0.744 OA
ENDBRANCH  91  95
ENDBRANCH  65  88
ENDBRANCH  39  40
ENDBRANCH  32  34
ENDBRANCH  31  32
ENDBRANCH  30  31
ENDBRANCH   1  30
TORSDOF 18
ENDMDL
