MODEL 1
REMARK VINA RESULT:     -11.4      0.000      0.000
REMARK SMILES O=C(OCCOCCOC(=O)[C@H](c1ccccc1)C(c1ccccc1)c1ccccc1)c1ccc(-c2c3nc(c(-c4cc(S(=O)(=O)[O-])ccc4F)c4ccc([nH]4)c(-c4cc(S(=O)(=O)[O-])ccc4F)c4nc(c(-c5cc(S(=O)(=O)[O-])ccc5F)c5ccc2[nH]5)C=C4)C=C3)cc1
REMARK SMILES IDX 5 1 4 2 3 3 2 4 1 5 32 6 33 7 94 8 34 9 93 10 35 11 36 12
REMARK SMILES IDX 37 13 87 14 38 15 92 16 86 17 88 18 39 19 91 20 85 21 84 22
REMARK SMILES IDX 40 24 72 25 52 26 71 27 53 28 56 29 70 30 89 31 54 32 55 33
REMARK SMILES IDX 69 35 90 36 57 37 41 38 42 39 50 40 43 41 49 42 51 43 48 44
REMARK SMILES IDX 44 45 45 46 46 47 47 48 73 49 74 50 82 51 75 52 81 53 83 54
REMARK SMILES IDX 80 55 76 56 77 57 78 58 79 59 58 60 59 61 67 62 60 63 66 64
REMARK SMILES IDX 68 65 65 66 61 67 62 68 63 69 64 70 6 71 7 72 8 73 9 74
REMARK SMILES IDX 10 75 11 76 12 77 19 78 20 79 21 80 25 81 22 82 24 83 23 84
REMARK SMILES IDX 26 85 27 86 31 87 28 88 30 89 29 90 13 91 14 92 18 93 15 94
REMARK SMILES IDX 17 95 16 96
REMARK H PARENT 88 23 56 34
REMARK Flexibility Score: inf
ROOT
ATOM      1  C   UNL A   1      31.406  29.107  25.465  1.00  0.00     0.202 C 
ENDROOT
BRANCH   1   2
ATOM      2  C   UNL A   1      32.396  29.319  26.610  1.00  0.00     0.261 C 
BRANCH   2   3
ATOM      3  O   UNL A   1      33.258  30.426  26.317  1.00  0.00    -0.460 OA
BRANCH   3   4
ATOM      4  C   UNL A   1      33.811  31.268  27.223  1.00  0.00     0.338 C 
ATOM      5  O   UNL A   1      33.261  32.346  27.444  1.00  0.00    -0.246 OA
BRANCH   4   6
ATOM      6  C   UNL A   1      35.033  30.929  28.012  1.00  0.00     0.060 A 
ATOM      7  C   UNL A   1      35.236  29.723  28.684  1.00  0.00     0.016 A 
ATOM      8  C   UNL A   1      36.089  31.852  27.981  1.00  0.00     0.016 A 
ATOM      9  C   UNL A   1      36.427  29.423  29.308  1.00  0.00     0.010 A 
ATOM     10  C   UNL A   1      37.311  31.551  28.588  1.00  0.00     0.010 A 
ATOM     11  C   UNL A   1      37.478  30.323  29.237  1.00  0.00    -0.014 A 
BRANCH  11  12
ATOM     12  C   UNL A   1      38.710  29.941  29.934  1.00  0.00     0.031 A 
ATOM     13  C   UNL A   1      39.650  29.022  29.231  1.00  0.00     0.074 A 
ATOM     14  C   UNL A   1      39.016  30.557  31.089  1.00  0.00     0.049 A 
ATOM     15  N   UNL A   1      40.737  28.464  29.675  1.00  0.00    -0.248 NA
ATOM     16  C   UNL A   1      39.327  28.700  27.829  1.00  0.00     0.031 C 
ATOM     17  C   UNL A   1      38.212  31.611  31.722  1.00  0.00     0.029 A 
ATOM     18  N   UNL A   1      40.090  30.419  31.924  1.00  0.00    -0.354 N 
ATOM     19  C   UNL A   1      41.206  27.682  28.628  1.00  0.00     0.074 A 
ATOM     20  C   UNL A   1      40.299  27.856  27.516  1.00  0.00     0.031 C 
ATOM     21  C   UNL A   1      38.829  32.026  32.839  1.00  0.00     0.029 A 
ATOM     22  C   UNL A   1      40.006  31.197  33.056  1.00  0.00     0.049 A 
ATOM     23  H   UNL A   1      40.849  29.822  31.733  1.00  0.00     0.167 HD
ATOM     24  C   UNL A   1      42.288  26.872  28.633  1.00  0.00     0.034 A 
ATOM     25  C   UNL A   1      40.767  31.175  34.168  1.00  0.00     0.034 A 
ATOM     26  C   UNL A   1      43.146  26.746  29.783  1.00  0.00     0.049 A 
ATOM     27  C   UNL A   1      41.892  30.168  34.192  1.00  0.00     0.074 A 
ATOM     28  C   UNL A   1      44.234  25.917  29.966  1.00  0.00     0.029 A 
ATOM     29  N   UNL A   1      42.993  27.478  30.957  1.00  0.00    -0.354 N 
ATOM     30  N   UNL A   1      42.289  29.353  33.237  1.00  0.00    -0.248 NA
ATOM     31  C   UNL A   1      42.656  30.057  35.437  1.00  0.00     0.031 C 
ATOM     32  C   UNL A   1      44.695  26.097  31.275  1.00  0.00     0.029 A 
ATOM     33  C   UNL A   1      43.944  27.095  31.883  1.00  0.00     0.049 A 
ATOM     34  H   UNL A   1      42.308  28.170  31.106  1.00  0.00     0.167 HD
ATOM     35  C   UNL A   1      43.357  28.639  33.765  1.00  0.00     0.074 A 
ATOM     36  C   UNL A   1      43.563  29.150  35.108  1.00  0.00     0.031 C 
ATOM     37  C   UNL A   1      44.097  27.644  33.212  1.00  0.00     0.034 A 
BRANCH  24  38
ATOM     38  C   UNL A   1      42.495  25.991  27.431  1.00  0.00     0.023 A 
ATOM     39  C   UNL A   1      42.019  24.670  27.371  1.00  0.00     0.031 A 
ATOM     40  C   UNL A   1      43.253  26.470  26.347  1.00  0.00     0.131 A 
ATOM     41  C   UNL A   1      42.356  23.857  26.275  1.00  0.00     0.055 A 
ATOM     42  C   UNL A   1      43.525  25.681  25.230  1.00  0.00     0.041 A 
ATOM     43  F   UNL A   1      43.768  27.711  26.371  1.00  0.00    -0.206 F 
ATOM     44  C   UNL A   1      43.084  24.362  25.194  1.00  0.00     0.022 A 
BRANCH  41  45
ATOM     45  S   UNL A   1      41.933  22.094  26.332  1.00  0.00     0.124 S 
ATOM     46  O   UNL A   1      42.363  21.731  27.681  1.00  0.00    -0.237 OA
ATOM     47  O   UNL A   1      40.493  22.103  26.102  1.00  0.00    -0.237 OA
ATOM     48  O   UNL A   1      42.732  21.514  25.254  1.00  0.00    -0.744 OA
ENDBRANCH  41  45
ENDBRANCH  24  38
BRANCH  25  49
ATOM     49  C   UNL A   1      40.428  32.003  35.366  1.00  0.00     0.023 A 
ATOM     50  C   UNL A   1      39.445  31.596  36.281  1.00  0.00     0.031 A 
ATOM     51  C   UNL A   1      41.018  33.267  35.566  1.00  0.00     0.131 A 
ATOM     52  C   UNL A   1      39.035  32.466  37.305  1.00  0.00     0.055 A 
ATOM     53  C   UNL A   1      40.660  34.097  36.631  1.00  0.00     0.041 A 
ATOM     54  F   UNL A   1      41.954  33.728  34.720  1.00  0.00    -0.206 F 
ATOM     55  C   UNL A   1      39.646  33.707  37.496  1.00  0.00     0.022 A 
BRANCH  52  56
ATOM     56  S   UNL A   1      37.583  32.014  38.297  1.00  0.00     0.124 S 
ATOM     57  O   UNL A   1      37.330  30.650  37.850  1.00  0.00    -0.237 OA
ATOM     58  O   UNL A   1      38.091  32.159  39.657  1.00  0.00    -0.237 OA
ATOM     59  O   UNL A   1      36.579  32.999  37.898  1.00  0.00    -0.744 OA
ENDBRANCH  52  56
ENDBRANCH  25  49
BRANCH  37  60
ATOM     60  C   UNL A   1      45.204  27.088  34.064  1.00  0.00     0.023 A 
ATOM     61  C   UNL A   1      44.976  26.025  34.953  1.00  0.00     0.031 A 
ATOM     62  C   UNL A   1      46.498  27.628  33.979  1.00  0.00     0.131 A 
ATOM     63  C   UNL A   1      46.019  25.571  35.768  1.00  0.00     0.055 A 
ATOM     64  C   UNL A   1      47.548  27.124  34.743  1.00  0.00     0.041 A 
ATOM     65  F   UNL A   1      46.762  28.645  33.143  1.00  0.00    -0.206 F 
ATOM     66  C   UNL A   1      47.309  26.098  35.653  1.00  0.00     0.022 A 
BRANCH  63  67
ATOM     67  S   UNL A   1      45.645  24.341  37.045  1.00  0.00     0.124 S 
ATOM     68  O   UNL A   1      45.718  23.093  36.292  1.00  0.00    -0.237 OA
ATOM     69  O   UNL A   1      46.713  24.563  38.015  1.00  0.00    -0.237 OA
ATOM     70  O   UNL A   1      44.308  24.716  37.500  1.00  0.00    -0.744 OA
ENDBRANCH  63  67
ENDBRANCH  37  60
ENDBRANCH  11  12
ENDBRANCH   4   6
ENDBRANCH   3   4
ENDBRANCH   2   3
ENDBRANCH   1   2
BRANCH   1  71
ATOM     71  O   UNL A   1      30.985  27.756  25.324  1.00  0.00    -0.374 OA
BRANCH  71  72
ATOM     72  C   UNL A   1      31.126  26.901  26.453  1.00  0.00     0.202 C 
BRANCH  72  73
ATOM     73  C   UNL A   1      30.461  25.571  26.118  1.00  0.00     0.261 C 
BRANCH  73  74
ATOM     74  O   UNL A   1      31.415  24.532  26.387  1.00  0.00    -0.463 OA
BRANCH  74  75
ATOM     75  C   UNL A   1      31.164  23.348  25.744  1.00  0.00     0.314 C 
ATOM     76  O   UNL A   1      30.384  22.485  26.115  1.00  0.00    -0.252 OA
BRANCH  75  77
ATOM     77  C   UNL A   1      32.039  23.245  24.496  1.00  0.00     0.141 C 
BRANCH  77  78
ATOM     78  C   UNL A   1      33.354  24.094  24.722  1.00  0.00     0.068 C 
BRANCH  78  79
ATOM     79  C   UNL A   1      34.674  23.276  24.645  1.00  0.00    -0.039 A 
ATOM     80  C   UNL A   1      35.218  22.649  25.783  1.00  0.00     0.004 A 
ATOM     81  C   UNL A   1      35.451  23.180  23.480  1.00  0.00     0.004 A 
ATOM     82  C   UNL A   1      36.364  21.852  25.739  1.00  0.00     0.000 A 
ATOM     83  C   UNL A   1      36.603  22.382  23.421  1.00  0.00     0.000 A 
ATOM     84  C   UNL A   1      37.047  21.698  24.547  1.00  0.00     0.000 A 
ENDBRANCH  78  79
BRANCH  78  85
ATOM     85  C   UNL A   1      33.277  25.336  23.782  1.00  0.00    -0.039 A 
ATOM     86  C   UNL A   1      32.362  25.437  22.719  1.00  0.00     0.004 A 
ATOM     87  C   UNL A   1      34.024  26.489  24.107  1.00  0.00     0.004 A 
ATOM     88  C   UNL A   1      32.241  26.620  21.979  1.00  0.00     0.000 A 
ATOM     89  C   UNL A   1      33.841  27.693  23.420  1.00  0.00     0.000 A 
ATOM     90  C   UNL A   1      32.964  27.753  22.342  1.00  0.00     0.000 A 
ENDBRANCH  78  85
ENDBRANCH  77  78
BRANCH  77  91
ATOM     91  C   UNL A   1      32.193  21.761  24.144  1.00  0.00    -0.033 A 
ATOM     92  C   UNL A   1      32.448  20.788  25.129  1.00  0.00     0.004 A 
ATOM     93  C   UNL A   1      32.091  21.341  22.803  1.00  0.00     0.004 A 
ATOM     94  C   UNL A   1      32.639  19.450  24.777  1.00  0.00     0.000 A 
ATOM     95  C   UNL A   1      32.266  19.998  22.458  1.00  0.00     0.000 A 
ATOM     96  C   UNL A   1      32.552  19.056  23.443  1.00  0.00     0.000 A 
ENDBRANCH  77  91
ENDBRANCH  75  77
ENDBRANCH  74  75
ENDBRANCH  73  74
ENDBRANCH  72  73
ENDBRANCH  71  72
ENDBRANCH   1  71
TORSDOF 21
ENDMDL
MODEL 2
REMARK VINA RESULT:     -11.0      1.068      2.453
REMARK SMILES O=C(OCCOCCOC(=O)[C@H](c1ccccc1)C(c1ccccc1)c1ccccc1)c1ccc(-c2c3nc(c(-c4cc(S(=O)(=O)[O-])ccc4F)c4ccc([nH]4)c(-c4cc(S(=O)(=O)[O-])ccc4F)c4nc(c(-c5cc(S(=O)(=O)[O-])ccc5F)c5ccc2[nH]5)C=C4)C=C3)cc1
REMARK SMILES IDX 5 1 4 2 3 3 2 4 1 5 32 6 33 7 94 8 34 9 93 10 35 11 36 12
REMARK SMILES IDX 37 13 87 14 38 15 92 16 86 17 88 18 39 19 91 20 85 21 84 22
REMARK SMILES IDX 40 24 72 25 52 26 71 27 53 28 56 29 70 30 89 31 54 32 55 33
REMARK SMILES IDX 69 35 90 36 57 37 41 38 42 39 50 40 43 41 49 42 51 43 48 44
REMARK SMILES IDX 44 45 45 46 46 47 47 48 73 49 74 50 82 51 75 52 81 53 83 54
REMARK SMILES IDX 80 55 76 56 77 57 78 58 79 59 58 60 59 61 67 62 60 63 66 64
REMARK SMILES IDX 68 65 65 66 61 67 62 68 63 69 64 70 6 71 7 72 8 73 9 74
REMARK SMILES IDX 10 75 11 76 12 77 19 78 20 79 21 80 25 81 22 82 24 83 23 84
REMARK SMILES IDX 26 85 27 86 31 87 28 88 30 89 29 90 13 91 14 92 18 93 15 94
REMARK SMILES IDX 17 95 16 96
REMARK H PARENT 88 23 56 34
REMARK Flexibility Score: inf
ROOT
ATOM      1  C   UNL A   1      31.411  29.921  25.382  1.00  0.00     0.202 C 
ENDROOT
BRANCH   1   2
ATOM      2  C   UNL A   1      32.298  29.940  26.625  1.00  0.00     0.261 C 
BRANCH   2   3
ATOM      3  O   UNL A   1      33.373  30.872  26.448  1.00  0.00    -0.460 OA
BRANCH   3   4
ATOM      4  C   UNL A   1      33.988  31.575  27.430  1.00  0.00     0.338 C 
ATOM      5  O   UNL A   1      33.451  32.598  27.852  1.00  0.00    -0.246 OA
BRANCH   4   6
ATOM      6  C   UNL A   1      35.268  31.141  28.065  1.00  0.00     0.060 A 
ATOM      7  C   UNL A   1      36.399  31.948  28.205  1.00  0.00     0.016 A 
ATOM      8  C   UNL A   1      35.289  29.868  28.653  1.00  0.00     0.016 A 
ATOM      9  C   UNL A   1      37.516  31.529  28.894  1.00  0.00     0.010 A 
ATOM     10  C   UNL A   1      36.406  29.440  29.376  1.00  0.00     0.010 A 
ATOM     11  C   UNL A   1      37.512  30.286  29.506  1.00  0.00    -0.014 A 
BRANCH  11  12
ATOM     12  C   UNL A   1      38.739  29.904  30.212  1.00  0.00     0.031 A 
ATOM     13  C   UNL A   1      39.668  28.959  29.529  1.00  0.00     0.074 A 
ATOM     14  C   UNL A   1      39.053  30.540  31.355  1.00  0.00     0.049 A 
ATOM     15  N   UNL A   1      40.748  28.397  29.985  1.00  0.00    -0.248 NA
ATOM     16  C   UNL A   1      39.342  28.612  28.134  1.00  0.00     0.031 C 
ATOM     17  C   UNL A   1      38.262  31.617  31.964  1.00  0.00     0.029 A 
ATOM     18  N   UNL A   1      40.125  30.406  32.192  1.00  0.00    -0.354 N 
ATOM     19  C   UNL A   1      41.208  27.587  28.955  1.00  0.00     0.074 A 
ATOM     20  C   UNL A   1      40.303  27.749  27.839  1.00  0.00     0.031 C 
ATOM     21  C   UNL A   1      38.883  32.047  33.073  1.00  0.00     0.029 A 
ATOM     22  C   UNL A   1      40.050  31.209  33.308  1.00  0.00     0.049 A 
ATOM     23  H   UNL A   1      40.876  29.796  32.014  1.00  0.00     0.167 HD
ATOM     24  C   UNL A   1      42.280  26.764  28.977  1.00  0.00     0.034 A 
ATOM     25  C   UNL A   1      40.810  31.200  34.420  1.00  0.00     0.034 A 
ATOM     26  C   UNL A   1      43.135  26.651  30.130  1.00  0.00     0.049 A 
ATOM     27  C   UNL A   1      41.922  30.180  34.466  1.00  0.00     0.074 A 
ATOM     28  C   UNL A   1      44.213  25.813  30.331  1.00  0.00     0.029 A 
ATOM     29  N   UNL A   1      42.992  27.410  31.289  1.00  0.00    -0.354 N 
ATOM     30  N   UNL A   1      42.310  29.340  33.529  1.00  0.00    -0.248 NA
ATOM     31  C   UNL A   1      42.685  30.085  35.713  1.00  0.00     0.031 C 
ATOM     32  C   UNL A   1      44.676  26.015  31.636  1.00  0.00     0.029 A 
ATOM     33  C   UNL A   1      43.937  27.035  32.223  1.00  0.00     0.049 A 
ATOM     34  H   UNL A   1      42.315  28.113  31.422  1.00  0.00     0.167 HD
ATOM     35  C   UNL A   1      43.368  28.624  34.072  1.00  0.00     0.074 A 
ATOM     36  C   UNL A   1      43.581  29.160  35.404  1.00  0.00     0.031 C 
ATOM     37  C   UNL A   1      44.097  27.609  33.540  1.00  0.00     0.034 A 
BRANCH  24  38
ATOM     38  C   UNL A   1      42.476  25.856  27.794  1.00  0.00     0.023 A 
ATOM     39  C   UNL A   1      41.898  24.577  27.719  1.00  0.00     0.031 A 
ATOM     40  C   UNL A   1      43.325  26.260  26.748  1.00  0.00     0.131 A 
ATOM     41  C   UNL A   1      42.223  23.728  26.648  1.00  0.00     0.055 A 
ATOM     42  C   UNL A   1      43.589  25.439  25.652  1.00  0.00     0.041 A 
ATOM     43  F   UNL A   1      43.937  27.455  26.790  1.00  0.00    -0.206 F 
ATOM     44  C   UNL A   1      43.045  24.160  25.603  1.00  0.00     0.022 A 
BRANCH  41  45
ATOM     45  S   UNL A   1      41.657  22.005  26.695  1.00  0.00     0.124 S 
ATOM     46  O   UNL A   1      40.245  22.168  27.035  1.00  0.00    -0.237 OA
ATOM     47  O   UNL A   1      41.937  21.539  25.342  1.00  0.00    -0.237 OA
ATOM     48  O   UNL A   1      42.477  21.402  27.744  1.00  0.00    -0.744 OA
ENDBRANCH  41  45
ENDBRANCH  24  38
BRANCH  25  49
ATOM     49  C   UNL A   1      40.481  32.057  35.600  1.00  0.00     0.023 A 
ATOM     50  C   UNL A   1      39.412  31.745  36.454  1.00  0.00     0.031 A 
ATOM     51  C   UNL A   1      41.175  33.259  35.842  1.00  0.00     0.131 A 
ATOM     52  C   UNL A   1      39.026  32.651  37.457  1.00  0.00     0.055 A 
ATOM     53  C   UNL A   1      40.835  34.120  36.888  1.00  0.00     0.041 A 
ATOM     54  F   UNL A   1      42.199  33.629  35.054  1.00  0.00    -0.206 F 
ATOM     55  C   UNL A   1      39.740  33.828  37.690  1.00  0.00     0.022 A 
BRANCH  52  56
ATOM     56  S   UNL A   1      37.483  32.339  38.360  1.00  0.00     0.124 S 
ATOM     57  O   UNL A   1      36.548  33.215  37.663  1.00  0.00    -0.237 OA
ATOM     58  O   UNL A   1      37.296  30.907  38.154  1.00  0.00    -0.237 OA
ATOM     59  O   UNL A   1      37.805  32.735  39.731  1.00  0.00    -0.744 OA
ENDBRANCH  52  56
ENDBRANCH  25  49
BRANCH  37  60
ATOM     60  C   UNL A   1      45.196  27.057  34.404  1.00  0.00     0.023 A 
ATOM     61  C   UNL A   1      45.010  25.892  35.166  1.00  0.00     0.031 A 
ATOM     62  C   UNL A   1      46.441  27.704  34.459  1.00  0.00     0.131 A 
ATOM     63  C   UNL A   1      46.039  25.439  36.000  1.00  0.00     0.055 A 
ATOM     64  C   UNL A   1      47.485  27.209  35.238  1.00  0.00     0.041 A 
ATOM     65  F   UNL A   1      46.665  28.821  33.747  1.00  0.00    -0.206 F 
ATOM     66  C   UNL A   1      47.283  26.078  36.023  1.00  0.00     0.022 A 
BRANCH  63  67
ATOM     67  S   UNL A   1      45.700  24.058  37.120  1.00  0.00     0.124 S 
ATOM     68  O   UNL A   1      45.224  24.748  38.315  1.00  0.00    -0.237 OA
ATOM     69  O   UNL A   1      44.696  23.296  36.382  1.00  0.00    -0.237 OA
ATOM     70  O   UNL A   1      46.998  23.401  37.257  1.00  0.00    -0.744 OA
ENDBRANCH  63  67
ENDBRANCH  37  60
ENDBRANCH  11  12
ENDBRANCH   4   6
ENDBRANCH   3   4
ENDBRANCH   2   3
ENDBRANCH   1   2
BRANCH   1  71
ATOM     71  O   UNL A   1      31.304  28.635  24.782  1.00  0.00    -0.374 OA
BRANCH  71  72
ATOM     72  C   UNL A   1      32.262  28.290  23.789  1.00  0.00     0.202 C 
BRANCH  72  73
ATOM     73  C   UNL A   1      33.321  27.413  24.446  1.00  0.00     0.261 C 
BRANCH  73  74
ATOM     74  O   UNL A   1      34.192  26.937  23.408  1.00  0.00    -0.463 OA
BRANCH  74  75
ATOM     75  C   UNL A   1      33.822  25.737  22.859  1.00  0.00     0.314 C 
ATOM     76  O   UNL A   1      33.662  25.513  21.670  1.00  0.00    -0.252 OA
BRANCH  75  77
ATOM     77  C   UNL A   1      33.599  24.711  23.970  1.00  0.00     0.141 C 
BRANCH  77  78
ATOM     78  C   UNL A   1      32.341  23.825  23.603  1.00  0.00     0.068 C 
BRANCH  78  79
ATOM     79  C   UNL A   1      32.455  22.332  24.021  1.00  0.00    -0.039 A 
ATOM     80  C   UNL A   1      32.270  21.292  23.091  1.00  0.00     0.004 A 
ATOM     81  C   UNL A   1      32.659  21.922  25.348  1.00  0.00     0.004 A 
ATOM     82  C   UNL A   1      32.430  19.943  23.416  1.00  0.00     0.000 A 
ATOM     83  C   UNL A   1      32.822  20.570  25.688  1.00  0.00     0.000 A 
ATOM     84  C   UNL A   1      32.732  19.581  24.716  1.00  0.00     0.000 A 
ENDBRANCH  78  79
BRANCH  78  85
ATOM     85  C   UNL A   1      31.074  24.574  24.120  1.00  0.00    -0.039 A 
ATOM     86  C   UNL A   1      30.866  24.884  25.475  1.00  0.00     0.004 A 
ATOM     87  C   UNL A   1      30.176  25.130  23.183  1.00  0.00     0.004 A 
ATOM     88  C   UNL A   1      29.778  25.666  25.880  1.00  0.00     0.000 A 
ATOM     89  C   UNL A   1      29.139  25.980  23.582  1.00  0.00     0.000 A 
ATOM     90  C   UNL A   1      28.928  26.231  24.933  1.00  0.00     0.000 A 
ENDBRANCH  78  85
ENDBRANCH  77  78
BRANCH  77  91
ATOM     91  C   UNL A   1      34.929  23.996  24.231  1.00  0.00    -0.033 A 
ATOM     92  C   UNL A   1      35.608  24.116  25.458  1.00  0.00     0.004 A 
ATOM     93  C   UNL A   1      35.509  23.200  23.223  1.00  0.00     0.004 A 
ATOM     94  C   UNL A   1      36.845  23.498  25.652  1.00  0.00     0.000 A 
ATOM     95  C   UNL A   1      36.740  22.570  23.428  1.00  0.00     0.000 A 
ATOM     96  C   UNL A   1      37.412  22.729  24.637  1.00  0.00     0.000 A 
ENDBRANCH  77  91
ENDBRANCH  75  77
ENDBRANCH  74  75
ENDBRANCH  73  74
ENDBRANCH  72  73
ENDBRANCH  71  72
ENDBRANCH   1  71
TORSDOF 21
ENDMDL
MODEL 3
REMARK VINA RESULT:     -11.0      2.851      7.872
REMARK SMILES O=C(OCCOCCOC(=O)[C@H](c1ccccc1)C(c1ccccc1)c1ccccc1)c1ccc(-c2c3nc(c(-c4cc(S(=O)(=O)[O-])ccc4F)c4ccc([nH]4)c(-c4cc(S(=O)(=O)[O-])ccc4F)c4nc(c(-c5cc(S(=O)(=O)[O-])ccc5F)c5ccc2[nH]5)C=C4)C=C3)cc1
REMARK SMILES IDX 5 1 4 2 3 3 2 4 1 5 32 6 33 7 94 8 34 9 93 10 35 11 36 12
REMARK SMILES IDX 37 13 87 14 38 15 92 16 86 17 88 18 39 19 91 20 85 21 84 22
REMARK SMILES IDX 40 24 72 25 52 26 71 27 53 28 56 29 70 30 89 31 54 32 55 33
REMARK SMILES IDX 69 35 90 36 57 37 41 38 42 39 50 40 43 41 49 42 51 43 48 44
REMARK SMILES IDX 44 45 45 46 46 47 47 48 73 49 74 50 82 51 75 52 81 53 83 54
REMARK SMILES IDX 80 55 76 56 77 57 78 58 79 59 58 60 59 61 67 62 60 63 66 64
REMARK SMILES IDX 68 65 65 66 61 67 62 68 63 69 64 70 6 71 7 72 8 73 9 74
REMARK SMILES IDX 10 75 11 76 12 77 19 78 20 79 21 80 25 81 22 82 24 83 23 84
REMARK SMILES IDX 26 85 27 86 31 87 28 88 30 89 29 90 13 91 14 92 18 93 15 94
REMARK SMILES IDX 17 95 16 96
REMARK H PARENT 88 23 56 34
REMARK Flexibility Score: inf
ROOT
ATOM      1  C   UNL A   1      31.884  28.651  26.605  1.00  0.00     0.202 C 
ENDROOT
BRANCH   1   2
ATOM      2  C   UNL A   1      33.223  28.930  27.287  1.00  0.00     0.261 C 
BRANCH   2   3
ATOM      3  O   UNL A   1      33.630  30.281  27.036  1.00  0.00    -0.460 OA
BRANCH   3   4
ATOM      4  C   UNL A   1      34.628  30.944  27.670  1.00  0.00     0.338 C 
ATOM      5  O   UNL A   1      34.476  32.138  27.927  1.00  0.00    -0.246 OA
BRANCH   4   6
ATOM      6  C   UNL A   1      35.888  30.283  28.122  1.00  0.00     0.060 A 
ATOM      7  C   UNL A   1      37.090  30.295  27.412  1.00  0.00     0.016 A 
ATOM      8  C   UNL A   1      35.883  29.704  29.399  1.00  0.00     0.016 A 
ATOM      9  C   UNL A   1      38.249  29.758  27.927  1.00  0.00     0.010 A 
ATOM     10  C   UNL A   1      37.057  29.177  29.943  1.00  0.00     0.010 A 
ATOM     11  C   UNL A   1      38.244  29.225  29.205  1.00  0.00    -0.014 A 
BRANCH  11  12
ATOM     12  C   UNL A   1      39.511  28.662  29.681  1.00  0.00     0.031 A 
ATOM     13  C   UNL A   1      40.088  29.214  30.940  1.00  0.00     0.074 A 
ATOM     14  C   UNL A   1      40.008  27.575  29.064  1.00  0.00     0.049 A 
ATOM     15  N   UNL A   1      41.234  28.959  31.498  1.00  0.00    -0.248 NA
ATOM     16  C   UNL A   1      39.250  30.176  31.679  1.00  0.00     0.031 C 
ATOM     17  C   UNL A   1      39.371  26.880  27.938  1.00  0.00     0.029 A 
ATOM     18  N   UNL A   1      41.137  26.842  29.306  1.00  0.00    -0.354 N 
ATOM     19  C   UNL A   1      41.283  29.765  32.628  1.00  0.00     0.074 A 
ATOM     20  C   UNL A   1      40.040  30.501  32.691  1.00  0.00     0.031 C 
ATOM     21  C   UNL A   1      40.118  25.818  27.596  1.00  0.00     0.029 A 
ATOM     22  C   UNL A   1      41.330  25.823  28.402  1.00  0.00     0.049 A 
ATOM     23  H   UNL A   1      41.750  27.026  30.054  1.00  0.00     0.167 HD
ATOM     24  C   UNL A   1      42.305  29.885  33.505  1.00  0.00     0.034 A 
ATOM     25  C   UNL A   1      42.410  25.039  28.216  1.00  0.00     0.034 A 
ATOM     26  C   UNL A   1      43.519  29.120  33.374  1.00  0.00     0.049 A 
ATOM     27  C   UNL A   1      43.585  25.284  29.131  1.00  0.00     0.074 A 
ATOM     28  C   UNL A   1      44.667  29.181  34.138  1.00  0.00     0.029 A 
ATOM     29  N   UNL A   1      43.734  28.152  32.397  1.00  0.00    -0.354 N 
ATOM     30  N   UNL A   1      43.677  26.113  30.150  1.00  0.00    -0.248 NA
ATOM     31  C   UNL A   1      44.803  24.515  28.868  1.00  0.00     0.031 C 
ATOM     32  C   UNL A   1      45.601  28.301  33.578  1.00  0.00     0.029 A 
ATOM     33  C   UNL A   1      45.009  27.634  32.513  1.00  0.00     0.049 A 
ATOM     34  H   UNL A   1      43.072  27.877  31.721  1.00  0.00     0.167 HD
ATOM     35  C   UNL A   1      44.961  25.957  30.654  1.00  0.00     0.074 A 
ATOM     36  C   UNL A   1      45.591  24.926  29.850  1.00  0.00     0.031 C 
ATOM     37  C   UNL A   1      45.581  26.605  31.675  1.00  0.00     0.034 A 
BRANCH  24  38
ATOM     38  C   UNL A   1      42.189  30.953  34.556  1.00  0.00     0.023 A 
ATOM     39  C   UNL A   1      42.535  32.294  34.313  1.00  0.00     0.031 A 
ATOM     40  C   UNL A   1      41.792  30.600  35.858  1.00  0.00     0.131 A 
ATOM     41  C   UNL A   1      42.527  33.219  35.371  1.00  0.00     0.055 A 
ATOM     42  C   UNL A   1      41.719  31.537  36.889  1.00  0.00     0.041 A 
ATOM     43  F   UNL A   1      41.492  29.325  36.157  1.00  0.00    -0.206 F 
ATOM     44  C   UNL A   1      42.099  32.854  36.650  1.00  0.00     0.022 A 
BRANCH  41  45
ATOM     45  S   UNL A   1      43.201  34.879  35.086  1.00  0.00     0.124 S 
ATOM     46  O   UNL A   1      43.333  34.898  33.631  1.00  0.00    -0.237 OA
ATOM     47  O   UNL A   1      42.168  35.743  35.644  1.00  0.00    -0.237 OA
ATOM     48  O   UNL A   1      44.466  34.867  35.819  1.00  0.00    -0.744 OA
ENDBRANCH  41  45
ENDBRANCH  24  38
BRANCH  25  49
ATOM     49  C   UNL A   1      42.491  24.075  27.075  1.00  0.00     0.023 A 
ATOM     50  C   UNL A   1      41.912  22.799  27.155  1.00  0.00     0.031 A 
ATOM     51  C   UNL A   1      43.233  24.379  25.917  1.00  0.00     0.131 A 
ATOM     52  C   UNL A   1      42.140  21.858  26.136  1.00  0.00     0.055 A 
ATOM     53  C   UNL A   1      43.395  23.467  24.872  1.00  0.00     0.041 A 
ATOM     54  F   UNL A   1      43.829  25.576  25.781  1.00  0.00    -0.206 F 
ATOM     55  C   UNL A   1      42.865  22.188  24.989  1.00  0.00     0.022 A 
BRANCH  52  56
ATOM     56  S   UNL A   1      41.603  20.145  26.400  1.00  0.00     0.124 S 
ATOM     57  O   UNL A   1      40.160  20.255  26.218  1.00  0.00    -0.237 OA
ATOM     58  O   UNL A   1      42.330  19.436  25.353  1.00  0.00    -0.237 OA
ATOM     59  O   UNL A   1      42.039  19.858  27.766  1.00  0.00    -0.744 OA
ENDBRANCH  52  56
ENDBRANCH  25  49
BRANCH  37  60
ATOM     60  C   UNL A   1      46.991  26.177  31.974  1.00  0.00     0.023 A 
ATOM     61  C   UNL A   1      48.068  26.618  31.188  1.00  0.00     0.031 A 
ATOM     62  C   UNL A   1      47.254  25.323  33.057  1.00  0.00     0.131 A 
ATOM     63  C   UNL A   1      49.360  26.156  31.465  1.00  0.00     0.055 A 
ATOM     64  C   UNL A   1      48.551  24.922  33.369  1.00  0.00     0.041 A 
ATOM     65  F   UNL A   1      46.255  24.876  33.835  1.00  0.00    -0.206 F 
ATOM     66  C   UNL A   1      49.611  25.328  32.563  1.00  0.00     0.022 A 
BRANCH  63  67
ATOM     67  S   UNL A   1      50.694  26.579  30.316  1.00  0.00     0.124 S 
ATOM     68  O   UNL A   1      51.882  26.247  31.097  1.00  0.00    -0.237 OA
ATOM     69  O   UNL A   1      50.416  25.707  29.179  1.00  0.00    -0.237 OA
ATOM     70  O   UNL A   1      50.492  28.004  30.066  1.00  0.00    -0.744 OA
ENDBRANCH  63  67
ENDBRANCH  37  60
ENDBRANCH  11  12
ENDBRANCH   4   6
ENDBRANCH   3   4
ENDBRANCH   2   3
ENDBRANCH   1   2
BRANCH   1  71
ATOM     71  O   UNL A   1      31.445  27.305  26.751  1.00  0.00    -0.374 OA
BRANCH  71  72
ATOM     72  C   UNL A   1      30.578  26.784  25.750  1.00  0.00     0.202 C 
BRANCH  72  73
ATOM     73  C   UNL A   1      30.439  25.285  25.986  1.00  0.00     0.261 C 
BRANCH  73  74
ATOM     74  O   UNL A   1      31.394  24.917  26.993  1.00  0.00    -0.463 OA
BRANCH  74  75
ATOM     75  C   UNL A   1      32.049  23.737  26.753  1.00  0.00     0.314 C 
ATOM     76  O   UNL A   1      32.260  22.857  27.571  1.00  0.00    -0.252 OA
BRANCH  75  77
ATOM     77  C   UNL A   1      32.518  23.697  25.299  1.00  0.00     0.141 C 
BRANCH  77  78
ATOM     78  C   UNL A   1      33.853  24.535  25.168  1.00  0.00     0.068 C 
BRANCH  78  79
ATOM     79  C   UNL A   1      35.135  23.683  24.949  1.00  0.00    -0.039 A 
ATOM     80  C   UNL A   1      35.939  23.274  26.029  1.00  0.00     0.004 A 
ATOM     81  C   UNL A   1      35.620  23.342  23.676  1.00  0.00     0.004 A 
ATOM     82  C   UNL A   1      37.059  22.453  25.877  1.00  0.00     0.000 A 
ATOM     83  C   UNL A   1      36.743  22.518  23.509  1.00  0.00     0.000 A 
ATOM     84  C   UNL A   1      37.449  22.052  24.612  1.00  0.00     0.000 A 
ENDBRANCH  78  79
BRANCH  78  85
ATOM     85  C   UNL A   1      33.601  25.655  24.112  1.00  0.00    -0.039 A 
ATOM     86  C   UNL A   1      32.730  25.497  23.019  1.00  0.00     0.004 A 
ATOM     87  C   UNL A   1      34.119  26.947  24.346  1.00  0.00     0.004 A 
ATOM     88  C   UNL A   1      32.437  26.568  22.168  1.00  0.00     0.000 A 
ATOM     89  C   UNL A   1      33.758  28.034  23.543  1.00  0.00     0.000 A 
ATOM     90  C   UNL A   1      32.933  27.840  22.441  1.00  0.00     0.000 A 
ENDBRANCH  78  85
ENDBRANCH  77  78
BRANCH  77  91
ATOM     91  C   UNL A   1      32.543  22.232  24.848  1.00  0.00    -0.033 A 
ATOM     92  C   UNL A   1      32.934  21.195  25.715  1.00  0.00     0.004 A 
ATOM     93  C   UNL A   1      32.177  21.895  23.529  1.00  0.00     0.004 A 
ATOM     94  C   UNL A   1      33.001  19.875  25.265  1.00  0.00     0.000 A 
ATOM     95  C   UNL A   1      32.229  20.570  23.088  1.00  0.00     0.000 A 
ATOM     96  C   UNL A   1      32.652  19.563  23.952  1.00  0.00     0.000 A 
ENDBRANCH  77  91
ENDBRANCH  75  77
ENDBRANCH  74  75
ENDBRANCH  73  74
ENDBRANCH  72  73
ENDBRANCH  71  72
ENDBRANCH   1  71
TORSDOF 21
ENDMDL
