MODEL 1
REMARK VINA RESULT:     -12.5      0.000      0.000
REMARK SMILES C[C@H]1[C@H](C)CC[C@@]2(C(=O)OCCOCCOC(=O)c3ccc(-c4c5nc(c(-c6cc(S(=O)(=O)[O-])ccc6F)c6ccc([nH]6)c(-c6cc(S(=O)(=O)[O-])ccc6F)c6nc(c(-c7cc(S(=O)(=O)[O-])ccc7F)c7ccc4[nH]7)C=C6)C=C5)cc3)CC[C@@]3(C)C(=CC[C@@H]4[C@@]5(C)CC[C@H](O)C(C)(C)[C@@H]5CC[C@]43C)[C@H]12
REMARK SMILES IDX 14 1 13 2 12 3 11 4 10 5 8 6 9 7 7 8 1 9 2 10 3 11 104 12
REMARK SMILES IDX 4 13 5 14 86 15 6 16 82 17 84 18 87 19 83 20 85 21 102 22
REMARK SMILES IDX 88 23 89 24 101 25 103 26 90 27 100 28 91 29 92 30 99 31
REMARK SMILES IDX 93 32 96 33 94 34 97 35 98 36 95 37 15 39 16 40 17 41 18 42
REMARK SMILES IDX 19 43 20 44 81 45 21 46 80 47 22 48 23 49 24 50 74 51 25 52
REMARK SMILES IDX 79 53 73 54 75 55 26 56 78 57 72 58 71 59 27 61 59 62 39 63
REMARK SMILES IDX 58 64 40 65 43 66 57 67 76 68 41 69 42 70 56 72 77 73 44 74
REMARK SMILES IDX 28 75 29 76 37 77 30 78 36 79 38 80 35 81 31 82 32 83 33 84
REMARK SMILES IDX 34 85 60 86 61 87 69 88 62 89 68 90 70 91 67 92 63 93 64 94
REMARK SMILES IDX 65 95 66 96 45 97 46 98 54 99 47 100 53 101 55 102 52 103
REMARK SMILES IDX 48 104 49 105 50 106 51 107
REMARK H PARENT 95 38 75 60 43 71
REMARK Flexibility Score: inf
ROOT
ATOM      1  C   UNL A   1      46.602  39.294  25.621  1.00  0.00     0.202 C 
ENDROOT
BRANCH   1   2
ATOM      2  O   UNL A   1      46.829  39.687  24.283  1.00  0.00    -0.374 OA
BRANCH   2   3
ATOM      3  C   UNL A   1      46.878  41.079  24.017  1.00  0.00     0.202 C 
BRANCH   3   4
ATOM      4  C   UNL A   1      46.991  41.620  22.579  1.00  0.00     0.261 C 
BRANCH   4   5
ATOM      5  O   UNL A   1      45.724  41.969  21.962  1.00  0.00    -0.463 OA
BRANCH   5   6
ATOM      6  C   UNL A   1      45.635  42.568  20.744  1.00  0.00     0.312 C 
ATOM      7  O   UNL A   1      46.350  42.251  19.799  1.00  0.00    -0.252 OA
BRANCH   6   8
ATOM      8  C   UNL A   1      44.602  43.743  20.659  1.00  0.00     0.075 C 
ATOM      9  C   UNL A   1      44.091  44.607  24.483  1.00  0.00     0.008 C 
ATOM     10  C   UNL A   1      44.165  43.819  23.172  1.00  0.00    -0.003 C 
ATOM     11  C   UNL A   1      42.795  43.077  22.941  1.00  0.00    -0.011 C 
ATOM     12  C   UNL A   1      44.661  44.680  21.913  1.00  0.00     0.036 C 
ATOM     13  C   UNL A   1      42.421  42.090  24.061  1.00  0.00     0.008 C 
ATOM     14  C   UNL A   1      42.762  42.267  21.647  1.00  0.00     0.005 C 
ATOM     15  C   UNL A   1      46.093  45.387  21.842  1.00  0.00    -0.063 C 
ATOM     16  C   UNL A   1      43.208  43.094  20.470  1.00  0.00     0.020 C 
ATOM     17  C   UNL A   1      44.759  44.589  19.381  1.00  0.00     0.020 C 
ATOM     18  C   UNL A   1      46.489  46.153  20.515  1.00  0.00    -0.006 C 
ATOM     19  C   UNL A   1      47.059  45.126  22.751  1.00  0.00    -0.027 C 
ATOM     20  C   UNL A   1      46.069  45.326  19.270  1.00  0.00     0.013 C 
ATOM     21  C   UNL A   1      45.699  47.483  20.513  1.00  0.00     0.017 C 
ATOM     22  C   UNL A   1      48.109  46.456  20.396  1.00  0.00    -0.020 C 
ATOM     23  C   UNL A   1      48.536  45.070  22.393  1.00  0.00     0.032 C 
ATOM     24  C   UNL A   1      48.805  45.125  20.854  1.00  0.00     0.006 C 
ATOM     25  C   UNL A   1      48.576  46.859  18.972  1.00  0.00     0.008 C 
ATOM     26  C   UNL A   1      48.519  47.658  21.305  1.00  0.00     0.012 C 
ATOM     27  C   UNL A   1      50.287  44.769  20.331  1.00  0.00    -0.025 C 
ATOM     28  C   UNL A   1      50.104  46.842  18.812  1.00  0.00     0.005 C 
ATOM     29  C   UNL A   1      51.290  45.101  21.450  1.00  0.00     0.012 C 
ATOM     30  C   UNL A   1      50.401  43.229  20.047  1.00  0.00     0.010 C 
ATOM     31  C   UNL A   1      50.602  45.400  18.919  1.00  0.00     0.003 C 
ATOM     32  C   UNL A   1      51.745  42.770  19.458  1.00  0.00     0.033 C 
ATOM     33  C   UNL A   1      52.051  45.113  18.344  1.00  0.00    -0.006 C 
ATOM     34  C   UNL A   1      52.208  43.564  18.232  1.00  0.00     0.120 C 
ATOM     35  C   UNL A   1      53.205  45.757  19.142  1.00  0.00     0.014 C 
ATOM     36  C   UNL A   1      52.200  45.685  16.905  1.00  0.00     0.014 C 
BRANCH  34  37
ATOM     37  O   UNL A   1      53.552  43.203  17.906  1.00  0.00    -0.393 OA
ATOM     38  H   UNL A   1      53.600  42.941  16.974  1.00  0.00     0.210 HD
ENDBRANCH  34  37
ENDBRANCH   6   8
ENDBRANCH   5   6
ENDBRANCH   4   5
ENDBRANCH   3   4
ENDBRANCH   2   3
ENDBRANCH   1   2
BRANCH   1  39
ATOM     39  C   UNL A   1      47.073  37.861  25.903  1.00  0.00     0.261 C 
BRANCH  39  40
ATOM     40  O   UNL A   1      46.588  37.301  27.139  1.00  0.00    -0.460 OA
BRANCH  40  41
ATOM     41  C   UNL A   1      47.216  36.174  27.548  1.00  0.00     0.338 C 
ATOM     42  O   UNL A   1      48.425  35.996  27.653  1.00  0.00    -0.246 OA
BRANCH  41  43
ATOM     43  C   UNL A   1      46.228  35.170  27.982  1.00  0.00     0.060 A 
ATOM     44  C   UNL A   1      46.605  34.210  28.934  1.00  0.00     0.016 A 
ATOM     45  C   UNL A   1      44.989  35.089  27.343  1.00  0.00     0.016 A 
ATOM     46  C   UNL A   1      45.781  33.123  29.196  1.00  0.00     0.010 A 
ATOM     47  C   UNL A   1      44.182  33.974  27.570  1.00  0.00     0.010 A 
ATOM     48  C   UNL A   1      44.612  32.961  28.446  1.00  0.00    -0.014 A 
BRANCH  48  49
ATOM     49  C   UNL A   1      44.023  31.609  28.350  1.00  0.00     0.031 A 
ATOM     50  C   UNL A   1      44.796  30.568  27.584  1.00  0.00     0.074 A 
ATOM     51  C   UNL A   1      42.870  31.312  28.970  1.00  0.00     0.049 A 
ATOM     52  N   UNL A   1      44.463  29.345  27.270  1.00  0.00    -0.248 NA
ATOM     53  C   UNL A   1      46.131  30.968  27.106  1.00  0.00     0.031 C 
ATOM     54  C   UNL A   1      42.107  32.233  29.811  1.00  0.00     0.029 A 
ATOM     55  N   UNL A   1      42.140  30.155  28.982  1.00  0.00    -0.354 N 
ATOM     56  C   UNL A   1      45.537  28.836  26.545  1.00  0.00     0.074 A 
ATOM     57  C   UNL A   1      46.520  29.890  26.444  1.00  0.00     0.031 C 
ATOM     58  C   UNL A   1      40.999  31.607  30.244  1.00  0.00     0.029 A 
ATOM     59  C   UNL A   1      40.952  30.266  29.666  1.00  0.00     0.049 A 
ATOM     60  H   UNL A   1      42.436  29.325  28.545  1.00  0.00     0.167 HD
ATOM     61  C   UNL A   1      45.683  27.597  26.017  1.00  0.00     0.034 A 
ATOM     62  C   UNL A   1      39.933  29.391  29.769  1.00  0.00     0.034 A 
ATOM     63  C   UNL A   1      44.672  26.577  26.128  1.00  0.00     0.049 A 
ATOM     64  C   UNL A   1      40.069  28.054  29.079  1.00  0.00     0.074 A 
ATOM     65  C   UNL A   1      44.685  25.288  25.629  1.00  0.00     0.029 A 
ATOM     66  N   UNL A   1      43.456  26.739  26.785  1.00  0.00    -0.354 N 
ATOM     67  N   UNL A   1      41.074  27.587  28.369  1.00  0.00    -0.248 NA
ATOM     68  C   UNL A   1      38.942  27.124  29.209  1.00  0.00     0.031 C 
ATOM     69  C   UNL A   1      43.448  24.700  25.913  1.00  0.00     0.029 A 
ATOM     70  C   UNL A   1      42.698  25.585  26.674  1.00  0.00     0.049 A 
ATOM     71  H   UNL A   1      43.176  27.554  27.259  1.00  0.00     0.167 HD
ATOM     72  C   UNL A   1      40.712  26.293  28.001  1.00  0.00     0.074 A 
ATOM     73  C   UNL A   1      39.404  26.055  28.580  1.00  0.00     0.031 C 
ATOM     74  C   UNL A   1      41.393  25.382  27.259  1.00  0.00     0.034 A 
BRANCH  61  75
ATOM     75  C   UNL A   1      46.935  27.318  25.220  1.00  0.00     0.023 A 
ATOM     76  C   UNL A   1      47.101  27.776  23.900  1.00  0.00     0.031 A 
ATOM     77  C   UNL A   1      47.970  26.547  25.780  1.00  0.00     0.131 A 
ATOM     78  C   UNL A   1      48.240  27.407  23.167  1.00  0.00     0.055 A 
ATOM     79  C   UNL A   1      49.137  26.250  25.073  1.00  0.00     0.041 A 
ATOM     80  F   UNL A   1      47.859  26.054  27.024  1.00  0.00    -0.206 F 
ATOM     81  C   UNL A   1      49.272  26.670  23.754  1.00  0.00     0.022 A 
BRANCH  78  82
ATOM     82  S   UNL A   1      48.294  27.784  21.394  1.00  0.00     0.124 S 
ATOM     83  O   UNL A   1      49.289  28.853  21.350  1.00  0.00    -0.237 OA
ATOM     84  O   UNL A   1      48.699  26.510  20.812  1.00  0.00    -0.237 OA
ATOM     85  O   UNL A   1      46.926  28.201  21.089  1.00  0.00    -0.744 OA
ENDBRANCH  78  82
ENDBRANCH  61  75
BRANCH  62  86
ATOM     86  C   UNL A   1      38.687  29.760  30.500  1.00  0.00     0.023 A 
ATOM     87  C   UNL A   1      37.709  30.569  29.902  1.00  0.00     0.031 A 
ATOM     88  C   UNL A   1      38.479  29.350  31.830  1.00  0.00     0.131 A 
ATOM     89  C   UNL A   1      36.594  30.985  30.648  1.00  0.00     0.055 A 
ATOM     90  C   UNL A   1      37.337  29.714  32.546  1.00  0.00     0.041 A 
ATOM     91  F   UNL A   1      39.383  28.577  32.454  1.00  0.00    -0.206 F 
ATOM     92  C   UNL A   1      36.393  30.550  31.960  1.00  0.00     0.022 A 
BRANCH  89  93
ATOM     93  S   UNL A   1      35.461  32.192  29.908  1.00  0.00     0.124 S 
ATOM     94  O   UNL A   1      34.943  31.449  28.765  1.00  0.00    -0.237 OA
ATOM     95  O   UNL A   1      34.521  32.430  30.998  1.00  0.00    -0.237 OA
ATOM     96  O   UNL A   1      36.331  33.319  29.580  1.00  0.00    -0.744 OA
ENDBRANCH  89  93
ENDBRANCH  62  86
BRANCH  74  97
ATOM     97  C   UNL A   1      40.752  24.026  27.086  1.00  0.00     0.023 A 
ATOM     98  C   UNL A   1      39.622  23.840  26.274  1.00  0.00     0.031 A 
ATOM     99  C   UNL A   1      41.283  22.908  27.754  1.00  0.00     0.131 A 
ATOM    100  C   UNL A   1      39.019  22.576  26.201  1.00  0.00     0.055 A 
ATOM    101  C   UNL A   1      40.723  21.638  27.617  1.00  0.00     0.041 A 
ATOM    102  F   UNL A   1      42.361  23.030  28.545  1.00  0.00    -0.206 F 
ATOM    103  C   UNL A   1      39.576  21.470  26.849  1.00  0.00     0.022 A 
BRANCH 100 104
ATOM    104  S   UNL A   1      37.434  22.420  25.335  1.00  0.00     0.124 S 
ATOM    105  O   UNL A   1      36.561  21.921  26.392  1.00  0.00    -0.237 OA
ATOM    106  O   UNL A   1      37.182  23.789  24.896  1.00  0.00    -0.237 OA
ATOM    107  O   UNL A   1      37.720  21.468  24.264  1.00  0.00    -0.744 OA
ENDBRANCH 100 104
ENDBRANCH  74  97
ENDBRANCH  48  49
ENDBRANCH  41  43
ENDBRANCH  40  41
ENDBRANCH  39  40
ENDBRANCH   1  39
TORSDOF 18
ENDMDL
MODEL 2
REMARK VINA RESULT:     -12.0      7.840     15.401
REMARK SMILES C[C@H]1[C@H](C)CC[C@@]2(C(=O)OCCOCCOC(=O)c3ccc(-c4c5nc(c(-c6cc(S(=O)(=O)[O-])ccc6F)c6ccc([nH]6)c(-c6cc(S(=O)(=O)[O-])ccc6F)c6nc(c(-c7cc(S(=O)(=O)[O-])ccc7F)c7ccc4[nH]7)C=C6)C=C5)cc3)CC[C@@]3(C)C(=CC[C@@H]4[C@@]5(C)CC[C@H](O)C(C)(C)[C@@H]5CC[C@]43C)[C@H]12
REMARK SMILES IDX 14 1 13 2 12 3 11 4 10 5 8 6 9 7 7 8 1 9 2 10 3 11 104 12
REMARK SMILES IDX 4 13 5 14 86 15 6 16 82 17 84 18 87 19 83 20 85 21 102 22
REMARK SMILES IDX 88 23 89 24 101 25 103 26 90 27 100 28 91 29 92 30 99 31
REMARK SMILES IDX 93 32 96 33 94 34 97 35 98 36 95 37 15 39 16 40 17 41 18 42
REMARK SMILES IDX 19 43 20 44 81 45 21 46 80 47 22 48 23 49 24 50 74 51 25 52
REMARK SMILES IDX 79 53 73 54 75 55 26 56 78 57 72 58 71 59 27 61 59 62 39 63
REMARK SMILES IDX 58 64 40 65 43 66 57 67 76 68 41 69 42 70 56 72 77 73 44 74
REMARK SMILES IDX 28 75 29 76 37 77 30 78 36 79 38 80 35 81 31 82 32 83 33 84
REMARK SMILES IDX 34 85 60 86 61 87 69 88 62 89 68 90 70 91 67 92 63 93 64 94
REMARK SMILES IDX 65 95 66 96 45 97 46 98 54 99 47 100 53 101 55 102 52 103
REMARK SMILES IDX 48 104 49 105 50 106 51 107
REMARK H PARENT 95 38 75 60 43 71
REMARK Flexibility Score: inf
ROOT
ATOM      1  C   UNL A   1      35.031  29.467  27.264  1.00  0.00     0.202 C 
ENDROOT
BRANCH   1   2
ATOM      2  O   UNL A   1      35.881  29.463  28.392  1.00  0.00    -0.374 OA
BRANCH   2   3
ATOM      3  C   UNL A   1      37.267  29.277  28.155  1.00  0.00     0.202 C 
BRANCH   3   4
ATOM      4  C   UNL A   1      38.073  28.202  28.909  1.00  0.00     0.261 C 
BRANCH   4   5
ATOM      5  O   UNL A   1      39.512  28.291  28.734  1.00  0.00    -0.463 OA
BRANCH   5   6
ATOM      6  C   UNL A   1      40.380  28.384  29.777  1.00  0.00     0.312 C 
ATOM      7  O   UNL A   1      40.455  27.527  30.651  1.00  0.00    -0.252 OA
BRANCH   6   8
ATOM      8  C   UNL A   1      41.225  29.702  29.818  1.00  0.00     0.075 C 
ATOM      9  C   UNL A   1      42.391  29.764  33.595  1.00  0.00     0.008 C 
ATOM     10  C   UNL A   1      41.495  29.701  32.356  1.00  0.00    -0.003 C 
ATOM     11  C   UNL A   1      40.398  30.828  32.457  1.00  0.00    -0.011 C 
ATOM     12  C   UNL A   1      42.293  29.691  30.965  1.00  0.00     0.036 C 
ATOM     13  C   UNL A   1      39.494  30.712  33.697  1.00  0.00     0.008 C 
ATOM     14  C   UNL A   1      39.455  30.857  31.257  1.00  0.00     0.005 C 
ATOM     15  C   UNL A   1      43.334  28.548  30.558  1.00  0.00    -0.063 C 
ATOM     16  C   UNL A   1      40.218  30.871  29.959  1.00  0.00     0.020 C 
ATOM     17  C   UNL A   1      41.919  30.011  28.478  1.00  0.00     0.020 C 
ATOM     18  C   UNL A   1      44.007  28.617  29.127  1.00  0.00    -0.006 C 
ATOM     19  C   UNL A   1      43.448  27.406  31.271  1.00  0.00    -0.027 C 
ATOM     20  C   UNL A   1      42.952  28.999  28.054  1.00  0.00     0.013 C 
ATOM     21  C   UNL A   1      45.075  29.735  29.189  1.00  0.00     0.017 C 
ATOM     22  C   UNL A   1      44.704  27.192  28.665  1.00  0.00    -0.020 C 
ATOM     23  C   UNL A   1      43.734  26.056  30.630  1.00  0.00     0.032 C 
ATOM     24  C   UNL A   1      43.667  26.085  29.068  1.00  0.00     0.006 C 
ATOM     25  C   UNL A   1      45.037  27.111  27.152  1.00  0.00     0.008 C 
ATOM     26  C   UNL A   1      46.074  26.983  29.386  1.00  0.00     0.012 C 
ATOM     27  C   UNL A   1      43.647  24.675  28.286  1.00  0.00    -0.025 C 
ATOM     28  C   UNL A   1      45.398  25.690  26.690  1.00  0.00     0.005 C 
ATOM     29  C   UNL A   1      44.364  23.627  29.155  1.00  0.00     0.012 C 
ATOM     30  C   UNL A   1      42.168  24.188  28.096  1.00  0.00     0.010 C 
ATOM     31  C   UNL A   1      44.160  24.798  26.798  1.00  0.00     0.003 C 
ATOM     32  C   UNL A   1      42.005  22.892  27.284  1.00  0.00     0.033 C 
ATOM     33  C   UNL A   1      44.191  23.450  25.967  1.00  0.00    -0.006 C 
ATOM     34  C   UNL A   1      42.735  22.889  25.936  1.00  0.00     0.120 C 
ATOM     35  C   UNL A   1      45.207  22.401  26.469  1.00  0.00     0.014 C 
ATOM     36  C   UNL A   1      44.600  23.718  24.490  1.00  0.00     0.014 C 
BRANCH  34  37
ATOM     37  O   UNL A   1      42.699  21.575  25.375  1.00  0.00    -0.393 OA
ATOM     38  H   UNL A   1      42.094  21.563  24.617  1.00  0.00     0.210 HD
ENDBRANCH  34  37
ENDBRANCH   6   8
ENDBRANCH   5   6
ENDBRANCH   4   5
ENDBRANCH   3   4
ENDBRANCH   2   3
ENDBRANCH   1   2
BRANCH   1  39
ATOM     39  C   UNL A   1      33.961  30.566  27.335  1.00  0.00     0.261 C 
BRANCH  39  40
ATOM     40  O   UNL A   1      34.480  31.910  27.369  1.00  0.00    -0.460 OA
BRANCH  40  41
ATOM     41  C   UNL A   1      33.810  32.766  28.175  1.00  0.00     0.338 C 
ATOM     42  O   UNL A   1      32.687  33.225  27.998  1.00  0.00    -0.246 OA
BRANCH  41  43
ATOM     43  C   UNL A   1      34.579  33.009  29.409  1.00  0.00     0.060 A 
ATOM     44  C   UNL A   1      34.777  34.331  29.839  1.00  0.00     0.016 A 
ATOM     45  C   UNL A   1      35.223  31.950  30.051  1.00  0.00     0.016 A 
ATOM     46  C   UNL A   1      35.676  34.607  30.860  1.00  0.00     0.010 A 
ATOM     47  C   UNL A   1      36.162  32.230  31.044  1.00  0.00     0.010 A 
ATOM     48  C   UNL A   1      36.434  33.563  31.399  1.00  0.00    -0.014 A 
BRANCH  48  49
ATOM     49  C   UNL A   1      37.702  33.896  32.081  1.00  0.00     0.031 A 
ATOM     50  C   UNL A   1      38.894  34.207  31.216  1.00  0.00     0.074 A 
ATOM     51  C   UNL A   1      37.767  33.970  33.420  1.00  0.00     0.049 A 
ATOM     52  N   UNL A   1      40.135  34.433  31.555  1.00  0.00    -0.248 NA
ATOM     53  C   UNL A   1      38.649  34.270  29.764  1.00  0.00     0.031 C 
ATOM     54  C   UNL A   1      36.638  33.779  34.328  1.00  0.00     0.029 A 
ATOM     55  N   UNL A   1      38.829  34.221  34.245  1.00  0.00    -0.354 N 
ATOM     56  C   UNL A   1      40.819  34.648  30.362  1.00  0.00     0.074 A 
ATOM     57  C   UNL A   1      39.862  34.499  29.289  1.00  0.00     0.031 C 
ATOM     58  C   UNL A   1      37.075  33.901  35.593  1.00  0.00     0.029 A 
ATOM     59  C   UNL A   1      38.519  34.123  35.581  1.00  0.00     0.049 A 
ATOM     60  H   UNL A   1      39.728  34.450  33.915  1.00  0.00     0.167 HD
ATOM     61  C   UNL A   1      42.129  34.944  30.185  1.00  0.00     0.034 A 
ATOM     62  C   UNL A   1      39.326  34.167  36.658  1.00  0.00     0.034 A 
ATOM     63  C   UNL A   1      43.056  35.071  31.282  1.00  0.00     0.049 A 
ATOM     64  C   UNL A   1      40.803  34.390  36.433  1.00  0.00     0.074 A 
ATOM     65  C   UNL A   1      44.408  35.353  31.244  1.00  0.00     0.029 A 
ATOM     66  N   UNL A   1      42.718  34.914  32.623  1.00  0.00    -0.354 N 
ATOM     67  N   UNL A   1      41.452  34.562  35.302  1.00  0.00    -0.248 NA
ATOM     68  C   UNL A   1      41.655  34.432  37.626  1.00  0.00     0.031 C 
ATOM     69  C   UNL A   1      44.902  35.287  32.551  1.00  0.00     0.029 A 
ATOM     70  C   UNL A   1      43.843  35.060  33.417  1.00  0.00     0.049 A 
ATOM     71  H   UNL A   1      41.812  34.728  32.957  1.00  0.00     0.167 HD
ATOM     72  C   UNL A   1      42.783  34.771  35.653  1.00  0.00     0.074 A 
ATOM     73  C   UNL A   1      42.837  34.715  37.101  1.00  0.00     0.031 C 
ATOM     74  C   UNL A   1      43.863  34.993  34.859  1.00  0.00     0.034 A 
BRANCH  61  75
ATOM     75  C   UNL A   1      42.635  35.073  28.768  1.00  0.00     0.023 A 
ATOM     76  C   UNL A   1      43.379  34.056  28.144  1.00  0.00     0.031 A 
ATOM     77  C   UNL A   1      42.397  36.253  28.039  1.00  0.00     0.131 A 
ATOM     78  C   UNL A   1      43.911  34.263  26.861  1.00  0.00     0.055 A 
ATOM     79  C   UNL A   1      42.861  36.421  26.733  1.00  0.00     0.041 A 
ATOM     80  F   UNL A   1      41.721  37.273  28.591  1.00  0.00    -0.206 F 
ATOM     81  C   UNL A   1      43.633  35.428  26.141  1.00  0.00     0.022 A 
BRANCH  78  82
ATOM     82  S   UNL A   1      45.085  33.049  26.199  1.00  0.00     0.124 S 
ATOM     83  O   UNL A   1      44.187  31.996  25.732  1.00  0.00    -0.237 OA
ATOM     84  O   UNL A   1      45.773  33.808  25.161  1.00  0.00    -0.237 OA
ATOM     85  O   UNL A   1      45.903  32.695  27.357  1.00  0.00    -0.744 OA
ENDBRANCH  78  82
ENDBRANCH  61  75
BRANCH  62  86
ATOM     86  C   UNL A   1      38.777  33.948  38.027  1.00  0.00     0.023 A 
ATOM     87  C   UNL A   1      38.246  32.706  38.405  1.00  0.00     0.031 A 
ATOM     88  C   UNL A   1      38.729  34.997  38.965  1.00  0.00     0.131 A 
ATOM     89  C   UNL A   1      37.643  32.557  39.664  1.00  0.00     0.055 A 
ATOM     90  C   UNL A   1      38.186  34.825  40.240  1.00  0.00     0.041 A 
ATOM     91  F   UNL A   1      39.220  36.209  38.658  1.00  0.00    -0.206 F 
ATOM     92  C   UNL A   1      37.624  33.603  40.590  1.00  0.00     0.022 A 
BRANCH  89  93
ATOM     93  S   UNL A   1      36.790  31.001  40.035  1.00  0.00     0.124 S 
ATOM     94  O   UNL A   1      36.754  30.363  38.724  1.00  0.00    -0.237 OA
ATOM     95  O   UNL A   1      37.680  30.395  41.019  1.00  0.00    -0.237 OA
ATOM     96  O   UNL A   1      35.495  31.438  40.553  1.00  0.00    -0.744 OA
ENDBRANCH  89  93
ENDBRANCH  62  86
BRANCH  74  97
ATOM     97  C   UNL A   1      45.179  35.248  35.553  1.00  0.00     0.023 A 
ATOM     98  C   UNL A   1      45.580  36.541  35.929  1.00  0.00     0.031 A 
ATOM     99  C   UNL A   1      46.044  34.176  35.836  1.00  0.00     0.131 A 
ATOM    100  C   UNL A   1      46.842  36.737  36.507  1.00  0.00     0.055 A 
ATOM    101  C   UNL A   1      47.267  34.369  36.479  1.00  0.00     0.041 A 
ATOM    102  F   UNL A   1      45.712  32.920  35.496  1.00  0.00    -0.206 F 
ATOM    103  C   UNL A   1      47.678  35.657  36.804  1.00  0.00     0.022 A 
BRANCH 100 104
ATOM    104  S   UNL A   1      47.423  38.435  36.763  1.00  0.00     0.124 S 
ATOM    105  O   UNL A   1      47.247  38.600  38.202  1.00  0.00    -0.237 OA
ATOM    106  O   UNL A   1      48.804  38.368  36.295  1.00  0.00    -0.237 OA
ATOM    107  O   UNL A   1      46.525  39.234  35.932  1.00  0.00    -0.744 OA
ENDBRANCH 100 104
ENDBRANCH  74  97
ENDBRANCH  48  49
ENDBRANCH  41  43
ENDBRANCH  40  41
ENDBRANCH  39  40
ENDBRANCH   1  39
TORSDOF 18
ENDMDL
MODEL 3
REMARK VINA RESULT:     -11.8     11.594     17.083
REMARK SMILES C[C@H]1[C@H](C)CC[C@@]2(C(=O)OCCOCCOC(=O)c3ccc(-c4c5nc(c(-c6cc(S(=O)(=O)[O-])ccc6F)c6ccc([nH]6)c(-c6cc(S(=O)(=O)[O-])ccc6F)c6nc(c(-c7cc(S(=O)(=O)[O-])ccc7F)c7ccc4[nH]7)C=C6)C=C5)cc3)CC[C@@]3(C)C(=CC[C@@H]4[C@@]5(C)CC[C@H](O)C(C)(C)[C@@H]5CC[C@]43C)[C@H]12
REMARK SMILES IDX 14 1 13 2 12 3 11 4 10 5 8 6 9 7 7 8 1 9 2 10 3 11 104 12
REMARK SMILES IDX 4 13 5 14 86 15 6 16 82 17 84 18 87 19 83 20 85 21 102 22
REMARK SMILES IDX 88 23 89 24 101 25 103 26 90 27 100 28 91 29 92 30 99 31
REMARK SMILES IDX 93 32 96 33 94 34 97 35 98 36 95 37 15 39 16 40 17 41 18 42
REMARK SMILES IDX 19 43 20 44 81 45 21 46 80 47 22 48 23 49 24 50 74 51 25 52
REMARK SMILES IDX 79 53 73 54 75 55 26 56 78 57 72 58 71 59 27 61 59 62 39 63
REMARK SMILES IDX 58 64 40 65 43 66 57 67 76 68 41 69 42 70 56 72 77 73 44 74
REMARK SMILES IDX 28 75 29 76 37 77 30 78 36 79 38 80 35 81 31 82 32 83 33 84
REMARK SMILES IDX 34 85 60 86 61 87 69 88 62 89 68 90 70 91 67 92 63 93 64 94
REMARK SMILES IDX 65 95 66 96 45 97 46 98 54 99 47 100 53 101 55 102 52 103
REMARK SMILES IDX 48 104 49 105 50 106 51 107
REMARK H PARENT 95 38 75 60 43 71
REMARK Flexibility Score: inf
ROOT
ATOM      1  C   UNL A   1      33.778  31.440  27.172  1.00  0.00     0.202 C 
ENDROOT
BRANCH   1   2
ATOM      2  O   UNL A   1      33.897  30.107  27.624  1.00  0.00    -0.374 OA
BRANCH   2   3
ATOM      3  C   UNL A   1      34.554  29.190  26.765  1.00  0.00     0.202 C 
BRANCH   3   4
ATOM      4  C   UNL A   1      34.364  29.242  25.237  1.00  0.00     0.261 C 
BRANCH   4   5
ATOM      5  O   UNL A   1      33.579  28.151  24.687  1.00  0.00    -0.463 OA
BRANCH   5   6
ATOM      6  C   UNL A   1      32.365  28.335  24.102  1.00  0.00     0.312 C 
ATOM      7  O   UNL A   1      32.227  28.442  22.889  1.00  0.00    -0.252 OA
BRANCH   6   8
ATOM      8  C   UNL A   1      31.165  28.473  25.100  1.00  0.00     0.075 C 
ATOM      9  C   UNL A   1      28.077  28.116  22.659  1.00  0.00     0.008 C 
ATOM     10  C   UNL A   1      29.388  28.611  23.275  1.00  0.00    -0.003 C 
ATOM     11  C   UNL A   1      29.292  30.166  23.508  1.00  0.00    -0.011 C 
ATOM     12  C   UNL A   1      29.863  27.786  24.565  1.00  0.00     0.036 C 
ATOM     13  C   UNL A   1      29.039  30.977  22.224  1.00  0.00     0.008 C 
ATOM     14  C   UNL A   1      30.552  30.758  24.132  1.00  0.00     0.005 C 
ATOM     15  C   UNL A   1      30.194  26.222  24.535  1.00  0.00    -0.063 C 
ATOM     16  C   UNL A   1      30.973  29.989  25.356  1.00  0.00     0.020 C 
ATOM     17  C   UNL A   1      31.489  27.929  26.505  1.00  0.00     0.020 C 
ATOM     18  C   UNL A   1      30.719  25.538  25.862  1.00  0.00    -0.006 C 
ATOM     19  C   UNL A   1      30.300  25.542  23.372  1.00  0.00    -0.027 C 
ATOM     20  C   UNL A   1      31.764  26.449  26.561  1.00  0.00     0.013 C 
ATOM     21  C   UNL A   1      29.497  25.383  26.798  1.00  0.00     0.017 C 
ATOM     22  C   UNL A   1      31.424  24.067  25.603  1.00  0.00    -0.020 C 
ATOM     23  C   UNL A   1      31.299  24.413  23.163  1.00  0.00     0.032 C 
ATOM     24  C   UNL A   1      32.325  24.268  24.333  1.00  0.00     0.006 C 
ATOM     25  C   UNL A   1      32.266  23.547  26.798  1.00  0.00     0.008 C 
ATOM     26  C   UNL A   1      30.343  22.964  25.369  1.00  0.00     0.012 C 
ATOM     27  C   UNL A   1      33.611  23.325  24.099  1.00  0.00    -0.025 C 
ATOM     28  C   UNL A   1      33.148  22.342  26.435  1.00  0.00     0.005 C 
ATOM     29  C   UNL A   1      33.242  22.249  23.062  1.00  0.00     0.012 C 
ATOM     30  C   UNL A   1      34.791  24.166  23.496  1.00  0.00     0.010 C 
ATOM     31  C   UNL A   1      34.228  22.791  25.450  1.00  0.00     0.003 C 
ATOM     32  C   UNL A   1      36.110  23.399  23.305  1.00  0.00     0.033 C 
ATOM     33  C   UNL A   1      35.485  21.837  25.304  1.00  0.00    -0.006 C 
ATOM     34  C   UNL A   1      36.590  22.638  24.546  1.00  0.00     0.120 C 
ATOM     35  C   UNL A   1      35.193  20.476  24.636  1.00  0.00     0.014 C 
ATOM     36  C   UNL A   1      36.071  21.474  26.698  1.00  0.00     0.014 C 
BRANCH  34  37
ATOM     37  O   UNL A   1      37.690  21.795  24.196  1.00  0.00    -0.393 OA
ATOM     38  H   UNL A   1      37.720  21.036  24.798  1.00  0.00     0.210 HD
ENDBRANCH  34  37
ENDBRANCH   6   8
ENDBRANCH   5   6
ENDBRANCH   4   5
ENDBRANCH   3   4
ENDBRANCH   2   3
ENDBRANCH   1   2
BRANCH   1  39
ATOM     39  C   UNL A   1      33.601  32.440  28.324  1.00  0.00     0.261 C 
BRANCH  39  40
ATOM     40  O   UNL A   1      34.829  32.857  28.951  1.00  0.00    -0.460 OA
BRANCH  40  41
ATOM     41  C   UNL A   1      35.135  32.217  30.104  1.00  0.00     0.338 C 
ATOM     42  O   UNL A   1      34.582  32.345  31.191  1.00  0.00    -0.246 OA
BRANCH  41  43
ATOM     43  C   UNL A   1      36.188  31.215  29.865  1.00  0.00     0.060 A 
ATOM     44  C   UNL A   1      36.278  30.104  30.718  1.00  0.00     0.016 A 
ATOM     45  C   UNL A   1      37.168  31.449  28.898  1.00  0.00     0.016 A 
ATOM     46  C   UNL A   1      37.384  29.266  30.662  1.00  0.00     0.010 A 
ATOM     47  C   UNL A   1      38.302  30.636  28.872  1.00  0.00     0.010 A 
ATOM     48  C   UNL A   1      38.436  29.587  29.799  1.00  0.00    -0.014 A 
BRANCH  48  49
ATOM     49  C   UNL A   1      39.775  29.032  30.090  1.00  0.00     0.031 A 
ATOM     50  C   UNL A   1      40.587  29.705  31.164  1.00  0.00     0.074 A 
ATOM     51  C   UNL A   1      40.221  27.937  29.454  1.00  0.00     0.049 A 
ATOM     52  N   UNL A   1      41.816  29.481  31.544  1.00  0.00    -0.248 NA
ATOM     53  C   UNL A   1      39.915  30.782  31.912  1.00  0.00     0.031 C 
ATOM     54  C   UNL A   1      39.461  27.169  28.469  1.00  0.00     0.029 A 
ATOM     55  N   UNL A   1      41.422  27.288  29.539  1.00  0.00    -0.354 N 
ATOM     56  C   UNL A   1      42.069  30.398  32.561  1.00  0.00     0.074 A 
ATOM     57  C   UNL A   1      40.877  31.197  32.721  1.00  0.00     0.031 C 
ATOM     58  C   UNL A   1      40.227  26.157  28.026  1.00  0.00     0.029 A 
ATOM     59  C   UNL A   1      41.543  26.244  28.653  1.00  0.00     0.049 A 
ATOM     60  H   UNL A   1      42.131  27.543  30.173  1.00  0.00     0.167 HD
ATOM     61  C   UNL A   1      43.199  30.550  33.294  1.00  0.00     0.034 A 
ATOM     62  C   UNL A   1      42.614  25.481  28.362  1.00  0.00     0.034 A 
ATOM     63  C   UNL A   1      44.374  29.740  33.095  1.00  0.00     0.049 A 
ATOM     64  C   UNL A   1      43.899  25.739  29.114  1.00  0.00     0.074 A 
ATOM     65  C   UNL A   1      45.587  29.798  33.755  1.00  0.00     0.029 A 
ATOM     66  N   UNL A   1      44.480  28.722  32.151  1.00  0.00    -0.354 N 
ATOM     67  N   UNL A   1      44.144  26.627  30.054  1.00  0.00    -0.248 NA
ATOM     68  C   UNL A   1      45.047  24.893  28.773  1.00  0.00     0.031 C 
ATOM     69  C   UNL A   1      46.450  28.873  33.158  1.00  0.00     0.029 A 
ATOM     70  C   UNL A   1      45.749  28.169  32.190  1.00  0.00     0.049 A 
ATOM     71  H   UNL A   1      43.759  28.437  31.546  1.00  0.00     0.167 HD
ATOM     72  C   UNL A   1      45.465  26.417  30.442  1.00  0.00     0.074 A 
ATOM     73  C   UNL A   1      45.955  25.312  29.642  1.00  0.00     0.031 C 
ATOM     74  C   UNL A   1      46.208  27.069  31.373  1.00  0.00     0.034 A 
BRANCH  61  75
ATOM     75  C   UNL A   1      43.232  31.669  34.307  1.00  0.00     0.023 A 
ATOM     76  C   UNL A   1      42.675  31.531  35.592  1.00  0.00     0.031 A 
ATOM     77  C   UNL A   1      43.800  32.911  33.969  1.00  0.00     0.131 A 
ATOM     78  C   UNL A   1      42.642  32.632  36.463  1.00  0.00     0.055 A 
ATOM     79  C   UNL A   1      43.836  33.977  34.870  1.00  0.00     0.041 A 
ATOM     80  F   UNL A   1      44.319  33.115  32.748  1.00  0.00    -0.206 F 
ATOM     81  C   UNL A   1      43.244  33.845  36.121  1.00  0.00     0.022 A 
BRANCH  78  82
ATOM     82  S   UNL A   1      41.682  32.499  37.997  1.00  0.00     0.124 S 
ATOM     83  O   UNL A   1      41.748  33.867  38.504  1.00  0.00    -0.237 OA
ATOM     84  O   UNL A   1      40.378  32.058  37.516  1.00  0.00    -0.237 OA
ATOM     85  O   UNL A   1      42.423  31.513  38.782  1.00  0.00    -0.744 OA
ENDBRANCH  78  82
ENDBRANCH  61  75
BRANCH  62  86
ATOM     86  C   UNL A   1      42.541  24.447  27.290  1.00  0.00     0.023 A 
ATOM     87  C   UNL A   1      41.820  23.258  27.477  1.00  0.00     0.031 A 
ATOM     88  C   UNL A   1      43.237  24.611  26.077  1.00  0.00     0.131 A 
ATOM     89  C   UNL A   1      41.852  22.258  26.492  1.00  0.00     0.055 A 
ATOM     90  C   UNL A   1      43.213  23.640  25.074  1.00  0.00     0.041 A 
ATOM     91  F   UNL A   1      43.946  25.727  25.844  1.00  0.00    -0.206 F 
ATOM     92  C   UNL A   1      42.530  22.448  25.285  1.00  0.00     0.022 A 
BRANCH  89  93
ATOM     93  S   UNL A   1      41.078  20.660  26.857  1.00  0.00     0.124 S 
ATOM     94  O   UNL A   1      39.871  20.723  26.041  1.00  0.00    -0.237 OA
ATOM     95  O   UNL A   1      42.103  19.720  26.416  1.00  0.00    -0.237 OA
ATOM     96  O   UNL A   1      40.860  20.710  28.301  1.00  0.00    -0.744 OA
ENDBRANCH  89  93
ENDBRANCH  62  86
BRANCH  74  97
ATOM     97  C   UNL A   1      47.608  26.558  31.610  1.00  0.00     0.023 A 
ATOM     98  C   UNL A   1      47.878  25.547  32.547  1.00  0.00     0.031 A 
ATOM     99  C   UNL A   1      48.686  27.100  30.888  1.00  0.00     0.131 A 
ATOM    100  C   UNL A   1      49.204  25.154  32.784  1.00  0.00     0.055 A 
ATOM    101  C   UNL A   1      49.994  26.652  31.074  1.00  0.00     0.041 A 
ATOM    102  F   UNL A   1      48.484  28.071  29.982  1.00  0.00    -0.206 F 
ATOM    103  C   UNL A   1      50.260  25.685  32.038  1.00  0.00     0.022 A 
BRANCH 100 104
ATOM    104  S   UNL A   1      49.540  24.021  34.158  1.00  0.00     0.124 S 
ATOM    105  O   UNL A   1      50.112  22.871  33.467  1.00  0.00    -0.237 OA
ATOM    106  O   UNL A   1      50.464  24.793  34.982  1.00  0.00    -0.237 OA
ATOM    107  O   UNL A   1      48.221  23.798  34.748  1.00  0.00    -0.744 OA
ENDBRANCH 100 104
ENDBRANCH  74  97
ENDBRANCH  48  49
ENDBRANCH  41  43
ENDBRANCH  40  41
ENDBRANCH  39  40
ENDBRANCH   1  39
TORSDOF 18
ENDMDL
