MODEL 1
REMARK VINA RESULT:     -10.6      0.000      0.000
REMARK SMILES CCCCCCNC(=O)Nc1cccc(-c2ccc([C@@H](C)C(=O)OCCOCCOC(=O)c3ccc(-c4c5nc(c(-c6cc(S(=O)(=O)[O-])ccc6F)c6ccc([nH]6)c(-c6cc(S(=O)(=O)[O-])ccc6F)c6nc(c(-c7cc(S(=O)(=O)[O-])ccc7F)c7ccc4[nH]7)C=C6)C=C5)cc3)cc2F)c1
REMARK SMILES IDX 25 1 24 2 22 3 23 4 20 5 21 6 19 7 16 8 17 9 97 10 18 11
REMARK SMILES IDX 96 12 98 13 15 14 11 15 12 16 99 17 13 18 14 19 10 20 7 21
REMARK SMILES IDX 8 22 9 24 6 26 5 27 4 28 3 29 2 30 1 31 26 32 27 33 28 34
REMARK SMILES IDX 29 35 30 36 31 37 32 38 33 39 34 40 95 41 35 42 94 43 36 44
REMARK SMILES IDX 37 45 38 46 88 47 39 48 93 49 87 50 89 51 40 52 92 53 86 54
REMARK SMILES IDX 85 55 41 57 73 58 53 59 72 60 54 61 57 62 71 63 90 64 55 65
REMARK SMILES IDX 56 66 70 68 91 69 58 70 42 71 43 72 51 73 44 74 50 75 52 76
REMARK SMILES IDX 49 77 45 78 46 79 47 80 48 81 74 82 75 83 83 84 76 85 82 86
REMARK SMILES IDX 84 87 81 88 77 89 78 90 79 91 80 92 59 93 60 94 68 95 61 96
REMARK SMILES IDX 67 97 69 98 66 99 62 100 63 101 64 102 65 103
REMARK H PARENT 7 23 10 25 89 56 57 67
REMARK Flexibility Score: inf
ROOT
ATOM      1  C   UNL A   1      29.748  31.063  24.058  1.00  0.00     0.261 C 
ENDROOT
BRANCH   1   2
ATOM      2  O   UNL A   1      28.843  30.158  23.408  1.00  0.00    -0.463 OA
BRANCH   2   3
ATOM      3  C   UNL A   1      29.442  29.237  22.608  1.00  0.00     0.313 C 
ATOM      4  O   UNL A   1      30.146  29.514  21.639  1.00  0.00    -0.252 OA
BRANCH   3   5
ATOM      5  C   UNL A   1      29.130  27.793  22.963  1.00  0.00     0.126 C 
ATOM      6  C   UNL A   1      27.658  27.703  23.370  1.00  0.00     0.025 C 
BRANCH   5   7
ATOM      7  C   UNL A   1      30.030  27.050  23.946  1.00  0.00    -0.031 A 
ATOM      8  C   UNL A   1      31.763  25.356  25.480  1.00  0.00     0.018 A 
ATOM      9  C   UNL A   1      30.382  25.431  25.741  1.00  0.00     0.012 A 
ATOM     10  C   UNL A   1      32.258  26.204  24.483  1.00  0.00     0.131 A 
ATOM     11  C   UNL A   1      29.529  26.262  24.991  1.00  0.00     0.005 A 
ATOM     12  C   UNL A   1      31.418  27.035  23.731  1.00  0.00     0.044 A 
ATOM     13  F   UNL A   1      33.564  26.194  24.172  1.00  0.00    -0.206 F 
BRANCH   8  14
ATOM     14  C   UNL A   1      32.626  24.373  26.168  1.00  0.00    -0.013 A 
ATOM     15  C   UNL A   1      34.762  23.203  26.449  1.00  0.00     0.043 A 
ATOM     16  C   UNL A   1      34.215  22.425  27.469  1.00  0.00     0.026 A 
ATOM     17  C   UNL A   1      33.957  24.137  25.776  1.00  0.00     0.035 A 
ATOM     18  C   UNL A   1      32.906  22.653  27.886  1.00  0.00     0.003 A 
ATOM     19  C   UNL A   1      32.124  23.621  27.247  1.00  0.00     0.009 A 
BRANCH  15  20
ATOM     20  N   UNL A   1      36.128  23.028  26.159  1.00  0.00    -0.308 N 
ATOM     21  N   UNL A   1      36.220  20.956  25.032  1.00  0.00    -0.338 N 
ATOM     22  C   UNL A   1      36.815  21.912  25.790  1.00  0.00     0.319 C 
ATOM     23  H   UNL A   1      36.716  20.113  24.925  1.00  0.00     0.165 HD
ATOM     24  O   UNL A   1      38.020  21.825  26.028  1.00  0.00    -0.249 OA
ATOM     25  H   UNL A   1      36.674  23.843  26.235  1.00  0.00     0.171 HD
BRANCH  21  26
ATOM     26  C   UNL A   1      34.942  21.038  24.364  1.00  0.00     0.117 C 
BRANCH  26  27
ATOM     27  C   UNL A   1      33.855  20.133  24.927  1.00  0.00     0.021 C 
BRANCH  27  28
ATOM     28  C   UNL A   1      32.626  19.952  24.036  1.00  0.00     0.002 C 
BRANCH  28  29
ATOM     29  C   UNL A   1      32.465  18.579  23.374  1.00  0.00    -0.000 C 
BRANCH  29  30
ATOM     30  C   UNL A   1      33.281  17.432  23.977  1.00  0.00    -0.003 C 
ATOM     31  C   UNL A   1      34.245  16.797  22.999  1.00  0.00     0.004 C 
ENDBRANCH  29  30
ENDBRANCH  28  29
ENDBRANCH  27  28
ENDBRANCH  26  27
ENDBRANCH  21  26
ENDBRANCH  15  20
ENDBRANCH   8  14
ENDBRANCH   5   7
ENDBRANCH   3   5
ENDBRANCH   2   3
ENDBRANCH   1   2
BRANCH   1  32
ATOM     32  C   UNL A   1      31.000  30.421  24.680  1.00  0.00     0.202 C 
BRANCH  32  33
ATOM     33  O   UNL A   1      31.315  30.673  26.041  1.00  0.00    -0.374 OA
BRANCH  33  34
ATOM     34  C   UNL A   1      31.822  29.615  26.848  1.00  0.00     0.202 C 
BRANCH  34  35
ATOM     35  C   UNL A   1      33.309  29.571  27.217  1.00  0.00     0.261 C 
BRANCH  35  36
ATOM     36  O   UNL A   1      34.020  30.796  26.967  1.00  0.00    -0.460 OA
BRANCH  36  37
ATOM     37  C   UNL A   1      34.775  31.231  28.007  1.00  0.00     0.338 C 
ATOM     38  O   UNL A   1      34.544  32.227  28.686  1.00  0.00    -0.246 OA
BRANCH  37  39
ATOM     39  C   UNL A   1      35.942  30.356  28.274  1.00  0.00     0.060 A 
ATOM     40  C   UNL A   1      35.969  29.684  29.504  1.00  0.00     0.016 A 
ATOM     41  C   UNL A   1      37.049  30.282  27.423  1.00  0.00     0.016 A 
ATOM     42  C   UNL A   1      37.132  29.051  29.941  1.00  0.00     0.010 A 
ATOM     43  C   UNL A   1      38.228  29.692  27.884  1.00  0.00     0.010 A 
ATOM     44  C   UNL A   1      38.293  29.119  29.168  1.00  0.00    -0.014 A 
BRANCH  44  45
ATOM     45  C   UNL A   1      39.584  28.638  29.719  1.00  0.00     0.031 A 
ATOM     46  C   UNL A   1      40.324  29.425  30.773  1.00  0.00     0.074 A 
ATOM     47  C   UNL A   1      40.128  27.521  29.206  1.00  0.00     0.049 A 
ATOM     48  N   UNL A   1      41.466  29.163  31.360  1.00  0.00    -0.248 NA
ATOM     49  C   UNL A   1      39.716  30.690  31.204  1.00  0.00     0.031 C 
ATOM     50  C   UNL A   1      39.519  26.695  28.163  1.00  0.00     0.029 A 
ATOM     51  N   UNL A   1      41.328  26.918  29.462  1.00  0.00    -0.354 N 
ATOM     52  C   UNL A   1      41.705  30.223  32.231  1.00  0.00     0.074 A 
ATOM     53  C   UNL A   1      40.627  31.169  32.038  1.00  0.00     0.031 C 
ATOM     54  C   UNL A   1      40.385  25.734  27.811  1.00  0.00     0.029 A 
ATOM     55  C   UNL A   1      41.590  25.863  28.625  1.00  0.00     0.049 A 
ATOM     56  H   UNL A   1      41.941  27.210  30.175  1.00  0.00     0.167 HD
ATOM     57  C   UNL A   1      42.712  30.373  33.132  1.00  0.00     0.034 A 
ATOM     58  C   UNL A   1      42.679  25.081  28.524  1.00  0.00     0.034 A 
ATOM     59  C   UNL A   1      43.769  29.402  33.301  1.00  0.00     0.049 A 
ATOM     60  C   UNL A   1      43.779  25.240  29.528  1.00  0.00     0.074 A 
ATOM     61  C   UNL A   1      44.762  29.359  34.267  1.00  0.00     0.029 A 
ATOM     62  N   UNL A   1      43.989  28.313  32.466  1.00  0.00    -0.354 N 
ATOM     63  N   UNL A   1      43.925  26.163  30.451  1.00  0.00    -0.248 NA
ATOM     64  C   UNL A   1      44.826  24.214  29.522  1.00  0.00     0.031 C 
ATOM     65  C   UNL A   1      45.621  28.295  33.968  1.00  0.00     0.029 A 
ATOM     66  C   UNL A   1      45.123  27.620  32.864  1.00  0.00     0.049 A 
ATOM     67  H   UNL A   1      43.420  28.068  31.699  1.00  0.00     0.167 HD
ATOM     68  C   UNL A   1      45.065  25.808  31.163  1.00  0.00     0.074 A 
ATOM     69  C   UNL A   1      45.561  24.584  30.560  1.00  0.00     0.031 C 
ATOM     70  C   UNL A   1      45.634  26.426  32.230  1.00  0.00     0.034 A 
BRANCH  57  71
ATOM     71  C   UNL A   1      42.722  31.621  33.994  1.00  0.00     0.023 A 
ATOM     72  C   UNL A   1      41.962  31.718  35.175  1.00  0.00     0.031 A 
ATOM     73  C   UNL A   1      43.508  32.732  33.639  1.00  0.00     0.131 A 
ATOM     74  C   UNL A   1      41.939  32.916  35.908  1.00  0.00     0.055 A 
ATOM     75  C   UNL A   1      43.549  33.893  34.419  1.00  0.00     0.041 A 
ATOM     76  F   UNL A   1      44.248  32.718  32.519  1.00  0.00    -0.206 F 
ATOM     77  C   UNL A   1      42.749  33.996  35.553  1.00  0.00     0.022 A 
BRANCH  74  78
ATOM     78  S   UNL A   1      40.724  33.095  37.243  1.00  0.00     0.124 S 
ATOM     79  O   UNL A   1      41.304  32.252  38.287  1.00  0.00    -0.237 OA
ATOM     80  O   UNL A   1      40.746  34.531  37.497  1.00  0.00    -0.237 OA
ATOM     81  O   UNL A   1      39.490  32.582  36.654  1.00  0.00    -0.744 OA
ENDBRANCH  74  78
ENDBRANCH  57  71
BRANCH  58  82
ATOM     82  C   UNL A   1      42.719  24.055  27.453  1.00  0.00     0.023 A 
ATOM     83  C   UNL A   1      42.180  22.779  27.655  1.00  0.00     0.031 A 
ATOM     84  C   UNL A   1      43.209  24.383  26.175  1.00  0.00     0.131 A 
ATOM     85  C   UNL A   1      42.147  21.865  26.593  1.00  0.00     0.055 A 
ATOM     86  C   UNL A   1      43.152  23.479  25.116  1.00  0.00     0.041 A 
ATOM     87  F   UNL A   1      43.702  25.607  25.932  1.00  0.00    -0.206 F 
ATOM     88  C   UNL A   1      42.620  22.208  25.323  1.00  0.00     0.022 A 
BRANCH  85  89
ATOM     89  S   UNL A   1      41.467  20.214  26.897  1.00  0.00     0.124 S 
ATOM     90  O   UNL A   1      40.829  20.387  28.196  1.00  0.00    -0.237 OA
ATOM     91  O   UNL A   1      40.571  20.043  25.758  1.00  0.00    -0.237 OA
ATOM     92  O   UNL A   1      42.649  19.354  26.889  1.00  0.00    -0.744 OA
ENDBRANCH  85  89
ENDBRANCH  58  82
BRANCH  70  93
ATOM     93  C   UNL A   1      46.856  25.764  32.819  1.00  0.00     0.023 A 
ATOM     94  C   UNL A   1      46.749  24.777  33.815  1.00  0.00     0.031 A 
ATOM     95  C   UNL A   1      48.143  26.153  32.409  1.00  0.00     0.131 A 
ATOM     96  C   UNL A   1      47.906  24.266  34.418  1.00  0.00     0.055 A 
ATOM     97  C   UNL A   1      49.292  25.591  32.965  1.00  0.00     0.041 A 
ATOM     98  F   UNL A   1      48.305  27.093  31.464  1.00  0.00    -0.206 F 
ATOM     99  C   UNL A   1      49.178  24.654  33.988  1.00  0.00     0.022 A 
BRANCH  96 100
ATOM    100  S   UNL A   1      47.724  23.171  35.852  1.00  0.00     0.124 S 
ATOM    101  O   UNL A   1      46.834  23.945  36.711  1.00  0.00    -0.237 OA
ATOM    102  O   UNL A   1      47.151  21.968  35.256  1.00  0.00    -0.237 OA
ATOM    103  O   UNL A   1      49.092  23.026  36.348  1.00  0.00    -0.744 OA
ENDBRANCH  96 100
ENDBRANCH  70  93
ENDBRANCH  44  45
ENDBRANCH  37  39
ENDBRANCH  36  37
ENDBRANCH  35  36
ENDBRANCH  34  35
ENDBRANCH  33  34
ENDBRANCH  32  33
ENDBRANCH   1  32
TORSDOF 25
ENDMDL
MODEL 2
REMARK VINA RESULT:     -10.3      2.453      7.631
REMARK SMILES CCCCCCNC(=O)Nc1cccc(-c2ccc([C@@H](C)C(=O)OCCOCCOC(=O)c3ccc(-c4c5nc(c(-c6cc(S(=O)(=O)[O-])ccc6F)c6ccc([nH]6)c(-c6cc(S(=O)(=O)[O-])ccc6F)c6nc(c(-c7cc(S(=O)(=O)[O-])ccc7F)c7ccc4[nH]7)C=C6)C=C5)cc3)cc2F)c1
REMARK SMILES IDX 25 1 24 2 22 3 23 4 20 5 21 6 19 7 16 8 17 9 97 10 18 11
REMARK SMILES IDX 96 12 98 13 15 14 11 15 12 16 99 17 13 18 14 19 10 20 7 21
REMARK SMILES IDX 8 22 9 24 6 26 5 27 4 28 3 29 2 30 1 31 26 32 27 33 28 34
REMARK SMILES IDX 29 35 30 36 31 37 32 38 33 39 34 40 95 41 35 42 94 43 36 44
REMARK SMILES IDX 37 45 38 46 88 47 39 48 93 49 87 50 89 51 40 52 92 53 86 54
REMARK SMILES IDX 85 55 41 57 73 58 53 59 72 60 54 61 57 62 71 63 90 64 55 65
REMARK SMILES IDX 56 66 70 68 91 69 58 70 42 71 43 72 51 73 44 74 50 75 52 76
REMARK SMILES IDX 49 77 45 78 46 79 47 80 48 81 74 82 75 83 83 84 76 85 82 86
REMARK SMILES IDX 84 87 81 88 77 89 78 90 79 91 80 92 59 93 60 94 68 95 61 96
REMARK SMILES IDX 67 97 69 98 66 99 62 100 63 101 64 102 65 103
REMARK H PARENT 7 23 10 25 89 56 57 67
REMARK Flexibility Score: inf
ROOT
ATOM      1  C   UNL A   1      29.170  31.719  23.796  1.00  0.00     0.261 C 
ENDROOT
BRANCH   1   2
ATOM      2  O   UNL A   1      28.030  30.876  23.571  1.00  0.00    -0.463 OA
BRANCH   2   3
ATOM      3  C   UNL A   1      28.100  30.119  22.444  1.00  0.00     0.313 C 
ATOM      4  O   UNL A   1      28.306  30.570  21.319  1.00  0.00    -0.252 OA
BRANCH   3   5
ATOM      5  C   UNL A   1      27.843  28.637  22.661  1.00  0.00     0.126 C 
ATOM      6  C   UNL A   1      26.659  28.487  23.618  1.00  0.00     0.025 C 
BRANCH   5   7
ATOM      7  C   UNL A   1      29.002  27.724  23.054  1.00  0.00    -0.031 A 
ATOM      8  C   UNL A   1      31.146  25.851  23.389  1.00  0.00     0.018 A 
ATOM      9  C   UNL A   1      29.881  25.636  23.967  1.00  0.00     0.012 A 
ATOM     10  C   UNL A   1      31.326  27.058  22.704  1.00  0.00     0.131 A 
ATOM     11  C   UNL A   1      28.827  26.554  23.805  1.00  0.00     0.005 A 
ATOM     12  C   UNL A   1      30.283  27.978  22.538  1.00  0.00     0.044 A 
ATOM     13  F   UNL A   1      32.503  27.339  22.123  1.00  0.00    -0.206 F 
BRANCH   8  14
ATOM     14  C   UNL A   1      32.201  24.815  23.435  1.00  0.00    -0.013 A 
ATOM     15  C   UNL A   1      33.738  23.357  24.668  1.00  0.00     0.043 A 
ATOM     16  C   UNL A   1      34.272  22.887  23.468  1.00  0.00     0.026 A 
ATOM     17  C   UNL A   1      32.741  24.346  24.647  1.00  0.00     0.035 A 
ATOM     18  C   UNL A   1      33.741  23.323  22.256  1.00  0.00     0.003 A 
ATOM     19  C   UNL A   1      32.713  24.270  22.242  1.00  0.00     0.009 A 
BRANCH  15  20
ATOM     20  N   UNL A   1      34.215  22.783  25.860  1.00  0.00    -0.308 N 
ATOM     21  N   UNL A   1      33.067  20.726  26.013  1.00  0.00    -0.338 N 
ATOM     22  C   UNL A   1      33.718  21.759  26.607  1.00  0.00     0.319 C 
ATOM     23  H   UNL A   1      32.604  20.098  26.613  1.00  0.00     0.165 HD
ATOM     24  O   UNL A   1      33.970  21.696  27.810  1.00  0.00    -0.249 OA
ATOM     25  H   UNL A   1      35.041  23.185  26.211  1.00  0.00     0.171 HD
BRANCH  21  26
ATOM     26  C   UNL A   1      32.979  20.444  24.599  1.00  0.00     0.117 C 
BRANCH  26  27
ATOM     27  C   UNL A   1      32.269  19.147  24.238  1.00  0.00     0.021 C 
BRANCH  27  28
ATOM     28  C   UNL A   1      33.030  18.227  23.284  1.00  0.00     0.002 C 
BRANCH  28  29
ATOM     29  C   UNL A   1      33.283  16.797  23.778  1.00  0.00    -0.000 C 
BRANCH  29  30
ATOM     30  C   UNL A   1      32.923  16.508  25.238  1.00  0.00    -0.003 C 
ATOM     31  C   UNL A   1      32.838  15.032  25.557  1.00  0.00     0.004 C 
ENDBRANCH  29  30
ENDBRANCH  28  29
ENDBRANCH  27  28
ENDBRANCH  26  27
ENDBRANCH  21  26
ENDBRANCH  15  20
ENDBRANCH   8  14
ENDBRANCH   5   7
ENDBRANCH   3   5
ENDBRANCH   2   3
ENDBRANCH   1   2
BRANCH   1  32
ATOM     32  C   UNL A   1      30.287  31.112  24.663  1.00  0.00     0.202 C 
BRANCH  32  33
ATOM     33  O   UNL A   1      30.433  31.529  26.013  1.00  0.00    -0.374 OA
BRANCH  33  34
ATOM     34  C   UNL A   1      31.717  31.918  26.488  1.00  0.00     0.202 C 
BRANCH  34  35
ATOM     35  C   UNL A   1      31.854  33.087  27.470  1.00  0.00     0.261 C 
BRANCH  35  36
ATOM     36  O   UNL A   1      33.022  33.901  27.267  1.00  0.00    -0.460 OA
BRANCH  36  37
ATOM     37  C   UNL A   1      33.665  34.257  28.407  1.00  0.00     0.338 C 
ATOM     38  O   UNL A   1      33.317  35.155  29.168  1.00  0.00    -0.246 OA
BRANCH  37  39
ATOM     39  C   UNL A   1      34.863  33.426  28.674  1.00  0.00     0.060 A 
ATOM     40  C   UNL A   1      34.664  32.215  29.353  1.00  0.00     0.016 A 
ATOM     41  C   UNL A   1      36.165  33.854  28.396  1.00  0.00     0.016 A 
ATOM     42  C   UNL A   1      35.747  31.502  29.864  1.00  0.00     0.010 A 
ATOM     43  C   UNL A   1      37.245  33.165  28.953  1.00  0.00     0.010 A 
ATOM     44  C   UNL A   1      37.039  32.014  29.735  1.00  0.00    -0.014 A 
BRANCH  44  45
ATOM     45  C   UNL A   1      38.169  31.377  30.459  1.00  0.00     0.031 A 
ATOM     46  C   UNL A   1      38.971  30.267  29.827  1.00  0.00     0.074 A 
ATOM     47  C   UNL A   1      38.418  31.754  31.723  1.00  0.00     0.049 A 
ATOM     48  N   UNL A   1      39.982  29.589  30.313  1.00  0.00    -0.248 NA
ATOM     49  C   UNL A   1      38.568  29.838  28.482  1.00  0.00     0.031 C 
ATOM     50  C   UNL A   1      37.688  32.795  32.448  1.00  0.00     0.029 A 
ATOM     51  N   UNL A   1      39.322  31.277  32.632  1.00  0.00    -0.354 N 
ATOM     52  C   UNL A   1      40.337  28.665  29.333  1.00  0.00     0.074 A 
ATOM     53  C   UNL A   1      39.383  28.819  28.256  1.00  0.00     0.031 C 
ATOM     54  C   UNL A   1      38.120  32.825  33.716  1.00  0.00     0.029 A 
ATOM     55  C   UNL A   1      39.175  31.829  33.879  1.00  0.00     0.049 A 
ATOM     56  H   UNL A   1      40.009  30.607  32.413  1.00  0.00     0.167 HD
ATOM     57  C   UNL A   1      41.383  27.798  29.321  1.00  0.00     0.034 A 
ATOM     58  C   UNL A   1      39.819  31.566  35.030  1.00  0.00     0.034 A 
ATOM     59  C   UNL A   1      42.321  27.678  30.414  1.00  0.00     0.049 A 
ATOM     60  C   UNL A   1      40.981  30.620  35.008  1.00  0.00     0.074 A 
ATOM     61  C   UNL A   1      43.498  26.949  30.472  1.00  0.00     0.029 A 
ATOM     62  N   UNL A   1      42.174  28.284  31.657  1.00  0.00    -0.354 N 
ATOM     63  N   UNL A   1      41.403  29.857  34.026  1.00  0.00    -0.248 NA
ATOM     64  C   UNL A   1      41.793  30.551  36.226  1.00  0.00     0.031 C 
ATOM     65  C   UNL A   1      44.016  27.052  31.769  1.00  0.00     0.029 A 
ATOM     66  C   UNL A   1      43.210  27.911  32.500  1.00  0.00     0.049 A 
ATOM     67  H   UNL A   1      41.439  28.891  31.904  1.00  0.00     0.167 HD
ATOM     68  C   UNL A   1      42.556  29.240  34.497  1.00  0.00     0.074 A 
ATOM     69  C   UNL A   1      42.760  29.728  35.849  1.00  0.00     0.031 C 
ATOM     70  C   UNL A   1      43.382  28.369  33.861  1.00  0.00     0.034 A 
BRANCH  57  71
ATOM     71  C   UNL A   1      41.567  26.914  28.101  1.00  0.00     0.023 A 
ATOM     72  C   UNL A   1      41.055  25.604  28.045  1.00  0.00     0.031 A 
ATOM     73  C   UNL A   1      42.258  27.387  26.971  1.00  0.00     0.131 A 
ATOM     74  C   UNL A   1      41.309  24.790  26.928  1.00  0.00     0.055 A 
ATOM     75  C   UNL A   1      42.434  26.603  25.826  1.00  0.00     0.041 A 
ATOM     76  F   UNL A   1      42.786  28.621  26.958  1.00  0.00    -0.206 F 
ATOM     77  C   UNL A   1      41.972  25.290  25.806  1.00  0.00     0.022 A 
BRANCH  74  78
ATOM     78  S   UNL A   1      40.892  23.028  27.025  1.00  0.00     0.124 S 
ATOM     79  O   UNL A   1      39.433  23.062  26.939  1.00  0.00    -0.237 OA
ATOM     80  O   UNL A   1      41.587  22.477  25.867  1.00  0.00    -0.237 OA
ATOM     81  O   UNL A   1      41.422  22.621  28.325  1.00  0.00    -0.744 OA
ENDBRANCH  74  78
ENDBRANCH  57  71
BRANCH  58  82
ATOM     82  C   UNL A   1      39.386  32.268  36.263  1.00  0.00     0.023 A 
ATOM     83  C   UNL A   1      38.456  31.689  37.134  1.00  0.00     0.031 A 
ATOM     84  C   UNL A   1      39.983  33.487  36.631  1.00  0.00     0.131 A 
ATOM     85  C   UNL A   1      38.140  32.334  38.338  1.00  0.00     0.055 A 
ATOM     86  C   UNL A   1      39.684  34.112  37.841  1.00  0.00     0.041 A 
ATOM     87  F   UNL A   1      40.905  34.057  35.840  1.00  0.00    -0.206 F 
ATOM     88  C   UNL A   1      38.754  33.536  38.702  1.00  0.00     0.022 A 
BRANCH  85  89
ATOM     89  S   UNL A   1      36.912  31.570  39.429  1.00  0.00     0.124 S 
ATOM     90  O   UNL A   1      36.478  30.425  38.637  1.00  0.00    -0.237 OA
ATOM     91  O   UNL A   1      37.709  31.267  40.613  1.00  0.00    -0.237 OA
ATOM     92  O   UNL A   1      35.914  32.623  39.607  1.00  0.00    -0.744 OA
ENDBRANCH  85  89
ENDBRANCH  58  82
BRANCH  70  93
ATOM     93  C   UNL A   1      44.594  27.905  34.630  1.00  0.00     0.023 A 
ATOM     94  C   UNL A   1      44.548  26.775  35.464  1.00  0.00     0.031 A 
ATOM     95  C   UNL A   1      45.800  28.626  34.558  1.00  0.00     0.131 A 
ATOM     96  C   UNL A   1      45.660  26.440  36.248  1.00  0.00     0.055 A 
ATOM     97  C   UNL A   1      46.925  28.247  35.291  1.00  0.00     0.041 A 
ATOM     98  F   UNL A   1      45.900  29.715  33.780  1.00  0.00    -0.206 F 
ATOM     99  C   UNL A   1      46.854  27.159  36.155  1.00  0.00     0.022 A 
BRANCH  96 100
ATOM    100  S   UNL A   1      45.486  25.120  37.480  1.00  0.00     0.124 S 
ATOM    101  O   UNL A   1      46.085  23.983  36.789  1.00  0.00    -0.237 OA
ATOM    102  O   UNL A   1      46.238  25.649  38.613  1.00  0.00    -0.237 OA
ATOM    103  O   UNL A   1      44.041  25.029  37.683  1.00  0.00    -0.744 OA
ENDBRANCH  96 100
ENDBRANCH  70  93
ENDBRANCH  44  45
ENDBRANCH  37  39
ENDBRANCH  36  37
ENDBRANCH  35  36
ENDBRANCH  34  35
ENDBRANCH  33  34
ENDBRANCH  32  33
ENDBRANCH   1  32
TORSDOF 25
ENDMDL
MODEL 3
REMARK VINA RESULT:     -10.2      1.485      2.691
REMARK SMILES CCCCCCNC(=O)Nc1cccc(-c2ccc([C@@H](C)C(=O)OCCOCCOC(=O)c3ccc(-c4c5nc(c(-c6cc(S(=O)(=O)[O-])ccc6F)c6ccc([nH]6)c(-c6cc(S(=O)(=O)[O-])ccc6F)c6nc(c(-c7cc(S(=O)(=O)[O-])ccc7F)c7ccc4[nH]7)C=C6)C=C5)cc3)cc2F)c1
REMARK SMILES IDX 25 1 24 2 22 3 23 4 20 5 21 6 19 7 16 8 17 9 97 10 18 11
REMARK SMILES IDX 96 12 98 13 15 14 11 15 12 16 99 17 13 18 14 19 10 20 7 21
REMARK SMILES IDX 8 22 9 24 6 26 5 27 4 28 3 29 2 30 1 31 26 32 27 33 28 34
REMARK SMILES IDX 29 35 30 36 31 37 32 38 33 39 34 40 95 41 35 42 94 43 36 44
REMARK SMILES IDX 37 45 38 46 88 47 39 48 93 49 87 50 89 51 40 52 92 53 86 54
REMARK SMILES IDX 85 55 41 57 73 58 53 59 72 60 54 61 57 62 71 63 90 64 55 65
REMARK SMILES IDX 56 66 70 68 91 69 58 70 42 71 43 72 51 73 44 74 50 75 52 76
REMARK SMILES IDX 49 77 45 78 46 79 47 80 48 81 74 82 75 83 83 84 76 85 82 86
REMARK SMILES IDX 84 87 81 88 77 89 78 90 79 91 80 92 59 93 60 94 68 95 61 96
REMARK SMILES IDX 67 97 69 98 66 99 62 100 63 101 64 102 65 103
REMARK H PARENT 7 23 10 25 89 56 57 67
REMARK Flexibility Score: inf
ROOT
ATOM      1  C   UNL A   1      31.790  29.557  25.238  1.00  0.00     0.261 C 
ENDROOT
BRANCH   1   2
ATOM      2  O   UNL A   1      31.062  29.593  24.001  1.00  0.00    -0.463 OA
BRANCH   2   3
ATOM      3  C   UNL A   1      31.611  28.859  22.999  1.00  0.00     0.313 C 
ATOM      4  O   UNL A   1      32.745  29.032  22.556  1.00  0.00    -0.252 OA
BRANCH   3   5
ATOM      5  C   UNL A   1      30.686  27.812  22.401  1.00  0.00     0.126 C 
ATOM      6  C   UNL A   1      29.270  28.066  22.922  1.00  0.00     0.025 C 
BRANCH   5   7
ATOM      7  C   UNL A   1      31.062  26.336  22.495  1.00  0.00    -0.031 A 
ATOM      8  C   UNL A   1      31.988  23.676  23.029  1.00  0.00     0.018 A 
ATOM      9  C   UNL A   1      32.543  24.458  21.998  1.00  0.00     0.012 A 
ATOM     10  C   UNL A   1      30.915  24.235  23.731  1.00  0.00     0.131 A 
ATOM     11  C   UNL A   1      32.090  25.764  21.733  1.00  0.00     0.005 A 
ATOM     12  C   UNL A   1      30.456  25.533  23.475  1.00  0.00     0.044 A 
ATOM     13  F   UNL A   1      30.330  23.554  24.730  1.00  0.00    -0.206 F 
BRANCH   8  14
ATOM     14  C   UNL A   1      32.568  22.366  23.400  1.00  0.00    -0.013 A 
ATOM     15  C   UNL A   1      34.424  20.979  24.199  1.00  0.00     0.043 A 
ATOM     16  C   UNL A   1      33.653  19.829  24.027  1.00  0.00     0.026 A 
ATOM     17  C   UNL A   1      33.896  22.232  23.845  1.00  0.00     0.035 A 
ATOM     18  C   UNL A   1      32.331  19.940  23.606  1.00  0.00     0.003 A 
ATOM     19  C   UNL A   1      31.793  21.195  23.304  1.00  0.00     0.009 A 
BRANCH  15  20
ATOM     20  N   UNL A   1      35.706  20.825  24.757  1.00  0.00    -0.308 N 
ATOM     21  N   UNL A   1      35.539  21.836  26.882  1.00  0.00    -0.338 N 
ATOM     22  C   UNL A   1      36.287  21.448  25.819  1.00  0.00     0.319 C 
ATOM     23  H   UNL A   1      35.987  22.410  27.546  1.00  0.00     0.165 HD
ATOM     24  O   UNL A   1      37.513  21.543  25.881  1.00  0.00    -0.249 OA
ATOM     25  H   UNL A   1      36.275  20.159  24.308  1.00  0.00     0.171 HD
BRANCH  21  26
ATOM     26  C   UNL A   1      34.159  21.502  27.153  1.00  0.00     0.117 C 
BRANCH  26  27
ATOM     27  C   UNL A   1      33.301  22.649  27.667  1.00  0.00     0.021 C 
BRANCH  27  28
ATOM     28  C   UNL A   1      33.060  23.784  26.672  1.00  0.00     0.002 C 
BRANCH  28  29
ATOM     29  C   UNL A   1      34.291  24.605  26.268  1.00  0.00    -0.000 C 
BRANCH  29  30
ATOM     30  C   UNL A   1      34.093  25.621  25.139  1.00  0.00    -0.003 C 
ATOM     31  C   UNL A   1      33.555  26.952  25.614  1.00  0.00     0.004 C 
ENDBRANCH  29  30
ENDBRANCH  28  29
ENDBRANCH  27  28
ENDBRANCH  26  27
ENDBRANCH  21  26
ENDBRANCH  15  20
ENDBRANCH   8  14
ENDBRANCH   5   7
ENDBRANCH   3   5
ENDBRANCH   2   3
ENDBRANCH   1   2
BRANCH   1  32
ATOM     32  C   UNL A   1      31.725  30.838  26.087  1.00  0.00     0.202 C 
BRANCH  32  33
ATOM     33  O   UNL A   1      32.322  30.858  27.375  1.00  0.00    -0.374 OA
BRANCH  33  34
ATOM     34  C   UNL A   1      33.591  31.480  27.547  1.00  0.00     0.202 C 
BRANCH  34  35
ATOM     35  C   UNL A   1      33.683  32.894  28.131  1.00  0.00     0.261 C 
BRANCH  35  36
ATOM     36  O   UNL A   1      34.928  33.187  28.789  1.00  0.00    -0.460 OA
BRANCH  36  37
ATOM     37  C   UNL A   1      35.108  32.539  29.967  1.00  0.00     0.338 C 
ATOM     38  O   UNL A   1      34.376  32.633  30.948  1.00  0.00    -0.246 OA
BRANCH  37  39
ATOM     39  C   UNL A   1      36.305  31.664  29.964  1.00  0.00     0.060 A 
ATOM     40  C   UNL A   1      36.263  30.521  30.775  1.00  0.00     0.016 A 
ATOM     41  C   UNL A   1      37.490  31.996  29.302  1.00  0.00     0.016 A 
ATOM     42  C   UNL A   1      37.421  29.788  31.029  1.00  0.00     0.010 A 
ATOM     43  C   UNL A   1      38.660  31.291  29.598  1.00  0.00     0.010 A 
ATOM     44  C   UNL A   1      38.643  30.215  30.504  1.00  0.00    -0.014 A 
BRANCH  44  45
ATOM     45  C   UNL A   1      39.907  29.571  30.941  1.00  0.00     0.031 A 
ATOM     46  C   UNL A   1      40.710  30.130  32.089  1.00  0.00     0.074 A 
ATOM     47  C   UNL A   1      40.369  28.520  30.244  1.00  0.00     0.049 A 
ATOM     48  N   UNL A   1      41.840  29.706  32.600  1.00  0.00    -0.248 NA
ATOM     49  C   UNL A   1      40.193  31.345  32.732  1.00  0.00     0.031 C 
ATOM     50  C   UNL A   1      39.694  27.913  29.096  1.00  0.00     0.029 A 
ATOM     51  N   UNL A   1      41.530  27.809  30.371  1.00  0.00    -0.354 N 
ATOM     52  C   UNL A   1      42.160  30.594  33.624  1.00  0.00     0.074 A 
ATOM     53  C   UNL A   1      41.143  31.625  33.611  1.00  0.00     0.031 C 
ATOM     54  C   UNL A   1      40.490  26.969  28.574  1.00  0.00     0.029 A 
ATOM     55  C   UNL A   1      41.711  26.889  29.370  1.00  0.00     0.049 A 
ATOM     56  H   UNL A   1      42.170  27.943  31.106  1.00  0.00     0.167 HD
ATOM     57  C   UNL A   1      43.186  30.533  34.513  1.00  0.00     0.034 A 
ATOM     58  C   UNL A   1      42.746  26.067  29.119  1.00  0.00     0.034 A 
ATOM     59  C   UNL A   1      44.179  29.483  34.500  1.00  0.00     0.049 A 
ATOM     60  C   UNL A   1      43.867  25.993  30.110  1.00  0.00     0.074 A 
ATOM     61  C   UNL A   1      45.180  29.223  35.423  1.00  0.00     0.029 A 
ATOM     62  N   UNL A   1      44.316  28.532  33.496  1.00  0.00    -0.354 N 
ATOM     63  N   UNL A   1      44.085  26.743  31.165  1.00  0.00    -0.248 NA
ATOM     64  C   UNL A   1      44.843  24.918  29.914  1.00  0.00     0.031 C 
ATOM     65  C   UNL A   1      45.963  28.169  34.937  1.00  0.00     0.029 A 
ATOM     66  C   UNL A   1      45.407  27.714  33.751  1.00  0.00     0.049 A 
ATOM     67  H   UNL A   1      43.723  28.450  32.713  1.00  0.00     0.167 HD
ATOM     68  C   UNL A   1      45.208  26.207  31.784  1.00  0.00     0.074 A 
ATOM     69  C   UNL A   1      45.615  25.068  30.981  1.00  0.00     0.031 C 
ATOM     70  C   UNL A   1      45.831  26.608  32.923  1.00  0.00     0.034 A 
BRANCH  57  71
ATOM     71  C   UNL A   1      43.289  31.623  35.564  1.00  0.00     0.023 A 
ATOM     72  C   UNL A   1      42.475  31.632  36.712  1.00  0.00     0.031 A 
ATOM     73  C   UNL A   1      44.220  32.668  35.425  1.00  0.00     0.131 A 
ATOM     74  C   UNL A   1      42.548  32.696  37.626  1.00  0.00     0.055 A 
ATOM     75  C   UNL A   1      44.350  33.681  36.381  1.00  0.00     0.041 A 
ATOM     76  F   UNL A   1      45.021  32.733  34.349  1.00  0.00    -0.206 F 
ATOM     77  C   UNL A   1      43.499  33.708  37.482  1.00  0.00     0.022 A 
BRANCH  74  78
ATOM     78  S   UNL A   1      41.282  32.819  38.919  1.00  0.00     0.124 S 
ATOM     79  O   UNL A   1      40.103  32.296  38.232  1.00  0.00    -0.237 OA
ATOM     80  O   UNL A   1      41.831  31.976  39.976  1.00  0.00    -0.237 OA
ATOM     81  O   UNL A   1      41.236  34.248  39.220  1.00  0.00    -0.744 OA
ENDBRANCH  74  78
ENDBRANCH  57  71
BRANCH  58  82
ATOM     82  C   UNL A   1      42.705  25.227  27.897  1.00  0.00     0.023 A 
ATOM     83  C   UNL A   1      42.180  23.929  27.931  1.00  0.00     0.031 A 
ATOM     84  C   UNL A   1      43.098  25.761  26.656  1.00  0.00     0.131 A 
ATOM     85  C   UNL A   1      42.067  23.197  26.740  1.00  0.00     0.055 A 
ATOM     86  C   UNL A   1      42.960  25.038  25.472  1.00  0.00     0.041 A 
ATOM     87  F   UNL A   1      43.572  27.014  26.577  1.00  0.00    -0.206 F 
ATOM     88  C   UNL A   1      42.444  23.745  25.510  1.00  0.00     0.022 A 
BRANCH  85  89
ATOM     89  S   UNL A   1      41.409  21.511  26.824  1.00  0.00     0.124 S 
ATOM     90  O   UNL A   1      40.552  21.465  25.646  1.00  0.00    -0.237 OA
ATOM     91  O   UNL A   1      42.627  20.710  26.765  1.00  0.00    -0.237 OA
ATOM     92  O   UNL A   1      40.711  21.484  28.108  1.00  0.00    -0.744 OA
ENDBRANCH  85  89
ENDBRANCH  58  82
BRANCH  70  93
ATOM     93  C   UNL A   1      47.014  25.785  33.369  1.00  0.00     0.023 A 
ATOM     94  C   UNL A   1      46.856  24.662  34.200  1.00  0.00     0.031 A 
ATOM     95  C   UNL A   1      48.318  26.150  32.992  1.00  0.00     0.131 A 
ATOM     96  C   UNL A   1      47.985  23.988  34.686  1.00  0.00     0.055 A 
ATOM     97  C   UNL A   1      49.435  25.435  33.424  1.00  0.00     0.041 A 
ATOM     98  F   UNL A   1      48.528  27.216  32.202  1.00  0.00    -0.206 F 
ATOM     99  C   UNL A   1      49.273  24.357  34.290  1.00  0.00     0.022 A 
BRANCH  96 100
ATOM    100  S   UNL A   1      47.752  22.695  35.935  1.00  0.00     0.124 S 
ATOM    101  O   UNL A   1      49.114  22.206  36.120  1.00  0.00    -0.237 OA
ATOM    102  O   UNL A   1      47.183  23.439  37.053  1.00  0.00    -0.237 OA
ATOM    103  O   UNL A   1      46.839  21.754  35.288  1.00  0.00    -0.744 OA
ENDBRANCH  96 100
ENDBRANCH  70  93
ENDBRANCH  44  45
ENDBRANCH  37  39
ENDBRANCH  36  37
ENDBRANCH  35  36
ENDBRANCH  34  35
ENDBRANCH  33  34
ENDBRANCH  32  33
ENDBRANCH   1  32
TORSDOF 25
ENDMDL
