MODEL 1
REMARK VINA RESULT:     -10.7      0.000      0.000
REMARK SMILES CC[C@](C)([NH3+])C(=O)N1CC[NH+]([C@H](C)C(=O)OCCOCCOC(=O)c2ccc(-c3c4nc(c(-c5cc(S(=O)(=O)[O-])ccc5F)c5ccc([nH]5)c(-c5cc(S(=O)(=O)[O-])ccc5F)c5nc(c(-c6cc(S(=O)(=O)[O-])ccc6F)c6ccc3[nH]6)C=C5)C=C4)cc2)CC1
REMARK SMILES IDX 19 1 18 2 17 3 16 4 14 5 15 6 12 7 13 8 11 9 6 10 7 11 8 12
REMARK SMILES IDX 9 13 89 14 10 15 88 16 3 18 4 19 2 20 1 21 5 22 20 26 21 27
REMARK SMILES IDX 22 28 23 29 24 30 25 31 26 32 87 33 27 34 86 35 28 36 29 37
REMARK SMILES IDX 30 38 80 39 31 40 85 41 79 42 81 43 32 44 84 45 78 46 77 47
REMARK SMILES IDX 33 49 65 50 45 51 64 52 46 53 49 54 63 55 82 56 47 57 48 58
REMARK SMILES IDX 62 60 83 61 50 62 34 63 35 64 43 65 36 66 42 67 44 68 41 69
REMARK SMILES IDX 37 70 38 71 39 72 40 73 66 74 67 75 75 76 68 77 74 78 76 79
REMARK SMILES IDX 73 80 69 81 70 82 71 83 72 84 51 85 52 86 60 87 53 88 59 89
REMARK SMILES IDX 61 90 58 91 54 92 55 93 56 94 57 95
REMARK H PARENT 11 17 5 23 5 24 5 25 81 48 49 59
REMARK Flexibility Score: inf
ROOT
ATOM      1  O   UNL A   1      37.619  21.246  24.723  1.00  0.00    -0.374 OA
ENDROOT
BRANCH   1   2
ATOM      2  C   UNL A   1      36.894  22.073  25.633  1.00  0.00     0.202 C 
BRANCH   2   3
ATOM      3  C   UNL A   1      36.773  23.554  25.262  1.00  0.00     0.261 C 
BRANCH   3   4
ATOM      4  O   UNL A   1      35.427  23.904  24.901  1.00  0.00    -0.459 OA
BRANCH   4   5
ATOM      5  C   UNL A   1      35.116  23.811  23.576  1.00  0.00     0.364 C 
ATOM      6  O   UNL A   1      35.833  23.299  22.722  1.00  0.00    -0.245 OA
BRANCH   5   7
ATOM      7  C   UNL A   1      33.749  24.443  23.254  1.00  0.00     0.292 C 
ATOM      8  C   UNL A   1      32.554  23.682  23.842  1.00  0.00     0.088 C 
BRANCH   7   9
ATOM      9  N   UNL A   1      33.798  25.891  23.557  1.00  0.00    -0.321 N 
ATOM     10  C   UNL A   1      31.537  29.266  24.052  1.00  0.00     0.283 C 
ATOM     11  O   UNL A   1      31.243  29.731  25.162  1.00  0.00    -0.268 OA
ATOM     12  N   UNL A   1      32.692  28.516  23.926  1.00  0.00    -0.326 N 
ATOM     13  C   UNL A   1      33.188  27.791  25.097  1.00  0.00     0.181 C 
ATOM     14  C   UNL A   1      33.461  28.211  22.727  1.00  0.00     0.181 C 
ATOM     15  C   UNL A   1      33.110  26.272  24.815  1.00  0.00     0.284 C 
ATOM     16  C   UNL A   1      33.357  26.713  22.412  1.00  0.00     0.284 C 
ATOM     17  H   UNL A   1      34.784  26.096  23.721  1.00  0.00     0.348 HD
BRANCH  10  18
ATOM     18  C   UNL A   1      30.459  29.312  22.903  1.00  0.00     0.171 C 
ATOM     19  C   UNL A   1      29.310  30.217  23.394  1.00  0.00     0.090 C 
BRANCH  18  20
ATOM     20  C   UNL A   1      30.028  27.840  22.606  1.00  0.00     0.075 C 
ATOM     21  C   UNL A   1      29.539  27.016  23.790  1.00  0.00     0.011 C 
ENDBRANCH  18  20
BRANCH  18  22
ATOM     22  N   UNL A   1      30.944  29.943  21.649  1.00  0.00    -0.345 N 
ATOM     23  H   UNL A   1      30.310  29.711  20.885  1.00  0.00     0.345 HD
ATOM     24  H   UNL A   1      31.878  29.598  21.432  1.00  0.00     0.345 HD
ATOM     25  H   UNL A   1      30.975  30.956  21.768  1.00  0.00     0.345 HD
ENDBRANCH  18  22
ENDBRANCH  10  18
ENDBRANCH   7   9
ENDBRANCH   5   7
ENDBRANCH   4   5
ENDBRANCH   3   4
ENDBRANCH   2   3
ENDBRANCH   1   2
BRANCH   1  26
ATOM     26  C   UNL A   1      37.624  19.842  24.968  1.00  0.00     0.202 C 
BRANCH  26  27
ATOM     27  C   UNL A   1      38.912  19.238  25.543  1.00  0.00     0.261 C 
BRANCH  27  28
ATOM     28  O   UNL A   1      39.994  20.185  25.617  1.00  0.00    -0.460 OA
BRANCH  28  29
ATOM     29  C   UNL A   1      40.636  20.208  26.813  1.00  0.00     0.338 C 
ATOM     30  O   UNL A   1      41.134  19.254  27.394  1.00  0.00    -0.246 OA
BRANCH  29  31
ATOM     31  C   UNL A   1      40.818  21.595  27.280  1.00  0.00     0.060 A 
ATOM     32  C   UNL A   1      40.239  22.616  26.516  1.00  0.00     0.016 A 
ATOM     33  C   UNL A   1      41.631  21.902  28.374  1.00  0.00     0.016 A 
ATOM     34  C   UNL A   1      40.506  23.951  26.815  1.00  0.00     0.010 A 
ATOM     35  C   UNL A   1      41.906  23.245  28.665  1.00  0.00     0.010 A 
ATOM     36  C   UNL A   1      41.373  24.273  27.866  1.00  0.00    -0.014 A 
BRANCH  36  37
ATOM     37  C   UNL A   1      41.839  25.675  28.027  1.00  0.00     0.031 A 
ATOM     38  C   UNL A   1      43.199  26.055  27.506  1.00  0.00     0.074 A 
ATOM     39  C   UNL A   1      41.048  26.606  28.591  1.00  0.00     0.049 A 
ATOM     40  N   UNL A   1      43.830  27.198  27.580  1.00  0.00    -0.248 NA
ATOM     41  C   UNL A   1      43.947  24.998  26.806  1.00  0.00     0.031 C 
ATOM     42  C   UNL A   1      39.687  26.376  29.072  1.00  0.00     0.029 A 
ATOM     43  N   UNL A   1      41.277  27.934  28.853  1.00  0.00    -0.354 N 
ATOM     44  C   UNL A   1      45.046  27.004  26.932  1.00  0.00     0.074 A 
ATOM     45  C   UNL A   1      45.079  25.620  26.509  1.00  0.00     0.031 C 
ATOM     46  C   UNL A   1      39.205  27.523  29.582  1.00  0.00     0.029 A 
ATOM     47  C   UNL A   1      40.236  28.556  29.502  1.00  0.00     0.049 A 
ATOM     48  H   UNL A   1      42.109  28.396  28.601  1.00  0.00     0.167 HD
ATOM     49  C   UNL A   1      46.037  27.900  26.701  1.00  0.00     0.034 A 
ATOM     50  C   UNL A   1      40.141  29.806  30.000  1.00  0.00     0.034 A 
ATOM     51  C   UNL A   1      46.000  29.272  27.144  1.00  0.00     0.049 A 
ATOM     52  C   UNL A   1      41.311  30.751  29.842  1.00  0.00     0.074 A 
ATOM     53  C   UNL A   1      46.952  30.263  26.971  1.00  0.00     0.029 A 
ATOM     54  N   UNL A   1      44.959  29.848  27.861  1.00  0.00    -0.354 N 
ATOM     55  N   UNL A   1      42.459  30.551  29.238  1.00  0.00    -0.248 NA
ATOM     56  C   UNL A   1      41.168  32.088  30.435  1.00  0.00     0.031 C 
ATOM     57  C   UNL A   1      46.518  31.412  27.638  1.00  0.00     0.029 A 
ATOM     58  C   UNL A   1      45.261  31.166  28.166  1.00  0.00     0.049 A 
ATOM     59  H   UNL A   1      44.127  29.386  28.116  1.00  0.00     0.167 HD
ATOM     60  C   UNL A   1      43.160  31.749  29.351  1.00  0.00     0.074 A 
ATOM     61  C   UNL A   1      42.303  32.667  30.072  1.00  0.00     0.031 C 
ATOM     62  C   UNL A   1      44.399  32.067  28.894  1.00  0.00     0.034 A 
BRANCH  49  63
ATOM     63  C   UNL A   1      47.265  27.402  25.978  1.00  0.00     0.023 A 
ATOM     64  C   UNL A   1      48.256  26.653  26.637  1.00  0.00     0.031 A 
ATOM     65  C   UNL A   1      47.461  27.703  24.619  1.00  0.00     0.131 A 
ATOM     66  C   UNL A   1      49.427  26.289  25.954  1.00  0.00     0.055 A 
ATOM     67  C   UNL A   1      48.594  27.273  23.925  1.00  0.00     0.041 A 
ATOM     68  F   UNL A   1      46.560  28.434  23.944  1.00  0.00    -0.206 F 
ATOM     69  C   UNL A   1      49.592  26.573  24.597  1.00  0.00     0.022 A 
BRANCH  66  70
ATOM     70  S   UNL A   1      50.791  25.558  26.900  1.00  0.00     0.124 S 
ATOM     71  O   UNL A   1      50.118  24.458  27.587  1.00  0.00    -0.237 OA
ATOM     72  O   UNL A   1      51.732  25.176  25.853  1.00  0.00    -0.237 OA
ATOM     73  O   UNL A   1      51.231  26.648  27.767  1.00  0.00    -0.744 OA
ENDBRANCH  66  70
ENDBRANCH  49  63
BRANCH  50  74
ATOM     74  C   UNL A   1      38.921  30.236  30.744  1.00  0.00     0.023 A 
ATOM     75  C   UNL A   1      37.843  30.843  30.082  1.00  0.00     0.031 A 
ATOM     76  C   UNL A   1      38.849  30.110  32.143  1.00  0.00     0.131 A 
ATOM     77  C   UNL A   1      36.761  31.346  30.823  1.00  0.00     0.055 A 
ATOM     78  C   UNL A   1      37.746  30.562  32.869  1.00  0.00     0.041 A 
ATOM     79  F   UNL A   1      39.856  29.542  32.826  1.00  0.00    -0.206 F 
ATOM     80  C   UNL A   1      36.700  31.198  32.210  1.00  0.00     0.022 A 
BRANCH  77  81
ATOM     81  S   UNL A   1      35.478  32.289  29.953  1.00  0.00     0.124 S 
ATOM     82  O   UNL A   1      34.453  32.416  30.984  1.00  0.00    -0.237 OA
ATOM     83  O   UNL A   1      36.190  33.513  29.601  1.00  0.00    -0.237 OA
ATOM     84  O   UNL A   1      35.126  31.428  28.827  1.00  0.00    -0.744 OA
ENDBRANCH  77  81
ENDBRANCH  50  74
BRANCH  62  85
ATOM     85  C   UNL A   1      44.874  33.480  29.121  1.00  0.00     0.023 A 
ATOM     86  C   UNL A   1      44.442  34.547  28.313  1.00  0.00     0.031 A 
ATOM     87  C   UNL A   1      45.775  33.763  30.163  1.00  0.00     0.131 A 
ATOM     88  C   UNL A   1      44.946  35.838  28.532  1.00  0.00     0.055 A 
ATOM     89  C   UNL A   1      46.232  35.057  30.410  1.00  0.00     0.041 A 
ATOM     90  F   UNL A   1      46.220  32.781  30.965  1.00  0.00    -0.206 F 
ATOM     91  C   UNL A   1      45.826  36.102  29.585  1.00  0.00     0.022 A 
BRANCH  88  92
ATOM     92  S   UNL A   1      44.492  37.161  27.377  1.00  0.00     0.124 S 
ATOM     93  O   UNL A   1      44.104  38.236  28.284  1.00  0.00    -0.237 OA
ATOM     94  O   UNL A   1      45.731  37.369  26.635  1.00  0.00    -0.237 OA
ATOM     95  O   UNL A   1      43.398  36.579  26.601  1.00  0.00    -0.744 OA
ENDBRANCH  88  92
ENDBRANCH  62  85
ENDBRANCH  36  37
ENDBRANCH  29  31
ENDBRANCH  28  29
ENDBRANCH  27  28
ENDBRANCH  26  27
ENDBRANCH   1  26
TORSDOF 21
ENDMDL
MODEL 2
REMARK VINA RESULT:     -10.5      1.860      7.868
REMARK SMILES CC[C@](C)([NH3+])C(=O)N1CC[NH+]([C@H](C)C(=O)OCCOCCOC(=O)c2ccc(-c3c4nc(c(-c5cc(S(=O)(=O)[O-])ccc5F)c5ccc([nH]5)c(-c5cc(S(=O)(=O)[O-])ccc5F)c5nc(c(-c6cc(S(=O)(=O)[O-])ccc6F)c6ccc3[nH]6)C=C5)C=C4)cc2)CC1
REMARK SMILES IDX 19 1 18 2 17 3 16 4 14 5 15 6 12 7 13 8 11 9 6 10 7 11 8 12
REMARK SMILES IDX 9 13 89 14 10 15 88 16 3 18 4 19 2 20 1 21 5 22 20 26 21 27
REMARK SMILES IDX 22 28 23 29 24 30 25 31 26 32 87 33 27 34 86 35 28 36 29 37
REMARK SMILES IDX 30 38 80 39 31 40 85 41 79 42 81 43 32 44 84 45 78 46 77 47
REMARK SMILES IDX 33 49 65 50 45 51 64 52 46 53 49 54 63 55 82 56 47 57 48 58
REMARK SMILES IDX 62 60 83 61 50 62 34 63 35 64 43 65 36 66 42 67 44 68 41 69
REMARK SMILES IDX 37 70 38 71 39 72 40 73 66 74 67 75 75 76 68 77 74 78 76 79
REMARK SMILES IDX 73 80 69 81 70 82 71 83 72 84 51 85 52 86 60 87 53 88 59 89
REMARK SMILES IDX 61 90 58 91 54 92 55 93 56 94 57 95
REMARK H PARENT 11 17 5 23 5 24 5 25 81 48 49 59
REMARK Flexibility Score: inf
ROOT
ATOM      1  O   UNL A   1      35.807  22.333  25.057  1.00  0.00    -0.374 OA
ENDROOT
BRANCH   1   2
ATOM      2  C   UNL A   1      35.355  22.951  26.262  1.00  0.00     0.202 C 
BRANCH   2   3
ATOM      3  C   UNL A   1      34.000  23.662  26.196  1.00  0.00     0.261 C 
BRANCH   3   4
ATOM      4  O   UNL A   1      32.950  22.858  26.760  1.00  0.00    -0.459 OA
BRANCH   4   5
ATOM      5  C   UNL A   1      32.214  22.126  25.876  1.00  0.00     0.364 C 
ATOM      6  O   UNL A   1      32.604  21.109  25.310  1.00  0.00    -0.245 OA
BRANCH   5   7
ATOM      7  C   UNL A   1      30.816  22.730  25.644  1.00  0.00     0.292 C 
ATOM      8  C   UNL A   1      30.206  23.392  26.886  1.00  0.00     0.088 C 
BRANCH   7   9
ATOM      9  N   UNL A   1      30.841  23.562  24.421  1.00  0.00    -0.321 N 
ATOM     10  C   UNL A   1      32.851  26.544  22.467  1.00  0.00     0.283 C 
ATOM     11  O   UNL A   1      33.634  26.336  21.530  1.00  0.00    -0.268 OA
ATOM     12  N   UNL A   1      31.832  25.639  22.702  1.00  0.00    -0.326 N 
ATOM     13  C   UNL A   1      32.031  24.244  22.305  1.00  0.00     0.181 C 
ATOM     14  C   UNL A   1      30.586  25.829  23.431  1.00  0.00     0.181 C 
ATOM     15  C   UNL A   1      32.043  23.359  23.575  1.00  0.00     0.284 C 
ATOM     16  C   UNL A   1      30.604  24.989  24.716  1.00  0.00     0.284 C 
ATOM     17  H   UNL A   1      30.060  23.230  23.856  1.00  0.00     0.348 HD
BRANCH  10  18
ATOM     18  C   UNL A   1      33.206  27.669  23.514  1.00  0.00     0.171 C 
ATOM     19  C   UNL A   1      34.242  28.598  22.848  1.00  0.00     0.090 C 
BRANCH  18  20
ATOM     20  C   UNL A   1      33.724  26.960  24.806  1.00  0.00     0.075 C 
ATOM     21  C   UNL A   1      33.200  27.487  26.135  1.00  0.00     0.011 C 
ENDBRANCH  18  20
BRANCH  18  22
ATOM     22  N   UNL A   1      32.061  28.548  23.862  1.00  0.00    -0.345 N 
ATOM     23  H   UNL A   1      32.293  29.515  23.632  1.00  0.00     0.345 HD
ATOM     24  H   UNL A   1      31.866  28.474  24.860  1.00  0.00     0.345 HD
ATOM     25  H   UNL A   1      31.238  28.261  23.333  1.00  0.00     0.345 HD
ENDBRANCH  18  22
ENDBRANCH  10  18
ENDBRANCH   7   9
ENDBRANCH   5   7
ENDBRANCH   4   5
ENDBRANCH   3   4
ENDBRANCH   2   3
ENDBRANCH   1   2
BRANCH   1  26
ATOM     26  C   UNL A   1      35.863  20.909  25.027  1.00  0.00     0.202 C 
BRANCH  26  27
ATOM     27  C   UNL A   1      37.255  20.264  25.018  1.00  0.00     0.261 C 
BRANCH  27  28
ATOM     28  O   UNL A   1      38.324  21.229  25.064  1.00  0.00    -0.460 OA
BRANCH  28  29
ATOM     29  C   UNL A   1      39.271  20.971  26.001  1.00  0.00     0.338 C 
ATOM     30  O   UNL A   1      39.795  19.890  26.233  1.00  0.00    -0.246 OA
BRANCH  29  31
ATOM     31  C   UNL A   1      39.738  22.220  26.629  1.00  0.00     0.060 A 
ATOM     32  C   UNL A   1      39.193  23.423  26.160  1.00  0.00     0.016 A 
ATOM     33  C   UNL A   1      40.766  22.231  27.574  1.00  0.00     0.016 A 
ATOM     34  C   UNL A   1      39.704  24.642  26.600  1.00  0.00     0.010 A 
ATOM     35  C   UNL A   1      41.286  23.457  28.007  1.00  0.00     0.010 A 
ATOM     36  C   UNL A   1      40.781  24.668  27.496  1.00  0.00    -0.014 A 
BRANCH  36  37
ATOM     37  C   UNL A   1      41.472  25.953  27.773  1.00  0.00     0.031 A 
ATOM     38  C   UNL A   1      40.738  27.027  28.531  1.00  0.00     0.074 A 
ATOM     39  C   UNL A   1      42.749  26.147  27.396  1.00  0.00     0.049 A 
ATOM     40  N   UNL A   1      41.122  28.238  28.841  1.00  0.00    -0.248 NA
ATOM     41  C   UNL A   1      39.386  26.684  29.000  1.00  0.00     0.031 C 
ATOM     42  C   UNL A   1      43.586  25.158  26.717  1.00  0.00     0.029 A 
ATOM     43  N   UNL A   1      43.565  27.243  27.529  1.00  0.00    -0.354 N 
ATOM     44  C   UNL A   1      40.064  28.803  29.547  1.00  0.00     0.074 A 
ATOM     45  C   UNL A   1      39.008  27.813  29.581  1.00  0.00     0.031 C 
ATOM     46  C   UNL A   1      44.796  25.698  26.484  1.00  0.00     0.029 A 
ATOM     47  C   UNL A   1      44.805  27.081  26.958  1.00  0.00     0.049 A 
ATOM     48  H   UNL A   1      43.287  28.067  27.990  1.00  0.00     0.167 HD
ATOM     49  C   UNL A   1      39.987  30.028  30.124  1.00  0.00     0.034 A 
ATOM     50  C   UNL A   1      45.818  27.958  26.808  1.00  0.00     0.034 A 
ATOM     51  C   UNL A   1      41.040  31.012  30.066  1.00  0.00     0.049 A 
ATOM     52  C   UNL A   1      45.660  29.362  27.347  1.00  0.00     0.074 A 
ATOM     53  C   UNL A   1      41.063  32.286  30.608  1.00  0.00     0.029 A 
ATOM     54  N   UNL A   1      42.255  30.838  29.416  1.00  0.00    -0.354 N 
ATOM     55  N   UNL A   1      44.650  29.887  28.003  1.00  0.00    -0.248 NA
ATOM     56  C   UNL A   1      46.778  30.288  27.125  1.00  0.00     0.031 C 
ATOM     57  C   UNL A   1      42.260  32.903  30.230  1.00  0.00     0.029 A 
ATOM     58  C   UNL A   1      43.019  31.991  29.515  1.00  0.00     0.049 A 
ATOM     59  H   UNL A   1      42.534  30.015  28.953  1.00  0.00     0.167 HD
ATOM     60  C   UNL A   1      45.029  31.194  28.298  1.00  0.00     0.074 A 
ATOM     61  C   UNL A   1      46.361  31.374  27.759  1.00  0.00     0.031 C 
ATOM     62  C   UNL A   1      44.342  32.158  28.963  1.00  0.00     0.034 A 
BRANCH  49  63
ATOM     63  C   UNL A   1      38.696  30.383  30.821  1.00  0.00     0.023 A 
ATOM     64  C   UNL A   1      37.651  31.041  30.149  1.00  0.00     0.031 A 
ATOM     65  C   UNL A   1      38.519  30.085  32.184  1.00  0.00     0.131 A 
ATOM     66  C   UNL A   1      36.506  31.439  30.856  1.00  0.00     0.055 A 
ATOM     67  C   UNL A   1      37.344  30.416  32.863  1.00  0.00     0.041 A 
ATOM     68  F   UNL A   1      39.491  29.478  32.882  1.00  0.00    -0.206 F 
ATOM     69  C   UNL A   1      36.335  31.109  32.202  1.00  0.00     0.022 A 
BRANCH  66  70
ATOM     70  S   UNL A   1      35.302  32.511  30.025  1.00  0.00     0.124 S 
ATOM     71  O   UNL A   1      34.337  32.757  31.096  1.00  0.00    -0.237 OA
ATOM     72  O   UNL A   1      36.117  33.652  29.626  1.00  0.00    -0.237 OA
ATOM     73  O   UNL A   1      34.805  31.684  28.928  1.00  0.00    -0.744 OA
ENDBRANCH  66  70
ENDBRANCH  49  63
BRANCH  50  74
ATOM     74  C   UNL A   1      47.057  27.570  26.073  1.00  0.00     0.023 A 
ATOM     75  C   UNL A   1      47.210  27.854  24.707  1.00  0.00     0.031 A 
ATOM     76  C   UNL A   1      48.077  26.843  26.713  1.00  0.00     0.131 A 
ATOM     77  C   UNL A   1      48.332  27.371  24.014  1.00  0.00     0.055 A 
ATOM     78  C   UNL A   1      49.217  26.414  26.033  1.00  0.00     0.041 A 
ATOM     79  F   UNL A   1      47.978  26.540  28.017  1.00  0.00    -0.206 F 
ATOM     80  C   UNL A   1      49.342  26.664  24.671  1.00  0.00     0.022 A 
BRANCH  77  81
ATOM     81  S   UNL A   1      48.404  27.596  22.215  1.00  0.00     0.124 S 
ATOM     82  O   UNL A   1      48.621  26.230  21.753  1.00  0.00    -0.237 OA
ATOM     83  O   UNL A   1      47.092  28.169  21.931  1.00  0.00    -0.237 OA
ATOM     84  O   UNL A   1      49.532  28.505  22.030  1.00  0.00    -0.744 OA
ENDBRANCH  77  81
ENDBRANCH  50  74
BRANCH  62  85
ATOM     85  C   UNL A   1      45.044  33.475  29.183  1.00  0.00     0.023 A 
ATOM     86  C   UNL A   1      44.891  34.554  28.294  1.00  0.00     0.031 A 
ATOM     87  C   UNL A   1      45.879  33.652  30.301  1.00  0.00     0.131 A 
ATOM     88  C   UNL A   1      45.600  35.745  28.513  1.00  0.00     0.055 A 
ATOM     89  C   UNL A   1      46.539  34.856  30.543  1.00  0.00     0.041 A 
ATOM     90  F   UNL A   1      46.060  32.654  31.182  1.00  0.00    -0.206 F 
ATOM     91  C   UNL A   1      46.410  35.908  29.641  1.00  0.00     0.022 A 
BRANCH  88  92
ATOM     92  S   UNL A   1      45.506  37.060  27.268  1.00  0.00     0.124 S 
ATOM     93  O   UNL A   1      45.988  38.219  28.012  1.00  0.00    -0.237 OA
ATOM     94  O   UNL A   1      46.391  36.563  26.219  1.00  0.00    -0.237 OA
ATOM     95  O   UNL A   1      44.088  37.097  26.912  1.00  0.00    -0.744 OA
ENDBRANCH  88  92
ENDBRANCH  62  85
ENDBRANCH  36  37
ENDBRANCH  29  31
ENDBRANCH  28  29
ENDBRANCH  27  28
ENDBRANCH  26  27
ENDBRANCH   1  26
TORSDOF 21
ENDMDL
MODEL 3
REMARK VINA RESULT:     -10.5      4.812     10.637
REMARK SMILES CC[C@](C)([NH3+])C(=O)N1CC[NH+]([C@H](C)C(=O)OCCOCCOC(=O)c2ccc(-c3c4nc(c(-c5cc(S(=O)(=O)[O-])ccc5F)c5ccc([nH]5)c(-c5cc(S(=O)(=O)[O-])ccc5F)c5nc(c(-c6cc(S(=O)(=O)[O-])ccc6F)c6ccc3[nH]6)C=C5)C=C4)cc2)CC1
REMARK SMILES IDX 19 1 18 2 17 3 16 4 14 5 15 6 12 7 13 8 11 9 6 10 7 11 8 12
REMARK SMILES IDX 9 13 89 14 10 15 88 16 3 18 4 19 2 20 1 21 5 22 20 26 21 27
REMARK SMILES IDX 22 28 23 29 24 30 25 31 26 32 87 33 27 34 86 35 28 36 29 37
REMARK SMILES IDX 30 38 80 39 31 40 85 41 79 42 81 43 32 44 84 45 78 46 77 47
REMARK SMILES IDX 33 49 65 50 45 51 64 52 46 53 49 54 63 55 82 56 47 57 48 58
REMARK SMILES IDX 62 60 83 61 50 62 34 63 35 64 43 65 36 66 42 67 44 68 41 69
REMARK SMILES IDX 37 70 38 71 39 72 40 73 66 74 67 75 75 76 68 77 74 78 76 79
REMARK SMILES IDX 73 80 69 81 70 82 71 83 72 84 51 85 52 86 60 87 53 88 59 89
REMARK SMILES IDX 61 90 58 91 54 92 55 93 56 94 57 95
REMARK H PARENT 11 17 5 23 5 24 5 25 81 48 49 59
REMARK Flexibility Score: inf
ROOT
ATOM      1  O   UNL A   1      32.037  30.446  26.474  1.00  0.00    -0.374 OA
ENDROOT
BRANCH   1   2
ATOM      2  C   UNL A   1      32.114  29.358  25.553  1.00  0.00     0.202 C 
BRANCH   2   3
ATOM      3  C   UNL A   1      31.264  29.476  24.285  1.00  0.00     0.261 C 
BRANCH   3   4
ATOM      4  O   UNL A   1      31.909  28.869  23.153  1.00  0.00    -0.459 OA
BRANCH   4   5
ATOM      5  C   UNL A   1      31.237  27.843  22.558  1.00  0.00     0.364 C 
ATOM      6  O   UNL A   1      30.100  27.918  22.104  1.00  0.00    -0.245 OA
BRANCH   5   7
ATOM      7  C   UNL A   1      32.068  26.545  22.528  1.00  0.00     0.292 C 
ATOM      8  C   UNL A   1      33.582  26.773  22.438  1.00  0.00     0.088 C 
BRANCH   7   9
ATOM      9  N   UNL A   1      31.617  25.653  23.619  1.00  0.00    -0.321 N 
ATOM     10  C   UNL A   1      32.717  22.548  26.047  1.00  0.00     0.283 C 
ATOM     11  O   UNL A   1      33.070  22.697  27.225  1.00  0.00    -0.268 OA
ATOM     12  N   UNL A   1      31.867  23.480  25.480  1.00  0.00    -0.326 N 
ATOM     13  C   UNL A   1      31.887  24.850  25.994  1.00  0.00     0.181 C 
ATOM     14  C   UNL A   1      31.006  23.345  24.312  1.00  0.00     0.181 C 
ATOM     15  C   UNL A   1      32.391  25.796  24.877  1.00  0.00     0.284 C 
ATOM     16  C   UNL A   1      31.521  24.246  23.182  1.00  0.00     0.284 C 
ATOM     17  H   UNL A   1      30.675  25.969  23.850  1.00  0.00     0.348 HD
BRANCH  10  18
ATOM     18  C   UNL A   1      33.458  21.471  25.167  1.00  0.00     0.171 C 
ATOM     19  C   UNL A   1      34.325  22.236  24.145  1.00  0.00     0.090 C 
BRANCH  18  20
ATOM     20  C   UNL A   1      32.365  20.562  24.519  1.00  0.00     0.075 C 
ATOM     21  C   UNL A   1      32.594  19.058  24.585  1.00  0.00     0.011 C 
ENDBRANCH  18  20
BRANCH  18  22
ATOM     22  N   UNL A   1      34.411  20.624  25.929  1.00  0.00    -0.345 N 
ATOM     23  H   UNL A   1      33.948  19.758  26.207  1.00  0.00     0.345 HD
ATOM     24  H   UNL A   1      34.722  21.125  26.760  1.00  0.00     0.345 HD
ATOM     25  H   UNL A   1      35.216  20.406  25.342  1.00  0.00     0.345 HD
ENDBRANCH  18  22
ENDBRANCH  10  18
ENDBRANCH   7   9
ENDBRANCH   5   7
ENDBRANCH   4   5
ENDBRANCH   3   4
ENDBRANCH   2   3
ENDBRANCH   1   2
BRANCH   1  26
ATOM     26  C   UNL A   1      31.213  31.553  26.119  1.00  0.00     0.202 C 
BRANCH  26  27
ATOM     27  C   UNL A   1      31.447  32.869  26.874  1.00  0.00     0.261 C 
BRANCH  27  28
ATOM     28  O   UNL A   1      32.798  33.354  26.756  1.00  0.00    -0.460 OA
BRANCH  28  29
ATOM     29  C   UNL A   1      33.340  33.790  27.922  1.00  0.00     0.338 C 
ATOM     30  O   UNL A   1      32.840  34.580  28.710  1.00  0.00    -0.246 OA
BRANCH  29  31
ATOM     31  C   UNL A   1      34.578  33.051  28.230  1.00  0.00     0.060 A 
ATOM     32  C   UNL A   1      34.453  31.711  28.617  1.00  0.00     0.016 A 
ATOM     33  C   UNL A   1      35.824  33.681  28.252  1.00  0.00     0.016 A 
ATOM     34  C   UNL A   1      35.566  31.006  29.071  1.00  0.00     0.010 A 
ATOM     35  C   UNL A   1      36.940  32.974  28.719  1.00  0.00     0.010 A 
ATOM     36  C   UNL A   1      36.809  31.645  29.163  1.00  0.00    -0.014 A 
BRANCH  36  37
ATOM     37  C   UNL A   1      37.930  30.969  29.866  1.00  0.00     0.031 A 
ATOM     38  C   UNL A   1      38.228  31.348  31.293  1.00  0.00     0.074 A 
ATOM     39  C   UNL A   1      38.644  30.002  29.261  1.00  0.00     0.049 A 
ATOM     40  N   UNL A   1      39.183  30.929  32.082  1.00  0.00    -0.248 NA
ATOM     41  C   UNL A   1      37.325  32.333  31.908  1.00  0.00     0.031 C 
ATOM     42  C   UNL A   1      38.406  29.501  27.908  1.00  0.00     0.029 A 
ATOM     43  N   UNL A   1      39.715  29.269  29.708  1.00  0.00    -0.354 N 
ATOM     44  C   UNL A   1      38.995  31.593  33.291  1.00  0.00     0.074 A 
ATOM     45  C   UNL A   1      37.859  32.473  33.112  1.00  0.00     0.031 C 
ATOM     46  C   UNL A   1      39.314  28.549  27.630  1.00  0.00     0.029 A 
ATOM     47  C   UNL A   1      40.221  28.403  28.767  1.00  0.00     0.049 A 
ATOM     48  H   UNL A   1      40.086  29.357  30.615  1.00  0.00     0.167 HD
ATOM     49  C   UNL A   1      39.697  31.471  34.445  1.00  0.00     0.034 A 
ATOM     50  C   UNL A   1      41.309  27.607  28.810  1.00  0.00     0.034 A 
ATOM     51  C   UNL A   1      40.839  30.604  34.604  1.00  0.00     0.049 A 
ATOM     52  C   UNL A   1      42.152  27.583  30.064  1.00  0.00     0.074 A 
ATOM     53  C   UNL A   1      41.626  30.409  35.726  1.00  0.00     0.029 A 
ATOM     54  N   UNL A   1      41.366  29.794  33.606  1.00  0.00    -0.354 N 
ATOM     55  N   UNL A   1      41.970  28.224  31.196  1.00  0.00    -0.248 NA
ATOM     56  C   UNL A   1      43.347  26.727  30.045  1.00  0.00     0.031 C 
ATOM     57  C   UNL A   1      42.666  29.536  35.387  1.00  0.00     0.029 A 
ATOM     58  C   UNL A   1      42.486  29.126  34.076  1.00  0.00     0.049 A 
ATOM     59  H   UNL A   1      40.997  29.706  32.698  1.00  0.00     0.167 HD
ATOM     60  C   UNL A   1      43.009  27.822  32.031  1.00  0.00     0.074 A 
ATOM     61  C   UNL A   1      43.807  26.877  31.278  1.00  0.00     0.031 C 
ATOM     62  C   UNL A   1      43.277  28.193  33.310  1.00  0.00     0.034 A 
BRANCH  49  63
ATOM     63  C   UNL A   1      39.273  32.337  35.606  1.00  0.00     0.023 A 
ATOM     64  C   UNL A   1      39.672  33.681  35.708  1.00  0.00     0.031 A 
ATOM     65  C   UNL A   1      38.483  31.803  36.640  1.00  0.00     0.131 A 
ATOM     66  C   UNL A   1      39.337  34.426  36.850  1.00  0.00     0.055 A 
ATOM     67  C   UNL A   1      38.089  32.572  37.737  1.00  0.00     0.041 A 
ATOM     68  F   UNL A   1      38.092  30.520  36.608  1.00  0.00    -0.206 F 
ATOM     69  C   UNL A   1      38.528  33.888  37.854  1.00  0.00     0.022 A 
BRANCH  66  70
ATOM     70  S   UNL A   1      40.086  36.063  37.069  1.00  0.00     0.124 S 
ATOM     71  O   UNL A   1      39.831  36.681  35.770  1.00  0.00    -0.237 OA
ATOM     72  O   UNL A   1      39.333  36.607  38.193  1.00  0.00    -0.237 OA
ATOM     73  O   UNL A   1      41.489  35.764  37.345  1.00  0.00    -0.744 OA
ENDBRANCH  66  70
ENDBRANCH  49  63
BRANCH  50  74
ATOM     74  C   UNL A   1      41.709  26.802  27.619  1.00  0.00     0.023 A 
ATOM     75  C   UNL A   1      41.417  25.432  27.537  1.00  0.00     0.031 A 
ATOM     76  C   UNL A   1      42.455  27.381  26.576  1.00  0.00     0.131 A 
ATOM     77  C   UNL A   1      41.910  24.675  26.462  1.00  0.00     0.055 A 
ATOM     78  C   UNL A   1      42.895  26.636  25.481  1.00  0.00     0.041 A 
ATOM     79  F   UNL A   1      42.767  28.687  26.608  1.00  0.00    -0.206 F 
ATOM     80  C   UNL A   1      42.636  25.271  25.427  1.00  0.00     0.022 A 
BRANCH  77  81
ATOM     81  S   UNL A   1      41.673  22.877  26.485  1.00  0.00     0.124 S 
ATOM     82  O   UNL A   1      42.334  22.474  25.248  1.00  0.00    -0.237 OA
ATOM     83  O   UNL A   1      42.345  22.501  27.725  1.00  0.00    -0.237 OA
ATOM     84  O   UNL A   1      40.220  22.725  26.495  1.00  0.00    -0.744 OA
ENDBRANCH  77  81
ENDBRANCH  50  74
BRANCH  62  85
ATOM     85  C   UNL A   1      44.455  27.535  33.984  1.00  0.00     0.023 A 
ATOM     86  C   UNL A   1      44.316  26.356  34.736  1.00  0.00     0.031 A 
ATOM     87  C   UNL A   1      45.738  28.100  33.871  1.00  0.00     0.131 A 
ATOM     88  C   UNL A   1      45.432  25.805  35.385  1.00  0.00     0.055 A 
ATOM     89  C   UNL A   1      46.854  27.519  34.473  1.00  0.00     0.041 A 
ATOM     90  F   UNL A   1      45.928  29.227  33.164  1.00  0.00    -0.206 F 
ATOM     91  C   UNL A   1      46.703  26.370  35.244  1.00  0.00     0.022 A 
BRANCH  88  92
ATOM     92  S   UNL A   1      45.192  24.374  36.474  1.00  0.00     0.124 S 
ATOM     93  O   UNL A   1      44.176  24.864  37.399  1.00  0.00    -0.237 OA
ATOM     94  O   UNL A   1      44.759  23.339  35.541  1.00  0.00    -0.237 OA
ATOM     95  O   UNL A   1      46.515  24.163  37.060  1.00  0.00    -0.744 OA
ENDBRANCH  88  92
ENDBRANCH  62  85
ENDBRANCH  36  37
ENDBRANCH  29  31
ENDBRANCH  28  29
ENDBRANCH  27  28
ENDBRANCH  26  27
ENDBRANCH   1  26
TORSDOF 21
ENDMDL
