MODEL 1
REMARK VINA RESULT:      -9.9      0.000      0.000
REMARK SMILES C=CCN(CC(=O)OCCOCCOC(=O)c1ccc(-c2c3nc(c(-c4cc(S(=O)(=O)[O-])ccc4F)c4ccc([nH]4)c(-c4cc(S(=O)(=O)[O-])ccc4F)c4nc(c(-c5cc(S(=O)(=O)[O-])ccc5F)c5ccc2[nH]5)C=C4)C=C3)cc1)C(=O)c1cn(C2C[NH2+]C2)nn1
REMARK SMILES IDX 10 1 9 2 8 3 6 4 7 5 5 6 4 7 3 8 2 9 1 10 80 11 81 12 82 13
REMARK SMILES IDX 83 14 90 15 84 16 89 17 85 18 86 19 88 20 87 21 11 24 12 25
REMARK SMILES IDX 13 26 14 27 15 28 16 29 17 30 18 31 79 32 19 33 78 34 20 35
REMARK SMILES IDX 21 36 22 37 72 38 23 39 77 40 71 41 73 42 24 43 76 44 70 45
REMARK SMILES IDX 69 46 25 48 57 49 37 50 56 51 38 52 41 53 55 54 74 55 39 56
REMARK SMILES IDX 40 57 54 59 75 60 42 61 26 62 27 63 35 64 28 65 34 66 36 67
REMARK SMILES IDX 33 68 29 69 30 70 31 71 32 72 58 73 59 74 67 75 60 76 66 77
REMARK SMILES IDX 68 78 65 79 61 80 62 81 63 82 64 83 43 84 44 85 52 86 45 87
REMARK SMILES IDX 51 88 53 89 50 90 46 91 47 92 48 93 49 94
REMARK H PARENT 87 22 87 23 73 47 41 58
REMARK Flexibility Score: inf
ROOT
ATOM      1  C   UNL A   1      30.097  28.626  23.550  1.00  0.00     0.202 C 
ENDROOT
BRANCH   1   2
ATOM      2  C   UNL A   1      30.836  27.277  23.741  1.00  0.00     0.261 C 
BRANCH   2   3
ATOM      3  O   UNL A   1      29.971  26.233  24.265  1.00  0.00    -0.462 OA
BRANCH   3   4
ATOM      4  C   UNL A   1      30.388  25.616  25.402  1.00  0.00     0.325 C 
ATOM      5  O   UNL A   1      29.857  25.783  26.496  1.00  0.00    -0.250 OA
BRANCH   4   6
ATOM      6  C   UNL A   1      31.654  24.729  25.243  1.00  0.00     0.242 C 
BRANCH   6   7
ATOM      7  N   UNL A   1      31.703  23.409  24.559  1.00  0.00    -0.322 N 
BRANCH   7   8
ATOM      8  C   UNL A   1      31.611  23.414  23.099  1.00  0.00     0.147 C 
BRANCH   8   9
ATOM      9  C   UNL A   1      32.739  24.215  22.513  1.00  0.00    -0.014 C 
ATOM     10  C   UNL A   1      34.035  23.977  22.766  1.00  0.00     0.006 C 
ENDBRANCH   8   9
ENDBRANCH   7   8
BRANCH   7  11
ATOM     11  C   UNL A   1      31.790  22.143  25.198  1.00  0.00     0.276 C 
ATOM     12  O   UNL A   1      30.820  21.640  25.765  1.00  0.00    -0.267 OA
BRANCH  11  13
ATOM     13  C   UNL A   1      33.097  21.494  25.329  1.00  0.00     0.170 A 
ATOM     14  C   UNL A   1      34.024  21.718  26.338  1.00  0.00     0.145 A 
ATOM     15  N   UNL A   1      33.635  20.591  24.450  1.00  0.00    -0.125 NA
ATOM     16  N   UNL A   1      35.181  21.215  25.818  1.00  0.00    -0.237 N 
ATOM     17  N   UNL A   1      34.896  20.369  24.806  1.00  0.00    -0.066 NA
BRANCH  16  18
ATOM     18  C   UNL A   1      36.515  21.699  26.026  1.00  0.00     0.218 C 
ATOM     19  C   UNL A   1      37.411  21.285  24.832  1.00  0.00     0.294 C 
ATOM     20  C   UNL A   1      36.902  23.134  25.621  1.00  0.00     0.294 C 
ATOM     21  N   UNL A   1      38.122  22.574  24.975  1.00  0.00    -0.342 N 
ATOM     22  H   UNL A   1      38.372  23.017  24.092  1.00  0.00     0.346 HD
ATOM     23  H   UNL A   1      39.032  22.627  25.432  1.00  0.00     0.346 HD
ENDBRANCH  16  18
ENDBRANCH  11  13
ENDBRANCH   7  11
ENDBRANCH   6   7
ENDBRANCH   4   6
ENDBRANCH   3   4
ENDBRANCH   2   3
ENDBRANCH   1   2
BRANCH   1  24
ATOM     24  O   UNL A   1      30.640  29.756  24.237  1.00  0.00    -0.374 OA
BRANCH  24  25
ATOM     25  C   UNL A   1      31.654  29.410  25.171  1.00  0.00     0.202 C 
BRANCH  25  26
ATOM     26  C   UNL A   1      31.952  30.419  26.263  1.00  0.00     0.261 C 
BRANCH  26  27
ATOM     27  O   UNL A   1      33.301  30.273  26.636  1.00  0.00    -0.460 OA
BRANCH  27  28
ATOM     28  C   UNL A   1      33.759  31.294  27.379  1.00  0.00     0.338 C 
ATOM     29  O   UNL A   1      33.154  32.278  27.769  1.00  0.00    -0.246 OA
BRANCH  28  30
ATOM     30  C   UNL A   1      35.086  30.864  27.798  1.00  0.00     0.060 A 
ATOM     31  C   UNL A   1      35.335  29.494  27.859  1.00  0.00     0.016 A 
ATOM     32  C   UNL A   1      36.078  31.823  28.060  1.00  0.00     0.016 A 
ATOM     33  C   UNL A   1      36.576  29.073  28.285  1.00  0.00     0.010 A 
ATOM     34  C   UNL A   1      37.332  31.402  28.436  1.00  0.00     0.010 A 
ATOM     35  C   UNL A   1      37.543  30.032  28.619  1.00  0.00    -0.014 A 
BRANCH  35  36
ATOM     36  C   UNL A   1      38.706  29.623  29.402  1.00  0.00     0.031 A 
ATOM     37  C   UNL A   1      38.867  30.236  30.760  1.00  0.00     0.074 A 
ATOM     38  C   UNL A   1      39.557  28.735  28.876  1.00  0.00     0.049 A 
ATOM     39  N   UNL A   1      39.820  30.070  31.631  1.00  0.00    -0.248 NA
ATOM     40  C   UNL A   1      37.822  31.189  31.180  1.00  0.00     0.031 C 
ATOM     41  C   UNL A   1      39.424  28.123  27.553  1.00  0.00     0.029 A 
ATOM     42  N   UNL A   1      40.695  28.196  29.391  1.00  0.00    -0.354 N 
ATOM     43  C   UNL A   1      39.494  30.904  32.696  1.00  0.00     0.074 A 
ATOM     44  C   UNL A   1      38.302  31.629  32.330  1.00  0.00     0.031 C 
ATOM     45  C   UNL A   1      40.443  27.270  27.367  1.00  0.00     0.029 A 
ATOM     46  C   UNL A   1      41.311  27.316  28.538  1.00  0.00     0.049 A 
ATOM     47  H   UNL A   1      41.042  28.415  30.286  1.00  0.00     0.167 HD
ATOM     48  C   UNL A   1      40.135  31.023  33.881  1.00  0.00     0.034 A 
ATOM     49  C   UNL A   1      42.460  26.642  28.706  1.00  0.00     0.034 A 
ATOM     50  C   UNL A   1      41.330  30.276  34.178  1.00  0.00     0.049 A 
ATOM     51  C   UNL A   1      43.178  26.816  30.019  1.00  0.00     0.074 A 
ATOM     52  C   UNL A   1      42.090  30.278  35.331  1.00  0.00     0.029 A 
ATOM     53  N   UNL A   1      41.944  29.390  33.293  1.00  0.00    -0.354 N 
ATOM     54  N   UNL A   1      42.862  27.587  31.039  1.00  0.00    -0.248 NA
ATOM     55  C   UNL A   1      44.387  26.016  30.214  1.00  0.00     0.031 C 
ATOM     56  C   UNL A   1      43.203  29.457  35.113  1.00  0.00     0.029 A 
ATOM     57  C   UNL A   1      43.088  28.862  33.862  1.00  0.00     0.049 A 
ATOM     58  H   UNL A   1      41.610  29.173  32.393  1.00  0.00     0.167 HD
ATOM     59  C   UNL A   1      43.817  27.336  32.016  1.00  0.00     0.074 A 
ATOM     60  C   UNL A   1      44.709  26.332  31.460  1.00  0.00     0.031 C 
ATOM     61  C   UNL A   1      43.952  27.871  33.260  1.00  0.00     0.034 A 
BRANCH  48  62
ATOM     62  C   UNL A   1      39.582  32.021  34.870  1.00  0.00     0.023 A 
ATOM     63  C   UNL A   1      40.095  33.329  34.974  1.00  0.00     0.031 A 
ATOM     64  C   UNL A   1      38.583  31.638  35.781  1.00  0.00     0.131 A 
ATOM     65  C   UNL A   1      39.678  34.166  36.021  1.00  0.00     0.055 A 
ATOM     66  C   UNL A   1      38.104  32.510  36.761  1.00  0.00     0.041 A 
ATOM     67  F   UNL A   1      38.080  30.394  35.760  1.00  0.00    -0.206 F 
ATOM     68  C   UNL A   1      38.664  33.776  36.897  1.00  0.00     0.022 A 
BRANCH  65  69
ATOM     69  S   UNL A   1      40.605  35.697  36.330  1.00  0.00     0.124 S 
ATOM     70  O   UNL A   1      39.650  36.712  35.893  1.00  0.00    -0.237 OA
ATOM     71  O   UNL A   1      40.856  35.630  37.764  1.00  0.00    -0.237 OA
ATOM     72  O   UNL A   1      41.787  35.559  35.481  1.00  0.00    -0.744 OA
ENDBRANCH  65  69
ENDBRANCH  48  62
BRANCH  49  73
ATOM     73  C   UNL A   1      42.970  25.759  27.625  1.00  0.00     0.023 A 
ATOM     74  C   UNL A   1      42.519  24.438  27.495  1.00  0.00     0.031 A 
ATOM     75  C   UNL A   1      43.914  26.230  26.694  1.00  0.00     0.131 A 
ATOM     76  C   UNL A   1      43.044  23.618  26.485  1.00  0.00     0.055 A 
ATOM     77  C   UNL A   1      44.393  25.428  25.658  1.00  0.00     0.041 A 
ATOM     78  F   UNL A   1      44.367  27.493  26.764  1.00  0.00    -0.206 F 
ATOM     79  C   UNL A   1      43.966  24.108  25.557  1.00  0.00     0.022 A 
BRANCH  76  80
ATOM     80  S   UNL A   1      42.556  21.873  26.448  1.00  0.00     0.124 S 
ATOM     81  O   UNL A   1      41.345  21.920  25.638  1.00  0.00    -0.237 OA
ATOM     82  O   UNL A   1      43.719  21.247  25.829  1.00  0.00    -0.237 OA
ATOM     83  O   UNL A   1      42.353  21.549  27.859  1.00  0.00    -0.744 OA
ENDBRANCH  76  80
ENDBRANCH  49  73
BRANCH  61  84
ATOM     84  C   UNL A   1      45.074  27.327  34.106  1.00  0.00     0.023 A 
ATOM     85  C   UNL A   1      44.951  26.117  34.808  1.00  0.00     0.031 A 
ATOM     86  C   UNL A   1      46.278  28.045  34.221  1.00  0.00     0.131 A 
ATOM     87  C   UNL A   1      45.984  25.702  35.658  1.00  0.00     0.055 A 
ATOM     88  C   UNL A   1      47.335  27.583  35.002  1.00  0.00     0.041 A 
ATOM     89  F   UNL A   1      46.446  29.208  33.571  1.00  0.00    -0.206 F 
ATOM     90  C   UNL A   1      47.184  26.413  35.742  1.00  0.00     0.022 A 
BRANCH  87  91
ATOM     91  S   UNL A   1      45.683  24.291  36.755  1.00  0.00     0.124 S 
ATOM     92  O   UNL A   1      44.868  23.422  35.912  1.00  0.00    -0.237 OA
ATOM     93  O   UNL A   1      47.035  23.820  37.038  1.00  0.00    -0.237 OA
ATOM     94  O   UNL A   1      44.983  24.886  37.892  1.00  0.00    -0.744 OA
ENDBRANCH  87  91
ENDBRANCH  61  84
ENDBRANCH  35  36
ENDBRANCH  28  30
ENDBRANCH  27  28
ENDBRANCH  26  27
ENDBRANCH  25  26
ENDBRANCH  24  25
ENDBRANCH   1  24
TORSDOF 23
ENDMDL
MODEL 2
REMARK VINA RESULT:      -9.5      2.173      2.936
REMARK SMILES C=CCN(CC(=O)OCCOCCOC(=O)c1ccc(-c2c3nc(c(-c4cc(S(=O)(=O)[O-])ccc4F)c4ccc([nH]4)c(-c4cc(S(=O)(=O)[O-])ccc4F)c4nc(c(-c5cc(S(=O)(=O)[O-])ccc5F)c5ccc2[nH]5)C=C4)C=C3)cc1)C(=O)c1cn(C2C[NH2+]C2)nn1
REMARK SMILES IDX 10 1 9 2 8 3 6 4 7 5 5 6 4 7 3 8 2 9 1 10 80 11 81 12 82 13
REMARK SMILES IDX 83 14 90 15 84 16 89 17 85 18 86 19 88 20 87 21 11 24 12 25
REMARK SMILES IDX 13 26 14 27 15 28 16 29 17 30 18 31 79 32 19 33 78 34 20 35
REMARK SMILES IDX 21 36 22 37 72 38 23 39 77 40 71 41 73 42 24 43 76 44 70 45
REMARK SMILES IDX 69 46 25 48 57 49 37 50 56 51 38 52 41 53 55 54 74 55 39 56
REMARK SMILES IDX 40 57 54 59 75 60 42 61 26 62 27 63 35 64 28 65 34 66 36 67
REMARK SMILES IDX 33 68 29 69 30 70 31 71 32 72 58 73 59 74 67 75 60 76 66 77
REMARK SMILES IDX 68 78 65 79 61 80 62 81 63 82 64 83 43 84 44 85 52 86 45 87
REMARK SMILES IDX 51 88 53 89 50 90 46 91 47 92 48 93 49 94
REMARK H PARENT 87 22 87 23 73 47 41 58
REMARK Flexibility Score: inf
ROOT
ATOM      1  C   UNL A   1      32.706  28.399  24.331  1.00  0.00     0.202 C 
ENDROOT
BRANCH   1   2
ATOM      2  C   UNL A   1      33.946  28.034  23.479  1.00  0.00     0.261 C 
BRANCH   2   3
ATOM      3  O   UNL A   1      33.648  27.062  22.441  1.00  0.00    -0.462 OA
BRANCH   3   4
ATOM      4  C   UNL A   1      33.344  25.805  22.858  1.00  0.00     0.325 C 
ATOM      5  O   UNL A   1      32.384  25.166  22.435  1.00  0.00    -0.250 OA
BRANCH   4   6
ATOM      6  C   UNL A   1      34.256  25.245  23.984  1.00  0.00     0.242 C 
BRANCH   6   7
ATOM      7  N   UNL A   1      33.795  24.439  25.147  1.00  0.00    -0.322 N 
BRANCH   7   8
ATOM      8  C   UNL A   1      32.970  25.123  26.143  1.00  0.00     0.147 C 
BRANCH   8   9
ATOM      9  C   UNL A   1      31.565  25.278  25.633  1.00  0.00    -0.014 C 
ATOM     10  C   UNL A   1      30.512  24.612  26.130  1.00  0.00     0.006 C 
ENDBRANCH   8   9
ENDBRANCH   7   8
BRANCH   7  11
ATOM     11  C   UNL A   1      34.117  23.079  25.397  1.00  0.00     0.276 C 
ATOM     12  O   UNL A   1      35.120  22.761  26.036  1.00  0.00    -0.267 OA
BRANCH  11  13
ATOM     13  C   UNL A   1      33.333  22.025  24.746  1.00  0.00     0.170 A 
ATOM     14  C   UNL A   1      32.822  20.889  25.358  1.00  0.00     0.145 A 
ATOM     15  N   UNL A   1      33.016  21.971  23.414  1.00  0.00    -0.125 NA
ATOM     16  N   UNL A   1      32.545  20.065  24.306  1.00  0.00    -0.237 N 
ATOM     17  N   UNL A   1      32.462  20.788  23.170  1.00  0.00    -0.066 NA
BRANCH  16  18
ATOM     18  C   UNL A   1      32.640  18.634  24.268  1.00  0.00     0.218 C 
ATOM     19  C   UNL A   1      32.528  18.143  22.804  1.00  0.00     0.294 C 
ATOM     20  C   UNL A   1      34.014  17.939  24.236  1.00  0.00     0.294 C 
ATOM     21  N   UNL A   1      33.502  17.079  23.132  1.00  0.00    -0.342 N 
ATOM     22  H   UNL A   1      34.182  16.889  22.397  1.00  0.00     0.346 HD
ATOM     23  H   UNL A   1      33.198  16.122  23.307  1.00  0.00     0.346 HD
ENDBRANCH  16  18
ENDBRANCH  11  13
ENDBRANCH   7  11
ENDBRANCH   6   7
ENDBRANCH   4   6
ENDBRANCH   3   4
ENDBRANCH   2   3
ENDBRANCH   1   2
BRANCH   1  24
ATOM     24  O   UNL A   1      32.715  29.683  24.961  1.00  0.00    -0.374 OA
BRANCH  24  25
ATOM     25  C   UNL A   1      33.544  29.735  26.114  1.00  0.00     0.202 C 
BRANCH  25  26
ATOM     26  C   UNL A   1      33.273  30.854  27.101  1.00  0.00     0.261 C 
BRANCH  26  27
ATOM     27  O   UNL A   1      34.461  31.592  27.261  1.00  0.00    -0.460 OA
BRANCH  27  28
ATOM     28  C   UNL A   1      34.785  31.801  28.548  1.00  0.00     0.338 C 
ATOM     29  O   UNL A   1      34.144  32.382  29.406  1.00  0.00    -0.246 OA
BRANCH  28  30
ATOM     30  C   UNL A   1      35.980  30.993  28.750  1.00  0.00     0.060 A 
ATOM     31  C   UNL A   1      35.815  29.703  29.249  1.00  0.00     0.016 A 
ATOM     32  C   UNL A   1      37.236  31.503  28.380  1.00  0.00     0.016 A 
ATOM     33  C   UNL A   1      36.940  28.939  29.476  1.00  0.00     0.010 A 
ATOM     34  C   UNL A   1      38.353  30.722  28.559  1.00  0.00     0.010 A 
ATOM     35  C   UNL A   1      38.199  29.477  29.178  1.00  0.00    -0.014 A 
BRANCH  35  36
ATOM     36  C   UNL A   1      39.391  28.847  29.739  1.00  0.00     0.031 A 
ATOM     37  C   UNL A   1      39.922  29.407  31.022  1.00  0.00     0.074 A 
ATOM     38  C   UNL A   1      39.940  27.815  29.088  1.00  0.00     0.049 A 
ATOM     39  N   UNL A   1      40.975  29.054  31.702  1.00  0.00    -0.248 NA
ATOM     40  C   UNL A   1      39.179  30.541  31.603  1.00  0.00     0.031 C 
ATOM     41  C   UNL A   1      39.441  27.249  27.833  1.00  0.00     0.029 A 
ATOM     42  N   UNL A   1      41.032  27.062  29.394  1.00  0.00    -0.354 N 
ATOM     43  C   UNL A   1      41.025  29.928  32.784  1.00  0.00     0.074 A 
ATOM     44  C   UNL A   1      39.945  30.872  32.628  1.00  0.00     0.031 C 
ATOM     45  C   UNL A   1      40.225  26.217  27.484  1.00  0.00     0.029 A 
ATOM     46  C   UNL A   1      41.293  26.087  28.468  1.00  0.00     0.049 A 
ATOM     47  H   UNL A   1      41.578  27.204  30.201  1.00  0.00     0.167 HD
ATOM     48  C   UNL A   1      41.891  29.912  33.822  1.00  0.00     0.034 A 
ATOM     49  C   UNL A   1      42.303  25.201  28.435  1.00  0.00     0.034 A 
ATOM     50  C   UNL A   1      42.957  28.946  33.910  1.00  0.00     0.049 A 
ATOM     51  C   UNL A   1      43.279  25.225  29.582  1.00  0.00     0.074 A 
ATOM     52  C   UNL A   1      43.910  28.794  34.897  1.00  0.00     0.029 A 
ATOM     53  N   UNL A   1      43.209  27.966  32.952  1.00  0.00    -0.354 N 
ATOM     54  N   UNL A   1      43.317  26.035  30.620  1.00  0.00    -0.248 NA
ATOM     55  C   UNL A   1      44.328  24.205  29.569  1.00  0.00     0.031 C 
ATOM     56  C   UNL A   1      44.782  27.775  34.498  1.00  0.00     0.029 A 
ATOM     57  C   UNL A   1      44.319  27.223  33.310  1.00  0.00     0.049 A 
ATOM     58  H   UNL A   1      42.674  27.823  32.138  1.00  0.00     0.167 HD
ATOM     59  C   UNL A   1      44.376  25.597  31.406  1.00  0.00     0.074 A 
ATOM     60  C   UNL A   1      44.937  24.444  30.722  1.00  0.00     0.031 C 
ATOM     61  C   UNL A   1      44.846  26.087  32.585  1.00  0.00     0.034 A 
BRANCH  48  62
ATOM     62  C   UNL A   1      41.739  30.991  34.867  1.00  0.00     0.023 A 
ATOM     63  C   UNL A   1      40.625  31.045  35.727  1.00  0.00     0.031 A 
ATOM     64  C   UNL A   1      42.680  32.032  34.953  1.00  0.00     0.131 A 
ATOM     65  C   UNL A   1      40.432  32.159  36.559  1.00  0.00     0.055 A 
ATOM     66  C   UNL A   1      42.531  33.090  35.853  1.00  0.00     0.041 A 
ATOM     67  F   UNL A   1      43.745  32.061  34.136  1.00  0.00    -0.206 F 
ATOM     68  C   UNL A   1      41.393  33.167  36.650  1.00  0.00     0.022 A 
BRANCH  65  69
ATOM     69  S   UNL A   1      38.827  32.359  37.384  1.00  0.00     0.124 S 
ATOM     70  O   UNL A   1      38.302  33.548  36.720  1.00  0.00    -0.237 OA
ATOM     71  O   UNL A   1      38.154  31.103  37.075  1.00  0.00    -0.237 OA
ATOM     72  O   UNL A   1      39.185  32.547  38.789  1.00  0.00    -0.744 OA
ENDBRANCH  65  69
ENDBRANCH  48  62
BRANCH  49  73
ATOM     73  C   UNL A   1      42.419  24.245  27.304  1.00  0.00     0.023 A 
ATOM     74  C   UNL A   1      41.688  23.049  27.290  1.00  0.00     0.031 A 
ATOM     75  C   UNL A   1      43.259  24.519  26.210  1.00  0.00     0.131 A 
ATOM     76  C   UNL A   1      41.843  22.149  26.224  1.00  0.00     0.055 A 
ATOM     77  C   UNL A   1      43.370  23.647  25.127  1.00  0.00     0.041 A 
ATOM     78  F   UNL A   1      43.969  25.659  26.166  1.00  0.00    -0.206 F 
ATOM     79  C   UNL A   1      42.667  22.447  25.136  1.00  0.00     0.022 A 
BRANCH  76  80
ATOM     80  S   UNL A   1      41.005  20.545  26.319  1.00  0.00     0.124 S 
ATOM     81  O   UNL A   1      41.148  20.218  27.733  1.00  0.00    -0.237 OA
ATOM     82  O   UNL A   1      39.658  20.881  25.871  1.00  0.00    -0.237 OA
ATOM     83  O   UNL A   1      41.775  19.707  25.402  1.00  0.00    -0.744 OA
ENDBRANCH  76  80
ENDBRANCH  49  73
BRANCH  61  84
ATOM     84  C   UNL A   1      45.984  25.331  33.220  1.00  0.00     0.023 A 
ATOM     85  C   UNL A   1      45.774  24.146  33.943  1.00  0.00     0.031 A 
ATOM     86  C   UNL A   1      47.299  25.819  33.109  1.00  0.00     0.131 A 
ATOM     87  C   UNL A   1      46.850  23.533  34.596  1.00  0.00     0.055 A 
ATOM     88  C   UNL A   1      48.378  25.156  33.690  1.00  0.00     0.041 A 
ATOM     89  F   UNL A   1      47.555  26.948  32.428  1.00  0.00    -0.206 F 
ATOM     90  C   UNL A   1      48.154  24.016  34.456  1.00  0.00     0.022 A 
BRANCH  87  91
ATOM     91  S   UNL A   1      46.501  22.173  35.742  1.00  0.00     0.124 S 
ATOM     92  O   UNL A   1      46.390  21.035  34.834  1.00  0.00    -0.237 OA
ATOM     93  O   UNL A   1      47.674  22.185  36.609  1.00  0.00    -0.237 OA
ATOM     94  O   UNL A   1      45.251  22.579  36.383  1.00  0.00    -0.744 OA
ENDBRANCH  87  91
ENDBRANCH  61  84
ENDBRANCH  35  36
ENDBRANCH  28  30
ENDBRANCH  27  28
ENDBRANCH  26  27
ENDBRANCH  25  26
ENDBRANCH  24  25
ENDBRANCH   1  24
TORSDOF 23
ENDMDL
MODEL 3
REMARK VINA RESULT:      -9.5      5.462      8.767
REMARK SMILES C=CCN(CC(=O)OCCOCCOC(=O)c1ccc(-c2c3nc(c(-c4cc(S(=O)(=O)[O-])ccc4F)c4ccc([nH]4)c(-c4cc(S(=O)(=O)[O-])ccc4F)c4nc(c(-c5cc(S(=O)(=O)[O-])ccc5F)c5ccc2[nH]5)C=C4)C=C3)cc1)C(=O)c1cn(C2C[NH2+]C2)nn1
REMARK SMILES IDX 10 1 9 2 8 3 6 4 7 5 5 6 4 7 3 8 2 9 1 10 80 11 81 12 82 13
REMARK SMILES IDX 83 14 90 15 84 16 89 17 85 18 86 19 88 20 87 21 11 24 12 25
REMARK SMILES IDX 13 26 14 27 15 28 16 29 17 30 18 31 79 32 19 33 78 34 20 35
REMARK SMILES IDX 21 36 22 37 72 38 23 39 77 40 71 41 73 42 24 43 76 44 70 45
REMARK SMILES IDX 69 46 25 48 57 49 37 50 56 51 38 52 41 53 55 54 74 55 39 56
REMARK SMILES IDX 40 57 54 59 75 60 42 61 26 62 27 63 35 64 28 65 34 66 36 67
REMARK SMILES IDX 33 68 29 69 30 70 31 71 32 72 58 73 59 74 67 75 60 76 66 77
REMARK SMILES IDX 68 78 65 79 61 80 62 81 63 82 64 83 43 84 44 85 52 86 45 87
REMARK SMILES IDX 51 88 53 89 50 90 46 91 47 92 48 93 49 94
REMARK H PARENT 87 22 87 23 73 47 41 58
REMARK Flexibility Score: inf
ROOT
ATOM      1  C   UNL A   1      36.893  22.543  24.085  1.00  0.00     0.202 C 
ENDROOT
BRANCH   1   2
ATOM      2  C   UNL A   1      35.382  22.205  24.126  1.00  0.00     0.261 C 
BRANCH   2   3
ATOM      3  O   UNL A   1      34.631  22.859  23.066  1.00  0.00    -0.462 OA
BRANCH   3   4
ATOM      4  C   UNL A   1      33.284  22.683  23.081  1.00  0.00     0.325 C 
ATOM      5  O   UNL A   1      32.742  21.631  23.405  1.00  0.00    -0.250 OA
BRANCH   4   6
ATOM      6  C   UNL A   1      32.456  23.897  22.574  1.00  0.00     0.242 C 
BRANCH   6   7
ATOM      7  N   UNL A   1      32.405  25.237  23.219  1.00  0.00    -0.322 N 
BRANCH   7   8
ATOM      8  C   UNL A   1      31.543  25.375  24.394  1.00  0.00     0.147 C 
BRANCH   8   9
ATOM      9  C   UNL A   1      32.102  24.581  25.541  1.00  0.00    -0.014 C 
ATOM     10  C   UNL A   1      33.285  24.833  26.119  1.00  0.00     0.006 C 
ENDBRANCH   8   9
ENDBRANCH   7   8
BRANCH   7  11
ATOM     11  C   UNL A   1      33.084  26.401  22.774  1.00  0.00     0.276 C 
ATOM     12  O   UNL A   1      33.874  26.366  21.831  1.00  0.00    -0.267 OA
BRANCH  11  13
ATOM     13  C   UNL A   1      32.973  27.638  23.553  1.00  0.00     0.170 A 
ATOM     14  C   UNL A   1      33.843  28.058  24.550  1.00  0.00     0.145 A 
ATOM     15  N   UNL A   1      31.965  28.560  23.451  1.00  0.00    -0.125 NA
ATOM     16  N   UNL A   1      33.122  29.005  25.216  1.00  0.00    -0.237 N 
ATOM     17  N   UNL A   1      32.111  29.441  24.436  1.00  0.00    -0.066 NA
BRANCH  16  18
ATOM     18  C   UNL A   1      33.157  29.304  26.619  1.00  0.00     0.218 C 
ATOM     19  C   UNL A   1      34.557  28.972  27.188  1.00  0.00     0.294 C 
ATOM     20  C   UNL A   1      33.463  30.731  27.111  1.00  0.00     0.294 C 
ATOM     21  N   UNL A   1      34.423  30.140  28.085  1.00  0.00    -0.342 N 
ATOM     22  H   UNL A   1      35.280  30.677  28.210  1.00  0.00     0.346 HD
ATOM     23  H   UNL A   1      34.173  30.025  29.067  1.00  0.00     0.346 HD
ENDBRANCH  16  18
ENDBRANCH  11  13
ENDBRANCH   7  11
ENDBRANCH   6   7
ENDBRANCH   4   6
ENDBRANCH   3   4
ENDBRANCH   2   3
ENDBRANCH   1   2
BRANCH   1  24
ATOM     24  O   UNL A   1      37.553  22.680  25.346  1.00  0.00    -0.374 OA
BRANCH  24  25
ATOM     25  C   UNL A   1      38.316  21.537  25.706  1.00  0.00     0.202 C 
BRANCH  25  26
ATOM     26  C   UNL A   1      39.593  21.784  26.484  1.00  0.00     0.261 C 
BRANCH  26  27
ATOM     27  O   UNL A   1      40.068  20.544  26.950  1.00  0.00    -0.460 OA
BRANCH  27  28
ATOM     28  C   UNL A   1      41.228  20.174  26.382  1.00  0.00     0.338 C 
ATOM     29  O   UNL A   1      41.466  19.175  25.726  1.00  0.00    -0.246 OA
BRANCH  28  30
ATOM     30  C   UNL A   1      42.090  21.338  26.541  1.00  0.00     0.060 A 
ATOM     31  C   UNL A   1      42.541  21.641  27.824  1.00  0.00     0.016 A 
ATOM     32  C   UNL A   1      42.489  22.068  25.409  1.00  0.00     0.016 A 
ATOM     33  C   UNL A   1      43.330  22.759  27.994  1.00  0.00     0.010 A 
ATOM     34  C   UNL A   1      43.318  23.153  25.573  1.00  0.00     0.010 A 
ATOM     35  C   UNL A   1      43.666  23.531  26.873  1.00  0.00    -0.014 A 
BRANCH  35  36
ATOM     36  C   UNL A   1      44.177  24.885  27.072  1.00  0.00     0.031 A 
ATOM     37  C   UNL A   1      43.220  25.908  27.601  1.00  0.00     0.074 A 
ATOM     38  C   UNL A   1      45.457  25.138  26.777  1.00  0.00     0.049 A 
ATOM     39  N   UNL A   1      43.411  27.175  27.831  1.00  0.00    -0.248 NA
ATOM     40  C   UNL A   1      41.848  25.443  27.880  1.00  0.00     0.031 C 
ATOM     41  C   UNL A   1      46.413  24.157  26.259  1.00  0.00     0.029 A 
ATOM     42  N   UNL A   1      46.169  26.294  26.874  1.00  0.00    -0.354 N 
ATOM     43  C   UNL A   1      42.184  27.658  28.273  1.00  0.00     0.074 A 
ATOM     44  C   UNL A   1      41.240  26.571  28.205  1.00  0.00     0.031 C 
ATOM     45  C   UNL A   1      47.603  24.757  26.099  1.00  0.00     0.029 A 
ATOM     46  C   UNL A   1      47.471  26.163  26.463  1.00  0.00     0.049 A 
ATOM     47  H   UNL A   1      45.788  27.139  27.206  1.00  0.00     0.167 HD
ATOM     48  C   UNL A   1      41.896  28.903  28.717  1.00  0.00     0.034 A 
ATOM     49  C   UNL A   1      48.431  27.099  26.388  1.00  0.00     0.034 A 
ATOM     50  C   UNL A   1      42.887  29.949  28.747  1.00  0.00     0.049 A 
ATOM     51  C   UNL A   1      48.079  28.488  26.852  1.00  0.00     0.074 A 
ATOM     52  C   UNL A   1      42.756  31.256  29.174  1.00  0.00     0.029 A 
ATOM     53  N   UNL A   1      44.204  29.796  28.318  1.00  0.00    -0.354 N 
ATOM     54  N   UNL A   1      46.925  28.946  27.293  1.00  0.00    -0.248 NA
ATOM     55  C   UNL A   1      49.157  29.477  26.835  1.00  0.00     0.031 C 
ATOM     56  C   UNL A   1      43.968  31.911  28.930  1.00  0.00     0.029 A 
ATOM     57  C   UNL A   1      44.889  30.991  28.443  1.00  0.00     0.049 A 
ATOM     58  H   UNL A   1      44.591  28.958  27.975  1.00  0.00     0.167 HD
ATOM     59  C   UNL A   1      47.150  30.273  27.641  1.00  0.00     0.074 A 
ATOM     60  C   UNL A   1      48.554  30.530  27.368  1.00  0.00     0.031 C 
ATOM     61  C   UNL A   1      46.289  31.198  28.145  1.00  0.00     0.034 A 
BRANCH  48  62
ATOM     62  C   UNL A   1      40.469  29.179  29.127  1.00  0.00     0.023 A 
ATOM     63  C   UNL A   1      40.068  29.175  30.477  1.00  0.00     0.031 A 
ATOM     64  C   UNL A   1      39.475  29.367  28.151  1.00  0.00     0.131 A 
ATOM     65  C   UNL A   1      38.705  29.258  30.806  1.00  0.00     0.055 A 
ATOM     66  C   UNL A   1      38.132  29.546  28.491  1.00  0.00     0.041 A 
ATOM     67  F   UNL A   1      39.786  29.344  26.846  1.00  0.00    -0.206 F 
ATOM     68  C   UNL A   1      37.738  29.473  29.823  1.00  0.00     0.022 A 
BRANCH  65  69
ATOM     69  S   UNL A   1      38.200  28.900  32.512  1.00  0.00     0.124 S 
ATOM     70  O   UNL A   1      38.378  27.452  32.574  1.00  0.00    -0.237 OA
ATOM     71  O   UNL A   1      39.141  29.694  33.293  1.00  0.00    -0.237 OA
ATOM     72  O   UNL A   1      36.811  29.352  32.561  1.00  0.00    -0.744 OA
ENDBRANCH  65  69
ENDBRANCH  48  62
BRANCH  49  73
ATOM     73  C   UNL A   1      49.778  26.745  25.872  1.00  0.00     0.023 A 
ATOM     74  C   UNL A   1      50.189  27.137  24.590  1.00  0.00     0.031 A 
ATOM     75  C   UNL A   1      50.684  26.013  26.661  1.00  0.00     0.131 A 
ATOM     76  C   UNL A   1      51.455  26.758  24.117  1.00  0.00     0.055 A 
ATOM     77  C   UNL A   1      51.961  25.685  26.208  1.00  0.00     0.041 A 
ATOM     78  F   UNL A   1      50.346  25.627  27.903  1.00  0.00    -0.206 F 
ATOM     79  C   UNL A   1      52.349  26.049  24.922  1.00  0.00     0.022 A 
BRANCH  76  80
ATOM     80  S   UNL A   1      51.887  27.146  22.400  1.00  0.00     0.124 S 
ATOM     81  O   UNL A   1      53.083  26.336  22.204  1.00  0.00    -0.237 OA
ATOM     82  O   UNL A   1      50.692  26.713  21.683  1.00  0.00    -0.237 OA
ATOM     83  O   UNL A   1      52.106  28.591  22.425  1.00  0.00    -0.744 OA
ENDBRANCH  76  80
ENDBRANCH  49  73
BRANCH  61  84
ATOM     84  C   UNL A   1      46.874  32.545  28.481  1.00  0.00     0.023 A 
ATOM     85  C   UNL A   1      46.981  33.565  27.521  1.00  0.00     0.031 A 
ATOM     86  C   UNL A   1      47.345  32.802  29.781  1.00  0.00     0.131 A 
ATOM     87  C   UNL A   1      47.619  34.767  27.856  1.00  0.00     0.055 A 
ATOM     88  C   UNL A   1      47.902  34.030  30.129  1.00  0.00     0.041 A 
ATOM     89  F   UNL A   1      47.267  31.860  30.735  1.00  0.00    -0.206 F 
ATOM     90  C   UNL A   1      48.060  35.015  29.158  1.00  0.00     0.022 A 
BRANCH  87  91
ATOM     91  S   UNL A   1      47.987  35.945  26.529  1.00  0.00     0.124 S 
ATOM     92  O   UNL A   1      46.820  36.821  26.571  1.00  0.00    -0.237 OA
ATOM     93  O   UNL A   1      49.244  36.536  26.975  1.00  0.00    -0.237 OA
ATOM     94  O   UNL A   1      48.086  35.100  25.340  1.00  0.00    -0.744 OA
ENDBRANCH  87  91
ENDBRANCH  61  84
ENDBRANCH  35  36
ENDBRANCH  28  30
ENDBRANCH  27  28
ENDBRANCH  26  27
ENDBRANCH  25  26
ENDBRANCH  24  25
ENDBRANCH   1  24
TORSDOF 23
ENDMDL
