MODEL 1
REMARK VINA RESULT:     -12.0      0.000      0.000
REMARK SMILES Cc1cc(Cl)c2c(c1)C=C(C(=O)OCCOCCOC(=O)c1ccc(-c3c4nc(c(-c5cc(S(=O)(=O)[O-])ccc5F)c5ccc([nH]5)c(-c5cc(S(=O)(=O)[O-])ccc5F)c5nc(c(-c6cc(S(=O)(=O)[O-])ccc6F)c6ccc3[nH]6)C=C5)C=C4)cc1)[C@@H](C(F)(F)F)O2
REMARK SMILES IDX 17 1 16 2 15 3 14 4 13 5 11 6 12 7 10 8 1 9 2 10 3 11 8 12
REMARK SMILES IDX 4 13 7 14 5 15 6 16 9 17 90 18 85 19 86 20 87 21 88 22 89 23
REMARK SMILES IDX 18 24 19 25 20 26 21 27 22 28 23 29 84 30 24 31 83 32 25 33
REMARK SMILES IDX 26 34 27 35 77 36 28 37 82 38 76 39 78 40 29 41 81 42 75 43
REMARK SMILES IDX 74 44 30 46 62 47 42 48 61 49 43 50 46 51 60 52 79 53 44 54
REMARK SMILES IDX 45 55 59 57 80 58 47 59 31 60 32 61 40 62 33 63 39 64 41 65
REMARK SMILES IDX 38 66 34 67 35 68 36 69 37 70 63 71 64 72 72 73 65 74 71 75
REMARK SMILES IDX 73 76 70 77 66 78 67 79 68 80 69 81 48 82 49 83 57 84 50 85
REMARK SMILES IDX 56 86 58 87 55 88 51 89 52 90 53 91 54 92
REMARK H PARENT 78 45 46 56
REMARK Flexibility Score: inf
ROOT
ATOM      1  C   UNL A   1      35.601  20.128  24.992  1.00  0.00     0.202 C 
ENDROOT
BRANCH   1   2
ATOM      2  O   UNL A   1      34.215  20.226  24.658  1.00  0.00    -0.374 OA
BRANCH   2   3
ATOM      3  C   UNL A   1      33.691  21.521  24.366  1.00  0.00     0.202 C 
BRANCH   3   4
ATOM      4  C   UNL A   1      32.182  21.613  24.125  1.00  0.00     0.261 C 
BRANCH   4   5
ATOM      5  O   UNL A   1      31.737  22.978  24.058  1.00  0.00    -0.460 OA
BRANCH   5   6
ATOM      6  C   UNL A   1      31.158  23.438  25.190  1.00  0.00     0.338 C 
ATOM      7  O   UNL A   1      30.783  22.777  26.146  1.00  0.00    -0.246 OA
BRANCH   6   8
ATOM      8  C   UNL A   1      31.148  24.914  25.186  1.00  0.00     0.087 C 
ATOM      9  C   UNL A   1      28.484  29.545  22.138  1.00  0.00     0.044 C 
ATOM     10  C   UNL A   1      29.425  28.907  23.117  1.00  0.00    -0.049 A 
ATOM     11  C   UNL A   1      30.353  29.672  23.830  1.00  0.00     0.028 A 
ATOM     12  C   UNL A   1      29.359  27.530  23.357  1.00  0.00     0.015 A 
ATOM     13  C   UNL A   1      31.209  29.066  24.758  1.00  0.00     0.084 A 
ATOM     14  C   UNL A   1      30.236  26.919  24.262  1.00  0.00     0.019 A 
ATOM     15  Cl  UNL A   1      32.343  30.068  25.591  1.00  0.00    -0.080 Cl
ATOM     16  C   UNL A   1      31.158  27.684  24.979  1.00  0.00     0.146 A 
ATOM     17  C   UNL A   1      30.217  25.477  24.408  1.00  0.00     0.027 C 
ATOM     18  O   UNL A   1      32.003  27.140  25.908  1.00  0.00    -0.474 OA
ATOM     19  C   UNL A   1      32.152  25.693  25.988  1.00  0.00     0.316 C 
BRANCH  19  20
ATOM     20  C   UNL A   1      33.600  25.329  25.627  1.00  0.00     0.430 C 
ATOM     21  F   UNL A   1      33.735  25.100  24.300  1.00  0.00    -0.167 F 
ATOM     22  F   UNL A   1      34.460  26.324  25.944  1.00  0.00    -0.167 F 
ATOM     23  F   UNL A   1      34.012  24.215  26.276  1.00  0.00    -0.167 F 
ENDBRANCH  19  20
ENDBRANCH   6   8
ENDBRANCH   5   6
ENDBRANCH   4   5
ENDBRANCH   3   4
ENDBRANCH   2   3
ENDBRANCH   1   2
BRANCH   1  24
ATOM     24  C   UNL A   1      36.273  21.359  25.613  1.00  0.00     0.261 C 
BRANCH  24  25
ATOM     25  O   UNL A   1      37.548  21.648  25.011  1.00  0.00    -0.460 OA
BRANCH  25  26
ATOM     26  C   UNL A   1      38.619  21.294  25.762  1.00  0.00     0.338 C 
ATOM     27  O   UNL A   1      39.152  20.193  25.809  1.00  0.00    -0.246 OA
BRANCH  26  28
ATOM     28  C   UNL A   1      39.204  22.484  26.401  1.00  0.00     0.060 A 
ATOM     29  C   UNL A   1      38.648  23.731  26.086  1.00  0.00     0.016 A 
ATOM     30  C   UNL A   1      40.332  22.394  27.219  1.00  0.00     0.016 A 
ATOM     31  C   UNL A   1      39.248  24.899  26.551  1.00  0.00     0.010 A 
ATOM     32  C   UNL A   1      40.942  23.569  27.672  1.00  0.00     0.010 A 
ATOM     33  C   UNL A   1      40.422  24.825  27.310  1.00  0.00    -0.014 A 
BRANCH  33  34
ATOM     34  C   UNL A   1      41.194  26.064  27.572  1.00  0.00     0.031 A 
ATOM     35  C   UNL A   1      40.568  27.140  28.419  1.00  0.00     0.074 A 
ATOM     36  C   UNL A   1      42.452  26.203  27.118  1.00  0.00     0.049 A 
ATOM     37  N   UNL A   1      41.041  28.311  28.755  1.00  0.00    -0.248 NA
ATOM     38  C   UNL A   1      39.231  26.850  28.965  1.00  0.00     0.031 C 
ATOM     39  C   UNL A   1      43.188  25.199  26.351  1.00  0.00     0.029 A 
ATOM     40  N   UNL A   1      43.336  27.244  27.246  1.00  0.00    -0.354 N 
ATOM     41  C   UNL A   1      40.067  28.897  29.554  1.00  0.00     0.074 A 
ATOM     42  C   UNL A   1      38.961  27.966  29.625  1.00  0.00     0.031 C 
ATOM     43  C   UNL A   1      44.417  25.672  26.082  1.00  0.00     0.029 A 
ATOM     44  C   UNL A   1      44.542  27.025  26.622  1.00  0.00     0.049 A 
ATOM     45  H   UNL A   1      43.128  28.070  27.738  1.00  0.00     0.167 HD
ATOM     46  C   UNL A   1      40.097  30.096  30.184  1.00  0.00     0.034 A 
ATOM     47  C   UNL A   1      45.614  27.832  26.488  1.00  0.00     0.034 A 
ATOM     48  C   UNL A   1      41.200  31.019  30.101  1.00  0.00     0.049 A 
ATOM     49  C   UNL A   1      45.578  29.210  27.097  1.00  0.00     0.074 A 
ATOM     50  C   UNL A   1      41.326  32.265  30.691  1.00  0.00     0.029 A 
ATOM     51  N   UNL A   1      42.366  30.800  29.380  1.00  0.00    -0.354 N 
ATOM     52  N   UNL A   1      44.631  29.771  27.814  1.00  0.00    -0.248 NA
ATOM     53  C   UNL A   1      46.750  30.068  26.872  1.00  0.00     0.031 C 
ATOM     54  C   UNL A   1      42.539  32.823  30.278  1.00  0.00     0.029 A 
ATOM     55  C   UNL A   1      43.201  31.899  29.485  1.00  0.00     0.049 A 
ATOM     56  H   UNL A   1      42.569  29.983  28.869  1.00  0.00     0.167 HD
ATOM     57  C   UNL A   1      45.103  31.039  28.141  1.00  0.00     0.074 A 
ATOM     58  C   UNL A   1      46.419  31.161  27.549  1.00  0.00     0.031 C 
ATOM     59  C   UNL A   1      44.502  32.014  28.870  1.00  0.00     0.034 A 
BRANCH  46  60
ATOM     60  C   UNL A   1      38.885  30.494  30.981  1.00  0.00     0.023 A 
ATOM     61  C   UNL A   1      37.802  31.165  30.387  1.00  0.00     0.031 A 
ATOM     62  C   UNL A   1      38.807  30.191  32.351  1.00  0.00     0.131 A 
ATOM     63  C   UNL A   1      36.704  31.548  31.172  1.00  0.00     0.055 A 
ATOM     64  C   UNL A   1      37.685  30.520  33.114  1.00  0.00     0.041 A 
ATOM     65  F   UNL A   1      39.823  29.570  32.972  1.00  0.00    -0.206 F 
ATOM     66  C   UNL A   1      36.628  31.209  32.525  1.00  0.00     0.022 A 
BRANCH  63  67
ATOM     67  S   UNL A   1      35.408  32.567  30.418  1.00  0.00     0.124 S 
ATOM     68  O   UNL A   1      35.165  31.855  29.167  1.00  0.00    -0.237 OA
ATOM     69  O   UNL A   1      34.338  32.504  31.408  1.00  0.00    -0.237 OA
ATOM     70  O   UNL A   1      36.042  33.875  30.272  1.00  0.00    -0.744 OA
ENDBRANCH  63  67
ENDBRANCH  46  60
BRANCH  47  71
ATOM     71  C   UNL A   1      46.800  27.374  25.712  1.00  0.00     0.023 A 
ATOM     72  C   UNL A   1      46.978  27.751  24.373  1.00  0.00     0.031 A 
ATOM     73  C   UNL A   1      47.764  26.537  26.301  1.00  0.00     0.131 A 
ATOM     74  C   UNL A   1      48.088  27.274  23.656  1.00  0.00     0.055 A 
ATOM     75  C   UNL A   1      48.886  26.096  25.595  1.00  0.00     0.041 A 
ATOM     76  F   UNL A   1      47.637  26.150  27.579  1.00  0.00    -0.206 F 
ATOM     77  C   UNL A   1      49.049  26.460  24.263  1.00  0.00     0.022 A 
BRANCH  74  78
ATOM     78  S   UNL A   1      48.246  27.709  21.903  1.00  0.00     0.124 S 
ATOM     79  O   UNL A   1      49.440  28.545  21.911  1.00  0.00    -0.237 OA
ATOM     80  O   UNL A   1      48.383  26.400  21.274  1.00  0.00    -0.237 OA
ATOM     81  O   UNL A   1      46.995  28.408  21.613  1.00  0.00    -0.744 OA
ENDBRANCH  74  78
ENDBRANCH  47  71
BRANCH  59  82
ATOM     82  C   UNL A   1      45.268  33.291  29.085  1.00  0.00     0.023 A 
ATOM     83  C   UNL A   1      45.094  34.402  28.242  1.00  0.00     0.031 A 
ATOM     84  C   UNL A   1      46.147  33.415  30.176  1.00  0.00     0.131 A 
ATOM     85  C   UNL A   1      45.812  35.582  28.488  1.00  0.00     0.055 A 
ATOM     86  C   UNL A   1      46.823  34.606  30.442  1.00  0.00     0.041 A 
ATOM     87  F   UNL A   1      46.345  32.384  31.013  1.00  0.00    -0.206 F 
ATOM     88  C   UNL A   1      46.662  35.696  29.592  1.00  0.00     0.022 A 
BRANCH  85  89
ATOM     89  S   UNL A   1      45.647  36.961  27.322  1.00  0.00     0.124 S 
ATOM     90  O   UNL A   1      46.064  38.097  28.138  1.00  0.00    -0.237 OA
ATOM     91  O   UNL A   1      46.558  36.579  26.248  1.00  0.00    -0.237 OA
ATOM     92  O   UNL A   1      44.228  36.941  26.967  1.00  0.00    -0.744 OA
ENDBRANCH  85  89
ENDBRANCH  59  82
ENDBRANCH  33  34
ENDBRANCH  26  28
ENDBRANCH  25  26
ENDBRANCH  24  25
ENDBRANCH   1  24
TORSDOF 18
ENDMDL
MODEL 2
REMARK VINA RESULT:     -11.7      2.411      8.285
REMARK SMILES Cc1cc(Cl)c2c(c1)C=C(C(=O)OCCOCCOC(=O)c1ccc(-c3c4nc(c(-c5cc(S(=O)(=O)[O-])ccc5F)c5ccc([nH]5)c(-c5cc(S(=O)(=O)[O-])ccc5F)c5nc(c(-c6cc(S(=O)(=O)[O-])ccc6F)c6ccc3[nH]6)C=C5)C=C4)cc1)[C@@H](C(F)(F)F)O2
REMARK SMILES IDX 17 1 16 2 15 3 14 4 13 5 11 6 12 7 10 8 1 9 2 10 3 11 8 12
REMARK SMILES IDX 4 13 7 14 5 15 6 16 9 17 90 18 85 19 86 20 87 21 88 22 89 23
REMARK SMILES IDX 18 24 19 25 20 26 21 27 22 28 23 29 84 30 24 31 83 32 25 33
REMARK SMILES IDX 26 34 27 35 77 36 28 37 82 38 76 39 78 40 29 41 81 42 75 43
REMARK SMILES IDX 74 44 30 46 62 47 42 48 61 49 43 50 46 51 60 52 79 53 44 54
REMARK SMILES IDX 45 55 59 57 80 58 47 59 31 60 32 61 40 62 33 63 39 64 41 65
REMARK SMILES IDX 38 66 34 67 35 68 36 69 37 70 63 71 64 72 72 73 65 74 71 75
REMARK SMILES IDX 73 76 70 77 66 78 67 79 68 80 69 81 48 82 49 83 57 84 50 85
REMARK SMILES IDX 56 86 58 87 55 88 51 89 52 90 53 91 54 92
REMARK H PARENT 78 45 46 56
REMARK Flexibility Score: inf
ROOT
ATOM      1  C   UNL A   1      36.697  21.347  24.925  1.00  0.00     0.202 C 
ENDROOT
BRANCH   1   2
ATOM      2  O   UNL A   1      36.355  22.443  25.775  1.00  0.00    -0.374 OA
BRANCH   2   3
ATOM      3  C   UNL A   1      36.137  23.715  25.165  1.00  0.00     0.202 C 
BRANCH   3   4
ATOM      4  C   UNL A   1      34.946  24.528  25.678  1.00  0.00     0.261 C 
BRANCH   4   5
ATOM      5  O   UNL A   1      33.885  23.680  26.146  1.00  0.00    -0.460 OA
BRANCH   5   6
ATOM      6  C   UNL A   1      32.752  23.736  25.410  1.00  0.00     0.338 C 
ATOM      7  O   UNL A   1      32.030  24.707  25.243  1.00  0.00    -0.246 OA
BRANCH   6   8
ATOM      8  C   UNL A   1      32.553  22.460  24.696  1.00  0.00     0.087 C 
ATOM      9  C   UNL A   1      33.228  16.424  25.667  1.00  0.00     0.044 C 
ATOM     10  C   UNL A   1      32.939  17.663  24.873  1.00  0.00    -0.049 A 
ATOM     11  C   UNL A   1      32.684  17.596  23.499  1.00  0.00     0.028 A 
ATOM     12  C   UNL A   1      32.886  18.908  25.508  1.00  0.00     0.015 A 
ATOM     13  C   UNL A   1      32.392  18.758  22.774  1.00  0.00     0.084 A 
ATOM     14  C   UNL A   1      32.624  20.074  24.778  1.00  0.00     0.019 A 
ATOM     15  Cl  UNL A   1      32.103  18.605  21.077  1.00  0.00    -0.080 Cl
ATOM     16  C   UNL A   1      32.362  20.006  23.408  1.00  0.00     0.146 A 
ATOM     17  C   UNL A   1      32.684  21.360  25.445  1.00  0.00     0.027 C 
ATOM     18  O   UNL A   1      32.056  21.111  22.661  1.00  0.00    -0.474 OA
ATOM     19  C   UNL A   1      32.256  22.440  23.223  1.00  0.00     0.316 C 
BRANCH  19  20
ATOM     20  C   UNL A   1      33.332  23.164  22.399  1.00  0.00     0.430 C 
ATOM     21  F   UNL A   1      33.220  22.877  21.081  1.00  0.00    -0.167 F 
ATOM     22  F   UNL A   1      33.235  24.507  22.519  1.00  0.00    -0.167 F 
ATOM     23  F   UNL A   1      34.580  22.811  22.788  1.00  0.00    -0.167 F 
ENDBRANCH  19  20
ENDBRANCH   6   8
ENDBRANCH   5   6
ENDBRANCH   4   5
ENDBRANCH   3   4
ENDBRANCH   2   3
ENDBRANCH   1   2
BRANCH   1  24
ATOM     24  C   UNL A   1      37.905  20.489  25.320  1.00  0.00     0.261 C 
BRANCH  24  25
ATOM     25  O   UNL A   1      39.125  21.250  25.372  1.00  0.00    -0.460 OA
BRANCH  25  26
ATOM     26  C   UNL A   1      39.840  21.092  26.512  1.00  0.00     0.338 C 
ATOM     27  O   UNL A   1      40.271  20.041  26.970  1.00  0.00    -0.246 OA
BRANCH  26  28
ATOM     28  C   UNL A   1      40.210  22.406  27.063  1.00  0.00     0.060 A 
ATOM     29  C   UNL A   1      39.570  23.536  26.537  1.00  0.00     0.016 A 
ATOM     30  C   UNL A   1      41.229  22.541  28.009  1.00  0.00     0.016 A 
ATOM     31  C   UNL A   1      39.980  24.811  26.920  1.00  0.00     0.010 A 
ATOM     32  C   UNL A   1      41.649  23.823  28.381  1.00  0.00     0.010 A 
ATOM     33  C   UNL A   1      41.050  24.961  27.811  1.00  0.00    -0.014 A 
BRANCH  33  34
ATOM     34  C   UNL A   1      41.646  26.304  28.006  1.00  0.00     0.031 A 
ATOM     35  C   UNL A   1      43.003  26.585  27.416  1.00  0.00     0.074 A 
ATOM     36  C   UNL A   1      40.968  27.276  28.641  1.00  0.00     0.049 A 
ATOM     37  N   UNL A   1      43.728  27.671  27.484  1.00  0.00    -0.248 NA
ATOM     38  C   UNL A   1      43.620  25.495  26.642  1.00  0.00     0.031 C 
ATOM     39  C   UNL A   1      39.618  27.143  29.188  1.00  0.00     0.029 A 
ATOM     40  N   UNL A   1      41.320  28.571  28.924  1.00  0.00    -0.354 N 
ATOM     41  C   UNL A   1      44.882  27.400  26.758  1.00  0.00     0.074 A 
ATOM     42  C   UNL A   1      44.777  26.035  26.288  1.00  0.00     0.031 C 
ATOM     43  C   UNL A   1      39.254  28.315  29.736  1.00  0.00     0.029 A 
ATOM     44  C   UNL A   1      40.355  29.268  29.613  1.00  0.00     0.049 A 
ATOM     45  H   UNL A   1      42.181  28.966  28.657  1.00  0.00     0.167 HD
ATOM     46  C   UNL A   1      45.928  28.219  26.496  1.00  0.00     0.034 A 
ATOM     47  C   UNL A   1      40.370  30.523  30.105  1.00  0.00     0.034 A 
ATOM     48  C   UNL A   1      46.027  29.575  26.975  1.00  0.00     0.049 A 
ATOM     49  C   UNL A   1      41.596  31.378  29.903  1.00  0.00     0.074 A 
ATOM     50  C   UNL A   1      47.050  30.485  26.776  1.00  0.00     0.029 A 
ATOM     51  N   UNL A   1      45.071  30.213  27.753  1.00  0.00    -0.354 N 
ATOM     52  N   UNL A   1      42.701  31.095  29.253  1.00  0.00    -0.248 NA
ATOM     53  C   UNL A   1      41.581  32.717  30.509  1.00  0.00     0.031 C 
ATOM     54  C   UNL A   1      46.741  31.652  27.483  1.00  0.00     0.029 A 
ATOM     55  C   UNL A   1      45.494  31.494  28.067  1.00  0.00     0.049 A 
ATOM     56  H   UNL A   1      44.217  29.814  28.039  1.00  0.00     0.167 HD
ATOM     57  C   UNL A   1      43.504  32.227  29.355  1.00  0.00     0.074 A 
ATOM     58  C   UNL A   1      42.756  33.200  30.125  1.00  0.00     0.031 C 
ATOM     59  C   UNL A   1      44.746  32.444  28.854  1.00  0.00     0.034 A 
BRANCH  46  60
ATOM     60  C   UNL A   1      47.067  27.657  25.689  1.00  0.00     0.023 A 
ATOM     61  C   UNL A   1      47.227  27.969  24.328  1.00  0.00     0.031 A 
ATOM     62  C   UNL A   1      48.009  26.806  26.290  1.00  0.00     0.131 A 
ATOM     63  C   UNL A   1      48.283  27.399  23.602  1.00  0.00     0.055 A 
ATOM     64  C   UNL A   1      49.093  26.290  25.578  1.00  0.00     0.041 A 
ATOM     65  F   UNL A   1      47.890  26.459  27.582  1.00  0.00    -0.206 F 
ATOM     66  C   UNL A   1      49.230  26.580  24.223  1.00  0.00     0.022 A 
BRANCH  63  67
ATOM     67  S   UNL A   1      48.360  27.676  21.812  1.00  0.00     0.124 S 
ATOM     68  O   UNL A   1      48.583  26.322  21.314  1.00  0.00    -0.237 OA
ATOM     69  O   UNL A   1      47.053  28.256  21.524  1.00  0.00    -0.237 OA
ATOM     70  O   UNL A   1      49.492  28.586  21.654  1.00  0.00    -0.744 OA
ENDBRANCH  63  67
ENDBRANCH  46  60
BRANCH  47  71
ATOM     71  C   UNL A   1      39.201  31.039  30.871  1.00  0.00     0.023 A 
ATOM     72  C   UNL A   1      38.151  31.707  30.225  1.00  0.00     0.031 A 
ATOM     73  C   UNL A   1      39.131  30.882  32.267  1.00  0.00     0.131 A 
ATOM     74  C   UNL A   1      37.080  32.214  30.978  1.00  0.00     0.055 A 
ATOM     75  C   UNL A   1      38.045  31.355  33.007  1.00  0.00     0.041 A 
ATOM     76  F   UNL A   1      40.111  30.250  32.929  1.00  0.00    -0.206 F 
ATOM     77  C   UNL A   1      37.014  32.031  32.362  1.00  0.00     0.022 A 
BRANCH  74  78
ATOM     78  S   UNL A   1      35.780  33.147  30.125  1.00  0.00     0.124 S 
ATOM     79  O   UNL A   1      36.536  33.820  29.076  1.00  0.00    -0.237 OA
ATOM     80  O   UNL A   1      34.879  32.085  29.687  1.00  0.00    -0.237 OA
ATOM     81  O   UNL A   1      35.246  34.020  31.169  1.00  0.00    -0.744 OA
ENDBRANCH  74  78
ENDBRANCH  47  71
BRANCH  59  82
ATOM     82  C   UNL A   1      45.369  33.791  29.104  1.00  0.00     0.023 A 
ATOM     83  C   UNL A   1      45.056  34.904  28.306  1.00  0.00     0.031 A 
ATOM     84  C   UNL A   1      46.252  33.974  30.184  1.00  0.00     0.131 A 
ATOM     85  C   UNL A   1      45.643  36.148  28.583  1.00  0.00     0.055 A 
ATOM     86  C   UNL A   1      46.797  35.223  30.483  1.00  0.00     0.041 A 
ATOM     87  F   UNL A   1      46.580  32.943  30.979  1.00  0.00    -0.206 F 
ATOM     88  C   UNL A   1      46.498  36.318  29.676  1.00  0.00     0.022 A 
BRANCH  85  89
ATOM     89  S   UNL A   1      45.302  37.541  27.472  1.00  0.00     0.124 S 
ATOM     90  O   UNL A   1      45.378  38.678  28.383  1.00  0.00    -0.237 OA
ATOM     91  O   UNL A   1      46.379  37.435  26.492  1.00  0.00    -0.237 OA
ATOM     92  O   UNL A   1      43.965  37.248  26.957  1.00  0.00    -0.744 OA
ENDBRANCH  85  89
ENDBRANCH  59  82
ENDBRANCH  33  34
ENDBRANCH  26  28
ENDBRANCH  25  26
ENDBRANCH  24  25
ENDBRANCH   1  24
TORSDOF 18
ENDMDL
MODEL 3
REMARK VINA RESULT:     -11.7      5.094     10.257
REMARK SMILES Cc1cc(Cl)c2c(c1)C=C(C(=O)OCCOCCOC(=O)c1ccc(-c3c4nc(c(-c5cc(S(=O)(=O)[O-])ccc5F)c5ccc([nH]5)c(-c5cc(S(=O)(=O)[O-])ccc5F)c5nc(c(-c6cc(S(=O)(=O)[O-])ccc6F)c6ccc3[nH]6)C=C5)C=C4)cc1)[C@@H](C(F)(F)F)O2
REMARK SMILES IDX 17 1 16 2 15 3 14 4 13 5 11 6 12 7 10 8 1 9 2 10 3 11 8 12
REMARK SMILES IDX 4 13 7 14 5 15 6 16 9 17 90 18 85 19 86 20 87 21 88 22 89 23
REMARK SMILES IDX 18 24 19 25 20 26 21 27 22 28 23 29 84 30 24 31 83 32 25 33
REMARK SMILES IDX 26 34 27 35 77 36 28 37 82 38 76 39 78 40 29 41 81 42 75 43
REMARK SMILES IDX 74 44 30 46 62 47 42 48 61 49 43 50 46 51 60 52 79 53 44 54
REMARK SMILES IDX 45 55 59 57 80 58 47 59 31 60 32 61 40 62 33 63 39 64 41 65
REMARK SMILES IDX 38 66 34 67 35 68 36 69 37 70 63 71 64 72 72 73 65 74 71 75
REMARK SMILES IDX 73 76 70 77 66 78 67 79 68 80 69 81 48 82 49 83 57 84 50 85
REMARK SMILES IDX 56 86 58 87 55 88 51 89 52 90 53 91 54 92
REMARK H PARENT 78 45 46 56
REMARK Flexibility Score: inf
ROOT
ATOM      1  C   UNL A   1      31.137  30.274  25.026  1.00  0.00     0.202 C 
ENDROOT
BRANCH   1   2
ATOM      2  O   UNL A   1      30.917  28.925  24.608  1.00  0.00    -0.374 OA
BRANCH   2   3
ATOM      3  C   UNL A   1      30.101  28.710  23.457  1.00  0.00     0.202 C 
BRANCH   3   4
ATOM      4  C   UNL A   1      30.663  27.778  22.380  1.00  0.00     0.261 C 
BRANCH   4   5
ATOM      5  O   UNL A   1      31.994  27.340  22.698  1.00  0.00    -0.460 OA
BRANCH   5   6
ATOM      6  C   UNL A   1      32.280  26.078  22.308  1.00  0.00     0.338 C 
ATOM      7  O   UNL A   1      32.215  25.625  21.175  1.00  0.00    -0.246 OA
BRANCH   6   8
ATOM      8  C   UNL A   1      32.829  25.312  23.443  1.00  0.00     0.087 C 
ATOM      9  C   UNL A   1      37.400  21.371  24.627  1.00  0.00     0.044 C 
ATOM     10  C   UNL A   1      36.164  22.168  24.921  1.00  0.00    -0.049 A 
ATOM     11  C   UNL A   1      35.490  22.031  26.139  1.00  0.00     0.028 A 
ATOM     12  C   UNL A   1      35.688  23.094  23.987  1.00  0.00     0.015 A 
ATOM     13  C   UNL A   1      34.350  22.799  26.410  1.00  0.00     0.084 A 
ATOM     14  C   UNL A   1      34.531  23.840  24.244  1.00  0.00     0.019 A 
ATOM     15  Cl  UNL A   1      33.556  22.568  27.926  1.00  0.00    -0.080 Cl
ATOM     16  C   UNL A   1      33.861  23.708  25.463  1.00  0.00     0.146 A 
ATOM     17  C   UNL A   1      34.001  24.710  23.213  1.00  0.00     0.027 C 
ATOM     18  O   UNL A   1      32.755  24.449  25.779  1.00  0.00    -0.474 OA
ATOM     19  C   UNL A   1      32.078  25.214  24.741  1.00  0.00     0.316 C 
BRANCH  19  20
ATOM     20  C   UNL A   1      30.663  24.645  24.557  1.00  0.00     0.430 C 
ATOM     21  F   UNL A   1      30.349  23.774  25.544  1.00  0.00    -0.167 F 
ATOM     22  F   UNL A   1      29.724  25.619  24.578  1.00  0.00    -0.167 F 
ATOM     23  F   UNL A   1      30.538  23.988  23.380  1.00  0.00    -0.167 F 
ENDBRANCH  19  20
ENDBRANCH   6   8
ENDBRANCH   5   6
ENDBRANCH   4   5
ENDBRANCH   3   4
ENDBRANCH   2   3
ENDBRANCH   1   2
BRANCH   1  24
ATOM     24  C   UNL A   1      31.687  30.500  26.440  1.00  0.00     0.261 C 
BRANCH  24  25
ATOM     25  O   UNL A   1      33.126  30.525  26.470  1.00  0.00    -0.460 OA
BRANCH  25  26
ATOM     26  C   UNL A   1      33.656  31.508  27.237  1.00  0.00     0.338 C 
ATOM     27  O   UNL A   1      33.090  32.521  27.630  1.00  0.00    -0.246 OA
BRANCH  26  28
ATOM     28  C   UNL A   1      34.990  31.112  27.717  1.00  0.00     0.060 A 
ATOM     29  C   UNL A   1      35.212  29.751  27.971  1.00  0.00     0.016 A 
ATOM     30  C   UNL A   1      35.975  32.058  28.004  1.00  0.00     0.016 A 
ATOM     31  C   UNL A   1      36.406  29.337  28.556  1.00  0.00     0.010 A 
ATOM     32  C   UNL A   1      37.167  31.642  28.607  1.00  0.00     0.010 A 
ATOM     33  C   UNL A   1      37.371  30.285  28.916  1.00  0.00    -0.014 A 
BRANCH  33  34
ATOM     34  C   UNL A   1      38.510  29.870  29.771  1.00  0.00     0.031 A 
ATOM     35  C   UNL A   1      39.490  28.863  29.231  1.00  0.00     0.074 A 
ATOM     36  C   UNL A   1      38.704  30.424  30.981  1.00  0.00     0.049 A 
ATOM     37  N   UNL A   1      40.538  28.334  29.807  1.00  0.00    -0.248 NA
ATOM     38  C   UNL A   1      39.258  28.395  27.854  1.00  0.00     0.031 C 
ATOM     39  C   UNL A   1      37.863  31.462  31.577  1.00  0.00     0.029 A 
ATOM     40  N   UNL A   1      39.677  30.198  31.920  1.00  0.00    -0.354 N 
ATOM     41  C   UNL A   1      41.094  27.478  28.864  1.00  0.00     0.074 A 
ATOM     42  C   UNL A   1      40.248  27.530  27.691  1.00  0.00     0.031 C 
ATOM     43  C   UNL A   1      38.364  31.787  32.782  1.00  0.00     0.029 A 
ATOM     44  C   UNL A   1      39.534  30.956  33.058  1.00  0.00     0.049 A 
ATOM     45  H   UNL A   1      40.410  29.554  31.792  1.00  0.00     0.167 HD
ATOM     46  C   UNL A   1      42.217  26.726  28.962  1.00  0.00     0.034 A 
ATOM     47  C   UNL A   1      40.253  30.962  34.198  1.00  0.00     0.034 A 
ATOM     48  C   UNL A   1      43.049  26.674  30.138  1.00  0.00     0.049 A 
ATOM     49  C   UNL A   1      41.430  30.029  34.331  1.00  0.00     0.074 A 
ATOM     50  C   UNL A   1      44.201  25.936  30.344  1.00  0.00     0.029 A 
ATOM     51  N   UNL A   1      42.816  27.386  31.306  1.00  0.00    -0.354 N 
ATOM     52  N   UNL A   1      41.921  29.190  33.448  1.00  0.00    -0.248 NA
ATOM     53  C   UNL A   1      42.145  30.036  35.615  1.00  0.00     0.031 C 
ATOM     54  C   UNL A   1      44.630  26.154  31.657  1.00  0.00     0.029 A 
ATOM     55  C   UNL A   1      43.784  27.080  32.248  1.00  0.00     0.049 A 
ATOM     56  H   UNL A   1      42.072  28.015  31.445  1.00  0.00     0.167 HD
ATOM     57  C   UNL A   1      43.012  28.585  34.064  1.00  0.00     0.074 A 
ATOM     58  C   UNL A   1      43.113  29.157  35.390  1.00  0.00     0.031 C 
ATOM     59  C   UNL A   1      43.858  27.643  33.574  1.00  0.00     0.034 A 
BRANCH  46  60
ATOM     60  C   UNL A   1      42.585  25.868  27.782  1.00  0.00     0.023 A 
ATOM     61  C   UNL A   1      42.087  24.561  27.640  1.00  0.00     0.031 A 
ATOM     62  C   UNL A   1      43.438  26.365  26.782  1.00  0.00     0.131 A 
ATOM     63  C   UNL A   1      42.479  23.781  26.543  1.00  0.00     0.055 A 
ATOM     64  C   UNL A   1      43.776  25.606  25.661  1.00  0.00     0.041 A 
ATOM     65  F   UNL A   1      43.959  27.599  26.881  1.00  0.00    -0.206 F 
ATOM     66  C   UNL A   1      43.302  24.303  25.541  1.00  0.00     0.022 A 
BRANCH  63  67
ATOM     67  S   UNL A   1      41.965  22.043  26.480  1.00  0.00     0.124 S 
ATOM     68  O   UNL A   1      40.531  22.170  26.239  1.00  0.00    -0.237 OA
ATOM     69  O   UNL A   1      42.756  21.518  25.372  1.00  0.00    -0.237 OA
ATOM     70  O   UNL A   1      42.327  21.531  27.799  1.00  0.00    -0.744 OA
ENDBRANCH  63  67
ENDBRANCH  46  60
BRANCH  47  71
ATOM     71  C   UNL A   1      39.861  31.856  35.324  1.00  0.00     0.023 A 
ATOM     72  C   UNL A   1      38.964  31.423  36.312  1.00  0.00     0.031 A 
ATOM     73  C   UNL A   1      40.370  33.163  35.415  1.00  0.00     0.131 A 
ATOM     74  C   UNL A   1      38.584  32.300  37.340  1.00  0.00     0.055 A 
ATOM     75  C   UNL A   1      40.019  34.019  36.461  1.00  0.00     0.041 A 
ATOM     76  F   UNL A   1      41.231  33.621  34.494  1.00  0.00    -0.206 F 
ATOM     77  C   UNL A   1      39.116  33.589  37.429  1.00  0.00     0.022 A 
BRANCH  74  78
ATOM     78  S   UNL A   1      37.358  31.741  38.554  1.00  0.00     0.124 S 
ATOM     79  O   UNL A   1      38.104  31.848  39.802  1.00  0.00    -0.237 OA
ATOM     80  O   UNL A   1      36.280  32.707  38.366  1.00  0.00    -0.237 OA
ATOM     81  O   UNL A   1      37.051  30.379  38.124  1.00  0.00    -0.744 OA
ENDBRANCH  74  78
ENDBRANCH  47  71
BRANCH  59  82
ATOM     82  C   UNL A   1      44.979  27.185  34.468  1.00  0.00     0.023 A 
ATOM     83  C   UNL A   1      44.822  26.095  35.341  1.00  0.00     0.031 A 
ATOM     84  C   UNL A   1      46.234  27.816  34.411  1.00  0.00     0.131 A 
ATOM     85  C   UNL A   1      45.897  25.685  36.144  1.00  0.00     0.055 A 
ATOM     86  C   UNL A   1      47.314  27.375  35.178  1.00  0.00     0.041 A 
ATOM     87  F   UNL A   1      46.437  28.859  33.590  1.00  0.00    -0.206 F 
ATOM     88  C   UNL A   1      47.145  26.307  36.055  1.00  0.00     0.022 A 
BRANCH  85  89
ATOM     89  S   UNL A   1      45.633  24.344  37.337  1.00  0.00     0.124 S 
ATOM     90  O   UNL A   1      46.892  24.345  38.074  1.00  0.00    -0.237 OA
ATOM     91  O   UNL A   1      44.461  24.804  38.076  1.00  0.00    -0.237 OA
ATOM     92  O   UNL A   1      45.410  23.173  36.491  1.00  0.00    -0.744 OA
ENDBRANCH  85  89
ENDBRANCH  59  82
ENDBRANCH  33  34
ENDBRANCH  26  28
ENDBRANCH  25  26
ENDBRANCH  24  25
ENDBRANCH   1  24
TORSDOF 18
ENDMDL
