MODEL 1
REMARK VINA RESULT:     -11.7      0.000      0.000
REMARK SMILES COc1ccc([C@H]2[C@@H](C(=O)OCCOCCOC(=O)c3ccc(-c4c5nc(c(-c6cc(S(=O)(=O)[O-])ccc6F)c6ccc([nH]6)c(-c6cc(S(=O)(=O)[O-])ccc6F)c6nc(c(-c7cc(S(=O)(=O)[O-])ccc7F)c7ccc4[nH]7)C=C6)C=C5)cc3)CC(=O)N2Cc2ccccc2)cc1
REMARK SMILES IDX 15 1 14 2 13 3 12 4 11 5 9 6 10 7 8 8 7 9 86 10 83 11 84 12
REMARK SMILES IDX 85 13 6 14 3 15 4 16 95 17 5 18 94 19 2 20 1 21 87 22 88 23
REMARK SMILES IDX 89 24 93 25 90 26 92 27 91 28 16 29 17 30 18 31 19 32 20 33
REMARK SMILES IDX 21 34 82 35 22 36 81 37 23 38 24 39 25 40 75 41 26 42 80 43
REMARK SMILES IDX 74 44 76 45 27 46 79 47 73 48 72 49 28 51 60 52 40 53 59 54
REMARK SMILES IDX 41 55 44 56 58 57 77 58 42 59 43 60 57 62 78 63 45 64 29 65
REMARK SMILES IDX 30 66 38 67 31 68 37 69 39 70 36 71 32 72 33 73 34 74 35 75
REMARK SMILES IDX 61 76 62 77 70 78 63 79 69 80 71 81 68 82 64 83 65 84 66 85
REMARK SMILES IDX 67 86 46 87 47 88 55 89 48 90 54 91 56 92 53 93 49 94 50 95
REMARK SMILES IDX 51 96 52 97
REMARK H PARENT 76 50 44 61
REMARK Flexibility Score: inf
ROOT
ATOM      1  C   UNL A   1      36.184  20.334  24.930  1.00  0.00     0.202 C 
ENDROOT
BRANCH   1   2
ATOM      2  O   UNL A   1      35.732  21.595  24.444  1.00  0.00    -0.374 OA
BRANCH   2   3
ATOM      3  C   UNL A   1      34.922  22.402  25.293  1.00  0.00     0.202 C 
BRANCH   3   4
ATOM      4  C   UNL A   1      33.475  22.643  24.861  1.00  0.00     0.261 C 
BRANCH   4   5
ATOM      5  O   UNL A   1      33.205  24.017  24.546  1.00  0.00    -0.463 OA
BRANCH   5   6
ATOM      6  C   UNL A   1      32.271  24.613  25.325  1.00  0.00     0.312 C 
ATOM      7  O   UNL A   1      32.268  24.629  26.553  1.00  0.00    -0.252 OA
BRANCH   6   8
ATOM      8  C   UNL A   1      31.150  25.228  24.546  1.00  0.00     0.135 C 
ATOM      9  C   UNL A   1      31.539  26.599  24.001  1.00  0.00     0.130 C 
ATOM     10  N   UNL A   1      30.248  27.083  23.538  1.00  0.00    -0.330 N 
ATOM     11  C   UNL A   1      29.793  25.477  25.194  1.00  0.00     0.118 C 
ATOM     12  C   UNL A   1      29.201  26.475  24.217  1.00  0.00     0.224 C 
ATOM     13  O   UNL A   1      28.007  26.682  24.055  1.00  0.00    -0.275 OA
BRANCH   9  14
ATOM     14  C   UNL A   1      32.205  27.513  25.028  1.00  0.00    -0.024 A 
ATOM     15  C   UNL A   1      33.521  29.180  26.898  1.00  0.00     0.118 A 
ATOM     16  C   UNL A   1      34.235  28.561  25.873  1.00  0.00     0.047 A 
ATOM     17  C   UNL A   1      32.151  28.957  27.000  1.00  0.00     0.047 A 
ATOM     18  C   UNL A   1      33.587  27.748  24.940  1.00  0.00     0.010 A 
ATOM     19  C   UNL A   1      31.503  28.123  26.081  1.00  0.00     0.010 A 
BRANCH  15  20
ATOM     20  O   UNL A   1      34.270  29.966  27.728  1.00  0.00    -0.497 OA
ATOM     21  C   UNL A   1      33.895  31.336  27.827  1.00  0.00     0.278 C 
ENDBRANCH  15  20
ENDBRANCH   9  14
BRANCH  10  22
ATOM     22  C   UNL A   1      30.095  27.985  22.405  1.00  0.00     0.155 C 
BRANCH  22  23
ATOM     23  C   UNL A   1      29.336  29.243  22.749  1.00  0.00    -0.029 A 
ATOM     24  C   UNL A   1      29.833  30.123  23.719  1.00  0.00     0.005 A 
ATOM     25  C   UNL A   1      28.183  29.603  22.034  1.00  0.00     0.005 A 
ATOM     26  C   UNL A   1      29.211  31.353  23.941  1.00  0.00     0.000 A 
ATOM     27  C   UNL A   1      27.581  30.843  22.236  1.00  0.00     0.000 A 
ATOM     28  C   UNL A   1      28.098  31.720  23.187  1.00  0.00     0.000 A 
ENDBRANCH  22  23
ENDBRANCH  10  22
ENDBRANCH   6   8
ENDBRANCH   5   6
ENDBRANCH   4   5
ENDBRANCH   3   4
ENDBRANCH   2   3
ENDBRANCH   1   2
BRANCH   1  29
ATOM     29  C   UNL A   1      37.695  20.070  25.004  1.00  0.00     0.261 C 
BRANCH  29  30
ATOM     30  O   UNL A   1      38.484  21.252  25.235  1.00  0.00    -0.460 OA
BRANCH  30  31
ATOM     31  C   UNL A   1      39.540  21.057  26.062  1.00  0.00     0.338 C 
ATOM     32  O   UNL A   1      40.283  20.079  26.075  1.00  0.00    -0.246 OA
BRANCH  31  33
ATOM     33  C   UNL A   1      39.826  22.248  26.878  1.00  0.00     0.060 A 
ATOM     34  C   UNL A   1      39.152  23.431  26.548  1.00  0.00     0.016 A 
ATOM     35  C   UNL A   1      40.861  22.260  27.816  1.00  0.00     0.016 A 
ATOM     36  C   UNL A   1      39.562  24.645  27.093  1.00  0.00     0.010 A 
ATOM     37  C   UNL A   1      41.277  23.484  28.359  1.00  0.00     0.010 A 
ATOM     38  C   UNL A   1      40.666  24.686  27.956  1.00  0.00    -0.014 A 
BRANCH  38  39
ATOM     39  C   UNL A   1      41.292  26.000  28.254  1.00  0.00     0.031 A 
ATOM     40  C   UNL A   1      42.677  26.279  27.724  1.00  0.00     0.074 A 
ATOM     41  C   UNL A   1      40.619  26.956  28.918  1.00  0.00     0.049 A 
ATOM     42  N   UNL A   1      43.414  27.354  27.840  1.00  0.00    -0.248 NA
ATOM     43  C   UNL A   1      43.313  25.194  26.960  1.00  0.00     0.031 C 
ATOM     44  C   UNL A   1      39.256  26.825  29.431  1.00  0.00     0.029 A 
ATOM     45  N   UNL A   1      40.990  28.229  29.267  1.00  0.00    -0.354 N 
ATOM     46  C   UNL A   1      44.600  27.077  27.164  1.00  0.00     0.074 A 
ATOM     47  C   UNL A   1      44.497  25.715  26.683  1.00  0.00     0.031 C 
ATOM     48  C   UNL A   1      38.906  27.974  30.033  1.00  0.00     0.029 A 
ATOM     49  C   UNL A   1      40.028  28.911  29.972  1.00  0.00     0.049 A 
ATOM     50  H   UNL A   1      41.863  28.619  29.033  1.00  0.00     0.167 HD
ATOM     51  C   UNL A   1      45.669  27.884  26.954  1.00  0.00     0.034 A 
ATOM     52  C   UNL A   1      40.054  30.145  30.516  1.00  0.00     0.034 A 
ATOM     53  C   UNL A   1      45.766  29.236  27.451  1.00  0.00     0.049 A 
ATOM     54  C   UNL A   1      41.281  31.005  30.326  1.00  0.00     0.074 A 
ATOM     55  C   UNL A   1      46.806  30.138  27.311  1.00  0.00     0.029 A 
ATOM     56  N   UNL A   1      44.783  29.881  28.192  1.00  0.00    -0.354 N 
ATOM     57  N   UNL A   1      42.397  30.729  29.691  1.00  0.00    -0.248 NA
ATOM     58  C   UNL A   1      41.240  32.352  30.912  1.00  0.00     0.031 C 
ATOM     59  C   UNL A   1      46.478  31.302  28.016  1.00  0.00     0.029 A 
ATOM     60  C   UNL A   1      45.201  31.157  28.534  1.00  0.00     0.049 A 
ATOM     61  H   UNL A   1      43.915  29.488  28.439  1.00  0.00     0.167 HD
ATOM     62  C   UNL A   1      43.173  31.883  29.767  1.00  0.00     0.074 A 
ATOM     63  C   UNL A   1      42.394  32.859  30.502  1.00  0.00     0.031 C 
ATOM     64  C   UNL A   1      44.415  32.120  29.270  1.00  0.00     0.034 A 
BRANCH  51  65
ATOM     65  C   UNL A   1      46.839  27.295  26.200  1.00  0.00     0.023 A 
ATOM     66  C   UNL A   1      47.908  26.667  26.863  1.00  0.00     0.031 A 
ATOM     67  C   UNL A   1      46.906  27.403  24.799  1.00  0.00     0.131 A 
ATOM     68  C   UNL A   1      49.032  26.243  26.136  1.00  0.00     0.055 A 
ATOM     69  C   UNL A   1      47.992  26.906  24.074  1.00  0.00     0.041 A 
ATOM     70  F   UNL A   1      45.927  28.011  24.113  1.00  0.00    -0.206 F 
ATOM     71  C   UNL A   1      49.071  26.337  24.743  1.00  0.00     0.022 A 
BRANCH  68  72
ATOM     72  S   UNL A   1      50.506  25.706  27.049  1.00  0.00     0.124 S 
ATOM     73  O   UNL A   1      50.585  26.717  28.101  1.00  0.00    -0.237 OA
ATOM     74  O   UNL A   1      50.138  24.362  27.479  1.00  0.00    -0.237 OA
ATOM     75  O   UNL A   1      51.571  25.774  26.050  1.00  0.00    -0.744 OA
ENDBRANCH  68  72
ENDBRANCH  51  65
BRANCH  52  76
ATOM     76  C   UNL A   1      38.895  30.641  31.313  1.00  0.00     0.023 A 
ATOM     77  C   UNL A   1      37.918  31.470  30.740  1.00  0.00     0.031 A 
ATOM     78  C   UNL A   1      38.781  30.333  32.680  1.00  0.00     0.131 A 
ATOM     79  C   UNL A   1      36.897  32.002  31.543  1.00  0.00     0.055 A 
ATOM     80  C   UNL A   1      37.737  30.826  33.464  1.00  0.00     0.041 A 
ATOM     81  F   UNL A   1      39.686  29.538  33.276  1.00  0.00    -0.206 F 
ATOM     82  C   UNL A   1      36.793  31.678  32.897  1.00  0.00     0.022 A 
BRANCH  79  83
ATOM     83  S   UNL A   1      35.745  33.195  30.806  1.00  0.00     0.124 S 
ATOM     84  O   UNL A   1      34.466  32.514  30.969  1.00  0.00    -0.237 OA
ATOM     85  O   UNL A   1      35.957  34.373  31.641  1.00  0.00    -0.237 OA
ATOM     86  O   UNL A   1      36.217  33.318  29.429  1.00  0.00    -0.744 OA
ENDBRANCH  79  83
ENDBRANCH  52  76
BRANCH  64  87
ATOM     87  C   UNL A   1      44.974  33.511  29.452  1.00  0.00     0.023 A 
ATOM     88  C   UNL A   1      44.825  34.509  28.474  1.00  0.00     0.031 A 
ATOM     89  C   UNL A   1      45.691  33.834  30.619  1.00  0.00     0.131 A 
ATOM     90  C   UNL A   1      45.439  35.759  28.649  1.00  0.00     0.055 A 
ATOM     91  C   UNL A   1      46.247  35.098  30.816  1.00  0.00     0.041 A 
ATOM     92  F   UNL A   1      45.864  32.921  31.589  1.00  0.00    -0.206 F 
ATOM     93  C   UNL A   1      46.137  36.064  29.821  1.00  0.00     0.022 A 
BRANCH  90  94
ATOM     94  S   UNL A   1      45.406  36.947  27.278  1.00  0.00     0.124 S 
ATOM     95  O   UNL A   1      46.091  38.098  27.856  1.00  0.00    -0.237 OA
ATOM     96  O   UNL A   1      46.132  36.234  26.231  1.00  0.00    -0.237 OA
ATOM     97  O   UNL A   1      43.980  37.138  27.023  1.00  0.00    -0.744 OA
ENDBRANCH  90  94
ENDBRANCH  64  87
ENDBRANCH  38  39
ENDBRANCH  31  33
ENDBRANCH  30  31
ENDBRANCH  29  30
ENDBRANCH   1  29
TORSDOF 21
ENDMDL
MODEL 2
REMARK VINA RESULT:     -11.6      4.582      8.167
REMARK SMILES COc1ccc([C@H]2[C@@H](C(=O)OCCOCCOC(=O)c3ccc(-c4c5nc(c(-c6cc(S(=O)(=O)[O-])ccc6F)c6ccc([nH]6)c(-c6cc(S(=O)(=O)[O-])ccc6F)c6nc(c(-c7cc(S(=O)(=O)[O-])ccc7F)c7ccc4[nH]7)C=C6)C=C5)cc3)CC(=O)N2Cc2ccccc2)cc1
REMARK SMILES IDX 15 1 14 2 13 3 12 4 11 5 9 6 10 7 8 8 7 9 86 10 83 11 84 12
REMARK SMILES IDX 85 13 6 14 3 15 4 16 95 17 5 18 94 19 2 20 1 21 87 22 88 23
REMARK SMILES IDX 89 24 93 25 90 26 92 27 91 28 16 29 17 30 18 31 19 32 20 33
REMARK SMILES IDX 21 34 82 35 22 36 81 37 23 38 24 39 25 40 75 41 26 42 80 43
REMARK SMILES IDX 74 44 76 45 27 46 79 47 73 48 72 49 28 51 60 52 40 53 59 54
REMARK SMILES IDX 41 55 44 56 58 57 77 58 42 59 43 60 57 62 78 63 45 64 29 65
REMARK SMILES IDX 30 66 38 67 31 68 37 69 39 70 36 71 32 72 33 73 34 74 35 75
REMARK SMILES IDX 61 76 62 77 70 78 63 79 69 80 71 81 68 82 64 83 65 84 66 85
REMARK SMILES IDX 67 86 46 87 47 88 55 89 48 90 54 91 56 92 53 93 49 94 50 95
REMARK SMILES IDX 51 96 52 97
REMARK H PARENT 76 50 44 61
REMARK Flexibility Score: inf
ROOT
ATOM      1  C   UNL A   1      31.360  31.193  25.968  1.00  0.00     0.202 C 
ENDROOT
BRANCH   1   2
ATOM      2  O   UNL A   1      31.782  29.907  26.416  1.00  0.00    -0.374 OA
BRANCH   2   3
ATOM      3  C   UNL A   1      33.059  29.427  26.004  1.00  0.00     0.202 C 
BRANCH   3   4
ATOM      4  C   UNL A   1      33.687  28.304  26.830  1.00  0.00     0.261 C 
BRANCH   4   5
ATOM      5  O   UNL A   1      33.384  26.997  26.320  1.00  0.00    -0.463 OA
BRANCH   5   6
ATOM      6  C   UNL A   1      32.221  26.461  26.763  1.00  0.00     0.312 C 
ATOM      7  O   UNL A   1      31.414  27.017  27.502  1.00  0.00    -0.252 OA
BRANCH   6   8
ATOM      8  C   UNL A   1      32.008  25.048  26.316  1.00  0.00     0.135 C 
ATOM      9  C   UNL A   1      32.008  24.941  24.794  1.00  0.00     0.130 C 
ATOM     10  N   UNL A   1      31.531  23.579  24.619  1.00  0.00    -0.330 N 
ATOM     11  C   UNL A   1      30.756  24.280  26.724  1.00  0.00     0.118 C 
ATOM     12  C   UNL A   1      30.780  23.156  25.707  1.00  0.00     0.224 C 
ATOM     13  O   UNL A   1      30.240  22.067  25.844  1.00  0.00    -0.275 OA
BRANCH   9  14
ATOM     14  C   UNL A   1      31.146  25.989  24.094  1.00  0.00    -0.024 A 
ATOM     15  C   UNL A   1      29.624  27.973  22.769  1.00  0.00     0.118 A 
ATOM     16  C   UNL A   1      31.005  27.902  22.592  1.00  0.00     0.047 A 
ATOM     17  C   UNL A   1      29.002  27.064  23.619  1.00  0.00     0.047 A 
ATOM     18  C   UNL A   1      31.758  26.915  23.234  1.00  0.00     0.010 A 
ATOM     19  C   UNL A   1      29.757  26.089  24.282  1.00  0.00     0.010 A 
BRANCH  15  20
ATOM     20  O   UNL A   1      29.005  28.969  22.067  1.00  0.00    -0.497 OA
ATOM     21  C   UNL A   1      28.644  30.138  22.795  1.00  0.00     0.278 C 
ENDBRANCH  15  20
ENDBRANCH   9  14
BRANCH  10  22
ATOM     22  C   UNL A   1      31.924  22.734  23.499  1.00  0.00     0.155 C 
BRANCH  22  23
ATOM     23  C   UNL A   1      32.963  21.705  23.869  1.00  0.00    -0.029 A 
ATOM     24  C   UNL A   1      34.254  22.108  24.236  1.00  0.00     0.005 A 
ATOM     25  C   UNL A   1      32.627  20.345  23.954  1.00  0.00     0.005 A 
ATOM     26  C   UNL A   1      35.176  21.174  24.713  1.00  0.00     0.000 A 
ATOM     27  C   UNL A   1      33.539  19.419  24.458  1.00  0.00     0.000 A 
ATOM     28  C   UNL A   1      34.812  19.835  24.842  1.00  0.00     0.000 A 
ENDBRANCH  22  23
ENDBRANCH  10  22
ENDBRANCH   6   8
ENDBRANCH   5   6
ENDBRANCH   4   5
ENDBRANCH   3   4
ENDBRANCH   2   3
ENDBRANCH   1   2
BRANCH   1  29
ATOM     29  C   UNL A   1      31.428  32.374  26.947  1.00  0.00     0.261 C 
BRANCH  29  30
ATOM     30  O   UNL A   1      32.531  33.267  26.711  1.00  0.00    -0.460 OA
BRANCH  30  31
ATOM     31  C   UNL A   1      33.139  33.704  27.840  1.00  0.00     0.338 C 
ATOM     32  O   UNL A   1      32.676  34.497  28.656  1.00  0.00    -0.246 OA
BRANCH  31  33
ATOM     33  C   UNL A   1      34.401  32.992  28.096  1.00  0.00     0.060 A 
ATOM     34  C   UNL A   1      34.313  31.671  28.557  1.00  0.00     0.016 A 
ATOM     35  C   UNL A   1      35.632  33.652  28.069  1.00  0.00     0.016 A 
ATOM     36  C   UNL A   1      35.439  31.033  29.070  1.00  0.00     0.010 A 
ATOM     37  C   UNL A   1      36.764  33.010  28.591  1.00  0.00     0.010 A 
ATOM     38  C   UNL A   1      36.658  31.720  29.145  1.00  0.00    -0.014 A 
BRANCH  38  39
ATOM     39  C   UNL A   1      37.745  31.159  29.989  1.00  0.00     0.031 A 
ATOM     40  C   UNL A   1      38.670  30.129  29.389  1.00  0.00     0.074 A 
ATOM     41  C   UNL A   1      37.954  31.608  31.239  1.00  0.00     0.049 A 
ATOM     42  N   UNL A   1      39.694  29.515  29.925  1.00  0.00    -0.248 NA
ATOM     43  C   UNL A   1      38.397  29.741  27.997  1.00  0.00     0.031 C 
ATOM     44  C   UNL A   1      37.163  32.639  31.909  1.00  0.00     0.029 A 
ATOM     45  N   UNL A   1      38.903  31.256  32.165  1.00  0.00    -0.354 N 
ATOM     46  C   UNL A   1      40.189  28.669  28.936  1.00  0.00     0.074 A 
ATOM     47  C   UNL A   1      39.322  28.819  27.786  1.00  0.00     0.031 C 
ATOM     48  C   UNL A   1      37.659  32.835  33.142  1.00  0.00     0.029 A 
ATOM     49  C   UNL A   1      38.784  31.926  33.360  1.00  0.00     0.049 A 
ATOM     50  H   UNL A   1      39.605  30.588  31.990  1.00  0.00     0.167 HD
ATOM     51  C   UNL A   1      41.272  27.853  28.976  1.00  0.00     0.034 A 
ATOM     52  C   UNL A   1      39.493  31.809  34.500  1.00  0.00     0.034 A 
ATOM     53  C   UNL A   1      42.122  27.703  30.133  1.00  0.00     0.049 A 
ATOM     54  C   UNL A   1      40.657  30.846  34.547  1.00  0.00     0.074 A 
ATOM     55  C   UNL A   1      43.235  26.896  30.291  1.00  0.00     0.029 A 
ATOM     56  N   UNL A   1      41.948  28.373  31.338  1.00  0.00    -0.354 N 
ATOM     57  N   UNL A   1      41.110  30.049  33.607  1.00  0.00    -0.248 NA
ATOM     58  C   UNL A   1      41.414  30.785  35.804  1.00  0.00     0.031 C 
ATOM     59  C   UNL A   1      43.696  27.032  31.605  1.00  0.00     0.029 A 
ATOM     60  C   UNL A   1      42.918  27.982  32.247  1.00  0.00     0.049 A 
ATOM     61  H   UNL A   1      41.239  29.031  31.519  1.00  0.00     0.167 HD
ATOM     62  C   UNL A   1      42.231  29.422  34.149  1.00  0.00     0.074 A 
ATOM     63  C   UNL A   1      42.387  29.942  35.492  1.00  0.00     0.031 C 
ATOM     64  C   UNL A   1      43.061  28.506  33.586  1.00  0.00     0.034 A 
BRANCH  51  65
ATOM     65  C   UNL A   1      41.555  27.023  27.745  1.00  0.00     0.023 A 
ATOM     66  C   UNL A   1      41.230  25.656  27.683  1.00  0.00     0.031 A 
ATOM     67  C   UNL A   1      42.199  27.597  26.635  1.00  0.00     0.131 A 
ATOM     68  C   UNL A   1      41.621  24.893  26.571  1.00  0.00     0.055 A 
ATOM     69  C   UNL A   1      42.513  26.849  25.498  1.00  0.00     0.041 A 
ATOM     70  F   UNL A   1      42.554  28.890  26.644  1.00  0.00    -0.206 F 
ATOM     71  C   UNL A   1      42.239  25.485  25.467  1.00  0.00     0.022 A 
BRANCH  68  72
ATOM     72  S   UNL A   1      41.445  23.088  26.650  1.00  0.00     0.124 S 
ATOM     73  O   UNL A   1      42.077  22.675  25.399  1.00  0.00    -0.237 OA
ATOM     74  O   UNL A   1      42.167  22.754  27.873  1.00  0.00    -0.237 OA
ATOM     75  O   UNL A   1      39.998  22.887  26.704  1.00  0.00    -0.744 OA
ENDBRANCH  68  72
ENDBRANCH  51  65
BRANCH  52  76
ATOM     76  C   UNL A   1      39.118  32.604  35.705  1.00  0.00     0.023 A 
ATOM     77  C   UNL A   1      39.583  33.916  35.887  1.00  0.00     0.031 A 
ATOM     78  C   UNL A   1      38.329  32.036  36.720  1.00  0.00     0.131 A 
ATOM     79  C   UNL A   1      39.295  34.599  37.079  1.00  0.00     0.055 A 
ATOM     80  C   UNL A   1      38.005  32.737  37.883  1.00  0.00     0.041 A 
ATOM     81  F   UNL A   1      37.852  30.787  36.593  1.00  0.00    -0.206 F 
ATOM     82  C   UNL A   1      38.501  34.023  38.073  1.00  0.00     0.022 A 
BRANCH  79  83
ATOM     83  S   UNL A   1      40.044  36.230  37.348  1.00  0.00     0.124 S 
ATOM     84  O   UNL A   1      41.395  35.872  37.763  1.00  0.00    -0.237 OA
ATOM     85  O   UNL A   1      39.917  36.841  36.029  1.00  0.00    -0.237 OA
ATOM     86  O   UNL A   1      39.205  36.821  38.388  1.00  0.00    -0.744 OA
ENDBRANCH  79  83
ENDBRANCH  52  76
BRANCH  64  87
ATOM     87  C   UNL A   1      44.248  28.060  34.406  1.00  0.00     0.023 A 
ATOM     88  C   UNL A   1      44.183  26.954  35.272  1.00  0.00     0.031 A 
ATOM     89  C   UNL A   1      45.459  28.772  34.336  1.00  0.00     0.131 A 
ATOM     90  C   UNL A   1      45.284  26.632  36.081  1.00  0.00     0.055 A 
ATOM     91  C   UNL A   1      46.571  28.410  35.097  1.00  0.00     0.041 A 
ATOM     92  F   UNL A   1      45.580  29.836  33.526  1.00  0.00    -0.206 F 
ATOM     93  C   UNL A   1      46.483  27.345  35.988  1.00  0.00     0.022 A 
BRANCH  90  94
ATOM     94  S   UNL A   1      45.095  25.337  37.337  1.00  0.00     0.124 S 
ATOM     95  O   UNL A   1      46.332  25.468  38.098  1.00  0.00    -0.237 OA
ATOM     96  O   UNL A   1      43.876  25.747  38.026  1.00  0.00    -0.237 OA
ATOM     97  O   UNL A   1      44.979  24.110  36.550  1.00  0.00    -0.744 OA
ENDBRANCH  90  94
ENDBRANCH  64  87
ENDBRANCH  38  39
ENDBRANCH  31  33
ENDBRANCH  30  31
ENDBRANCH  29  30
ENDBRANCH   1  29
TORSDOF 21
ENDMDL
MODEL 3
REMARK VINA RESULT:     -11.5      4.494     10.346
REMARK SMILES COc1ccc([C@H]2[C@@H](C(=O)OCCOCCOC(=O)c3ccc(-c4c5nc(c(-c6cc(S(=O)(=O)[O-])ccc6F)c6ccc([nH]6)c(-c6cc(S(=O)(=O)[O-])ccc6F)c6nc(c(-c7cc(S(=O)(=O)[O-])ccc7F)c7ccc4[nH]7)C=C6)C=C5)cc3)CC(=O)N2Cc2ccccc2)cc1
REMARK SMILES IDX 15 1 14 2 13 3 12 4 11 5 9 6 10 7 8 8 7 9 86 10 83 11 84 12
REMARK SMILES IDX 85 13 6 14 3 15 4 16 95 17 5 18 94 19 2 20 1 21 87 22 88 23
REMARK SMILES IDX 89 24 93 25 90 26 92 27 91 28 16 29 17 30 18 31 19 32 20 33
REMARK SMILES IDX 21 34 82 35 22 36 81 37 23 38 24 39 25 40 75 41 26 42 80 43
REMARK SMILES IDX 74 44 76 45 27 46 79 47 73 48 72 49 28 51 60 52 40 53 59 54
REMARK SMILES IDX 41 55 44 56 58 57 77 58 42 59 43 60 57 62 78 63 45 64 29 65
REMARK SMILES IDX 30 66 38 67 31 68 37 69 39 70 36 71 32 72 33 73 34 74 35 75
REMARK SMILES IDX 61 76 62 77 70 78 63 79 69 80 71 81 68 82 64 83 65 84 66 85
REMARK SMILES IDX 67 86 46 87 47 88 55 89 48 90 54 91 56 92 53 93 49 94 50 95
REMARK SMILES IDX 51 96 52 97
REMARK H PARENT 76 50 44 61
REMARK Flexibility Score: inf
ROOT
ATOM      1  C   UNL A   1      32.129  31.654  26.723  1.00  0.00     0.202 C 
ENDROOT
BRANCH   1   2
ATOM      2  O   UNL A   1      31.378  30.864  25.803  1.00  0.00    -0.374 OA
BRANCH   2   3
ATOM      3  C   UNL A   1      31.654  29.469  25.721  1.00  0.00     0.202 C 
BRANCH   3   4
ATOM      4  C   UNL A   1      32.187  28.783  26.979  1.00  0.00     0.261 C 
BRANCH   4   5
ATOM      5  O   UNL A   1      31.973  27.364  26.977  1.00  0.00    -0.463 OA
BRANCH   5   6
ATOM      6  C   UNL A   1      32.959  26.634  26.400  1.00  0.00     0.312 C 
ATOM      7  O   UNL A   1      34.063  27.057  26.073  1.00  0.00    -0.252 OA
BRANCH   6   8
ATOM      8  C   UNL A   1      32.563  25.218  26.116  1.00  0.00     0.135 C 
ATOM      9  C   UNL A   1      32.415  24.973  24.618  1.00  0.00     0.130 C 
ATOM     10  N   UNL A   1      31.787  23.662  24.620  1.00  0.00    -0.330 N 
ATOM     11  C   UNL A   1      31.282  24.634  26.699  1.00  0.00     0.118 C 
ATOM     12  C   UNL A   1      31.098  23.426  25.801  1.00  0.00     0.224 C 
ATOM     13  O   UNL A   1      30.464  22.420  26.090  1.00  0.00    -0.275 OA
BRANCH   9  14
ATOM     14  C   UNL A   1      31.604  26.042  23.887  1.00  0.00    -0.024 A 
ATOM     15  C   UNL A   1      30.025  27.986  22.570  1.00  0.00     0.118 A 
ATOM     16  C   UNL A   1      29.459  27.135  23.519  1.00  0.00     0.047 A 
ATOM     17  C   UNL A   1      31.378  27.858  22.267  1.00  0.00     0.047 A 
ATOM     18  C   UNL A   1      30.238  26.183  24.181  1.00  0.00     0.010 A 
ATOM     19  C   UNL A   1      32.156  26.888  22.911  1.00  0.00     0.010 A 
BRANCH  15  20
ATOM     20  O   UNL A   1      29.160  28.885  22.014  1.00  0.00    -0.497 OA
ATOM     21  C   UNL A   1      27.911  29.066  22.674  1.00  0.00     0.278 C 
ENDBRANCH  15  20
ENDBRANCH   9  14
BRANCH  10  22
ATOM     22  C   UNL A   1      31.988  22.680  23.563  1.00  0.00     0.155 C 
BRANCH  22  23
ATOM     23  C   UNL A   1      32.776  21.476  24.015  1.00  0.00    -0.029 A 
ATOM     24  C   UNL A   1      32.281  20.184  23.787  1.00  0.00     0.005 A 
ATOM     25  C   UNL A   1      34.055  21.623  24.572  1.00  0.00     0.005 A 
ATOM     26  C   UNL A   1      33.066  19.066  24.076  1.00  0.00     0.000 A 
ATOM     27  C   UNL A   1      34.849  20.507  24.833  1.00  0.00     0.000 A 
ATOM     28  C   UNL A   1      34.355  19.229  24.581  1.00  0.00     0.000 A 
ENDBRANCH  22  23
ENDBRANCH  10  22
ENDBRANCH   6   8
ENDBRANCH   5   6
ENDBRANCH   4   5
ENDBRANCH   3   4
ENDBRANCH   2   3
ENDBRANCH   1   2
BRANCH   1  29
ATOM     29  C   UNL A   1      31.739  33.126  26.920  1.00  0.00     0.261 C 
BRANCH  29  30
ATOM     30  O   UNL A   1      32.861  34.007  27.110  1.00  0.00    -0.460 OA
BRANCH  30  31
ATOM     31  C   UNL A   1      33.372  33.986  28.365  1.00  0.00     0.338 C 
ATOM     32  O   UNL A   1      32.847  34.452  29.373  1.00  0.00    -0.246 OA
BRANCH  31  33
ATOM     33  C   UNL A   1      34.601  33.181  28.445  1.00  0.00     0.060 A 
ATOM     34  C   UNL A   1      34.487  31.881  28.958  1.00  0.00     0.016 A 
ATOM     35  C   UNL A   1      35.859  33.739  28.203  1.00  0.00     0.016 A 
ATOM     36  C   UNL A   1      35.628  31.166  29.310  1.00  0.00     0.010 A 
ATOM     37  C   UNL A   1      37.006  33.019  28.563  1.00  0.00     0.010 A 
ATOM     38  C   UNL A   1      36.892  31.754  29.170  1.00  0.00    -0.014 A 
BRANCH  38  39
ATOM     39  C   UNL A   1      38.053  31.125  29.853  1.00  0.00     0.031 A 
ATOM     40  C   UNL A   1      38.328  31.484  31.292  1.00  0.00     0.074 A 
ATOM     41  C   UNL A   1      38.804  30.198  29.233  1.00  0.00     0.049 A 
ATOM     42  N   UNL A   1      39.267  31.053  32.095  1.00  0.00    -0.248 NA
ATOM     43  C   UNL A   1      37.418  32.466  31.904  1.00  0.00     0.031 C 
ATOM     44  C   UNL A   1      38.603  29.728  27.863  1.00  0.00     0.029 A 
ATOM     45  N   UNL A   1      39.885  29.482  29.681  1.00  0.00    -0.354 N 
ATOM     46  C   UNL A   1      39.061  31.707  33.307  1.00  0.00     0.074 A 
ATOM     47  C   UNL A   1      37.937  32.598  33.114  1.00  0.00     0.031 C 
ATOM     48  C   UNL A   1      39.534  28.800  27.581  1.00  0.00     0.029 A 
ATOM     49  C   UNL A   1      40.412  28.632  28.739  1.00  0.00     0.049 A 
ATOM     50  H   UNL A   1      40.247  29.567  30.592  1.00  0.00     0.167 HD
ATOM     51  C   UNL A   1      39.738  31.571  34.474  1.00  0.00     0.034 A 
ATOM     52  C   UNL A   1      41.487  27.820  28.800  1.00  0.00     0.034 A 
ATOM     53  C   UNL A   1      40.866  30.689  34.651  1.00  0.00     0.049 A 
ATOM     54  C   UNL A   1      42.268  27.730  30.090  1.00  0.00     0.074 A 
ATOM     55  C   UNL A   1      41.635  30.481  35.783  1.00  0.00     0.029 A 
ATOM     56  N   UNL A   1      41.393  29.867  33.661  1.00  0.00    -0.354 N 
ATOM     57  N   UNL A   1      42.066  28.359  31.226  1.00  0.00    -0.248 NA
ATOM     58  C   UNL A   1      43.408  26.805  30.109  1.00  0.00     0.031 C 
ATOM     59  C   UNL A   1      42.660  29.584  35.462  1.00  0.00     0.029 A 
ATOM     60  C   UNL A   1      42.488  29.170  34.150  1.00  0.00     0.049 A 
ATOM     61  H   UNL A   1      41.041  29.791  32.745  1.00  0.00     0.167 HD
ATOM     62  C   UNL A   1      43.032  27.873  32.105  1.00  0.00     0.074 A 
ATOM     63  C   UNL A   1      43.807  26.894  31.370  1.00  0.00     0.031 C 
ATOM     64  C   UNL A   1      43.255  28.199  33.405  1.00  0.00     0.034 A 
BRANCH  51  65
ATOM     65  C   UNL A   1      39.301  32.443  35.629  1.00  0.00     0.023 A 
ATOM     66  C   UNL A   1      39.703  33.786  35.736  1.00  0.00     0.031 A 
ATOM     67  C   UNL A   1      38.509  31.909  36.661  1.00  0.00     0.131 A 
ATOM     68  C   UNL A   1      39.378  34.525  36.885  1.00  0.00     0.055 A 
ATOM     69  C   UNL A   1      38.121  32.674  37.763  1.00  0.00     0.041 A 
ATOM     70  F   UNL A   1      38.113  30.628  36.625  1.00  0.00    -0.206 F 
ATOM     71  C   UNL A   1      38.570  33.986  37.889  1.00  0.00     0.022 A 
BRANCH  68  72
ATOM     72  S   UNL A   1      40.152  36.150  37.121  1.00  0.00     0.124 S 
ATOM     73  O   UNL A   1      40.030  36.730  35.786  1.00  0.00    -0.237 OA
ATOM     74  O   UNL A   1      39.319  36.748  38.158  1.00  0.00    -0.237 OA
ATOM     75  O   UNL A   1      41.517  35.823  37.527  1.00  0.00    -0.744 OA
ENDBRANCH  68  72
ENDBRANCH  51  65
BRANCH  52  76
ATOM     76  C   UNL A   1      41.910  27.040  27.602  1.00  0.00     0.023 A 
ATOM     77  C   UNL A   1      41.634  25.668  27.489  1.00  0.00     0.031 A 
ATOM     78  C   UNL A   1      42.649  27.651  26.573  1.00  0.00     0.131 A 
ATOM     79  C   UNL A   1      42.135  24.942  26.397  1.00  0.00     0.055 A 
ATOM     80  C   UNL A   1      43.105  26.935  25.465  1.00  0.00     0.041 A 
ATOM     81  F   UNL A   1      42.935  28.962  26.629  1.00  0.00    -0.206 F 
ATOM     82  C   UNL A   1      42.859  25.568  25.379  1.00  0.00     0.022 A 
BRANCH  79  83
ATOM     83  S   UNL A   1      41.894  23.144  26.364  1.00  0.00     0.124 S 
ATOM     84  O   UNL A   1      42.615  22.726  27.560  1.00  0.00    -0.237 OA
ATOM     85  O   UNL A   1      40.440  23.034  26.418  1.00  0.00    -0.237 OA
ATOM     86  O   UNL A   1      42.500  22.744  25.096  1.00  0.00    -0.744 OA
ENDBRANCH  79  83
ENDBRANCH  52  76
BRANCH  64  87
ATOM     87  C   UNL A   1      44.343  27.440  34.127  1.00  0.00     0.023 A 
ATOM     88  C   UNL A   1      44.095  26.217  34.775  1.00  0.00     0.031 A 
ATOM     89  C   UNL A   1      45.647  27.965  34.186  1.00  0.00     0.131 A 
ATOM     90  C   UNL A   1      45.117  25.594  35.508  1.00  0.00     0.055 A 
ATOM     91  C   UNL A   1      46.674  27.310  34.865  1.00  0.00     0.041 A 
ATOM     92  F   UNL A   1      45.942  29.129  33.585  1.00  0.00    -0.206 F 
ATOM     93  C   UNL A   1      46.409  26.126  35.545  1.00  0.00     0.022 A 
BRANCH  90  94
ATOM     94  S   UNL A   1      44.709  24.134  36.504  1.00  0.00     0.124 S 
ATOM     95  O   UNL A   1      44.500  24.716  37.826  1.00  0.00    -0.237 OA
ATOM     96  O   UNL A   1      43.515  23.625  35.837  1.00  0.00    -0.237 OA
ATOM     97  O   UNL A   1      45.896  23.291  36.380  1.00  0.00    -0.744 OA
ENDBRANCH  90  94
ENDBRANCH  64  87
ENDBRANCH  38  39
ENDBRANCH  31  33
ENDBRANCH  30  31
ENDBRANCH  29  30
ENDBRANCH   1  29
TORSDOF 21
ENDMDL
