MODEL 1
REMARK VINA RESULT:     -12.7      0.000      0.000
REMARK SMILES Cc1ccc(S(=O)(=O)n2cc(C(=O)C(=O)NCC(=O)OCCOCCOC(=O)c3ccc(-c4c5nc(c(-c6cc(S(=O)(=O)[O-])ccc6F)c6ccc([nH]6)c(-c6cc(S(=O)(=O)[O-])ccc6F)c6nc(c(-c7cc(S(=O)(=O)[O-])ccc7F)c7ccc4[nH]7)C=C6)C=C5)cc3)c3ccccc32)cc1
REMARK SMILES IDX 22 1 21 2 20 3 18 4 19 5 17 6 16 7 14 8 15 9 12 11 13 12
REMARK SMILES IDX 11 13 9 14 10 15 97 16 92 17 96 18 93 19 95 20 94 21 6 22
REMARK SMILES IDX 7 23 8 24 5 25 1 26 2 27 3 28 99 29 4 30 98 31 23 32 24 33
REMARK SMILES IDX 25 34 26 35 27 36 28 37 29 38 30 39 91 40 31 41 90 42 32 43
REMARK SMILES IDX 33 44 34 45 84 46 35 47 89 48 83 49 85 50 36 51 88 52 82 53
REMARK SMILES IDX 81 54 37 56 69 57 49 58 68 59 50 60 53 61 67 62 86 63 51 64
REMARK SMILES IDX 52 65 66 67 87 68 54 69 38 70 39 71 47 72 40 73 46 74 48 75
REMARK SMILES IDX 45 76 41 77 42 78 43 79 44 80 70 81 71 82 79 83 72 84 78 85
REMARK SMILES IDX 80 86 77 87 73 88 74 89 75 90 76 91 55 92 56 93 64 94 57 95
REMARK SMILES IDX 63 96 65 97 62 98 58 99 59 100 60 101 61 102
REMARK H PARENT 16 10 85 55 53 66
REMARK Flexibility Score: inf
ROOT
ATOM      1  C   UNL A   1      33.894  33.675  28.043  1.00  0.00     0.202 C 
ENDROOT
BRANCH   1   2
ATOM      2  C   UNL A   1      33.966  32.259  28.524  1.00  0.00     0.261 C 
BRANCH   2   3
ATOM      3  O   UNL A   1      34.143  31.370  27.420  1.00  0.00    -0.462 OA
BRANCH   3   4
ATOM      4  C   UNL A   1      33.054  30.722  26.920  1.00  0.00     0.325 C 
ATOM      5  O   UNL A   1      31.898  31.123  26.919  1.00  0.00    -0.250 OA
BRANCH   4   6
ATOM      6  C   UNL A   1      33.471  29.383  26.333  1.00  0.00     0.239 C 
BRANCH   6   7
ATOM      7  N   UNL A   1      33.777  29.506  24.908  1.00  0.00    -0.338 N 
ATOM      8  C   UNL A   1      33.304  28.739  23.859  1.00  0.00     0.292 C 
ATOM      9  O   UNL A   1      33.775  28.951  22.746  1.00  0.00    -0.265 OA
ATOM     10  H   UNL A   1      34.402  30.228  24.664  1.00  0.00     0.164 HD
BRANCH   8  11
ATOM     11  C   UNL A   1      32.158  27.712  24.100  1.00  0.00     0.252 C 
ATOM     12  O   UNL A   1      30.998  28.091  23.951  1.00  0.00    -0.283 OA
BRANCH  11  13
ATOM     13  C   UNL A   1      32.437  26.290  24.318  1.00  0.00     0.054 A 
ATOM     14  N   UNL A   1      33.284  24.236  24.171  1.00  0.00    -0.240 N 
ATOM     15  C   UNL A   1      33.415  25.519  23.719  1.00  0.00     0.117 A 
ATOM     16  C   UNL A   1      32.232  24.119  25.056  1.00  0.00     0.065 A 
ATOM     17  C   UNL A   1      31.696  25.408  25.181  1.00  0.00     0.012 A 
ATOM     18  C   UNL A   1      31.673  23.018  25.733  1.00  0.00     0.028 A 
ATOM     19  C   UNL A   1      30.584  25.596  26.033  1.00  0.00     0.011 A 
ATOM     20  C   UNL A   1      30.550  23.234  26.537  1.00  0.00     0.002 A 
ATOM     21  C   UNL A   1      30.016  24.507  26.695  1.00  0.00     0.001 A 
BRANCH  14  22
ATOM     22  S   UNL A   1      34.148  22.933  23.506  1.00  0.00     0.268 S 
ATOM     23  O   UNL A   1      34.603  23.374  22.196  1.00  0.00    -0.201 OA
ATOM     24  O   UNL A   1      33.341  21.745  23.686  1.00  0.00    -0.201 OA
BRANCH  22  25
ATOM     25  C   UNL A   1      35.614  22.686  24.486  1.00  0.00     0.088 A 
ATOM     26  C   UNL A   1      39.392  22.036  26.435  1.00  0.00     0.044 C 
ATOM     27  C   UNL A   1      38.057  22.251  25.784  1.00  0.00    -0.051 A 
ATOM     28  C   UNL A   1      37.614  21.359  24.800  1.00  0.00     0.005 A 
ATOM     29  C   UNL A   1      37.245  23.335  26.141  1.00  0.00     0.005 A 
ATOM     30  C   UNL A   1      36.401  21.579  24.149  1.00  0.00     0.022 A 
ATOM     31  C   UNL A   1      36.017  23.549  25.505  1.00  0.00     0.022 A 
ENDBRANCH  22  25
ENDBRANCH  14  22
ENDBRANCH  11  13
ENDBRANCH   8  11
ENDBRANCH   6   7
ENDBRANCH   4   6
ENDBRANCH   3   4
ENDBRANCH   2   3
ENDBRANCH   1   2
BRANCH   1  32
ATOM     32  O   UNL A   1      32.977  34.309  28.935  1.00  0.00    -0.374 OA
BRANCH  32  33
ATOM     33  C   UNL A   1      33.093  35.709  29.053  1.00  0.00     0.202 C 
BRANCH  33  34
ATOM     34  C   UNL A   1      32.807  36.240  30.462  1.00  0.00     0.261 C 
BRANCH  34  35
ATOM     35  O   UNL A   1      32.960  35.191  31.444  1.00  0.00    -0.460 OA
BRANCH  35  36
ATOM     36  C   UNL A   1      34.089  35.249  32.209  1.00  0.00     0.338 C 
ATOM     37  O   UNL A   1      34.415  36.201  32.896  1.00  0.00    -0.246 OA
BRANCH  36  38
ATOM     38  C   UNL A   1      34.917  34.028  31.990  1.00  0.00     0.060 A 
ATOM     39  C   UNL A   1      34.820  32.919  32.852  1.00  0.00     0.016 A 
ATOM     40  C   UNL A   1      35.970  34.113  31.088  1.00  0.00     0.016 A 
ATOM     41  C   UNL A   1      35.862  31.976  32.912  1.00  0.00     0.010 A 
ATOM     42  C   UNL A   1      37.043  33.271  31.250  1.00  0.00     0.010 A 
ATOM     43  C   UNL A   1      37.013  32.203  32.165  1.00  0.00    -0.014 A 
BRANCH  43  44
ATOM     44  C   UNL A   1      38.289  31.484  32.244  1.00  0.00     0.031 A 
ATOM     45  C   UNL A   1      38.372  30.203  31.498  1.00  0.00     0.074 A 
ATOM     46  C   UNL A   1      39.429  32.106  32.642  1.00  0.00     0.049 A 
ATOM     47  N   UNL A   1      39.407  29.448  31.478  1.00  0.00    -0.248 NA
ATOM     48  C   UNL A   1      37.278  29.650  30.698  1.00  0.00     0.031 C 
ATOM     49  C   UNL A   1      40.808  31.809  32.238  1.00  0.00     0.029 A 
ATOM     50  N   UNL A   1      39.606  33.167  33.538  1.00  0.00    -0.354 N 
ATOM     51  C   UNL A   1      39.270  28.546  30.450  1.00  0.00     0.074 A 
ATOM     52  C   UNL A   1      37.893  28.657  30.049  1.00  0.00     0.031 C 
ATOM     53  C   UNL A   1      41.666  32.414  33.079  1.00  0.00     0.029 A 
ATOM     54  C   UNL A   1      40.871  33.009  34.135  1.00  0.00     0.049 A 
ATOM     55  H   UNL A   1      38.964  33.890  33.719  1.00  0.00     0.167 HD
ATOM     56  C   UNL A   1      40.394  27.911  30.015  1.00  0.00     0.034 A 
ATOM     57  C   UNL A   1      40.987  32.826  35.476  1.00  0.00     0.034 A 
ATOM     58  C   UNL A   1      41.531  28.263  30.878  1.00  0.00     0.049 A 
ATOM     59  C   UNL A   1      41.573  31.460  35.711  1.00  0.00     0.074 A 
ATOM     60  C   UNL A   1      42.633  29.088  30.737  1.00  0.00     0.029 A 
ATOM     61  N   UNL A   1      41.439  27.965  32.233  1.00  0.00    -0.354 N 
ATOM     62  N   UNL A   1      41.518  30.503  34.821  1.00  0.00    -0.248 NA
ATOM     63  C   UNL A   1      42.369  31.096  36.873  1.00  0.00     0.031 C 
ATOM     64  C   UNL A   1      43.170  29.320  32.039  1.00  0.00     0.029 A 
ATOM     65  C   UNL A   1      42.414  28.609  32.961  1.00  0.00     0.049 A 
ATOM     66  H   UNL A   1      40.762  27.368  32.624  1.00  0.00     0.167 HD
ATOM     67  C   UNL A   1      42.316  29.468  35.204  1.00  0.00     0.074 A 
ATOM     68  C   UNL A   1      42.802  29.872  36.515  1.00  0.00     0.031 C 
ATOM     69  C   UNL A   1      42.525  28.382  34.399  1.00  0.00     0.034 A 
BRANCH  56  70
ATOM     70  C   UNL A   1      40.560  27.108  28.744  1.00  0.00     0.023 A 
ATOM     71  C   UNL A   1      41.584  27.491  27.851  1.00  0.00     0.031 A 
ATOM     72  C   UNL A   1      39.785  26.010  28.321  1.00  0.00     0.131 A 
ATOM     73  C   UNL A   1      41.776  26.844  26.617  1.00  0.00     0.055 A 
ATOM     74  C   UNL A   1      39.970  25.369  27.087  1.00  0.00     0.041 A 
ATOM     75  F   UNL A   1      38.827  25.468  29.074  1.00  0.00    -0.206 F 
ATOM     76  C   UNL A   1      40.968  25.785  26.224  1.00  0.00     0.022 A 
BRANCH  73  77
ATOM     77  S   UNL A   1      43.108  27.417  25.530  1.00  0.00     0.124 S 
ATOM     78  O   UNL A   1      43.629  26.162  24.996  1.00  0.00    -0.237 OA
ATOM     79  O   UNL A   1      42.397  28.275  24.590  1.00  0.00    -0.237 OA
ATOM     80  O   UNL A   1      44.010  28.119  26.442  1.00  0.00    -0.744 OA
ENDBRANCH  73  77
ENDBRANCH  56  70
BRANCH  57  81
ATOM     81  C   UNL A   1      39.910  33.564  36.213  1.00  0.00     0.023 A 
ATOM     82  C   UNL A   1      38.855  32.769  36.740  1.00  0.00     0.031 A 
ATOM     83  C   UNL A   1      40.176  34.789  36.845  1.00  0.00     0.131 A 
ATOM     84  C   UNL A   1      38.243  33.110  37.959  1.00  0.00     0.055 A 
ATOM     85  C   UNL A   1      39.529  35.144  38.040  1.00  0.00     0.041 A 
ATOM     86  F   UNL A   1      41.173  35.575  36.417  1.00  0.00    -0.206 F 
ATOM     87  C   UNL A   1      38.601  34.281  38.629  1.00  0.00     0.022 A 
BRANCH  84  88
ATOM     88  S   UNL A   1      37.222  31.863  38.827  1.00  0.00     0.124 S 
ATOM     89  O   UNL A   1      35.917  32.509  38.872  1.00  0.00    -0.237 OA
ATOM     90  O   UNL A   1      37.323  30.688  37.963  1.00  0.00    -0.237 OA
ATOM     91  O   UNL A   1      37.901  31.712  40.114  1.00  0.00    -0.744 OA
ENDBRANCH  84  88
ENDBRANCH  57  81
BRANCH  69  92
ATOM     92  C   UNL A   1      42.905  27.007  34.901  1.00  0.00     0.023 A 
ATOM     93  C   UNL A   1      43.965  26.284  34.353  1.00  0.00     0.031 A 
ATOM     94  C   UNL A   1      42.289  26.415  36.032  1.00  0.00     0.131 A 
ATOM     95  C   UNL A   1      44.313  25.014  34.831  1.00  0.00     0.055 A 
ATOM     96  C   UNL A   1      42.701  25.194  36.574  1.00  0.00     0.041 A 
ATOM     97  F   UNL A   1      41.281  26.997  36.693  1.00  0.00    -0.206 F 
ATOM     98  C   UNL A   1      43.707  24.470  35.957  1.00  0.00     0.022 A 
BRANCH  95  99
ATOM     99  S   UNL A   1      45.523  24.079  33.873  1.00  0.00     0.124 S 
ATOM    100  O   UNL A   1      45.223  24.512  32.510  1.00  0.00    -0.237 OA
ATOM    101  O   UNL A   1      46.791  24.554  34.419  1.00  0.00    -0.237 OA
ATOM    102  O   UNL A   1      45.196  22.686  34.170  1.00  0.00    -0.744 OA
ENDBRANCH  95  99
ENDBRANCH  69  92
ENDBRANCH  43  44
ENDBRANCH  36  38
ENDBRANCH  35  36
ENDBRANCH  34  35
ENDBRANCH  33  34
ENDBRANCH  32  33
ENDBRANCH   1  32
TORSDOF 22
ENDMDL
MODEL 2
REMARK VINA RESULT:     -12.7      1.559      2.080
REMARK SMILES Cc1ccc(S(=O)(=O)n2cc(C(=O)C(=O)NCC(=O)OCCOCCOC(=O)c3ccc(-c4c5nc(c(-c6cc(S(=O)(=O)[O-])ccc6F)c6ccc([nH]6)c(-c6cc(S(=O)(=O)[O-])ccc6F)c6nc(c(-c7cc(S(=O)(=O)[O-])ccc7F)c7ccc4[nH]7)C=C6)C=C5)cc3)c3ccccc32)cc1
REMARK SMILES IDX 22 1 21 2 20 3 18 4 19 5 17 6 16 7 14 8 15 9 12 11 13 12
REMARK SMILES IDX 11 13 9 14 10 15 97 16 92 17 96 18 93 19 95 20 94 21 6 22
REMARK SMILES IDX 7 23 8 24 5 25 1 26 2 27 3 28 99 29 4 30 98 31 23 32 24 33
REMARK SMILES IDX 25 34 26 35 27 36 28 37 29 38 30 39 91 40 31 41 90 42 32 43
REMARK SMILES IDX 33 44 34 45 84 46 35 47 89 48 83 49 85 50 36 51 88 52 82 53
REMARK SMILES IDX 81 54 37 56 69 57 49 58 68 59 50 60 53 61 67 62 86 63 51 64
REMARK SMILES IDX 52 65 66 67 87 68 54 69 38 70 39 71 47 72 40 73 46 74 48 75
REMARK SMILES IDX 45 76 41 77 42 78 43 79 44 80 70 81 71 82 79 83 72 84 78 85
REMARK SMILES IDX 80 86 77 87 73 88 74 89 75 90 76 91 55 92 56 93 64 94 57 95
REMARK SMILES IDX 63 96 65 97 62 98 58 99 59 100 60 101 61 102
REMARK H PARENT 16 10 85 55 53 66
REMARK Flexibility Score: inf
ROOT
ATOM      1  C   UNL A   1      33.844  33.855  28.038  1.00  0.00     0.202 C 
ENDROOT
BRANCH   1   2
ATOM      2  C   UNL A   1      33.878  32.475  28.616  1.00  0.00     0.261 C 
BRANCH   2   3
ATOM      3  O   UNL A   1      34.113  31.513  27.585  1.00  0.00    -0.462 OA
BRANCH   3   4
ATOM      4  C   UNL A   1      33.050  30.836  27.066  1.00  0.00     0.325 C 
ATOM      5  O   UNL A   1      31.883  31.200  27.059  1.00  0.00    -0.250 OA
BRANCH   4   6
ATOM      6  C   UNL A   1      33.517  29.520  26.465  1.00  0.00     0.239 C 
BRANCH   6   7
ATOM      7  N   UNL A   1      33.710  29.641  25.021  1.00  0.00    -0.338 N 
ATOM      8  C   UNL A   1      33.027  28.996  24.006  1.00  0.00     0.292 C 
ATOM      9  O   UNL A   1      33.423  29.167  22.858  1.00  0.00    -0.265 OA
ATOM     10  H   UNL A   1      34.419  30.261  24.733  1.00  0.00     0.164 HD
BRANCH   8  11
ATOM     11  C   UNL A   1      31.755  28.158  24.335  1.00  0.00     0.252 C 
ATOM     12  O   UNL A   1      30.678  28.745  24.417  1.00  0.00    -0.283 OA
BRANCH  11  13
ATOM     13  C   UNL A   1      31.789  26.693  24.367  1.00  0.00     0.054 A 
ATOM     14  N   UNL A   1      31.738  24.574  25.048  1.00  0.00    -0.240 N 
ATOM     15  C   UNL A   1      31.543  25.867  25.448  1.00  0.00     0.117 A 
ATOM     16  C   UNL A   1      32.118  24.508  23.724  1.00  0.00     0.065 A 
ATOM     17  C   UNL A   1      32.136  25.832  23.267  1.00  0.00     0.012 A 
ATOM     18  C   UNL A   1      32.481  23.434  22.889  1.00  0.00     0.028 A 
ATOM     19  C   UNL A   1      32.503  26.078  21.925  1.00  0.00     0.011 A 
ATOM     20  C   UNL A   1      32.875  23.717  21.577  1.00  0.00     0.002 A 
ATOM     21  C   UNL A   1      32.878  25.021  21.096  1.00  0.00     0.001 A 
BRANCH  14  22
ATOM     22  S   UNL A   1      31.759  23.268  26.135  1.00  0.00     0.268 S 
ATOM     23  O   UNL A   1      30.734  22.342  25.678  1.00  0.00    -0.201 OA
ATOM     24  O   UNL A   1      31.762  23.822  27.472  1.00  0.00    -0.201 OA
BRANCH  22  25
ATOM     25  C   UNL A   1      33.314  22.421  25.949  1.00  0.00     0.088 A 
ATOM     26  C   UNL A   1      36.926  20.266  25.052  1.00  0.00     0.044 C 
ATOM     27  C   UNL A   1      35.671  21.011  25.400  1.00  0.00    -0.051 A 
ATOM     28  C   UNL A   1      34.424  20.424  25.150  1.00  0.00     0.005 A 
ATOM     29  C   UNL A   1      35.723  22.291  25.966  1.00  0.00     0.005 A 
ATOM     30  C   UNL A   1      33.251  21.127  25.418  1.00  0.00     0.022 A 
ATOM     31  C   UNL A   1      34.549  22.994  26.255  1.00  0.00     0.022 A 
ENDBRANCH  22  25
ENDBRANCH  14  22
ENDBRANCH  11  13
ENDBRANCH   8  11
ENDBRANCH   6   7
ENDBRANCH   4   6
ENDBRANCH   3   4
ENDBRANCH   2   3
ENDBRANCH   1   2
BRANCH   1  32
ATOM     32  O   UNL A   1      32.806  34.519  28.759  1.00  0.00    -0.374 OA
BRANCH  32  33
ATOM     33  C   UNL A   1      33.033  35.876  29.068  1.00  0.00     0.202 C 
BRANCH  33  34
ATOM     34  C   UNL A   1      32.736  36.239  30.527  1.00  0.00     0.261 C 
BRANCH  34  35
ATOM     35  O   UNL A   1      32.994  35.114  31.397  1.00  0.00    -0.460 OA
BRANCH  35  36
ATOM     36  C   UNL A   1      34.137  35.185  32.141  1.00  0.00     0.338 C 
ATOM     37  O   UNL A   1      34.467  36.143  32.818  1.00  0.00    -0.246 OA
BRANCH  36  38
ATOM     38  C   UNL A   1      34.971  33.971  31.912  1.00  0.00     0.060 A 
ATOM     39  C   UNL A   1      34.869  32.848  32.756  1.00  0.00     0.016 A 
ATOM     40  C   UNL A   1      36.034  34.073  31.023  1.00  0.00     0.016 A 
ATOM     41  C   UNL A   1      35.913  31.908  32.813  1.00  0.00     0.010 A 
ATOM     42  C   UNL A   1      37.107  33.231  31.183  1.00  0.00     0.010 A 
ATOM     43  C   UNL A   1      37.071  32.150  32.082  1.00  0.00    -0.014 A 
BRANCH  43  44
ATOM     44  C   UNL A   1      38.348  31.433  32.163  1.00  0.00     0.031 A 
ATOM     45  C   UNL A   1      38.453  30.179  31.376  1.00  0.00     0.074 A 
ATOM     46  C   UNL A   1      39.477  32.046  32.606  1.00  0.00     0.049 A 
ATOM     47  N   UNL A   1      39.491  29.428  31.353  1.00  0.00    -0.248 NA
ATOM     48  C   UNL A   1      37.379  29.648  30.536  1.00  0.00     0.031 C 
ATOM     49  C   UNL A   1      40.865  31.768  32.222  1.00  0.00     0.029 A 
ATOM     50  N   UNL A   1      39.630  33.077  33.541  1.00  0.00    -0.354 N 
ATOM     51  C   UNL A   1      39.380  28.562  30.292  1.00  0.00     0.074 A 
ATOM     52  C   UNL A   1      38.012  28.680  29.866  1.00  0.00     0.031 C 
ATOM     53  C   UNL A   1      41.703  32.347  33.101  1.00  0.00     0.029 A 
ATOM     54  C   UNL A   1      40.883  32.904  34.158  1.00  0.00     0.049 A 
ATOM     55  H   UNL A   1      38.980  33.791  33.733  1.00  0.00     0.167 HD
ATOM     56  C   UNL A   1      40.516  27.946  29.860  1.00  0.00     0.034 A 
ATOM     57  C   UNL A   1      40.971  32.675  35.495  1.00  0.00     0.034 A 
ATOM     58  C   UNL A   1      41.633  28.273  30.758  1.00  0.00     0.049 A 
ATOM     59  C   UNL A   1      41.558  31.305  35.696  1.00  0.00     0.074 A 
ATOM     60  C   UNL A   1      42.734  29.107  30.668  1.00  0.00     0.029 A 
ATOM     61  N   UNL A   1      41.514  27.929  32.100  1.00  0.00    -0.354 N 
ATOM     62  N   UNL A   1      41.527  30.379  34.774  1.00  0.00    -0.248 NA
ATOM     63  C   UNL A   1      42.332  30.905  36.862  1.00  0.00     0.031 C 
ATOM     64  C   UNL A   1      43.242  29.296  31.989  1.00  0.00     0.029 A 
ATOM     65  C   UNL A   1      42.471  28.552  32.870  1.00  0.00     0.049 A 
ATOM     66  H   UNL A   1      40.832  27.316  32.457  1.00  0.00     0.167 HD
ATOM     67  C   UNL A   1      42.321  29.334  35.138  1.00  0.00     0.074 A 
ATOM     68  C   UNL A   1      42.777  29.695  36.472  1.00  0.00     0.031 C 
ATOM     69  C   UNL A   1      42.552  28.276  34.301  1.00  0.00     0.034 A 
BRANCH  56  70
ATOM     70  C   UNL A   1      40.713  27.187  28.567  1.00  0.00     0.023 A 
ATOM     71  C   UNL A   1      40.967  25.801  28.647  1.00  0.00     0.031 A 
ATOM     72  C   UNL A   1      40.695  27.711  27.259  1.00  0.00     0.131 A 
ATOM     73  C   UNL A   1      41.224  25.023  27.504  1.00  0.00     0.055 A 
ATOM     74  C   UNL A   1      40.959  26.939  26.118  1.00  0.00     0.041 A 
ATOM     75  F   UNL A   1      40.396  28.984  26.993  1.00  0.00    -0.206 F 
ATOM     76  C   UNL A   1      41.228  25.587  26.234  1.00  0.00     0.022 A 
BRANCH  73  77
ATOM     77  S   UNL A   1      41.553  23.253  27.709  1.00  0.00     0.124 S 
ATOM     78  O   UNL A   1      42.447  22.976  26.589  1.00  0.00    -0.237 OA
ATOM     79  O   UNL A   1      42.147  23.198  29.040  1.00  0.00    -0.237 OA
ATOM     80  O   UNL A   1      40.226  22.648  27.602  1.00  0.00    -0.744 OA
ENDBRANCH  73  77
ENDBRANCH  56  70
BRANCH  57  81
ATOM     81  C   UNL A   1      39.876  33.385  36.234  1.00  0.00     0.023 A 
ATOM     82  C   UNL A   1      38.845  32.561  36.764  1.00  0.00     0.031 A 
ATOM     83  C   UNL A   1      40.109  34.616  36.864  1.00  0.00     0.131 A 
ATOM     84  C   UNL A   1      38.226  32.886  37.984  1.00  0.00     0.055 A 
ATOM     85  C   UNL A   1      39.455  34.954  38.060  1.00  0.00     0.041 A 
ATOM     86  F   UNL A   1      41.083  35.430  36.433  1.00  0.00    -0.206 F 
ATOM     87  C   UNL A   1      38.553  34.067  38.652  1.00  0.00     0.022 A 
BRANCH  84  88
ATOM     88  S   UNL A   1      37.242  31.611  38.855  1.00  0.00     0.124 S 
ATOM     89  O   UNL A   1      37.967  31.466  40.111  1.00  0.00    -0.237 OA
ATOM     90  O   UNL A   1      35.916  32.219  38.950  1.00  0.00    -0.237 OA
ATOM     91  O   UNL A   1      37.304  30.464  37.949  1.00  0.00    -0.744 OA
ENDBRANCH  84  88
ENDBRANCH  57  81
BRANCH  69  92
ATOM     92  C   UNL A   1      42.928  26.887  34.764  1.00  0.00     0.023 A 
ATOM     93  C   UNL A   1      44.084  26.243  34.320  1.00  0.00     0.031 A 
ATOM     94  C   UNL A   1      42.198  26.197  35.765  1.00  0.00     0.131 A 
ATOM     95  C   UNL A   1      44.425  24.959  34.762  1.00  0.00     0.055 A 
ATOM     96  C   UNL A   1      42.594  24.960  36.281  1.00  0.00     0.041 A 
ATOM     97  F   UNL A   1      41.086  26.695  36.320  1.00  0.00    -0.206 F 
ATOM     98  C   UNL A   1      43.704  24.318  35.761  1.00  0.00     0.022 A 
BRANCH  95  99
ATOM     99  S   UNL A   1      45.794  24.138  33.917  1.00  0.00     0.124 S 
ATOM    100  O   UNL A   1      46.439  25.258  33.235  1.00  0.00    -0.237 OA
ATOM    101  O   UNL A   1      46.545  23.560  35.027  1.00  0.00    -0.237 OA
ATOM    102  O   UNL A   1      45.129  23.175  33.043  1.00  0.00    -0.744 OA
ENDBRANCH  95  99
ENDBRANCH  69  92
ENDBRANCH  43  44
ENDBRANCH  36  38
ENDBRANCH  35  36
ENDBRANCH  34  35
ENDBRANCH  33  34
ENDBRANCH  32  33
ENDBRANCH   1  32
TORSDOF 22
ENDMDL
MODEL 3
REMARK VINA RESULT:     -11.2      2.275      2.798
REMARK SMILES Cc1ccc(S(=O)(=O)n2cc(C(=O)C(=O)NCC(=O)OCCOCCOC(=O)c3ccc(-c4c5nc(c(-c6cc(S(=O)(=O)[O-])ccc6F)c6ccc([nH]6)c(-c6cc(S(=O)(=O)[O-])ccc6F)c6nc(c(-c7cc(S(=O)(=O)[O-])ccc7F)c7ccc4[nH]7)C=C6)C=C5)cc3)c3ccccc32)cc1
REMARK SMILES IDX 22 1 21 2 20 3 18 4 19 5 17 6 16 7 14 8 15 9 12 11 13 12
REMARK SMILES IDX 11 13 9 14 10 15 97 16 92 17 96 18 93 19 95 20 94 21 6 22
REMARK SMILES IDX 7 23 8 24 5 25 1 26 2 27 3 28 99 29 4 30 98 31 23 32 24 33
REMARK SMILES IDX 25 34 26 35 27 36 28 37 29 38 30 39 91 40 31 41 90 42 32 43
REMARK SMILES IDX 33 44 34 45 84 46 35 47 89 48 83 49 85 50 36 51 88 52 82 53
REMARK SMILES IDX 81 54 37 56 69 57 49 58 68 59 50 60 53 61 67 62 86 63 51 64
REMARK SMILES IDX 52 65 66 67 87 68 54 69 38 70 39 71 47 72 40 73 46 74 48 75
REMARK SMILES IDX 45 76 41 77 42 78 43 79 44 80 70 81 71 82 79 83 72 84 78 85
REMARK SMILES IDX 80 86 77 87 73 88 74 89 75 90 76 91 55 92 56 93 64 94 57 95
REMARK SMILES IDX 63 96 65 97 62 98 58 99 59 100 60 101 61 102
REMARK H PARENT 16 10 85 55 53 66
REMARK Flexibility Score: inf
ROOT
ATOM      1  C   UNL A   1      34.967  31.854  28.122  1.00  0.00     0.202 C 
ENDROOT
BRANCH   1   2
ATOM      2  C   UNL A   1      34.290  30.898  27.190  1.00  0.00     0.261 C 
BRANCH   2   3
ATOM      3  O   UNL A   1      32.914  30.751  27.544  1.00  0.00    -0.462 OA
BRANCH   3   4
ATOM      4  C   UNL A   1      31.976  30.787  26.556  1.00  0.00     0.325 C 
ATOM      5  O   UNL A   1      31.206  31.705  26.309  1.00  0.00    -0.250 OA
BRANCH   4   6
ATOM      6  C   UNL A   1      32.011  29.492  25.760  1.00  0.00     0.239 C 
BRANCH   6   7
ATOM      7  N   UNL A   1      32.596  29.705  24.436  1.00  0.00    -0.338 N 
ATOM      8  C   UNL A   1      32.648  28.827  23.370  1.00  0.00     0.292 C 
ATOM      9  O   UNL A   1      33.282  29.175  22.379  1.00  0.00    -0.265 OA
ATOM     10  H   UNL A   1      33.007  30.587  24.285  1.00  0.00     0.164 HD
BRANCH   8  11
ATOM     11  C   UNL A   1      31.852  27.488  23.424  1.00  0.00     0.252 C 
ATOM     12  O   UNL A   1      30.806  27.409  22.782  1.00  0.00    -0.283 OA
BRANCH  11  13
ATOM     13  C   UNL A   1      32.406  26.292  24.063  1.00  0.00     0.054 A 
ATOM     14  N   UNL A   1      33.716  24.572  24.596  1.00  0.00    -0.240 N 
ATOM     15  C   UNL A   1      33.628  25.694  23.820  1.00  0.00     0.117 A 
ATOM     16  C   UNL A   1      32.576  24.393  25.352  1.00  0.00     0.065 A 
ATOM     17  C   UNL A   1      31.743  25.478  25.049  1.00  0.00     0.012 A 
ATOM     18  C   UNL A   1      32.172  23.380  26.242  1.00  0.00     0.028 A 
ATOM     19  C   UNL A   1      30.482  25.559  25.680  1.00  0.00     0.011 A 
ATOM     20  C   UNL A   1      30.902  23.472  26.820  1.00  0.00     0.002 A 
ATOM     21  C   UNL A   1      30.069  24.551  26.552  1.00  0.00     0.001 A 
BRANCH  14  22
ATOM     22  S   UNL A   1      34.963  23.431  24.427  1.00  0.00     0.268 S 
ATOM     23  O   UNL A   1      35.678  23.419  25.695  1.00  0.00    -0.201 OA
ATOM     24  O   UNL A   1      35.624  23.699  23.168  1.00  0.00    -0.201 OA
BRANCH  22  25
ATOM     25  C   UNL A   1      34.219  21.822  24.260  1.00  0.00     0.088 A 
ATOM     26  C   UNL A   1      32.433  17.910  24.339  1.00  0.00     0.044 C 
ATOM     27  C   UNL A   1      33.069  19.268  24.279  1.00  0.00    -0.051 A 
ATOM     28  C   UNL A   1      34.240  19.518  25.004  1.00  0.00     0.005 A 
ATOM     29  C   UNL A   1      32.506  20.296  23.512  1.00  0.00     0.005 A 
ATOM     30  C   UNL A   1      34.810  20.790  25.000  1.00  0.00     0.022 A 
ATOM     31  C   UNL A   1      33.085  21.570  23.488  1.00  0.00     0.022 A 
ENDBRANCH  22  25
ENDBRANCH  14  22
ENDBRANCH  11  13
ENDBRANCH   8  11
ENDBRANCH   6   7
ENDBRANCH   4   6
ENDBRANCH   3   4
ENDBRANCH   2   3
ENDBRANCH   1   2
BRANCH   1  32
ATOM     32  O   UNL A   1      33.931  32.750  28.528  1.00  0.00    -0.374 OA
BRANCH  32  33
ATOM     33  C   UNL A   1      34.208  34.124  28.387  1.00  0.00     0.202 C 
BRANCH  33  34
ATOM     34  C   UNL A   1      34.060  34.925  29.686  1.00  0.00     0.261 C 
BRANCH  34  35
ATOM     35  O   UNL A   1      34.035  34.042  30.830  1.00  0.00    -0.460 OA
BRANCH  35  36
ATOM     36  C   UNL A   1      35.103  34.130  31.675  1.00  0.00     0.338 C 
ATOM     37  O   UNL A   1      35.379  35.107  32.349  1.00  0.00    -0.246 OA
BRANCH  36  38
ATOM     38  C   UNL A   1      35.942  32.902  31.566  1.00  0.00     0.060 A 
ATOM     39  C   UNL A   1      35.914  31.909  32.564  1.00  0.00     0.016 A 
ATOM     40  C   UNL A   1      36.944  32.886  30.603  1.00  0.00     0.016 A 
ATOM     41  C   UNL A   1      36.976  30.995  32.685  1.00  0.00     0.010 A 
ATOM     42  C   UNL A   1      38.041  32.084  30.810  1.00  0.00     0.010 A 
ATOM     43  C   UNL A   1      38.080  31.141  31.853  1.00  0.00    -0.014 A 
BRANCH  43  44
ATOM     44  C   UNL A   1      39.373  30.454  31.950  1.00  0.00     0.031 A 
ATOM     45  C   UNL A   1      39.556  29.265  31.080  1.00  0.00     0.074 A 
ATOM     46  C   UNL A   1      40.458  31.060  32.498  1.00  0.00     0.049 A 
ATOM     47  N   UNL A   1      40.616  28.546  31.058  1.00  0.00    -0.248 NA
ATOM     48  C   UNL A   1      38.543  28.772  30.145  1.00  0.00     0.031 C 
ATOM     49  C   UNL A   1      41.872  30.849  32.170  1.00  0.00     0.029 A 
ATOM     50  N   UNL A   1      40.531  32.022  33.513  1.00  0.00    -0.354 N 
ATOM     51  C   UNL A   1      40.586  27.759  29.932  1.00  0.00     0.074 A 
ATOM     52  C   UNL A   1      39.239  27.873  29.442  1.00  0.00     0.031 C 
ATOM     53  C   UNL A   1      42.645  31.381  33.133  1.00  0.00     0.029 A 
ATOM     54  C   UNL A   1      41.754  31.835  34.183  1.00  0.00     0.049 A 
ATOM     55  H   UNL A   1      39.851  32.702  33.722  1.00  0.00     0.167 HD
ATOM     56  C   UNL A   1      41.761  27.207  29.518  1.00  0.00     0.034 A 
ATOM     57  C   UNL A   1      41.779  31.510  35.502  1.00  0.00     0.034 A 
ATOM     58  C   UNL A   1      42.819  27.494  30.496  1.00  0.00     0.049 A 
ATOM     59  C   UNL A   1      42.396  30.144  35.633  1.00  0.00     0.074 A 
ATOM     60  C   UNL A   1      43.898  28.361  30.528  1.00  0.00     0.029 A 
ATOM     61  N   UNL A   1      42.641  27.048  31.801  1.00  0.00    -0.354 N 
ATOM     62  N   UNL A   1      42.441  29.289  34.645  1.00  0.00    -0.248 NA
ATOM     63  C   UNL A   1      43.120  29.677  36.807  1.00  0.00     0.031 C 
ATOM     64  C   UNL A   1      44.331  28.464  31.885  1.00  0.00     0.029 A 
ATOM     65  C   UNL A   1      43.537  27.635  32.666  1.00  0.00     0.049 A 
ATOM     66  H   UNL A   1      41.960  26.392  32.074  1.00  0.00     0.167 HD
ATOM     67  C   UNL A   1      43.246  28.241  34.973  1.00  0.00     0.074 A 
ATOM     68  C   UNL A   1      43.621  28.513  36.353  1.00  0.00     0.031 C 
ATOM     69  C   UNL A   1      43.552  27.255  34.075  1.00  0.00     0.034 A 
BRANCH  56  70
ATOM     70  C   UNL A   1      42.048  26.553  28.184  1.00  0.00     0.023 A 
ATOM     71  C   UNL A   1      42.475  25.208  28.187  1.00  0.00     0.031 A 
ATOM     72  C   UNL A   1      41.960  27.143  26.908  1.00  0.00     0.131 A 
ATOM     73  C   UNL A   1      42.824  24.533  27.004  1.00  0.00     0.055 A 
ATOM     74  C   UNL A   1      42.316  26.476  25.726  1.00  0.00     0.041 A 
ATOM     75  F   UNL A   1      41.502  28.381  26.713  1.00  0.00    -0.206 F 
ATOM     76  C   UNL A   1      42.753  25.164  25.768  1.00  0.00     0.022 A 
BRANCH  73  77
ATOM     77  S   UNL A   1      43.375  22.811  27.110  1.00  0.00     0.124 S 
ATOM     78  O   UNL A   1      42.828  22.237  25.886  1.00  0.00    -0.237 OA
ATOM     79  O   UNL A   1      44.826  22.950  27.168  1.00  0.00    -0.237 OA
ATOM     80  O   UNL A   1      42.754  22.333  28.345  1.00  0.00    -0.744 OA
ENDBRANCH  73  77
ENDBRANCH  56  70
BRANCH  57  81
ATOM     81  C   UNL A   1      40.627  32.132  36.231  1.00  0.00     0.023 A 
ATOM     82  C   UNL A   1      40.815  33.473  36.668  1.00  0.00     0.031 A 
ATOM     83  C   UNL A   1      39.310  31.705  36.001  1.00  0.00     0.131 A 
ATOM     84  C   UNL A   1      39.740  34.380  36.676  1.00  0.00     0.055 A 
ATOM     85  C   UNL A   1      38.235  32.607  36.054  1.00  0.00     0.041 A 
ATOM     86  F   UNL A   1      39.063  30.463  35.563  1.00  0.00    -0.206 F 
ATOM     87  C   UNL A   1      38.453  33.957  36.337  1.00  0.00     0.022 A 
BRANCH  84  88
ATOM     88  S   UNL A   1      40.084  36.173  36.809  1.00  0.00     0.124 S 
ATOM     89  O   UNL A   1      39.652  36.667  35.508  1.00  0.00    -0.237 OA
ATOM     90  O   UNL A   1      39.270  36.586  37.951  1.00  0.00    -0.237 OA
ATOM     91  O   UNL A   1      41.524  36.219  37.060  1.00  0.00    -0.744 OA
ENDBRANCH  84  88
ENDBRANCH  57  81
BRANCH  69  92
ATOM     92  C   UNL A   1      43.944  25.846  34.454  1.00  0.00     0.023 A 
ATOM     93  C   UNL A   1      45.278  25.458  34.593  1.00  0.00     0.031 A 
ATOM     94  C   UNL A   1      42.989  24.860  34.807  1.00  0.00     0.131 A 
ATOM     95  C   UNL A   1      45.629  24.151  34.952  1.00  0.00     0.055 A 
ATOM     96  C   UNL A   1      43.338  23.586  35.264  1.00  0.00     0.041 A 
ATOM     97  F   UNL A   1      41.669  25.085  34.762  1.00  0.00    -0.206 F 
ATOM     98  C   UNL A   1      44.671  23.214  35.315  1.00  0.00     0.022 A 
BRANCH  95  99
ATOM     99  S   UNL A   1      47.377  23.711  34.842  1.00  0.00     0.124 S 
ATOM    100  O   UNL A   1      47.872  24.695  33.881  1.00  0.00    -0.237 OA
ATOM    101  O   UNL A   1      47.833  23.889  36.216  1.00  0.00    -0.237 OA
ATOM    102  O   UNL A   1      47.354  22.330  34.364  1.00  0.00    -0.744 OA
ENDBRANCH  95  99
ENDBRANCH  69  92
ENDBRANCH  43  44
ENDBRANCH  36  38
ENDBRANCH  35  36
ENDBRANCH  34  35
ENDBRANCH  33  34
ENDBRANCH  32  33
ENDBRANCH   1  32
TORSDOF 22
ENDMDL
