MODEL 1
REMARK VINA RESULT:     -12.8      0.000      0.000
REMARK SMILES Cc1ccc(S(=O)(=O)N2c3ccc(C(=O)OCCOCCOC(=O)c4ccc(-c5c6nc(c(-c7cc(S(=O)(=O)[O-])ccc7F)c7ccc([nH]7)c(-c7cc(S(=O)(=O)[O-])ccc7F)c7nc(c(-c8cc(S(=O)(=O)[O-])ccc8F)c8ccc5[nH]8)C=C7)C=C6)cc4)cc3C[C@H]2C)cc1
REMARK SMILES IDX 20 1 19 2 18 3 17 4 16 5 14 6 15 7 13 8 9 9 10 10 91 11
REMARK SMILES IDX 11 12 89 13 90 14 92 15 12 16 88 17 6 18 7 19 8 20 5 21 1 22
REMARK SMILES IDX 2 23 3 24 94 25 4 26 93 27 21 28 22 29 23 30 24 31 25 32
REMARK SMILES IDX 26 33 87 34 27 35 86 36 28 37 29 38 30 39 80 40 31 41 85 42
REMARK SMILES IDX 79 43 81 44 32 45 84 46 78 47 77 48 33 50 65 51 45 52 64 53
REMARK SMILES IDX 46 54 49 55 63 56 82 57 47 58 48 59 62 61 83 62 50 63 34 64
REMARK SMILES IDX 35 65 43 66 36 67 42 68 44 69 41 70 37 71 38 72 39 73 40 74
REMARK SMILES IDX 66 75 67 76 75 77 68 78 74 79 76 80 73 81 69 82 70 83 71 84
REMARK SMILES IDX 72 85 51 86 52 87 60 88 53 89 59 90 61 91 58 92 54 93 55 94
REMARK SMILES IDX 56 95 57 96
REMARK H PARENT 81 49 49 60
REMARK Flexibility Score: inf
ROOT
ATOM      1  C   UNL A   1      33.188  30.033  26.885  1.00  0.00     0.202 C 
ENDROOT
BRANCH   1   2
ATOM      2  O   UNL A   1      32.760  30.029  25.544  1.00  0.00    -0.374 OA
BRANCH   2   3
ATOM      3  C   UNL A   1      31.353  30.181  25.387  1.00  0.00     0.202 C 
BRANCH   3   4
ATOM      4  C   UNL A   1      31.017  29.336  24.217  1.00  0.00     0.261 C 
BRANCH   4   5
ATOM      5  O   UNL A   1      31.563  28.035  24.353  1.00  0.00    -0.460 OA
BRANCH   5   6
ATOM      6  C   UNL A   1      32.398  27.552  23.397  1.00  0.00     0.338 C 
ATOM      7  O   UNL A   1      33.119  28.137  22.634  1.00  0.00    -0.246 OA
BRANCH   6   8
ATOM      8  C   UNL A   1      32.410  26.107  23.681  1.00  0.00     0.060 A 
ATOM      9  N   UNL A   1      31.260  22.365  25.028  1.00  0.00    -0.263 N 
ATOM     10  C   UNL A   1      31.620  23.622  24.430  1.00  0.00     0.055 A 
ATOM     11  C   UNL A   1      31.330  22.656  26.516  1.00  0.00     0.101 C 
ATOM     12  C   UNL A   1      31.488  23.946  23.099  1.00  0.00     0.028 A 
ATOM     13  C   UNL A   1      32.196  24.486  25.365  1.00  0.00    -0.021 A 
ATOM     14  C   UNL A   1      32.266  23.861  26.709  1.00  0.00     0.063 C 
ATOM     15  C   UNL A   1      29.898  23.000  26.972  1.00  0.00     0.032 C 
ATOM     16  C   UNL A   1      31.928  25.194  22.714  1.00  0.00     0.018 A 
ATOM     17  C   UNL A   1      32.622  25.742  25.006  1.00  0.00     0.021 A 
BRANCH   9  18
ATOM     18  S   UNL A   1      32.287  21.154  24.371  1.00  0.00     0.264 S 
ATOM     19  O   UNL A   1      32.159  21.191  22.928  1.00  0.00    -0.201 OA
ATOM     20  O   UNL A   1      32.086  19.923  25.113  1.00  0.00    -0.201 OA
BRANCH  18  21
ATOM     21  C   UNL A   1      33.967  21.590  24.704  1.00  0.00     0.088 A 
ATOM     22  C   UNL A   1      37.718  23.446  25.562  1.00  0.00     0.044 C 
ATOM     23  C   UNL A   1      36.438  22.744  25.237  1.00  0.00    -0.051 A 
ATOM     24  C   UNL A   1      35.816  22.972  24.005  1.00  0.00     0.005 A 
ATOM     25  C   UNL A   1      35.862  21.854  26.150  1.00  0.00     0.005 A 
ATOM     26  C   UNL A   1      34.577  22.405  23.743  1.00  0.00     0.022 A 
ATOM     27  C   UNL A   1      34.640  21.248  25.869  1.00  0.00     0.022 A 
ENDBRANCH  18  21
ENDBRANCH   9  18
ENDBRANCH   6   8
ENDBRANCH   5   6
ENDBRANCH   4   5
ENDBRANCH   3   4
ENDBRANCH   2   3
ENDBRANCH   1   2
BRANCH   1  28
ATOM     28  C   UNL A   1      33.258  31.449  27.476  1.00  0.00     0.261 C 
BRANCH  28  29
ATOM     29  O   UNL A   1      34.637  31.793  27.747  1.00  0.00    -0.460 OA
BRANCH  29  30
ATOM     30  C   UNL A   1      35.091  31.555  29.013  1.00  0.00     0.338 C 
ATOM     31  O   UNL A   1      34.856  32.251  29.987  1.00  0.00    -0.246 OA
BRANCH  30  32
ATOM     32  C   UNL A   1      36.060  30.414  29.003  1.00  0.00     0.060 A 
ATOM     33  C   UNL A   1      36.341  29.692  30.183  1.00  0.00     0.016 A 
ATOM     34  C   UNL A   1      36.893  30.273  27.897  1.00  0.00     0.016 A 
ATOM     35  C   UNL A   1      37.538  28.957  30.306  1.00  0.00     0.010 A 
ATOM     36  C   UNL A   1      38.104  29.632  28.058  1.00  0.00     0.010 A 
ATOM     37  C   UNL A   1      38.462  28.994  29.264  1.00  0.00    -0.014 A 
BRANCH  37  38
ATOM     38  C   UNL A   1      39.879  28.588  29.321  1.00  0.00     0.031 A 
ATOM     39  C   UNL A   1      40.219  27.214  28.889  1.00  0.00     0.074 A 
ATOM     40  C   UNL A   1      40.875  29.506  29.421  1.00  0.00     0.049 A 
ATOM     41  N   UNL A   1      41.380  26.681  29.011  1.00  0.00    -0.248 NA
ATOM     42  C   UNL A   1      39.257  26.309  28.263  1.00  0.00     0.031 C 
ATOM     43  C   UNL A   1      42.264  29.424  28.953  1.00  0.00     0.029 A 
ATOM     44  N   UNL A   1      40.829  30.769  30.001  1.00  0.00    -0.354 N 
ATOM     45  C   UNL A   1      41.423  25.569  28.205  1.00  0.00     0.074 A 
ATOM     46  C   UNL A   1      40.060  25.356  27.790  1.00  0.00     0.031 C 
ATOM     47  C   UNL A   1      42.983  30.441  29.466  1.00  0.00     0.029 A 
ATOM     48  C   UNL A   1      42.116  31.176  30.370  1.00  0.00     0.049 A 
ATOM     49  H   UNL A   1      40.009  31.300  30.132  1.00  0.00     0.167 HD
ATOM     50  C   UNL A   1      42.638  25.040  27.887  1.00  0.00     0.034 A 
ATOM     51  C   UNL A   1      42.330  31.543  31.660  1.00  0.00     0.034 A 
ATOM     52  C   UNL A   1      43.715  25.795  28.551  1.00  0.00     0.049 A 
ATOM     53  C   UNL A   1      43.117  30.406  32.269  1.00  0.00     0.074 A 
ATOM     54  C   UNL A   1      44.621  26.745  28.110  1.00  0.00     0.029 A 
ATOM     55  N   UNL A   1      43.708  25.895  29.947  1.00  0.00    -0.354 N 
ATOM     56  N   UNL A   1      43.191  29.224  31.707  1.00  0.00    -0.248 NA
ATOM     57  C   UNL A   1      44.000  30.527  33.421  1.00  0.00     0.031 C 
ATOM     58  C   UNL A   1      45.054  27.497  29.248  1.00  0.00     0.029 A 
ATOM     59  C   UNL A   1      44.445  26.983  30.385  1.00  0.00     0.049 A 
ATOM     60  H   UNL A   1      43.236  25.269  30.544  1.00  0.00     0.167 HD
ATOM     61  C   UNL A   1      44.178  28.495  32.283  1.00  0.00     0.074 A 
ATOM     62  C   UNL A   1      44.622  29.334  33.392  1.00  0.00     0.031 C 
ATOM     63  C   UNL A   1      44.576  27.274  31.813  1.00  0.00     0.034 A 
BRANCH  50  64
ATOM     64  C   UNL A   1      42.842  24.026  26.780  1.00  0.00     0.023 A 
ATOM     65  C   UNL A   1      42.380  22.705  26.948  1.00  0.00     0.031 A 
ATOM     66  C   UNL A   1      43.486  24.279  25.549  1.00  0.00     0.131 A 
ATOM     67  C   UNL A   1      42.632  21.708  25.982  1.00  0.00     0.055 A 
ATOM     68  C   UNL A   1      43.806  23.275  24.625  1.00  0.00     0.041 A 
ATOM     69  F   UNL A   1      43.768  25.523  25.140  1.00  0.00    -0.206 F 
ATOM     70  C   UNL A   1      43.381  21.976  24.841  1.00  0.00     0.022 A 
BRANCH  67  71
ATOM     71  S   UNL A   1      41.909  20.060  26.203  1.00  0.00     0.124 S 
ATOM     72  O   UNL A   1      42.323  19.718  27.559  1.00  0.00    -0.237 OA
ATOM     73  O   UNL A   1      40.486  20.317  26.005  1.00  0.00    -0.237 OA
ATOM     74  O   UNL A   1      42.540  19.268  25.146  1.00  0.00    -0.744 OA
ENDBRANCH  67  71
ENDBRANCH  50  64
BRANCH  51  75
ATOM     75  C   UNL A   1      41.156  32.347  32.166  1.00  0.00     0.023 A 
ATOM     76  C   UNL A   1      40.216  31.646  32.983  1.00  0.00     0.031 A 
ATOM     77  C   UNL A   1      41.219  33.740  32.331  1.00  0.00     0.131 A 
ATOM     78  C   UNL A   1      39.498  32.306  34.003  1.00  0.00     0.055 A 
ATOM     79  C   UNL A   1      40.482  34.396  33.336  1.00  0.00     0.041 A 
ATOM     80  F   UNL A   1      42.109  34.468  31.641  1.00  0.00    -0.206 F 
ATOM     81  C   UNL A   1      39.649  33.680  34.197  1.00  0.00     0.022 A 
BRANCH  78  82
ATOM     82  S   UNL A   1      38.657  31.325  35.308  1.00  0.00     0.124 S 
ATOM     83  O   UNL A   1      37.413  32.059  35.498  1.00  0.00    -0.237 OA
ATOM     84  O   UNL A   1      38.530  30.006  34.700  1.00  0.00    -0.237 OA
ATOM     85  O   UNL A   1      39.599  31.379  36.427  1.00  0.00    -0.744 OA
ENDBRANCH  78  82
ENDBRANCH  51  75
BRANCH  63  86
ATOM     86  C   UNL A   1      45.219  26.274  32.722  1.00  0.00     0.023 A 
ATOM     87  C   UNL A   1      44.442  25.369  33.453  1.00  0.00     0.031 A 
ATOM     88  C   UNL A   1      46.616  26.107  32.805  1.00  0.00     0.131 A 
ATOM     89  C   UNL A   1      45.027  24.477  34.350  1.00  0.00     0.055 A 
ATOM     90  C   UNL A   1      47.202  25.117  33.594  1.00  0.00     0.041 A 
ATOM     91  F   UNL A   1      47.465  26.884  32.118  1.00  0.00    -0.206 F 
ATOM     92  C   UNL A   1      46.406  24.316  34.404  1.00  0.00     0.022 A 
BRANCH  89  93
ATOM     93  S   UNL A   1      43.927  23.669  35.531  1.00  0.00     0.124 S 
ATOM     94  O   UNL A   1      43.691  24.742  36.494  1.00  0.00    -0.237 OA
ATOM     95  O   UNL A   1      42.783  23.301  34.703  1.00  0.00    -0.237 OA
ATOM     96  O   UNL A   1      44.724  22.552  36.029  1.00  0.00    -0.744 OA
ENDBRANCH  89  93
ENDBRANCH  63  86
ENDBRANCH  37  38
ENDBRANCH  30  32
ENDBRANCH  29  30
ENDBRANCH  28  29
ENDBRANCH   1  28
TORSDOF 19
ENDMDL
MODEL 2
REMARK VINA RESULT:     -12.2      2.988      5.083
REMARK SMILES Cc1ccc(S(=O)(=O)N2c3ccc(C(=O)OCCOCCOC(=O)c4ccc(-c5c6nc(c(-c7cc(S(=O)(=O)[O-])ccc7F)c7ccc([nH]7)c(-c7cc(S(=O)(=O)[O-])ccc7F)c7nc(c(-c8cc(S(=O)(=O)[O-])ccc8F)c8ccc5[nH]8)C=C7)C=C6)cc4)cc3C[C@H]2C)cc1
REMARK SMILES IDX 20 1 19 2 18 3 17 4 16 5 14 6 15 7 13 8 9 9 10 10 91 11
REMARK SMILES IDX 11 12 89 13 90 14 92 15 12 16 88 17 6 18 7 19 8 20 5 21 1 22
REMARK SMILES IDX 2 23 3 24 94 25 4 26 93 27 21 28 22 29 23 30 24 31 25 32
REMARK SMILES IDX 26 33 87 34 27 35 86 36 28 37 29 38 30 39 80 40 31 41 85 42
REMARK SMILES IDX 79 43 81 44 32 45 84 46 78 47 77 48 33 50 65 51 45 52 64 53
REMARK SMILES IDX 46 54 49 55 63 56 82 57 47 58 48 59 62 61 83 62 50 63 34 64
REMARK SMILES IDX 35 65 43 66 36 67 42 68 44 69 41 70 37 71 38 72 39 73 40 74
REMARK SMILES IDX 66 75 67 76 75 77 68 78 74 79 76 80 73 81 69 82 70 83 71 84
REMARK SMILES IDX 72 85 51 86 52 87 60 88 53 89 59 90 61 91 58 92 54 93 55 94
REMARK SMILES IDX 56 95 57 96
REMARK H PARENT 81 49 49 60
REMARK Flexibility Score: inf
ROOT
ATOM      1  C   UNL A   1      33.098  35.631  29.622  1.00  0.00     0.202 C 
ENDROOT
BRANCH   1   2
ATOM      2  O   UNL A   1      32.554  34.528  28.937  1.00  0.00    -0.374 OA
BRANCH   2   3
ATOM      3  C   UNL A   1      33.422  33.976  27.951  1.00  0.00     0.202 C 
BRANCH   3   4
ATOM      4  C   UNL A   1      33.878  32.693  28.535  1.00  0.00     0.261 C 
BRANCH   4   5
ATOM      5  O   UNL A   1      33.646  31.615  27.644  1.00  0.00    -0.460 OA
BRANCH   5   6
ATOM      6  C   UNL A   1      34.483  30.546  27.648  1.00  0.00     0.338 C 
ATOM      7  O   UNL A   1      35.354  30.249  28.421  1.00  0.00    -0.246 OA
BRANCH   6   8
ATOM      8  C   UNL A   1      33.905  29.681  26.605  1.00  0.00     0.060 A 
ATOM      9  N   UNL A   1      31.732  26.678  24.762  1.00  0.00    -0.263 N 
ATOM     10  C   UNL A   1      32.383  27.810  25.361  1.00  0.00     0.055 A 
ATOM     11  C   UNL A   1      32.520  25.498  25.301  1.00  0.00     0.101 C 
ATOM     12  C   UNL A   1      31.908  29.101  25.366  1.00  0.00     0.028 A 
ATOM     13  C   UNL A   1      33.623  27.459  25.902  1.00  0.00    -0.021 A 
ATOM     14  C   UNL A   1      33.910  26.016  25.708  1.00  0.00     0.063 C 
ATOM     15  C   UNL A   1      31.753  24.974  26.531  1.00  0.00     0.032 C 
ATOM     16  C   UNL A   1      32.702  30.057  25.963  1.00  0.00     0.018 A 
ATOM     17  C   UNL A   1      34.420  28.392  26.520  1.00  0.00     0.021 A 
BRANCH   9  18
ATOM     18  S   UNL A   1      31.684  26.934  23.063  1.00  0.00     0.264 S 
ATOM     19  O   UNL A   1      31.228  25.709  22.437  1.00  0.00    -0.201 OA
ATOM     20  O   UNL A   1      32.922  27.572  22.655  1.00  0.00    -0.201 OA
BRANCH  18  21
ATOM     21  C   UNL A   1      30.439  28.135  22.703  1.00  0.00     0.088 A 
ATOM     22  C   UNL A   1      27.422  31.160  22.687  1.00  0.00     0.044 C 
ATOM     23  C   UNL A   1      28.457  30.081  22.633  1.00  0.00    -0.051 A 
ATOM     24  C   UNL A   1      28.174  28.822  23.171  1.00  0.00     0.005 A 
ATOM     25  C   UNL A   1      29.702  30.319  22.041  1.00  0.00     0.005 A 
ATOM     26  C   UNL A   1      29.168  27.853  23.216  1.00  0.00     0.022 A 
ATOM     27  C   UNL A   1      30.684  29.332  22.044  1.00  0.00     0.022 A 
ENDBRANCH  18  21
ENDBRANCH   9  18
ENDBRANCH   6   8
ENDBRANCH   5   6
ENDBRANCH   4   5
ENDBRANCH   3   4
ENDBRANCH   2   3
ENDBRANCH   1   2
BRANCH   1  28
ATOM     28  C   UNL A   1      33.059  35.453  31.147  1.00  0.00     0.261 C 
BRANCH  28  29
ATOM     29  O   UNL A   1      34.315  35.891  31.717  1.00  0.00    -0.460 OA
BRANCH  29  30
ATOM     30  C   UNL A   1      34.771  35.199  32.803  1.00  0.00     0.338 C 
ATOM     31  O   UNL A   1      34.724  35.590  33.957  1.00  0.00    -0.246 OA
BRANCH  30  32
ATOM     32  C   UNL A   1      35.492  33.966  32.356  1.00  0.00     0.060 A 
ATOM     33  C   UNL A   1      35.400  32.766  33.095  1.00  0.00     0.016 A 
ATOM     34  C   UNL A   1      36.481  34.101  31.386  1.00  0.00     0.016 A 
ATOM     35  C   UNL A   1      36.393  31.771  32.972  1.00  0.00     0.010 A 
ATOM     36  C   UNL A   1      37.497  33.169  31.341  1.00  0.00     0.010 A 
ATOM     37  C   UNL A   1      37.490  32.011  32.148  1.00  0.00    -0.014 A 
BRANCH  37  38
ATOM     38  C   UNL A   1      38.768  31.274  32.137  1.00  0.00     0.031 A 
ATOM     39  C   UNL A   1      38.862  30.073  31.278  1.00  0.00     0.074 A 
ATOM     40  C   UNL A   1      39.915  31.838  32.599  1.00  0.00     0.049 A 
ATOM     41  N   UNL A   1      39.857  29.262  31.271  1.00  0.00    -0.248 NA
ATOM     42  C   UNL A   1      37.822  29.681  30.331  1.00  0.00     0.031 C 
ATOM     43  C   UNL A   1      41.303  31.574  32.205  1.00  0.00     0.029 A 
ATOM     44  N   UNL A   1      40.061  32.819  33.573  1.00  0.00    -0.354 N 
ATOM     45  C   UNL A   1      39.769  28.492  30.136  1.00  0.00     0.074 A 
ATOM     46  C   UNL A   1      38.459  28.765  29.602  1.00  0.00     0.031 C 
ATOM     47  C   UNL A   1      42.148  32.164  33.073  1.00  0.00     0.029 A 
ATOM     48  C   UNL A   1      41.345  32.758  34.127  1.00  0.00     0.049 A 
ATOM     49  H   UNL A   1      39.364  33.463  33.835  1.00  0.00     0.167 HD
ATOM     50  C   UNL A   1      40.875  27.814  29.721  1.00  0.00     0.034 A 
ATOM     51  C   UNL A   1      41.460  32.627  35.474  1.00  0.00     0.034 A 
ATOM     52  C   UNL A   1      41.990  28.027  30.660  1.00  0.00     0.049 A 
ATOM     53  C   UNL A   1      41.900  31.199  35.696  1.00  0.00     0.074 A 
ATOM     54  C   UNL A   1      43.128  28.816  30.620  1.00  0.00     0.029 A 
ATOM     55  N   UNL A   1      41.820  27.672  32.002  1.00  0.00    -0.354 N 
ATOM     56  N   UNL A   1      41.794  30.280  34.768  1.00  0.00    -0.248 NA
ATOM     57  C   UNL A   1      42.627  30.724  36.865  1.00  0.00     0.031 C 
ATOM     58  C   UNL A   1      43.556  29.033  31.968  1.00  0.00     0.029 A 
ATOM     59  C   UNL A   1      42.706  28.347  32.826  1.00  0.00     0.049 A 
ATOM     60  H   UNL A   1      41.151  27.024  32.323  1.00  0.00     0.167 HD
ATOM     61  C   UNL A   1      42.518  29.186  35.110  1.00  0.00     0.074 A 
ATOM     62  C   UNL A   1      42.980  29.489  36.462  1.00  0.00     0.031 C 
ATOM     63  C   UNL A   1      42.707  28.123  34.272  1.00  0.00     0.034 A 
BRANCH  50  64
ATOM     64  C   UNL A   1      41.003  27.190  28.345  1.00  0.00     0.023 A 
ATOM     65  C   UNL A   1      41.137  25.794  28.221  1.00  0.00     0.031 A 
ATOM     66  C   UNL A   1      41.013  27.901  27.125  1.00  0.00     0.131 A 
ATOM     67  C   UNL A   1      41.352  25.183  26.967  1.00  0.00     0.055 A 
ATOM     68  C   UNL A   1      41.305  27.308  25.889  1.00  0.00     0.041 A 
ATOM     69  F   UNL A   1      40.664  29.192  27.055  1.00  0.00    -0.206 F 
ATOM     70  C   UNL A   1      41.480  25.938  25.805  1.00  0.00     0.022 A 
BRANCH  67  71
ATOM     71  S   UNL A   1      41.396  23.373  26.860  1.00  0.00     0.124 S 
ATOM     72  O   UNL A   1      42.202  23.153  25.664  1.00  0.00    -0.237 OA
ATOM     73  O   UNL A   1      42.009  23.003  28.132  1.00  0.00    -0.237 OA
ATOM     74  O   UNL A   1      39.985  23.006  26.731  1.00  0.00    -0.744 OA
ENDBRANCH  67  71
ENDBRANCH  50  64
BRANCH  51  75
ATOM     75  C   UNL A   1      40.427  33.488  36.163  1.00  0.00     0.023 A 
ATOM     76  C   UNL A   1      39.264  32.813  36.647  1.00  0.00     0.031 A 
ATOM     77  C   UNL A   1      40.761  34.699  36.791  1.00  0.00     0.131 A 
ATOM     78  C   UNL A   1      38.578  33.269  37.793  1.00  0.00     0.055 A 
ATOM     79  C   UNL A   1      40.057  35.160  37.920  1.00  0.00     0.041 A 
ATOM     80  F   UNL A   1      41.865  35.370  36.432  1.00  0.00    -0.206 F 
ATOM     81  C   UNL A   1      38.989  34.431  38.446  1.00  0.00     0.022 A 
BRANCH  78  82
ATOM     82  S   UNL A   1      37.390  32.159  38.646  1.00  0.00     0.124 S 
ATOM     83  O   UNL A   1      36.150  32.921  38.583  1.00  0.00    -0.237 OA
ATOM     84  O   UNL A   1      37.432  30.946  37.838  1.00  0.00    -0.237 OA
ATOM     85  O   UNL A   1      37.971  32.008  39.980  1.00  0.00    -0.744 OA
ENDBRANCH  78  82
ENDBRANCH  51  75
BRANCH  63  86
ATOM     86  C   UNL A   1      42.996  26.758  34.815  1.00  0.00     0.023 A 
ATOM     87  C   UNL A   1      44.134  26.054  34.409  1.00  0.00     0.031 A 
ATOM     88  C   UNL A   1      42.222  26.164  35.832  1.00  0.00     0.131 A 
ATOM     89  C   UNL A   1      44.378  24.758  34.861  1.00  0.00     0.055 A 
ATOM     90  C   UNL A   1      42.548  24.927  36.389  1.00  0.00     0.041 A 
ATOM     91  F   UNL A   1      41.132  26.761  36.335  1.00  0.00    -0.206 F 
ATOM     92  C   UNL A   1      43.614  24.197  35.876  1.00  0.00     0.022 A 
BRANCH  89  93
ATOM     93  S   UNL A   1      45.617  23.802  33.963  1.00  0.00     0.124 S 
ATOM     94  O   UNL A   1      46.426  24.860  33.362  1.00  0.00    -0.237 OA
ATOM     95  O   UNL A   1      46.265  23.039  35.025  1.00  0.00    -0.237 OA
ATOM     96  O   UNL A   1      44.825  23.015  33.022  1.00  0.00    -0.744 OA
ENDBRANCH  89  93
ENDBRANCH  63  86
ENDBRANCH  37  38
ENDBRANCH  30  32
ENDBRANCH  29  30
ENDBRANCH  28  29
ENDBRANCH   1  28
TORSDOF 19
ENDMDL
MODEL 3
REMARK VINA RESULT:     -12.2      3.036      4.710
REMARK SMILES Cc1ccc(S(=O)(=O)N2c3ccc(C(=O)OCCOCCOC(=O)c4ccc(-c5c6nc(c(-c7cc(S(=O)(=O)[O-])ccc7F)c7ccc([nH]7)c(-c7cc(S(=O)(=O)[O-])ccc7F)c7nc(c(-c8cc(S(=O)(=O)[O-])ccc8F)c8ccc5[nH]8)C=C7)C=C6)cc4)cc3C[C@H]2C)cc1
REMARK SMILES IDX 20 1 19 2 18 3 17 4 16 5 14 6 15 7 13 8 9 9 10 10 91 11
REMARK SMILES IDX 11 12 89 13 90 14 92 15 12 16 88 17 6 18 7 19 8 20 5 21 1 22
REMARK SMILES IDX 2 23 3 24 94 25 4 26 93 27 21 28 22 29 23 30 24 31 25 32
REMARK SMILES IDX 26 33 87 34 27 35 86 36 28 37 29 38 30 39 80 40 31 41 85 42
REMARK SMILES IDX 79 43 81 44 32 45 84 46 78 47 77 48 33 50 65 51 45 52 64 53
REMARK SMILES IDX 46 54 49 55 63 56 82 57 47 58 48 59 62 61 83 62 50 63 34 64
REMARK SMILES IDX 35 65 43 66 36 67 42 68 44 69 41 70 37 71 38 72 39 73 40 74
REMARK SMILES IDX 66 75 67 76 75 77 68 78 74 79 76 80 73 81 69 82 70 83 71 84
REMARK SMILES IDX 72 85 51 86 52 87 60 88 53 89 59 90 61 91 58 92 54 93 55 94
REMARK SMILES IDX 56 95 57 96
REMARK H PARENT 81 49 49 60
REMARK Flexibility Score: inf
ROOT
ATOM      1  C   UNL A   1      32.904  36.114  29.710  1.00  0.00     0.202 C 
ENDROOT
BRANCH   1   2
ATOM      2  O   UNL A   1      32.610  34.820  29.239  1.00  0.00    -0.374 OA
BRANCH   2   3
ATOM      3  C   UNL A   1      33.384  34.426  28.110  1.00  0.00     0.202 C 
BRANCH   3   4
ATOM      4  C   UNL A   1      34.131  33.232  28.571  1.00  0.00     0.261 C 
BRANCH   4   5
ATOM      5  O   UNL A   1      33.653  32.056  27.941  1.00  0.00    -0.460 OA
BRANCH   5   6
ATOM      6  C   UNL A   1      34.524  31.069  27.609  1.00  0.00     0.338 C 
ATOM      7  O   UNL A   1      35.703  30.974  27.823  1.00  0.00    -0.246 OA
BRANCH   6   8
ATOM      8  C   UNL A   1      33.631  29.999  27.132  1.00  0.00     0.060 A 
ATOM      9  N   UNL A   1      31.727  27.302  24.634  1.00  0.00    -0.263 N 
ATOM     10  C   UNL A   1      32.468  28.129  25.547  1.00  0.00     0.055 A 
ATOM     11  C   UNL A   1      30.967  28.309  23.792  1.00  0.00     0.101 C 
ATOM     12  C   UNL A   1      33.484  27.705  26.372  1.00  0.00     0.028 A 
ATOM     13  C   UNL A   1      31.986  29.441  25.553  1.00  0.00    -0.021 A 
ATOM     14  C   UNL A   1      30.852  29.606  24.611  1.00  0.00     0.063 C 
ATOM     15  C   UNL A   1      31.799  28.543  22.515  1.00  0.00     0.032 C 
ATOM     16  C   UNL A   1      34.046  28.649  27.206  1.00  0.00     0.018 A 
ATOM     17  C   UNL A   1      32.546  30.401  26.361  1.00  0.00     0.021 A 
BRANCH   9  18
ATOM     18  S   UNL A   1      30.840  26.158  25.559  1.00  0.00     0.264 S 
ATOM     19  O   UNL A   1      29.711  25.716  24.764  1.00  0.00    -0.201 OA
ATOM     20  O   UNL A   1      30.657  26.685  26.898  1.00  0.00    -0.201 OA
BRANCH  18  21
ATOM     21  C   UNL A   1      31.838  24.718  25.794  1.00  0.00     0.088 A 
ATOM     22  C   UNL A   1      34.882  21.807  26.509  1.00  0.00     0.044 C 
ATOM     23  C   UNL A   1      33.781  22.779  26.226  1.00  0.00    -0.051 A 
ATOM     24  C   UNL A   1      33.830  23.566  25.072  1.00  0.00     0.005 A 
ATOM     25  C   UNL A   1      32.697  22.902  27.103  1.00  0.00     0.005 A 
ATOM     26  C   UNL A   1      32.866  24.542  24.861  1.00  0.00     0.022 A 
ATOM     27  C   UNL A   1      31.705  23.850  26.869  1.00  0.00     0.022 A 
ENDBRANCH  18  21
ENDBRANCH   9  18
ENDBRANCH   6   8
ENDBRANCH   5   6
ENDBRANCH   4   5
ENDBRANCH   3   4
ENDBRANCH   2   3
ENDBRANCH   1   2
BRANCH   1  28
ATOM     28  C   UNL A   1      32.923  36.191  31.244  1.00  0.00     0.261 C 
BRANCH  28  29
ATOM     29  O   UNL A   1      34.292  36.210  31.711  1.00  0.00    -0.460 OA
BRANCH  29  30
ATOM     30  C   UNL A   1      34.568  35.484  32.834  1.00  0.00     0.338 C 
ATOM     31  O   UNL A   1      34.409  35.872  33.979  1.00  0.00    -0.246 OA
BRANCH  30  32
ATOM     32  C   UNL A   1      35.255  34.208  32.461  1.00  0.00     0.060 A 
ATOM     33  C   UNL A   1      35.207  33.084  33.315  1.00  0.00     0.016 A 
ATOM     34  C   UNL A   1      36.180  34.242  31.422  1.00  0.00     0.016 A 
ATOM     35  C   UNL A   1      36.187  32.072  33.224  1.00  0.00     0.010 A 
ATOM     36  C   UNL A   1      37.188  33.300  31.401  1.00  0.00     0.010 A 
ATOM     37  C   UNL A   1      37.229  32.224  32.312  1.00  0.00    -0.014 A 
BRANCH  37  38
ATOM     38  C   UNL A   1      38.502  31.478  32.290  1.00  0.00     0.031 A 
ATOM     39  C   UNL A   1      38.573  30.264  31.446  1.00  0.00     0.074 A 
ATOM     40  C   UNL A   1      39.660  32.039  32.725  1.00  0.00     0.049 A 
ATOM     41  N   UNL A   1      39.562  29.446  31.433  1.00  0.00    -0.248 NA
ATOM     42  C   UNL A   1      37.514  29.868  30.521  1.00  0.00     0.031 C 
ATOM     43  C   UNL A   1      41.040  31.759  32.311  1.00  0.00     0.029 A 
ATOM     44  N   UNL A   1      39.830  33.031  33.683  1.00  0.00    -0.354 N 
ATOM     45  C   UNL A   1      39.449  28.662  30.309  1.00  0.00     0.074 A 
ATOM     46  C   UNL A   1      38.133  28.937  29.794  1.00  0.00     0.031 C 
ATOM     47  C   UNL A   1      41.904  32.354  33.157  1.00  0.00     0.029 A 
ATOM     48  C   UNL A   1      41.123  32.968  34.216  1.00  0.00     0.049 A 
ATOM     49  H   UNL A   1      39.142  33.684  33.948  1.00  0.00     0.167 HD
ATOM     50  C   UNL A   1      40.543  27.970  29.885  1.00  0.00     0.034 A 
ATOM     51  C   UNL A   1      41.259  32.855  35.563  1.00  0.00     0.034 A 
ATOM     52  C   UNL A   1      41.675  28.188  30.802  1.00  0.00     0.049 A 
ATOM     53  C   UNL A   1      41.693  31.427  35.796  1.00  0.00     0.074 A 
ATOM     54  C   UNL A   1      42.818  28.968  30.732  1.00  0.00     0.029 A 
ATOM     55  N   UNL A   1      41.525  27.852  32.152  1.00  0.00    -0.354 N 
ATOM     56  N   UNL A   1      41.565  30.496  34.882  1.00  0.00    -0.248 NA
ATOM     57  C   UNL A   1      42.436  30.961  36.959  1.00  0.00     0.031 C 
ATOM     58  C   UNL A   1      43.270  29.199  32.070  1.00  0.00     0.029 A 
ATOM     59  C   UNL A   1      42.430  28.531  32.951  1.00  0.00     0.049 A 
ATOM     60  H   UNL A   1      40.857  27.213  32.492  1.00  0.00     0.167 HD
ATOM     61  C   UNL A   1      42.287  29.402  35.227  1.00  0.00     0.074 A 
ATOM     62  C   UNL A   1      42.773  29.719  36.566  1.00  0.00     0.031 C 
ATOM     63  C   UNL A   1      42.454  28.326  34.400  1.00  0.00     0.034 A 
BRANCH  50  64
ATOM     64  C   UNL A   1      40.643  27.328  28.516  1.00  0.00     0.023 A 
ATOM     65  C   UNL A   1      40.757  25.928  28.407  1.00  0.00     0.031 A 
ATOM     66  C   UNL A   1      40.646  28.023  27.286  1.00  0.00     0.131 A 
ATOM     67  C   UNL A   1      40.945  25.299  27.159  1.00  0.00     0.055 A 
ATOM     68  C   UNL A   1      40.912  27.410  26.054  1.00  0.00     0.041 A 
ATOM     69  F   UNL A   1      40.312  29.317  27.204  1.00  0.00    -0.206 F 
ATOM     70  C   UNL A   1      41.068  26.037  25.985  1.00  0.00     0.022 A 
BRANCH  67  71
ATOM     71  S   UNL A   1      40.965  23.487  27.074  1.00  0.00     0.124 S 
ATOM     72  O   UNL A   1      41.444  23.120  28.402  1.00  0.00    -0.237 OA
ATOM     73  O   UNL A   1      39.570  23.176  26.779  1.00  0.00    -0.237 OA
ATOM     74  O   UNL A   1      41.898  23.208  25.982  1.00  0.00    -0.744 OA
ENDBRANCH  67  71
ENDBRANCH  50  64
BRANCH  51  75
ATOM     75  C   UNL A   1      40.245  33.732  36.257  1.00  0.00     0.023 A 
ATOM     76  C   UNL A   1      39.254  33.057  37.035  1.00  0.00     0.031 A 
ATOM     77  C   UNL A   1      40.521  35.064  36.606  1.00  0.00     0.131 A 
ATOM     78  C   UNL A   1      38.694  33.655  38.185  1.00  0.00     0.055 A 
ATOM     79  C   UNL A   1      39.942  35.662  37.742  1.00  0.00     0.041 A 
ATOM     80  F   UNL A   1      41.473  35.753  35.961  1.00  0.00    -0.206 F 
ATOM     81  C   UNL A   1      39.056  34.951  38.554  1.00  0.00     0.022 A 
BRANCH  78  82
ATOM     82  S   UNL A   1      37.785  32.620  39.400  1.00  0.00     0.124 S 
ATOM     83  O   UNL A   1      38.866  31.946  40.106  1.00  0.00    -0.237 OA
ATOM     84  O   UNL A   1      37.035  33.602  40.174  1.00  0.00    -0.237 OA
ATOM     85  O   UNL A   1      36.953  31.765  38.554  1.00  0.00    -0.744 OA
ENDBRANCH  78  82
ENDBRANCH  51  75
BRANCH  63  86
ATOM     86  C   UNL A   1      42.742  26.966  34.956  1.00  0.00     0.023 A 
ATOM     87  C   UNL A   1      43.787  26.191  34.443  1.00  0.00     0.031 A 
ATOM     88  C   UNL A   1      42.072  26.446  36.082  1.00  0.00     0.131 A 
ATOM     89  C   UNL A   1      44.023  24.900  34.912  1.00  0.00     0.055 A 
ATOM     90  C   UNL A   1      42.404  25.213  36.642  1.00  0.00     0.041 A 
ATOM     91  F   UNL A   1      41.081  27.115  36.689  1.00  0.00    -0.206 F 
ATOM     92  C   UNL A   1      43.364  24.412  36.033  1.00  0.00     0.022 A 
BRANCH  89  93
ATOM     93  S   UNL A   1      45.097  23.852  33.908  1.00  0.00     0.124 S 
ATOM     94  O   UNL A   1      44.804  22.527  34.450  1.00  0.00    -0.237 OA
ATOM     95  O   UNL A   1      44.613  24.101  32.554  1.00  0.00    -0.237 OA
ATOM     96  O   UNL A   1      46.435  24.360  34.197  1.00  0.00    -0.744 OA
ENDBRANCH  89  93
ENDBRANCH  63  86
ENDBRANCH  37  38
ENDBRANCH  30  32
ENDBRANCH  29  30
ENDBRANCH  28  29
ENDBRANCH   1  28
TORSDOF 19
ENDMDL
