MODEL 1
REMARK VINA RESULT:     -10.6      0.000      0.000
REMARK SMILES CC[C@@H](C)[C@@H](C(=O)OCCOCCOC(=O)c1ccc(-c2c3nc(c(-c4cc(S(=O)(=O)[O-])ccc4F)c4ccc([nH]4)c(-c4cc(S(=O)(=O)[O-])ccc4F)c4nc(c(-c5cc(S(=O)(=O)[O-])ccc5F)c5ccc2[nH]5)C=C4)C=C3)cc1)S(=O)(=O)c1ccc(OC)cc1
REMARK SMILES IDX 11 1 10 2 9 3 8 4 6 5 7 6 5 7 3 8 4 9 2 10 1 11 80 12 81 13
REMARK SMILES IDX 82 14 83 15 84 16 90 17 85 18 89 19 86 20 87 21 88 22 12 23
REMARK SMILES IDX 13 24 14 25 15 26 16 27 17 28 18 29 79 30 19 31 78 32 20 33
REMARK SMILES IDX 21 34 22 35 72 36 23 37 77 38 71 39 73 40 24 41 76 42 70 43
REMARK SMILES IDX 69 44 25 46 57 47 37 48 56 49 38 50 41 51 55 52 74 53 39 54
REMARK SMILES IDX 40 55 54 57 75 58 42 59 26 60 27 61 35 62 28 63 34 64 36 65
REMARK SMILES IDX 33 66 29 67 30 68 31 69 32 70 58 71 59 72 67 73 60 74 66 75
REMARK SMILES IDX 68 76 65 77 61 78 62 79 63 80 64 81 43 82 44 83 52 84 45 85
REMARK SMILES IDX 51 86 53 87 50 88 46 89 47 90 48 91 49 92
REMARK H PARENT 73 45 41 56
REMARK Flexibility Score: inf
ROOT
ATOM      1  O   UNL A   1      34.737  21.013  26.160  1.00  0.00    -0.374 OA
ENDROOT
BRANCH   1   2
ATOM      2  C   UNL A   1      33.476  21.687  26.048  1.00  0.00     0.202 C 
BRANCH   2   3
ATOM      3  C   UNL A   1      33.251  22.878  26.994  1.00  0.00     0.261 C 
BRANCH   3   4
ATOM      4  O   UNL A   1      34.094  24.005  26.627  1.00  0.00    -0.462 OA
BRANCH   4   5
ATOM      5  C   UNL A   1      33.569  24.970  25.827  1.00  0.00     0.325 C 
ATOM      6  O   UNL A   1      34.182  26.002  25.598  1.00  0.00    -0.251 OA
BRANCH   5   7
ATOM      7  C   UNL A   1      32.166  24.630  25.316  1.00  0.00     0.225 C 
BRANCH   7   8
ATOM      8  C   UNL A   1      31.959  24.380  23.764  1.00  0.00     0.015 C 
ATOM      9  C   UNL A   1      30.742  23.468  23.505  1.00  0.00     0.009 C 
BRANCH   8  10
ATOM     10  C   UNL A   1      33.191  23.750  23.045  1.00  0.00     0.002 C 
ATOM     11  C   UNL A   1      33.164  23.769  21.516  1.00  0.00     0.004 C 
ENDBRANCH   8  10
ENDBRANCH   7   8
BRANCH   7  12
ATOM     12  S   UNL A   1      31.006  25.897  25.994  1.00  0.00     0.192 S 
ATOM     13  O   UNL A   1      29.773  25.217  26.361  1.00  0.00    -0.223 OA
ATOM     14  O   UNL A   1      31.623  26.718  27.017  1.00  0.00    -0.223 OA
BRANCH  12  15
ATOM     15  C   UNL A   1      30.579  27.014  24.658  1.00  0.00     0.068 A 
ATOM     16  C   UNL A   1      31.505  27.954  24.202  1.00  0.00     0.024 A 
ATOM     17  C   UNL A   1      29.343  26.914  24.024  1.00  0.00     0.024 A 
ATOM     18  C   UNL A   1      31.151  28.837  23.170  1.00  0.00     0.048 A 
ATOM     19  C   UNL A   1      28.971  27.837  23.035  1.00  0.00     0.048 A 
ATOM     20  C   UNL A   1      29.869  28.813  22.611  1.00  0.00     0.118 A 
BRANCH  20  21
ATOM     21  O   UNL A   1      29.632  29.750  21.645  1.00  0.00    -0.497 OA
ATOM     22  C   UNL A   1      28.292  30.221  21.519  1.00  0.00     0.278 C 
ENDBRANCH  20  21
ENDBRANCH  12  15
ENDBRANCH   7  12
ENDBRANCH   5   7
ENDBRANCH   4   5
ENDBRANCH   3   4
ENDBRANCH   2   3
ENDBRANCH   1   2
BRANCH   1  23
ATOM     23  C   UNL A   1      35.666  21.199  25.104  1.00  0.00     0.202 C 
BRANCH  23  24
ATOM     24  C   UNL A   1      37.026  20.495  25.186  1.00  0.00     0.261 C 
BRANCH  24  25
ATOM     25  O   UNL A   1      38.116  21.394  25.051  1.00  0.00    -0.460 OA
BRANCH  25  26
ATOM     26  C   UNL A   1      39.110  21.100  25.925  1.00  0.00     0.338 C 
ATOM     27  O   UNL A   1      39.631  20.016  26.109  1.00  0.00    -0.246 OA
BRANCH  26  28
ATOM     28  C   UNL A   1      39.623  22.355  26.479  1.00  0.00     0.060 A 
ATOM     29  C   UNL A   1      38.961  23.521  26.089  1.00  0.00     0.016 A 
ATOM     30  C   UNL A   1      40.734  22.395  27.329  1.00  0.00     0.016 A 
ATOM     31  C   UNL A   1      39.464  24.749  26.479  1.00  0.00     0.010 A 
ATOM     32  C   UNL A   1      41.234  23.634  27.728  1.00  0.00     0.010 A 
ATOM     33  C   UNL A   1      40.630  24.810  27.257  1.00  0.00    -0.014 A 
BRANCH  33  34
ATOM     34  C   UNL A   1      41.282  26.128  27.403  1.00  0.00     0.031 A 
ATOM     35  C   UNL A   1      40.605  27.174  28.244  1.00  0.00     0.074 A 
ATOM     36  C   UNL A   1      42.515  26.315  26.905  1.00  0.00     0.049 A 
ATOM     37  N   UNL A   1      41.051  28.337  28.634  1.00  0.00    -0.248 NA
ATOM     38  C   UNL A   1      39.246  26.861  28.712  1.00  0.00     0.031 C 
ATOM     39  C   UNL A   1      43.260  25.333  26.116  1.00  0.00     0.029 A 
ATOM     40  N   UNL A   1      43.373  27.375  27.021  1.00  0.00    -0.354 N 
ATOM     41  C   UNL A   1      40.033  28.892  29.403  1.00  0.00     0.074 A 
ATOM     42  C   UNL A   1      38.928  27.961  29.377  1.00  0.00     0.031 C 
ATOM     43  C   UNL A   1      44.477  25.829  25.840  1.00  0.00     0.029 A 
ATOM     44  C   UNL A   1      44.584  27.171  26.407  1.00  0.00     0.049 A 
ATOM     45  H   UNL A   1      43.144  28.205  27.499  1.00  0.00     0.167 HD
ATOM     46  C   UNL A   1      40.035  30.066  30.081  1.00  0.00     0.034 A 
ATOM     47  C   UNL A   1      45.657  27.981  26.317  1.00  0.00     0.034 A 
ATOM     48  C   UNL A   1      41.149  30.981  30.072  1.00  0.00     0.049 A 
ATOM     49  C   UNL A   1      45.607  29.310  27.026  1.00  0.00     0.074 A 
ATOM     50  C   UNL A   1      41.271  32.204  30.708  1.00  0.00     0.029 A 
ATOM     51  N   UNL A   1      42.340  30.776  29.379  1.00  0.00    -0.354 N 
ATOM     52  N   UNL A   1      44.643  29.822  27.759  1.00  0.00    -0.248 NA
ATOM     53  C   UNL A   1      46.797  30.159  26.914  1.00  0.00     0.031 C 
ATOM     54  C   UNL A   1      42.496  32.770  30.338  1.00  0.00     0.029 A 
ATOM     55  C   UNL A   1      43.183  31.863  29.546  1.00  0.00     0.049 A 
ATOM     56  H   UNL A   1      42.550  29.974  28.848  1.00  0.00     0.167 HD
ATOM     57  C   UNL A   1      45.126  31.045  28.221  1.00  0.00     0.074 A 
ATOM     58  C   UNL A   1      46.475  31.173  27.703  1.00  0.00     0.031 C 
ATOM     59  C   UNL A   1      44.517  31.976  29.001  1.00  0.00     0.034 A 
BRANCH  46  60
ATOM     60  C   UNL A   1      38.774  30.438  30.828  1.00  0.00     0.023 A 
ATOM     61  C   UNL A   1      37.699  31.092  30.198  1.00  0.00     0.031 A 
ATOM     62  C   UNL A   1      38.663  30.172  32.204  1.00  0.00     0.131 A 
ATOM     63  C   UNL A   1      36.596  31.518  30.956  1.00  0.00     0.055 A 
ATOM     64  C   UNL A   1      37.528  30.525  32.936  1.00  0.00     0.041 A 
ATOM     65  F   UNL A   1      39.668  29.579  32.868  1.00  0.00    -0.206 F 
ATOM     66  C   UNL A   1      36.492  31.215  32.315  1.00  0.00     0.022 A 
BRANCH  63  67
ATOM     67  S   UNL A   1      35.370  32.605  30.175  1.00  0.00     0.124 S 
ATOM     68  O   UNL A   1      34.319  32.641  31.188  1.00  0.00    -0.237 OA
ATOM     69  O   UNL A   1      36.120  33.841  29.985  1.00  0.00    -0.237 OA
ATOM     70  O   UNL A   1      35.017  31.894  28.946  1.00  0.00    -0.744 OA
ENDBRANCH  63  67
ENDBRANCH  46  60
BRANCH  47  71
ATOM     71  C   UNL A   1      46.847  27.570  25.518  1.00  0.00     0.023 A 
ATOM     72  C   UNL A   1      47.001  27.956  24.178  1.00  0.00     0.031 A 
ATOM     73  C   UNL A   1      47.835  26.740  26.081  1.00  0.00     0.131 A 
ATOM     74  C   UNL A   1      48.089  27.476  23.431  1.00  0.00     0.055 A 
ATOM     75  C   UNL A   1      48.945  26.312  25.352  1.00  0.00     0.041 A 
ATOM     76  F   UNL A   1      47.739  26.341  27.360  1.00  0.00    -0.206 F 
ATOM     77  C   UNL A   1      49.070  26.668  24.014  1.00  0.00     0.022 A 
BRANCH  74  78
ATOM     78  S   UNL A   1      48.160  27.846  21.657  1.00  0.00     0.124 S 
ATOM     79  O   UNL A   1      48.404  26.526  21.087  1.00  0.00    -0.237 OA
ATOM     80  O   UNL A   1      46.838  28.416  21.416  1.00  0.00    -0.237 OA
ATOM     81  O   UNL A   1      49.271  28.789  21.551  1.00  0.00    -0.744 OA
ENDBRANCH  74  78
ENDBRANCH  47  71
BRANCH  59  82
ATOM     82  C   UNL A   1      45.335  33.194  29.363  1.00  0.00     0.023 A 
ATOM     83  C   UNL A   1      45.321  34.356  28.570  1.00  0.00     0.031 A 
ATOM     84  C   UNL A   1      46.174  33.175  30.491  1.00  0.00     0.131 A 
ATOM     85  C   UNL A   1      46.194  35.413  28.865  1.00  0.00     0.055 A 
ATOM     86  C   UNL A   1      46.980  34.263  30.826  1.00  0.00     0.041 A 
ATOM     87  F   UNL A   1      46.229  32.094  31.285  1.00  0.00    -0.206 F 
ATOM     88  C   UNL A   1      47.010  35.382  29.999  1.00  0.00     0.022 A 
BRANCH  85  89
ATOM     89  S   UNL A   1      46.354  36.763  27.665  1.00  0.00     0.124 S 
ATOM     90  O   UNL A   1      46.608  36.037  26.425  1.00  0.00    -0.237 OA
ATOM     91  O   UNL A   1      45.055  37.422  27.764  1.00  0.00    -0.237 OA
ATOM     92  O   UNL A   1      47.483  37.539  28.172  1.00  0.00    -0.744 OA
ENDBRANCH  85  89
ENDBRANCH  59  82
ENDBRANCH  33  34
ENDBRANCH  26  28
ENDBRANCH  25  26
ENDBRANCH  24  25
ENDBRANCH  23  24
ENDBRANCH   1  23
TORSDOF 22
ENDMDL
MODEL 2
REMARK VINA RESULT:     -10.4      1.710      7.814
REMARK SMILES CC[C@@H](C)[C@@H](C(=O)OCCOCCOC(=O)c1ccc(-c2c3nc(c(-c4cc(S(=O)(=O)[O-])ccc4F)c4ccc([nH]4)c(-c4cc(S(=O)(=O)[O-])ccc4F)c4nc(c(-c5cc(S(=O)(=O)[O-])ccc5F)c5ccc2[nH]5)C=C4)C=C3)cc1)S(=O)(=O)c1ccc(OC)cc1
REMARK SMILES IDX 11 1 10 2 9 3 8 4 6 5 7 6 5 7 3 8 4 9 2 10 1 11 80 12 81 13
REMARK SMILES IDX 82 14 83 15 84 16 90 17 85 18 89 19 86 20 87 21 88 22 12 23
REMARK SMILES IDX 13 24 14 25 15 26 16 27 17 28 18 29 79 30 19 31 78 32 20 33
REMARK SMILES IDX 21 34 22 35 72 36 23 37 77 38 71 39 73 40 24 41 76 42 70 43
REMARK SMILES IDX 69 44 25 46 57 47 37 48 56 49 38 50 41 51 55 52 74 53 39 54
REMARK SMILES IDX 40 55 54 57 75 58 42 59 26 60 27 61 35 62 28 63 34 64 36 65
REMARK SMILES IDX 33 66 29 67 30 68 31 69 32 70 58 71 59 72 67 73 60 74 66 75
REMARK SMILES IDX 68 76 65 77 61 78 62 79 63 80 64 81 43 82 44 83 52 84 45 85
REMARK SMILES IDX 51 86 53 87 50 88 46 89 47 90 48 91 49 92
REMARK H PARENT 73 45 41 56
REMARK Flexibility Score: inf
ROOT
ATOM      1  O   UNL A   1      35.041  22.428  25.088  1.00  0.00    -0.374 OA
ENDROOT
BRANCH   1   2
ATOM      2  C   UNL A   1      33.651  22.075  25.059  1.00  0.00     0.202 C 
BRANCH   2   3
ATOM      3  C   UNL A   1      32.738  22.809  26.055  1.00  0.00     0.261 C 
BRANCH   3   4
ATOM      4  O   UNL A   1      33.104  24.212  26.167  1.00  0.00    -0.462 OA
BRANCH   4   5
ATOM      5  C   UNL A   1      32.172  25.149  25.850  1.00  0.00     0.325 C 
ATOM      6  O   UNL A   1      31.060  25.129  26.355  1.00  0.00    -0.251 OA
BRANCH   5   7
ATOM      7  C   UNL A   1      32.661  26.152  24.800  1.00  0.00     0.225 C 
BRANCH   7   8
ATOM      8  C   UNL A   1      32.704  27.691  25.177  1.00  0.00     0.015 C 
ATOM      9  C   UNL A   1      33.852  28.411  24.442  1.00  0.00     0.009 C 
BRANCH   8  10
ATOM     10  C   UNL A   1      32.858  27.975  26.702  1.00  0.00     0.002 C 
ATOM     11  C   UNL A   1      31.913  29.024  27.292  1.00  0.00     0.004 C 
ENDBRANCH   8  10
ENDBRANCH   7   8
BRANCH   7  12
ATOM     12  S   UNL A   1      31.724  25.825  23.243  1.00  0.00     0.192 S 
ATOM     13  O   UNL A   1      32.627  26.057  22.125  1.00  0.00    -0.223 OA
ATOM     14  O   UNL A   1      31.039  24.548  23.269  1.00  0.00    -0.223 OA
BRANCH  12  15
ATOM     15  C   UNL A   1      30.439  27.069  23.110  1.00  0.00     0.068 A 
ATOM     16  C   UNL A   1      29.182  26.849  23.677  1.00  0.00     0.024 A 
ATOM     17  C   UNL A   1      30.701  28.290  22.492  1.00  0.00     0.024 A 
ATOM     18  C   UNL A   1      28.179  27.821  23.548  1.00  0.00     0.048 A 
ATOM     19  C   UNL A   1      29.679  29.233  22.312  1.00  0.00     0.048 A 
ATOM     20  C   UNL A   1      28.407  28.998  22.828  1.00  0.00     0.118 A 
BRANCH  20  21
ATOM     21  O   UNL A   1      27.340  29.847  22.737  1.00  0.00    -0.497 OA
ATOM     22  C   UNL A   1      27.410  31.056  23.489  1.00  0.00     0.278 C 
ENDBRANCH  20  21
ENDBRANCH  12  15
ENDBRANCH   7  12
ENDBRANCH   5   7
ENDBRANCH   4   5
ENDBRANCH   3   4
ENDBRANCH   2   3
ENDBRANCH   1   2
BRANCH   1  23
ATOM     23  C   UNL A   1      35.942  21.561  24.417  1.00  0.00     0.202 C 
BRANCH  23  24
ATOM     24  C   UNL A   1      37.167  21.040  25.179  1.00  0.00     0.261 C 
BRANCH  24  25
ATOM     25  O   UNL A   1      38.210  22.000  25.257  1.00  0.00    -0.460 OA
BRANCH  25  26
ATOM     26  C   UNL A   1      39.230  21.559  26.034  1.00  0.00     0.338 C 
ATOM     27  O   UNL A   1      39.773  20.472  25.988  1.00  0.00    -0.246 OA
BRANCH  26  28
ATOM     28  C   UNL A   1      39.736  22.689  26.817  1.00  0.00     0.060 A 
ATOM     29  C   UNL A   1      39.051  23.897  26.674  1.00  0.00     0.016 A 
ATOM     30  C   UNL A   1      40.861  22.579  27.642  1.00  0.00     0.016 A 
ATOM     31  C   UNL A   1      39.544  25.033  27.291  1.00  0.00     0.010 A 
ATOM     32  C   UNL A   1      41.351  23.724  28.269  1.00  0.00     0.010 A 
ATOM     33  C   UNL A   1      40.722  24.960  28.048  1.00  0.00    -0.014 A 
BRANCH  33  34
ATOM     34  C   UNL A   1      41.359  26.234  28.441  1.00  0.00     0.031 A 
ATOM     35  C   UNL A   1      42.740  26.534  27.929  1.00  0.00     0.074 A 
ATOM     36  C   UNL A   1      40.648  27.147  29.122  1.00  0.00     0.049 A 
ATOM     37  N   UNL A   1      43.433  27.636  28.017  1.00  0.00    -0.248 NA
ATOM     38  C   UNL A   1      43.427  25.445  27.217  1.00  0.00     0.031 C 
ATOM     39  C   UNL A   1      39.284  26.951  29.616  1.00  0.00     0.029 A 
ATOM     40  N   UNL A   1      40.955  28.431  29.481  1.00  0.00    -0.354 N 
ATOM     41  C   UNL A   1      44.633  27.380  27.363  1.00  0.00     0.074 A 
ATOM     42  C   UNL A   1      44.595  26.001  26.932  1.00  0.00     0.031 C 
ATOM     43  C   UNL A   1      38.862  28.088  30.193  1.00  0.00     0.029 A 
ATOM     44  C   UNL A   1      39.934  29.078  30.135  1.00  0.00     0.049 A 
ATOM     45  H   UNL A   1      41.824  28.852  29.290  1.00  0.00     0.167 HD
ATOM     46  C   UNL A   1      45.665  28.230  27.130  1.00  0.00     0.034 A 
ATOM     47  C   UNL A   1      39.878  30.330  30.628  1.00  0.00     0.034 A 
ATOM     48  C   UNL A   1      45.679  29.597  27.589  1.00  0.00     0.049 A 
ATOM     49  C   UNL A   1      41.065  31.234  30.414  1.00  0.00     0.074 A 
ATOM     50  C   UNL A   1      46.665  30.553  27.428  1.00  0.00     0.029 A 
ATOM     51  N   UNL A   1      44.655  30.202  28.313  1.00  0.00    -0.354 N 
ATOM     52  N   UNL A   1      42.193  30.985  29.785  1.00  0.00    -0.248 NA
ATOM     53  C   UNL A   1      40.963  32.593  30.955  1.00  0.00     0.031 C 
ATOM     54  C   UNL A   1      46.274  31.706  28.118  1.00  0.00     0.029 A 
ATOM     55  C   UNL A   1      45.002  31.505  28.633  1.00  0.00     0.049 A 
ATOM     56  H   UNL A   1      43.808  29.766  28.562  1.00  0.00     0.167 HD
ATOM     57  C   UNL A   1      42.923  32.171  29.831  1.00  0.00     0.074 A 
ATOM     58  C   UNL A   1      42.092  33.135  30.525  1.00  0.00     0.031 C 
ATOM     59  C   UNL A   1      44.163  32.442  29.345  1.00  0.00     0.034 A 
BRANCH  46  60
ATOM     60  C   UNL A   1      46.870  27.677  26.405  1.00  0.00     0.023 A 
ATOM     61  C   UNL A   1      47.140  27.988  25.060  1.00  0.00     0.031 A 
ATOM     62  C   UNL A   1      47.742  26.787  27.059  1.00  0.00     0.131 A 
ATOM     63  C   UNL A   1      48.208  27.362  24.395  1.00  0.00     0.055 A 
ATOM     64  C   UNL A   1      48.850  26.233  26.416  1.00  0.00     0.041 A 
ATOM     65  F   UNL A   1      47.520  26.427  28.333  1.00  0.00    -0.206 F 
ATOM     66  C   UNL A   1      49.080  26.508  25.072  1.00  0.00     0.022 A 
BRANCH  63  67
ATOM     67  S   UNL A   1      48.352  27.563  22.597  1.00  0.00     0.124 S 
ATOM     68  O   UNL A   1      48.390  26.174  22.147  1.00  0.00    -0.237 OA
ATOM     69  O   UNL A   1      47.144  28.311  22.266  1.00  0.00    -0.237 OA
ATOM     70  O   UNL A   1      49.606  28.298  22.434  1.00  0.00    -0.744 OA
ENDBRANCH  63  67
ENDBRANCH  46  60
BRANCH  47  71
ATOM     71  C   UNL A   1      38.676  30.791  31.380  1.00  0.00     0.023 A 
ATOM     72  C   UNL A   1      37.574  31.362  30.724  1.00  0.00     0.031 A 
ATOM     73  C   UNL A   1      38.633  30.704  32.785  1.00  0.00     0.131 A 
ATOM     74  C   UNL A   1      36.499  31.867  31.473  1.00  0.00     0.055 A 
ATOM     75  C   UNL A   1      37.536  31.155  33.520  1.00  0.00     0.041 A 
ATOM     76  F   UNL A   1      39.658  30.165  33.464  1.00  0.00    -0.206 F 
ATOM     77  C   UNL A   1      36.466  31.753  32.865  1.00  0.00     0.022 A 
BRANCH  74  78
ATOM     78  S   UNL A   1      35.178  32.759  30.607  1.00  0.00     0.124 S 
ATOM     79  O   UNL A   1      35.021  31.958  29.398  1.00  0.00    -0.237 OA
ATOM     80  O   UNL A   1      34.086  32.689  31.571  1.00  0.00    -0.237 OA
ATOM     81  O   UNL A   1      35.744  34.091  30.405  1.00  0.00    -0.744 OA
ENDBRANCH  74  78
ENDBRANCH  47  71
BRANCH  59  82
ATOM     82  C   UNL A   1      44.664  33.856  29.524  1.00  0.00     0.023 A 
ATOM     83  C   UNL A   1      45.419  34.236  30.649  1.00  0.00     0.031 A 
ATOM     84  C   UNL A   1      44.344  34.847  28.579  1.00  0.00     0.131 A 
ATOM     85  C   UNL A   1      45.751  35.584  30.844  1.00  0.00     0.055 A 
ATOM     86  C   UNL A   1      44.748  36.173  28.739  1.00  0.00     0.041 A 
ATOM     87  F   UNL A   1      43.626  34.544  27.487  1.00  0.00    -0.206 F 
ATOM     88  C   UNL A   1      45.436  36.552  29.887  1.00  0.00     0.022 A 
BRANCH  85  89
ATOM     89  S   UNL A   1      46.469  36.076  32.435  1.00  0.00     0.124 S 
ATOM     90  O   UNL A   1      45.278  36.383  33.222  1.00  0.00    -0.237 OA
ATOM     91  O   UNL A   1      47.203  34.878  32.829  1.00  0.00    -0.237 OA
ATOM     92  O   UNL A   1      47.300  37.229  32.093  1.00  0.00    -0.744 OA
ENDBRANCH  85  89
ENDBRANCH  59  82
ENDBRANCH  33  34
ENDBRANCH  26  28
ENDBRANCH  25  26
ENDBRANCH  24  25
ENDBRANCH  23  24
ENDBRANCH   1  23
TORSDOF 22
ENDMDL
MODEL 3
REMARK VINA RESULT:     -10.1      1.593      2.015
REMARK SMILES CC[C@@H](C)[C@@H](C(=O)OCCOCCOC(=O)c1ccc(-c2c3nc(c(-c4cc(S(=O)(=O)[O-])ccc4F)c4ccc([nH]4)c(-c4cc(S(=O)(=O)[O-])ccc4F)c4nc(c(-c5cc(S(=O)(=O)[O-])ccc5F)c5ccc2[nH]5)C=C4)C=C3)cc1)S(=O)(=O)c1ccc(OC)cc1
REMARK SMILES IDX 11 1 10 2 9 3 8 4 6 5 7 6 5 7 3 8 4 9 2 10 1 11 80 12 81 13
REMARK SMILES IDX 82 14 83 15 84 16 90 17 85 18 89 19 86 20 87 21 88 22 12 23
REMARK SMILES IDX 13 24 14 25 15 26 16 27 17 28 18 29 79 30 19 31 78 32 20 33
REMARK SMILES IDX 21 34 22 35 72 36 23 37 77 38 71 39 73 40 24 41 76 42 70 43
REMARK SMILES IDX 69 44 25 46 57 47 37 48 56 49 38 50 41 51 55 52 74 53 39 54
REMARK SMILES IDX 40 55 54 57 75 58 42 59 26 60 27 61 35 62 28 63 34 64 36 65
REMARK SMILES IDX 33 66 29 67 30 68 31 69 32 70 58 71 59 72 67 73 60 74 66 75
REMARK SMILES IDX 68 76 65 77 61 78 62 79 63 80 64 81 43 82 44 83 52 84 45 85
REMARK SMILES IDX 51 86 53 87 50 88 46 89 47 90 48 91 49 92
REMARK H PARENT 73 45 41 56
REMARK Flexibility Score: inf
ROOT
ATOM      1  O   UNL A   1      35.336  21.081  26.045  1.00  0.00    -0.374 OA
ENDROOT
BRANCH   1   2
ATOM      2  C   UNL A   1      33.907  21.186  26.097  1.00  0.00     0.202 C 
BRANCH   2   3
ATOM      3  C   UNL A   1      33.326  22.062  27.220  1.00  0.00     0.261 C 
BRANCH   3   4
ATOM      4  O   UNL A   1      33.198  23.446  26.792  1.00  0.00    -0.462 OA
BRANCH   4   5
ATOM      5  C   UNL A   1      31.957  23.920  26.503  1.00  0.00     0.325 C 
ATOM      6  O   UNL A   1      31.004  23.675  27.226  1.00  0.00    -0.251 OA
BRANCH   5   7
ATOM      7  C   UNL A   1      31.910  24.721  25.197  1.00  0.00     0.225 C 
BRANCH   7   8
ATOM      8  C   UNL A   1      32.693  24.168  23.935  1.00  0.00     0.015 C 
ATOM      9  C   UNL A   1      34.174  24.596  23.968  1.00  0.00     0.009 C 
BRANCH   8  10
ATOM     10  C   UNL A   1      32.097  24.612  22.564  1.00  0.00     0.002 C 
ATOM     11  C   UNL A   1      32.895  25.661  21.789  1.00  0.00     0.004 C 
ENDBRANCH   8  10
ENDBRANCH   7   8
BRANCH   7  12
ATOM     12  S   UNL A   1      32.352  26.468  25.602  1.00  0.00     0.192 S 
ATOM     13  O   UNL A   1      31.782  26.779  26.904  1.00  0.00    -0.223 OA
ATOM     14  O   UNL A   1      33.767  26.731  25.434  1.00  0.00    -0.223 OA
BRANCH  12  15
ATOM     15  C   UNL A   1      31.512  27.528  24.425  1.00  0.00     0.068 A 
ATOM     16  C   UNL A   1      30.141  27.383  24.198  1.00  0.00     0.024 A 
ATOM     17  C   UNL A   1      32.204  28.544  23.771  1.00  0.00     0.024 A 
ATOM     18  C   UNL A   1      29.500  28.204  23.259  1.00  0.00     0.048 A 
ATOM     19  C   UNL A   1      31.574  29.323  22.790  1.00  0.00     0.048 A 
ATOM     20  C   UNL A   1      30.219  29.148  22.519  1.00  0.00     0.118 A 
BRANCH  20  21
ATOM     21  O   UNL A   1      29.491  29.857  21.605  1.00  0.00    -0.497 OA
ATOM     22  C   UNL A   1      28.082  29.928  21.817  1.00  0.00     0.278 C 
ENDBRANCH  20  21
ENDBRANCH  12  15
ENDBRANCH   7  12
ENDBRANCH   5   7
ENDBRANCH   4   5
ENDBRANCH   3   4
ENDBRANCH   2   3
ENDBRANCH   1   2
BRANCH   1  23
ATOM     23  C   UNL A   1      35.888  20.283  25.010  1.00  0.00     0.202 C 
BRANCH  23  24
ATOM     24  C   UNL A   1      37.411  20.261  24.830  1.00  0.00     0.261 C 
BRANCH  24  25
ATOM     25  O   UNL A   1      38.034  21.446  25.304  1.00  0.00    -0.460 OA
BRANCH  25  26
ATOM     26  C   UNL A   1      39.122  21.162  26.062  1.00  0.00     0.338 C 
ATOM     27  O   UNL A   1      39.689  20.091  26.164  1.00  0.00    -0.246 OA
BRANCH  26  28
ATOM     28  C   UNL A   1      39.655  22.419  26.594  1.00  0.00     0.060 A 
ATOM     29  C   UNL A   1      39.057  23.591  26.126  1.00  0.00     0.016 A 
ATOM     30  C   UNL A   1      40.723  22.452  27.496  1.00  0.00     0.016 A 
ATOM     31  C   UNL A   1      39.588  24.815  26.494  1.00  0.00     0.010 A 
ATOM     32  C   UNL A   1      41.250  23.687  27.872  1.00  0.00     0.010 A 
ATOM     33  C   UNL A   1      40.715  24.865  27.325  1.00  0.00    -0.014 A 
BRANCH  33  34
ATOM     34  C   UNL A   1      41.409  26.163  27.454  1.00  0.00     0.031 A 
ATOM     35  C   UNL A   1      40.721  27.275  28.195  1.00  0.00     0.074 A 
ATOM     36  C   UNL A   1      42.680  26.279  27.034  1.00  0.00     0.049 A 
ATOM     37  N   UNL A   1      41.186  28.439  28.558  1.00  0.00    -0.248 NA
ATOM     38  C   UNL A   1      39.321  27.038  28.582  1.00  0.00     0.031 C 
ATOM     39  C   UNL A   1      43.435  25.231  26.346  1.00  0.00     0.029 A 
ATOM     40  N   UNL A   1      43.571  27.310  27.159  1.00  0.00    -0.354 N 
ATOM     41  C   UNL A   1      40.143  29.069  29.228  1.00  0.00     0.074 A 
ATOM     42  C   UNL A   1      39.005  28.181  29.170  1.00  0.00     0.031 C 
ATOM     43  C   UNL A   1      44.688  25.667  26.132  1.00  0.00     0.029 A 
ATOM     44  C   UNL A   1      44.811  27.030  26.640  1.00  0.00     0.049 A 
ATOM     45  H   UNL A   1      43.344  28.171  27.580  1.00  0.00     0.167 HD
ATOM     46  C   UNL A   1      40.147  30.276  29.848  1.00  0.00     0.034 A 
ATOM     47  C   UNL A   1      45.920  27.794  26.586  1.00  0.00     0.034 A 
ATOM     48  C   UNL A   1      41.296  31.146  29.873  1.00  0.00     0.049 A 
ATOM     49  C   UNL A   1      45.877  29.158  27.226  1.00  0.00     0.074 A 
ATOM     50  C   UNL A   1      41.424  32.394  30.457  1.00  0.00     0.029 A 
ATOM     51  N   UNL A   1      42.521  30.862  29.275  1.00  0.00    -0.354 N 
ATOM     52  N   UNL A   1      44.887  29.742  27.866  1.00  0.00    -0.248 NA
ATOM     53  C   UNL A   1      47.105  29.955  27.156  1.00  0.00     0.031 C 
ATOM     54  C   UNL A   1      42.693  32.895  30.145  1.00  0.00     0.029 A 
ATOM     55  C   UNL A   1      43.395  31.923  29.447  1.00  0.00     0.049 A 
ATOM     56  H   UNL A   1      42.734  30.027  28.798  1.00  0.00     0.167 HD
ATOM     57  C   UNL A   1      45.388  30.967  28.301  1.00  0.00     0.074 A 
ATOM     58  C   UNL A   1      46.772  31.018  27.872  1.00  0.00     0.031 C 
ATOM     59  C   UNL A   1      44.766  31.959  28.991  1.00  0.00     0.034 A 
BRANCH  46  60
ATOM     60  C   UNL A   1      38.855  30.732  30.486  1.00  0.00     0.023 A 
ATOM     61  C   UNL A   1      37.807  31.294  29.734  1.00  0.00     0.031 A 
ATOM     62  C   UNL A   1      38.685  30.642  31.880  1.00  0.00     0.131 A 
ATOM     63  C   UNL A   1      36.672  31.806  30.384  1.00  0.00     0.055 A 
ATOM     64  C   UNL A   1      37.519  31.079  32.511  1.00  0.00     0.041 A 
ATOM     65  F   UNL A   1      39.661  30.145  32.656  1.00  0.00    -0.206 F 
ATOM     66  C   UNL A   1      36.510  31.678  31.764  1.00  0.00     0.022 A 
BRANCH  63  67
ATOM     67  S   UNL A   1      35.480  32.777  29.418  1.00  0.00     0.124 S 
ATOM     68  O   UNL A   1      35.618  32.179  28.093  1.00  0.00    -0.237 OA
ATOM     69  O   UNL A   1      34.225  32.515  30.112  1.00  0.00    -0.237 OA
ATOM     70  O   UNL A   1      35.983  34.146  29.532  1.00  0.00    -0.744 OA
ENDBRANCH  63  67
ENDBRANCH  46  60
BRANCH  47  71
ATOM     71  C   UNL A   1      47.143  27.298  25.893  1.00  0.00     0.023 A 
ATOM     72  C   UNL A   1      48.155  26.617  26.588  1.00  0.00     0.031 A 
ATOM     73  C   UNL A   1      47.337  27.542  24.520  1.00  0.00     0.131 A 
ATOM     74  C   UNL A   1      49.334  26.245  25.920  1.00  0.00     0.055 A 
ATOM     75  C   UNL A   1      48.485  27.119  23.848  1.00  0.00     0.041 A 
ATOM     76  F   UNL A   1      46.401  28.188  23.806  1.00  0.00    -0.206 F 
ATOM     77  C   UNL A   1      49.498  26.479  24.552  1.00  0.00     0.022 A 
BRANCH  74  78
ATOM     78  S   UNL A   1      50.693  25.530  26.886  1.00  0.00     0.124 S 
ATOM     79  O   UNL A   1      51.615  25.113  25.836  1.00  0.00    -0.237 OA
ATOM     80  O   UNL A   1      51.114  26.666  27.698  1.00  0.00    -0.237 OA
ATOM     81  O   UNL A   1      50.051  24.444  27.623  1.00  0.00    -0.744 OA
ENDBRANCH  74  78
ENDBRANCH  47  71
BRANCH  59  82
ATOM     82  C   UNL A   1      45.607  33.162  29.351  1.00  0.00     0.023 A 
ATOM     83  C   UNL A   1      45.739  34.258  28.479  1.00  0.00     0.031 A 
ATOM     84  C   UNL A   1      46.320  33.192  30.562  1.00  0.00     0.131 A 
ATOM     85  C   UNL A   1      46.633  35.293  28.789  1.00  0.00     0.055 A 
ATOM     86  C   UNL A   1      47.145  34.265  30.902  1.00  0.00     0.041 A 
ATOM     87  F   UNL A   1      46.233  32.174  31.433  1.00  0.00    -0.206 F 
ATOM     88  C   UNL A   1      47.323  35.312  30.004  1.00  0.00     0.022 A 
BRANCH  85  89
ATOM     89  S   UNL A   1      46.991  36.537  27.519  1.00  0.00     0.124 S 
ATOM     90  O   UNL A   1      45.724  36.605  26.798  1.00  0.00    -0.237 OA
ATOM     91  O   UNL A   1      47.333  37.708  28.319  1.00  0.00    -0.237 OA
ATOM     92  O   UNL A   1      48.100  35.951  26.770  1.00  0.00    -0.744 OA
ENDBRANCH  85  89
ENDBRANCH  59  82
ENDBRANCH  33  34
ENDBRANCH  26  28
ENDBRANCH  25  26
ENDBRANCH  24  25
ENDBRANCH  23  24
ENDBRANCH   1  23
TORSDOF 22
ENDMDL
