MODEL 1
REMARK VINA RESULT:     -10.0      0.000      0.000
REMARK SMILES C=CCCC[C@]1(C(=O)OCCOCCOC(=O)c2ccc(-c3c4nc(c(-c5cc(S(=O)(=O)[O-])ccc5F)c5ccc([nH]5)c(-c5cc(S(=O)(=O)[O-])ccc5F)c5nc(c(-c6cc(S(=O)(=O)[O-])ccc6F)c6ccc3[nH]6)C=C5)C=C4)cc2)CCCN(C(=O)OC(C)(C)C)C1
REMARK SMILES IDX 11 1 10 2 9 3 7 4 8 5 6 6 81 7 92 8 82 9 84 10 83 11 5 12
REMARK SMILES IDX 4 13 3 14 2 15 1 16 85 17 86 18 87 19 88 20 89 21 90 22
REMARK SMILES IDX 91 23 12 24 13 25 14 26 15 27 16 28 17 29 18 30 19 31 80 32
REMARK SMILES IDX 20 33 79 34 21 35 22 36 23 37 73 38 24 39 78 40 72 41 74 42
REMARK SMILES IDX 25 43 77 44 71 45 70 46 26 48 58 49 38 50 57 51 39 52 42 53
REMARK SMILES IDX 56 54 75 55 40 56 41 57 55 59 76 60 43 61 27 62 28 63 36 64
REMARK SMILES IDX 29 65 35 66 37 67 34 68 30 69 31 70 32 71 33 72 59 73 60 74
REMARK SMILES IDX 68 75 61 76 67 77 69 78 66 79 62 80 63 81 64 82 65 83 44 84
REMARK SMILES IDX 45 85 53 86 46 87 52 88 54 89 51 90 47 91 48 92 49 93 50 94
REMARK H PARENT 74 47 42 58
REMARK Flexibility Score: inf
ROOT
ATOM      1  C   UNL A   1      36.137  23.489  23.861  1.00  0.00     0.202 C 
ENDROOT
BRANCH   1   2
ATOM      2  C   UNL A   1      34.668  23.681  23.374  1.00  0.00     0.261 C 
BRANCH   2   3
ATOM      3  O   UNL A   1      34.173  24.989  23.776  1.00  0.00    -0.463 OA
BRANCH   3   4
ATOM      4  C   UNL A   1      33.353  25.243  24.863  1.00  0.00     0.313 C 
ATOM      5  O   UNL A   1      33.426  24.682  25.942  1.00  0.00    -0.252 OA
BRANCH   4   6
ATOM      6  C   UNL A   1      32.195  26.139  24.336  1.00  0.00     0.086 C 
ATOM      7  C   UNL A   1      33.169  27.245  23.682  1.00  0.00     0.022 C 
ATOM      8  C   UNL A   1      31.249  25.860  23.111  1.00  0.00     0.141 C 
ATOM      9  C   UNL A   1      32.605  28.467  22.980  1.00  0.00     0.023 C 
ATOM     10  N   UNL A   1      30.624  27.178  22.678  1.00  0.00    -0.307 N 
ATOM     11  C   UNL A   1      31.541  28.061  21.986  1.00  0.00     0.123 C 
BRANCH   6  12
ATOM     12  C   UNL A   1      31.146  26.354  25.523  1.00  0.00     0.021 C 
BRANCH  12  13
ATOM     13  C   UNL A   1      31.060  27.615  26.434  1.00  0.00     0.005 C 
BRANCH  13  14
ATOM     14  C   UNL A   1      32.292  27.898  27.346  1.00  0.00     0.027 C 
BRANCH  14  15
ATOM     15  C   UNL A   1      33.499  28.537  26.720  1.00  0.00    -0.035 C 
ATOM     16  C   UNL A   1      34.511  29.069  27.423  1.00  0.00     0.004 C 
ENDBRANCH  14  15
ENDBRANCH  13  14
ENDBRANCH  12  13
ENDBRANCH   6  12
BRANCH  10  17
ATOM     17  C   UNL A   1      29.479  27.742  23.276  1.00  0.00     0.410 C 
ATOM     18  O   UNL A   1      28.498  27.097  23.619  1.00  0.00    -0.224 OA
BRANCH  17  19
ATOM     19  O   UNL A   1      29.625  29.085  23.494  1.00  0.00    -0.444 OA
BRANCH  19  20
ATOM     20  C   UNL A   1      28.729  30.141  23.021  1.00  0.00     0.106 C 
ATOM     21  C   UNL A   1      28.833  30.395  21.518  1.00  0.00     0.056 C 
ATOM     22  C   UNL A   1      27.287  29.844  23.431  1.00  0.00     0.056 C 
ATOM     23  C   UNL A   1      29.168  31.413  23.771  1.00  0.00     0.056 C 
ENDBRANCH  19  20
ENDBRANCH  17  19
ENDBRANCH  10  17
ENDBRANCH   4   6
ENDBRANCH   3   4
ENDBRANCH   2   3
ENDBRANCH   1   2
BRANCH   1  24
ATOM     24  O   UNL A   1      36.337  23.456  25.276  1.00  0.00    -0.374 OA
BRANCH  24  25
ATOM     25  C   UNL A   1      36.531  22.188  25.895  1.00  0.00     0.202 C 
BRANCH  25  26
ATOM     26  C   UNL A   1      37.741  21.382  25.449  1.00  0.00     0.261 C 
BRANCH  26  27
ATOM     27  O   UNL A   1      38.929  22.126  25.539  1.00  0.00    -0.460 OA
BRANCH  27  28
ATOM     28  C   UNL A   1      39.880  21.596  26.318  1.00  0.00     0.338 C 
ATOM     29  O   UNL A   1      40.199  20.433  26.509  1.00  0.00    -0.246 OA
BRANCH  28  30
ATOM     30  C   UNL A   1      40.481  22.781  26.876  1.00  0.00     0.060 A 
ATOM     31  C   UNL A   1      40.036  23.987  26.343  1.00  0.00     0.016 A 
ATOM     32  C   UNL A   1      41.259  22.686  28.035  1.00  0.00     0.016 A 
ATOM     33  C   UNL A   1      40.430  25.147  26.960  1.00  0.00     0.010 A 
ATOM     34  C   UNL A   1      41.629  23.855  28.671  1.00  0.00     0.010 A 
ATOM     35  C   UNL A   1      41.241  25.078  28.104  1.00  0.00    -0.014 A 
BRANCH  35  36
ATOM     36  C   UNL A   1      41.793  26.346  28.579  1.00  0.00     0.031 A 
ATOM     37  C   UNL A   1      43.169  26.702  28.119  1.00  0.00     0.074 A 
ATOM     38  C   UNL A   1      40.978  27.188  29.231  1.00  0.00     0.049 A 
ATOM     39  N   UNL A   1      43.777  27.852  28.164  1.00  0.00    -0.248 NA
ATOM     40  C   UNL A   1      43.958  25.620  27.504  1.00  0.00     0.031 C 
ATOM     41  C   UNL A   1      39.613  26.871  29.662  1.00  0.00     0.029 A 
ATOM     42  N   UNL A   1      41.154  28.492  29.588  1.00  0.00    -0.354 N 
ATOM     43  C   UNL A   1      45.012  27.640  27.565  1.00  0.00     0.074 A 
ATOM     44  C   UNL A   1      45.089  26.241  27.216  1.00  0.00     0.031 C 
ATOM     45  C   UNL A   1      39.058  27.973  30.191  1.00  0.00     0.029 A 
ATOM     46  C   UNL A   1      40.033  29.057  30.148  1.00  0.00     0.049 A 
ATOM     47  H   UNL A   1      41.998  28.980  29.458  1.00  0.00     0.167 HD
ATOM     48  C   UNL A   1      45.980  28.552  27.318  1.00  0.00     0.034 A 
ATOM     49  C   UNL A   1      39.830  30.322  30.556  1.00  0.00     0.034 A 
ATOM     50  C   UNL A   1      45.854  29.930  27.720  1.00  0.00     0.049 A 
ATOM     51  C   UNL A   1      40.941  31.309  30.306  1.00  0.00     0.074 A 
ATOM     52  C   UNL A   1      46.763  30.961  27.588  1.00  0.00     0.029 A 
ATOM     53  N   UNL A   1      44.732  30.464  28.352  1.00  0.00    -0.354 N 
ATOM     54  N   UNL A   1      42.109  31.109  29.733  1.00  0.00    -0.248 NA
ATOM     55  C   UNL A   1      40.700  32.690  30.728  1.00  0.00     0.031 C 
ATOM     56  C   UNL A   1      46.218  32.098  28.197  1.00  0.00     0.029 A 
ATOM     57  C   UNL A   1      44.936  31.802  28.639  1.00  0.00     0.049 A 
ATOM     58  H   UNL A   1      43.913  29.961  28.563  1.00  0.00     0.167 HD
ATOM     59  C   UNL A   1      42.738  32.348  29.709  1.00  0.00     0.074 A 
ATOM     60  C   UNL A   1      41.800  33.289  30.298  1.00  0.00     0.031 C 
ATOM     61  C   UNL A   1      43.972  32.689  29.252  1.00  0.00     0.034 A 
BRANCH  48  62
ATOM     62  C   UNL A   1      47.245  28.050  26.670  1.00  0.00     0.023 A 
ATOM     63  C   UNL A   1      47.423  28.062  25.272  1.00  0.00     0.031 A 
ATOM     64  C   UNL A   1      48.253  27.465  27.454  1.00  0.00     0.131 A 
ATOM     65  C   UNL A   1      48.542  27.435  24.703  1.00  0.00     0.055 A 
ATOM     66  C   UNL A   1      49.403  26.914  26.885  1.00  0.00     0.041 A 
ATOM     67  F   UNL A   1      48.123  27.388  28.788  1.00  0.00    -0.206 F 
ATOM     68  C   UNL A   1      49.546  26.883  25.501  1.00  0.00     0.022 A 
BRANCH  65  69
ATOM     69  S   UNL A   1      48.598  27.213  22.901  1.00  0.00     0.124 S 
ATOM     70  O   UNL A   1      48.248  25.802  22.767  1.00  0.00    -0.237 OA
ATOM     71  O   UNL A   1      47.597  28.167  22.435  1.00  0.00    -0.237 OA
ATOM     72  O   UNL A   1      49.980  27.540  22.557  1.00  0.00    -0.744 OA
ENDBRANCH  65  69
ENDBRANCH  48  62
BRANCH  49  73
ATOM     73  C   UNL A   1      38.553  30.704  31.220  1.00  0.00     0.023 A 
ATOM     74  C   UNL A   1      37.532  31.375  30.533  1.00  0.00     0.031 A 
ATOM     75  C   UNL A   1      38.343  30.402  32.580  1.00  0.00     0.131 A 
ATOM     76  C   UNL A   1      36.363  31.756  31.213  1.00  0.00     0.055 A 
ATOM     77  C   UNL A   1      37.161  30.740  33.240  1.00  0.00     0.041 A 
ATOM     78  F   UNL A   1      39.284  29.753  33.285  1.00  0.00    -0.206 F 
ATOM     79  C   UNL A   1      36.166  31.432  32.558  1.00  0.00     0.022 A 
BRANCH  76  80
ATOM     80  S   UNL A   1      35.124  32.746  30.334  1.00  0.00     0.124 S 
ATOM     81  O   UNL A   1      34.729  31.845  29.258  1.00  0.00    -0.237 OA
ATOM     82  O   UNL A   1      34.128  32.978  31.376  1.00  0.00    -0.237 OA
ATOM     83  O   UNL A   1      35.871  33.931  29.914  1.00  0.00    -0.744 OA
ENDBRANCH  76  80
ENDBRANCH  49  73
BRANCH  61  84
ATOM     84  C   UNL A   1      44.341  34.144  29.366  1.00  0.00     0.023 A 
ATOM     85  C   UNL A   1      43.800  35.106  28.497  1.00  0.00     0.031 A 
ATOM     86  C   UNL A   1      45.267  34.566  30.335  1.00  0.00     0.131 A 
ATOM     87  C   UNL A   1      44.250  36.430  28.558  1.00  0.00     0.055 A 
ATOM     88  C   UNL A   1      45.658  35.901  30.439  1.00  0.00     0.041 A 
ATOM     89  F   UNL A   1      45.811  33.687  31.191  1.00  0.00    -0.206 F 
ATOM     90  C   UNL A   1      45.163  36.837  29.534  1.00  0.00     0.022 A 
BRANCH  87  91
ATOM     91  S   UNL A   1      43.723  37.581  27.262  1.00  0.00     0.124 S 
ATOM     92  O   UNL A   1      44.996  37.962  26.659  1.00  0.00    -0.237 OA
ATOM     93  O   UNL A   1      42.853  36.747  26.441  1.00  0.00    -0.237 OA
ATOM     94  O   UNL A   1      43.046  38.644  28.004  1.00  0.00    -0.744 OA
ENDBRANCH  87  91
ENDBRANCH  61  84
ENDBRANCH  35  36
ENDBRANCH  28  30
ENDBRANCH  27  28
ENDBRANCH  26  27
ENDBRANCH  25  26
ENDBRANCH  24  25
ENDBRANCH   1  24
TORSDOF 24
ENDMDL
MODEL 2
REMARK VINA RESULT:      -9.6      2.822      4.073
REMARK SMILES C=CCCC[C@]1(C(=O)OCCOCCOC(=O)c2ccc(-c3c4nc(c(-c5cc(S(=O)(=O)[O-])ccc5F)c5ccc([nH]5)c(-c5cc(S(=O)(=O)[O-])ccc5F)c5nc(c(-c6cc(S(=O)(=O)[O-])ccc6F)c6ccc3[nH]6)C=C5)C=C4)cc2)CCCN(C(=O)OC(C)(C)C)C1
REMARK SMILES IDX 11 1 10 2 9 3 7 4 8 5 6 6 81 7 92 8 82 9 84 10 83 11 5 12
REMARK SMILES IDX 4 13 3 14 2 15 1 16 85 17 86 18 87 19 88 20 89 21 90 22
REMARK SMILES IDX 91 23 12 24 13 25 14 26 15 27 16 28 17 29 18 30 19 31 80 32
REMARK SMILES IDX 20 33 79 34 21 35 22 36 23 37 73 38 24 39 78 40 72 41 74 42
REMARK SMILES IDX 25 43 77 44 71 45 70 46 26 48 58 49 38 50 57 51 39 52 42 53
REMARK SMILES IDX 56 54 75 55 40 56 41 57 55 59 76 60 43 61 27 62 28 63 36 64
REMARK SMILES IDX 29 65 35 66 37 67 34 68 30 69 31 70 32 71 33 72 59 73 60 74
REMARK SMILES IDX 68 75 61 76 67 77 69 78 66 79 62 80 63 81 64 82 65 83 44 84
REMARK SMILES IDX 45 85 53 86 46 87 52 88 54 89 51 90 47 91 48 92 49 93 50 94
REMARK H PARENT 74 47 42 58
REMARK Flexibility Score: inf
ROOT
ATOM      1  C   UNL A   1      37.404  22.386  25.052  1.00  0.00     0.202 C 
ENDROOT
BRANCH   1   2
ATOM      2  C   UNL A   1      36.615  22.493  23.712  1.00  0.00     0.261 C 
BRANCH   2   3
ATOM      3  O   UNL A   1      35.702  23.625  23.756  1.00  0.00    -0.463 OA
BRANCH   3   4
ATOM      4  C   UNL A   1      34.414  23.645  23.247  1.00  0.00     0.313 C 
ATOM      5  O   UNL A   1      34.098  23.283  22.128  1.00  0.00    -0.252 OA
BRANCH   4   6
ATOM      6  C   UNL A   1      33.558  24.464  24.256  1.00  0.00     0.086 C 
ATOM      7  C   UNL A   1      32.295  23.464  24.202  1.00  0.00     0.022 C 
ATOM      8  C   UNL A   1      33.750  24.567  25.814  1.00  0.00     0.141 C 
ATOM      9  C   UNL A   1      31.043  23.741  25.015  1.00  0.00     0.023 C 
ATOM     10  N   UNL A   1      32.445  25.051  26.427  1.00  0.00    -0.307 N 
ATOM     11  C   UNL A   1      31.401  24.045  26.451  1.00  0.00     0.123 C 
BRANCH   6  12
ATOM     12  C   UNL A   1      33.596  26.001  23.816  1.00  0.00     0.021 C 
BRANCH  12  13
ATOM     13  C   UNL A   1      33.068  26.565  22.462  1.00  0.00     0.005 C 
BRANCH  13  14
ATOM     14  C   UNL A   1      32.044  27.737  22.551  1.00  0.00     0.027 C 
BRANCH  14  15
ATOM     15  C   UNL A   1      30.584  27.407  22.427  1.00  0.00    -0.035 C 
ATOM     16  C   UNL A   1      29.793  27.121  23.473  1.00  0.00     0.004 C 
ENDBRANCH  14  15
ENDBRANCH  13  14
ENDBRANCH  12  13
ENDBRANCH   6  12
BRANCH  10  17
ATOM     17  C   UNL A   1      32.066  26.406  26.509  1.00  0.00     0.410 C 
ATOM     18  O   UNL A   1      30.907  26.789  26.594  1.00  0.00    -0.224 OA
BRANCH  17  19
ATOM     19  O   UNL A   1      33.151  27.239  26.554  1.00  0.00    -0.444 OA
BRANCH  19  20
ATOM     20  C   UNL A   1      33.122  28.689  26.746  1.00  0.00     0.106 C 
ATOM     21  C   UNL A   1      31.837  29.187  27.406  1.00  0.00     0.056 C 
ATOM     22  C   UNL A   1      34.354  29.152  27.522  1.00  0.00     0.056 C 
ATOM     23  C   UNL A   1      33.218  29.289  25.330  1.00  0.00     0.056 C 
ENDBRANCH  19  20
ENDBRANCH  17  19
ENDBRANCH  10  17
ENDBRANCH   4   6
ENDBRANCH   3   4
ENDBRANCH   2   3
ENDBRANCH   1   2
BRANCH   1  24
ATOM     24  O   UNL A   1      37.951  21.103  25.366  1.00  0.00    -0.374 OA
BRANCH  24  25
ATOM     25  C   UNL A   1      39.235  21.056  25.981  1.00  0.00     0.202 C 
BRANCH  25  26
ATOM     26  C   UNL A   1      39.916  19.698  26.050  1.00  0.00     0.261 C 
BRANCH  26  27
ATOM     27  O   UNL A   1      41.138  19.758  26.738  1.00  0.00    -0.460 OA
BRANCH  27  28
ATOM     28  C   UNL A   1      42.219  19.954  25.973  1.00  0.00     0.338 C 
ATOM     29  O   UNL A   1      42.736  19.242  25.126  1.00  0.00    -0.246 OA
BRANCH  28  30
ATOM     30  C   UNL A   1      42.623  21.273  26.385  1.00  0.00     0.060 A 
ATOM     31  C   UNL A   1      42.796  21.448  27.756  1.00  0.00     0.016 A 
ATOM     32  C   UNL A   1      43.039  22.204  25.427  1.00  0.00     0.016 A 
ATOM     33  C   UNL A   1      43.358  22.621  28.188  1.00  0.00     0.010 A 
ATOM     34  C   UNL A   1      43.632  23.373  25.866  1.00  0.00     0.010 A 
ATOM     35  C   UNL A   1      43.752  23.586  27.247  1.00  0.00    -0.014 A 
BRANCH  35  36
ATOM     36  C   UNL A   1      44.142  24.889  27.784  1.00  0.00     0.031 A 
ATOM     37  C   UNL A   1      45.572  25.289  27.623  1.00  0.00     0.074 A 
ATOM     38  C   UNL A   1      43.175  25.715  28.210  1.00  0.00     0.049 A 
ATOM     39  N   UNL A   1      46.116  26.463  27.757  1.00  0.00    -0.248 NA
ATOM     40  C   UNL A   1      46.514  24.224  27.236  1.00  0.00     0.031 C 
ATOM     41  C   UNL A   1      41.760  25.353  28.343  1.00  0.00     0.029 A 
ATOM     42  N   UNL A   1      43.223  27.034  28.548  1.00  0.00    -0.354 N 
ATOM     43  C   UNL A   1      47.458  26.287  27.451  1.00  0.00     0.074 A 
ATOM     44  C   UNL A   1      47.659  24.882  27.180  1.00  0.00     0.031 C 
ATOM     45  C   UNL A   1      41.065  26.446  28.697  1.00  0.00     0.029 A 
ATOM     46  C   UNL A   1      41.988  27.568  28.827  1.00  0.00     0.049 A 
ATOM     47  H   UNL A   1      44.058  27.554  28.588  1.00  0.00     0.167 HD
ATOM     48  C   UNL A   1      48.425  27.231  27.388  1.00  0.00     0.034 A 
ATOM     49  C   UNL A   1      41.656  28.835  29.134  1.00  0.00     0.034 A 
ATOM     50  C   UNL A   1      48.166  28.613  27.701  1.00  0.00     0.049 A 
ATOM     51  C   UNL A   1      42.760  29.860  29.097  1.00  0.00     0.074 A 
ATOM     52  C   UNL A   1      49.046  29.677  27.733  1.00  0.00     0.029 A 
ATOM     53  N   UNL A   1      46.915  29.118  28.052  1.00  0.00    -0.354 N 
ATOM     54  N   UNL A   1      44.032  29.693  28.801  1.00  0.00    -0.248 NA
ATOM     55  C   UNL A   1      42.385  31.241  29.403  1.00  0.00     0.031 C 
ATOM     56  C   UNL A   1      48.342  30.807  28.165  1.00  0.00     0.029 A 
ATOM     57  C   UNL A   1      47.005  30.471  28.326  1.00  0.00     0.049 A 
ATOM     58  H   UNL A   1      46.087  28.588  28.098  1.00  0.00     0.167 HD
ATOM     59  C   UNL A   1      44.608  30.955  28.869  1.00  0.00     0.074 A 
ATOM     60  C   UNL A   1      43.532  31.873  29.203  1.00  0.00     0.031 C 
ATOM     61  C   UNL A   1      45.900  31.334  28.680  1.00  0.00     0.034 A 
BRANCH  48  62
ATOM     62  C   UNL A   1      49.819  26.763  27.052  1.00  0.00     0.023 A 
ATOM     63  C   UNL A   1      50.835  26.690  28.024  1.00  0.00     0.031 A 
ATOM     64  C   UNL A   1      50.163  26.475  25.721  1.00  0.00     0.131 A 
ATOM     65  C   UNL A   1      52.155  26.410  27.639  1.00  0.00     0.055 A 
ATOM     66  C   UNL A   1      51.463  26.120  25.356  1.00  0.00     0.041 A 
ATOM     67  F   UNL A   1      49.247  26.567  24.743  1.00  0.00    -0.206 F 
ATOM     68  C   UNL A   1      52.471  26.100  26.314  1.00  0.00     0.022 A 
BRANCH  65  69
ATOM     69  S   UNL A   1      53.483  26.606  28.862  1.00  0.00     0.124 S 
ATOM     70  O   UNL A   1      53.744  28.041  28.787  1.00  0.00    -0.237 OA
ATOM     71  O   UNL A   1      52.853  26.133  30.090  1.00  0.00    -0.237 OA
ATOM     72  O   UNL A   1      54.555  25.758  28.344  1.00  0.00    -0.744 OA
ENDBRANCH  65  69
ENDBRANCH  48  62
BRANCH  49  73
ATOM     73  C   UNL A   1      40.252  29.182  29.488  1.00  0.00     0.023 A 
ATOM     74  C   UNL A   1      39.836  29.318  30.820  1.00  0.00     0.031 A 
ATOM     75  C   UNL A   1      39.292  29.378  28.476  1.00  0.00     0.131 A 
ATOM     76  C   UNL A   1      38.490  29.601  31.107  1.00  0.00     0.055 A 
ATOM     77  C   UNL A   1      37.968  29.707  28.764  1.00  0.00     0.041 A 
ATOM     78  F   UNL A   1      39.638  29.270  27.182  1.00  0.00    -0.206 F 
ATOM     79  C   UNL A   1      37.557  29.809  30.089  1.00  0.00     0.022 A 
BRANCH  76  80
ATOM     80  S   UNL A   1      37.954  29.629  32.840  1.00  0.00     0.124 S 
ATOM     81  O   UNL A   1      37.353  28.308  32.988  1.00  0.00    -0.237 OA
ATOM     82  O   UNL A   1      39.214  29.844  33.543  1.00  0.00    -0.237 OA
ATOM     83  O   UNL A   1      37.016  30.750  32.888  1.00  0.00    -0.744 OA
ENDBRANCH  76  80
ENDBRANCH  49  73
BRANCH  61  84
ATOM     84  C   UNL A   1      46.184  32.806  28.818  1.00  0.00     0.023 A 
ATOM     85  C   UNL A   1      46.153  33.664  27.706  1.00  0.00     0.031 A 
ATOM     86  C   UNL A   1      46.520  33.349  30.069  1.00  0.00     0.131 A 
ATOM     87  C   UNL A   1      46.533  35.003  27.851  1.00  0.00     0.055 A 
ATOM     88  C   UNL A   1      46.827  34.700  30.221  1.00  0.00     0.041 A 
ATOM     89  F   UNL A   1      46.562  32.572  31.164  1.00  0.00    -0.206 F 
ATOM     90  C   UNL A   1      46.853  35.532  29.104  1.00  0.00     0.022 A 
BRANCH  87  91
ATOM     91  S   UNL A   1      46.726  36.012  26.357  1.00  0.00     0.124 S 
ATOM     92  O   UNL A   1      45.900  35.289  25.395  1.00  0.00    -0.237 OA
ATOM     93  O   UNL A   1      46.215  37.308  26.789  1.00  0.00    -0.237 OA
ATOM     94  O   UNL A   1      48.163  35.966  26.097  1.00  0.00    -0.744 OA
ENDBRANCH  87  91
ENDBRANCH  61  84
ENDBRANCH  35  36
ENDBRANCH  28  30
ENDBRANCH  27  28
ENDBRANCH  26  27
ENDBRANCH  25  26
ENDBRANCH  24  25
ENDBRANCH   1  24
TORSDOF 24
ENDMDL
MODEL 3
REMARK VINA RESULT:      -9.6      2.600      8.389
REMARK SMILES C=CCCC[C@]1(C(=O)OCCOCCOC(=O)c2ccc(-c3c4nc(c(-c5cc(S(=O)(=O)[O-])ccc5F)c5ccc([nH]5)c(-c5cc(S(=O)(=O)[O-])ccc5F)c5nc(c(-c6cc(S(=O)(=O)[O-])ccc6F)c6ccc3[nH]6)C=C5)C=C4)cc2)CCCN(C(=O)OC(C)(C)C)C1
REMARK SMILES IDX 11 1 10 2 9 3 7 4 8 5 6 6 81 7 92 8 82 9 84 10 83 11 5 12
REMARK SMILES IDX 4 13 3 14 2 15 1 16 85 17 86 18 87 19 88 20 89 21 90 22
REMARK SMILES IDX 91 23 12 24 13 25 14 26 15 27 16 28 17 29 18 30 19 31 80 32
REMARK SMILES IDX 20 33 79 34 21 35 22 36 23 37 73 38 24 39 78 40 72 41 74 42
REMARK SMILES IDX 25 43 77 44 71 45 70 46 26 48 58 49 38 50 57 51 39 52 42 53
REMARK SMILES IDX 56 54 75 55 40 56 41 57 55 59 76 60 43 61 27 62 28 63 36 64
REMARK SMILES IDX 29 65 35 66 37 67 34 68 30 69 31 70 32 71 33 72 59 73 60 74
REMARK SMILES IDX 68 75 61 76 67 77 69 78 66 79 62 80 63 81 64 82 65 83 44 84
REMARK SMILES IDX 45 85 53 86 46 87 52 88 54 89 51 90 47 91 48 92 49 93 50 94
REMARK H PARENT 74 47 42 58
REMARK Flexibility Score: inf
ROOT
ATOM      1  C   UNL A   1      37.462  22.258  25.207  1.00  0.00     0.202 C 
ENDROOT
BRANCH   1   2
ATOM      2  C   UNL A   1      36.276  21.437  24.616  1.00  0.00     0.261 C 
BRANCH   2   3
ATOM      3  O   UNL A   1      35.026  22.160  24.795  1.00  0.00    -0.463 OA
BRANCH   3   4
ATOM      4  C   UNL A   1      34.407  22.951  23.841  1.00  0.00     0.313 C 
ATOM      5  O   UNL A   1      34.827  23.149  22.715  1.00  0.00    -0.252 OA
BRANCH   4   6
ATOM      6  C   UNL A   1      33.278  23.724  24.582  1.00  0.00     0.086 C 
ATOM      7  C   UNL A   1      32.451  22.400  24.986  1.00  0.00     0.022 C 
ATOM      8  C   UNL A   1      33.359  24.426  25.987  1.00  0.00     0.141 C 
ATOM      9  C   UNL A   1      31.150  22.497  25.762  1.00  0.00     0.023 C 
ATOM     10  N   UNL A   1      31.944  24.615  26.512  1.00  0.00    -0.307 N 
ATOM     11  C   UNL A   1      31.321  23.389  26.970  1.00  0.00     0.123 C 
BRANCH   6  12
ATOM     12  C   UNL A   1      32.789  24.922  23.642  1.00  0.00     0.021 C 
BRANCH  12  13
ATOM     13  C   UNL A   1      33.580  26.238  23.374  1.00  0.00     0.005 C 
BRANCH  13  14
ATOM     14  C   UNL A   1      33.442  26.852  21.947  1.00  0.00     0.027 C 
BRANCH  14  15
ATOM     15  C   UNL A   1      32.404  26.272  21.029  1.00  0.00    -0.035 C 
ATOM     16  C   UNL A   1      32.626  25.226  20.219  1.00  0.00     0.004 C 
ENDBRANCH  14  15
ENDBRANCH  13  14
ENDBRANCH  12  13
ENDBRANCH   6  12
BRANCH  10  17
ATOM     17  C   UNL A   1      31.109  25.694  26.159  1.00  0.00     0.410 C 
ATOM     18  O   UNL A   1      29.895  25.697  26.309  1.00  0.00    -0.224 OA
BRANCH  17  19
ATOM     19  O   UNL A   1      31.824  26.765  25.697  1.00  0.00    -0.444 OA
BRANCH  19  20
ATOM     20  C   UNL A   1      32.165  27.970  26.454  1.00  0.00     0.106 C 
ATOM     21  C   UNL A   1      31.414  28.086  27.779  1.00  0.00     0.056 C 
ATOM     22  C   UNL A   1      33.676  28.060  26.668  1.00  0.00     0.056 C 
ATOM     23  C   UNL A   1      31.758  29.148  25.548  1.00  0.00     0.056 C 
ENDBRANCH  19  20
ENDBRANCH  17  19
ENDBRANCH  10  17
ENDBRANCH   4   6
ENDBRANCH   3   4
ENDBRANCH   2   3
ENDBRANCH   1   2
BRANCH   1  24
ATOM     24  O   UNL A   1      38.585  21.506  25.674  1.00  0.00    -0.374 OA
BRANCH  24  25
ATOM     25  C   UNL A   1      38.739  20.171  25.201  1.00  0.00     0.202 C 
BRANCH  25  26
ATOM     26  C   UNL A   1      39.824  19.330  25.855  1.00  0.00     0.261 C 
BRANCH  26  27
ATOM     27  O   UNL A   1      40.483  20.028  26.879  1.00  0.00    -0.460 OA
BRANCH  27  28
ATOM     28  C   UNL A   1      41.815  19.889  26.903  1.00  0.00     0.338 C 
ATOM     29  O   UNL A   1      42.511  18.889  26.965  1.00  0.00    -0.246 OA
BRANCH  28  30
ATOM     30  C   UNL A   1      42.244  21.260  26.802  1.00  0.00     0.060 A 
ATOM     31  C   UNL A   1      42.640  21.855  27.997  1.00  0.00     0.016 A 
ATOM     32  C   UNL A   1      42.466  21.828  25.543  1.00  0.00     0.016 A 
ATOM     33  C   UNL A   1      43.232  23.090  27.935  1.00  0.00     0.010 A 
ATOM     34  C   UNL A   1      43.090  23.060  25.483  1.00  0.00     0.010 A 
ATOM     35  C   UNL A   1      43.434  23.696  26.684  1.00  0.00    -0.014 A 
BRANCH  35  36
ATOM     36  C   UNL A   1      43.871  25.092  26.708  1.00  0.00     0.031 A 
ATOM     37  C   UNL A   1      42.920  26.092  27.278  1.00  0.00     0.074 A 
ATOM     38  C   UNL A   1      45.149  25.361  26.401  1.00  0.00     0.049 A 
ATOM     39  N   UNL A   1      43.146  27.315  27.659  1.00  0.00    -0.248 NA
ATOM     40  C   UNL A   1      41.528  25.645  27.463  1.00  0.00     0.031 C 
ATOM     41  C   UNL A   1      46.109  24.387  25.873  1.00  0.00     0.029 A 
ATOM     42  N   UNL A   1      45.871  26.508  26.544  1.00  0.00    -0.354 N 
ATOM     43  C   UNL A   1      41.933  27.780  28.150  1.00  0.00     0.074 A 
ATOM     44  C   UNL A   1      40.961  26.728  27.966  1.00  0.00     0.031 C 
ATOM     45  C   UNL A   1      47.313  24.973  25.777  1.00  0.00     0.029 A 
ATOM     46  C   UNL A   1      47.198  26.358  26.220  1.00  0.00     0.049 A 
ATOM     47  H   UNL A   1      45.482  27.359  26.850  1.00  0.00     0.167 HD
ATOM     48  C   UNL A   1      41.675  28.979  28.720  1.00  0.00     0.034 A 
ATOM     49  C   UNL A   1      48.200  27.251  26.299  1.00  0.00     0.034 A 
ATOM     50  C   UNL A   1      42.684  30.000  28.846  1.00  0.00     0.049 A 
ATOM     51  C   UNL A   1      47.876  28.594  26.900  1.00  0.00     0.074 A 
ATOM     52  C   UNL A   1      42.567  31.280  29.351  1.00  0.00     0.029 A 
ATOM     53  N   UNL A   1      44.009  29.848  28.442  1.00  0.00    -0.354 N 
ATOM     54  N   UNL A   1      46.727  29.032  27.370  1.00  0.00    -0.248 NA
ATOM     55  C   UNL A   1      48.980  29.549  27.008  1.00  0.00     0.031 C 
ATOM     56  C   UNL A   1      43.802  31.920  29.194  1.00  0.00     0.029 A 
ATOM     57  C   UNL A   1      44.715  31.017  28.664  1.00  0.00     0.049 A 
ATOM     58  H   UNL A   1      44.389  29.026  28.056  1.00  0.00     0.167 HD
ATOM     59  C   UNL A   1      46.975  30.312  27.848  1.00  0.00     0.074 A 
ATOM     60  C   UNL A   1      48.392  30.556  27.635  1.00  0.00     0.031 C 
ATOM     61  C   UNL A   1      46.124  31.213  28.408  1.00  0.00     0.034 A 
BRANCH  48  62
ATOM     62  C   UNL A   1      40.254  29.241  29.151  1.00  0.00     0.023 A 
ATOM     63  C   UNL A   1      39.867  29.206  30.505  1.00  0.00     0.031 A 
ATOM     64  C   UNL A   1      39.251  29.439  28.188  1.00  0.00     0.131 A 
ATOM     65  C   UNL A   1      38.508  29.291  30.848  1.00  0.00     0.055 A 
ATOM     66  C   UNL A   1      37.910  29.602  28.541  1.00  0.00     0.041 A 
ATOM     67  F   UNL A   1      39.552  29.442  26.878  1.00  0.00    -0.206 F 
ATOM     68  C   UNL A   1      37.530  29.514  29.877  1.00  0.00     0.022 A 
BRANCH  65  69
ATOM     69  S   UNL A   1      38.017  28.954  32.563  1.00  0.00     0.124 S 
ATOM     70  O   UNL A   1      36.647  29.459  32.583  1.00  0.00    -0.237 OA
ATOM     71  O   UNL A   1      38.166  27.505  32.655  1.00  0.00    -0.237 OA
ATOM     72  O   UNL A   1      38.971  29.731  33.353  1.00  0.00    -0.744 OA
ENDBRANCH  65  69
ENDBRANCH  48  62
BRANCH  49  73
ATOM     73  C   UNL A   1      49.562  26.900  25.809  1.00  0.00     0.023 A 
ATOM     74  C   UNL A   1      49.994  27.234  24.517  1.00  0.00     0.031 A 
ATOM     75  C   UNL A   1      50.460  26.205  26.643  1.00  0.00     0.131 A 
ATOM     76  C   UNL A   1      51.272  26.842  24.083  1.00  0.00     0.055 A 
ATOM     77  C   UNL A   1      51.745  25.860  26.225  1.00  0.00     0.041 A 
ATOM     78  F   UNL A   1      50.103  25.868  27.893  1.00  0.00    -0.206 F 
ATOM     79  C   UNL A   1      52.154  26.169  24.931  1.00  0.00     0.022 A 
BRANCH  76  80
ATOM     80  S   UNL A   1      51.746  27.164  22.362  1.00  0.00     0.124 S 
ATOM     81  O   UNL A   1      50.523  26.821  21.646  1.00  0.00    -0.237 OA
ATOM     82  O   UNL A   1      52.091  28.581  22.404  1.00  0.00    -0.237 OA
ATOM     83  O   UNL A   1      52.872  26.257  22.144  1.00  0.00    -0.744 OA
ENDBRANCH  76  80
ENDBRANCH  49  73
BRANCH  61  84
ATOM     84  C   UNL A   1      46.733  32.522  28.835  1.00  0.00     0.023 A 
ATOM     85  C   UNL A   1      46.784  33.623  27.963  1.00  0.00     0.031 A 
ATOM     86  C   UNL A   1      47.296  32.658  30.115  1.00  0.00     0.131 A 
ATOM     87  C   UNL A   1      47.457  34.787  28.353  1.00  0.00     0.055 A 
ATOM     88  C   UNL A   1      47.901  33.845  30.524  1.00  0.00     0.041 A 
ATOM     89  F   UNL A   1      47.271  31.636  30.986  1.00  0.00    -0.206 F 
ATOM     90  C   UNL A   1      48.002  34.912  29.634  1.00  0.00     0.022 A 
BRANCH  87  91
ATOM     91  S   UNL A   1      47.722  36.085  27.116  1.00  0.00     0.124 S 
ATOM     92  O   UNL A   1      46.425  36.137  26.450  1.00  0.00    -0.237 OA
ATOM     93  O   UNL A   1      48.061  37.238  27.943  1.00  0.00    -0.237 OA
ATOM     94  O   UNL A   1      48.817  35.562  26.301  1.00  0.00    -0.744 OA
ENDBRANCH  87  91
ENDBRANCH  61  84
ENDBRANCH  35  36
ENDBRANCH  28  30
ENDBRANCH  27  28
ENDBRANCH  26  27
ENDBRANCH  25  26
ENDBRANCH  24  25
ENDBRANCH   1  24
TORSDOF 24
ENDMDL
