MODEL 1
REMARK VINA RESULT:     -11.1      0.000      0.000
REMARK SMILES C[C@@H]1CN(C(=O)C[NH+]2CCC(CC(=O)OCCOCCOC(=O)c3ccc(-c4c5nc(c(-c6cc(S(=O)(=O)[O-])ccc6F)c6ccc([nH]6)c(-c6cc(S(=O)(=O)[O-])ccc6F)c6nc(c(-c7cc(S(=O)(=O)[O-])ccc7F)c7ccc4[nH]7)C=C6)C=C5)cc3)CC2)C[C@@H](C)O1
REMARK SMILES IDX 18 1 17 2 16 3 15 4 13 5 14 6 12 7 11 8 8 9 9 10 88 11 10 13
REMARK SMILES IDX 87 14 7 15 5 16 1 17 2 18 3 19 92 20 4 21 90 22 89 23 91 24
REMARK SMILES IDX 6 25 19 26 20 27 21 28 22 29 23 30 24 31 25 32 86 33 26 34
REMARK SMILES IDX 85 35 27 36 28 37 29 38 79 39 30 40 84 41 78 42 80 43 31 44
REMARK SMILES IDX 83 45 77 46 76 47 32 49 64 50 44 51 63 52 45 53 48 54 62 55
REMARK SMILES IDX 81 56 46 57 47 58 61 60 82 61 49 62 33 63 34 64 42 65 35 66
REMARK SMILES IDX 41 67 43 68 40 69 36 70 37 71 38 72 39 73 65 74 66 75 74 76
REMARK SMILES IDX 67 77 73 78 75 79 72 80 68 81 69 82 70 83 71 84 50 85 51 86
REMARK SMILES IDX 59 87 52 88 58 89 60 90 57 91 53 92 54 93 55 94 56 95
REMARK H PARENT 8 12 80 48 48 59
REMARK Flexibility Score: inf
ROOT
ATOM      1  O   UNL A   1      35.813  21.789  24.994  1.00  0.00    -0.374 OA
ENDROOT
BRANCH   1   2
ATOM      2  C   UNL A   1      35.499  22.479  26.204  1.00  0.00     0.202 C 
BRANCH   2   3
ATOM      3  C   UNL A   1      34.013  22.713  26.482  1.00  0.00     0.261 C 
BRANCH   3   4
ATOM      4  O   UNL A   1      33.234  22.021  25.495  1.00  0.00    -0.463 OA
BRANCH   4   5
ATOM      5  C   UNL A   1      31.929  22.358  25.427  1.00  0.00     0.306 C 
ATOM      6  O   UNL A   1      30.988  21.651  25.768  1.00  0.00    -0.252 OA
BRANCH   5   7
ATOM      7  C   UNL A   1      31.726  23.781  24.962  1.00  0.00     0.126 C 
BRANCH   7   8
ATOM      8  C   UNL A   1      31.373  24.011  23.460  1.00  0.00     0.011 C 
ATOM      9  N   UNL A   1      32.513  26.273  21.998  1.00  0.00    -0.327 N 
ATOM     10  C   UNL A   1      32.917  24.947  21.559  1.00  0.00     0.262 C 
ATOM     11  C   UNL A   1      31.051  26.234  22.153  1.00  0.00     0.262 C 
ATOM     12  H   UNL A   1      32.802  26.951  21.291  1.00  0.00     0.348 HD
ATOM     13  C   UNL A   1      32.638  23.861  22.588  1.00  0.00     0.066 C 
ATOM     14  C   UNL A   1      30.581  25.323  23.288  1.00  0.00     0.066 C 
BRANCH   9  15
ATOM     15  C   UNL A   1      33.203  26.788  23.210  1.00  0.00     0.363 C 
BRANCH  15  16
ATOM     16  C   UNL A   1      32.907  28.273  23.550  1.00  0.00     0.277 C 
ATOM     17  C   UNL A   1      34.042  28.534  27.140  1.00  0.00     0.040 C 
ATOM     18  C   UNL A   1      32.521  28.353  27.121  1.00  0.00     0.135 C 
ATOM     19  C   UNL A   1      31.888  27.749  25.845  1.00  0.00     0.151 C 
ATOM     20  O   UNL A   1      31.898  29.630  27.353  1.00  0.00    -0.372 OA
ATOM     21  N   UNL A   1      32.178  28.598  24.695  1.00  0.00    -0.333 N 
ATOM     22  C   UNL A   1      32.091  30.553  26.258  1.00  0.00     0.135 C 
ATOM     23  C   UNL A   1      31.667  29.960  24.892  1.00  0.00     0.151 C 
ATOM     24  C   UNL A   1      31.264  31.778  26.611  1.00  0.00     0.040 C 
ATOM     25  O   UNL A   1      33.247  29.163  22.761  1.00  0.00    -0.268 OA
ENDBRANCH  15  16
ENDBRANCH   9  15
ENDBRANCH   7   8
ENDBRANCH   5   7
ENDBRANCH   4   5
ENDBRANCH   3   4
ENDBRANCH   2   3
ENDBRANCH   1   2
BRANCH   1  26
ATOM     26  C   UNL A   1      36.025  20.379  25.054  1.00  0.00     0.202 C 
BRANCH  26  27
ATOM     27  C   UNL A   1      37.473  19.876  24.925  1.00  0.00     0.261 C 
BRANCH  27  28
ATOM     28  O   UNL A   1      38.442  20.932  25.073  1.00  0.00    -0.460 OA
BRANCH  28  29
ATOM     29  C   UNL A   1      39.425  20.680  25.975  1.00  0.00     0.338 C 
ATOM     30  O   UNL A   1      40.040  19.638  26.106  1.00  0.00    -0.246 OA
BRANCH  29  31
ATOM     31  C   UNL A   1      39.829  21.932  26.651  1.00  0.00     0.060 A 
ATOM     32  C   UNL A   1      39.174  23.105  26.255  1.00  0.00     0.016 A 
ATOM     33  C   UNL A   1      40.871  21.982  27.579  1.00  0.00     0.016 A 
ATOM     34  C   UNL A   1      39.594  24.340  26.739  1.00  0.00     0.010 A 
ATOM     35  C   UNL A   1      41.298  23.230  28.058  1.00  0.00     0.010 A 
ATOM     36  C   UNL A   1      40.690  24.417  27.607  1.00  0.00    -0.014 A 
BRANCH  36  37
ATOM     37  C   UNL A   1      41.288  25.749  27.890  1.00  0.00     0.031 A 
ATOM     38  C   UNL A   1      42.690  26.033  27.422  1.00  0.00     0.074 A 
ATOM     39  C   UNL A   1      40.574  26.715  28.492  1.00  0.00     0.049 A 
ATOM     40  N   UNL A   1      43.411  27.116  27.558  1.00  0.00    -0.248 NA
ATOM     41  C   UNL A   1      43.369  24.942  26.710  1.00  0.00     0.031 C 
ATOM     42  C   UNL A   1      39.192  26.580  28.948  1.00  0.00     0.029 A 
ATOM     43  N   UNL A   1      40.916  28.003  28.826  1.00  0.00    -0.354 N 
ATOM     44  C   UNL A   1      44.633  26.837  26.952  1.00  0.00     0.074 A 
ATOM     45  C   UNL A   1      44.566  25.464  26.497  1.00  0.00     0.031 C 
ATOM     46  C   UNL A   1      38.807  27.736  29.515  1.00  0.00     0.029 A 
ATOM     47  C   UNL A   1      39.926  28.678  29.498  1.00  0.00     0.049 A 
ATOM     48  H   UNL A   1      41.788  28.403  28.604  1.00  0.00     0.167 HD
ATOM     49  C   UNL A   1      45.704  27.653  26.778  1.00  0.00     0.034 A 
ATOM     50  C   UNL A   1      39.928  29.903  30.063  1.00  0.00     0.034 A 
ATOM     51  C   UNL A   1      45.760  29.015  27.256  1.00  0.00     0.049 A 
ATOM     52  C   UNL A   1      41.160  30.765  29.946  1.00  0.00     0.074 A 
ATOM     53  C   UNL A   1      46.784  29.936  27.121  1.00  0.00     0.029 A 
ATOM     54  N   UNL A   1      44.757  29.648  27.981  1.00  0.00    -0.354 N 
ATOM     55  N   UNL A   1      42.304  30.499  29.359  1.00  0.00    -0.248 NA
ATOM     56  C   UNL A   1      41.095  32.099  30.558  1.00  0.00     0.031 C 
ATOM     57  C   UNL A   1      46.439  31.088  27.836  1.00  0.00     0.029 A 
ATOM     58  C   UNL A   1      45.157  30.928  28.339  1.00  0.00     0.049 A 
ATOM     59  H   UNL A   1      43.887  29.246  28.209  1.00  0.00     0.167 HD
ATOM     60  C   UNL A   1      43.087  31.641  29.511  1.00  0.00     0.074 A 
ATOM     61  C   UNL A   1      42.277  32.602  30.233  1.00  0.00     0.031 C 
ATOM     62  C   UNL A   1      44.355  31.874  29.084  1.00  0.00     0.034 A 
BRANCH  49  63
ATOM     63  C   UNL A   1      46.918  27.057  26.099  1.00  0.00     0.023 A 
ATOM     64  C   UNL A   1      47.891  26.337  26.815  1.00  0.00     0.031 A 
ATOM     65  C   UNL A   1      47.142  27.274  24.727  1.00  0.00     0.131 A 
ATOM     66  C   UNL A   1      49.087  25.957  26.186  1.00  0.00     0.055 A 
ATOM     67  C   UNL A   1      48.290  26.804  24.084  1.00  0.00     0.041 A 
ATOM     68  F   UNL A   1      46.263  27.972  23.991  1.00  0.00    -0.206 F 
ATOM     69  C   UNL A   1      49.281  26.162  24.818  1.00  0.00     0.022 A 
BRANCH  66  70
ATOM     70  S   UNL A   1      50.460  25.379  27.221  1.00  0.00     0.124 S 
ATOM     71  O   UNL A   1      50.751  26.568  28.017  1.00  0.00    -0.237 OA
ATOM     72  O   UNL A   1      49.864  24.258  27.938  1.00  0.00    -0.237 OA
ATOM     73  O   UNL A   1      51.494  25.022  26.250  1.00  0.00    -0.744 OA
ENDBRANCH  66  70
ENDBRANCH  49  63
BRANCH  50  74
ATOM     74  C   UNL A   1      38.741  30.357  30.842  1.00  0.00     0.023 A 
ATOM     75  C   UNL A   1      37.695  31.074  30.241  1.00  0.00     0.031 A 
ATOM     76  C   UNL A   1      38.646  30.076  32.218  1.00  0.00     0.131 A 
ATOM     77  C   UNL A   1      36.609  31.505  31.021  1.00  0.00     0.055 A 
ATOM     78  C   UNL A   1      37.543  30.466  32.977  1.00  0.00     0.041 A 
ATOM     79  F   UNL A   1      39.620  29.393  32.840  1.00  0.00    -0.206 F 
ATOM     80  C   UNL A   1      36.518  31.192  32.380  1.00  0.00     0.022 A 
BRANCH  77  81
ATOM     81  S   UNL A   1      35.328  32.528  30.243  1.00  0.00     0.124 S 
ATOM     82  O   UNL A   1      36.102  33.675  29.782  1.00  0.00    -0.237 OA
ATOM     83  O   UNL A   1      34.817  31.638  29.206  1.00  0.00    -0.237 OA
ATOM     84  O   UNL A   1      34.400  32.800  31.338  1.00  0.00    -0.744 OA
ENDBRANCH  77  81
ENDBRANCH  50  74
BRANCH  62  85
ATOM     85  C   UNL A   1      44.936  33.244  29.357  1.00  0.00     0.023 A 
ATOM     86  C   UNL A   1      44.841  34.294  28.426  1.00  0.00     0.031 A 
ATOM     87  C   UNL A   1      45.601  33.501  30.570  1.00  0.00     0.131 A 
ATOM     88  C   UNL A   1      45.448  35.530  28.699  1.00  0.00     0.055 A 
ATOM     89  C   UNL A   1      46.145  34.753  30.864  1.00  0.00     0.041 A 
ATOM     90  F   UNL A   1      45.730  32.537  31.497  1.00  0.00    -0.206 F 
ATOM     91  C   UNL A   1      46.083  35.772  29.920  1.00  0.00     0.022 A 
BRANCH  88  92
ATOM     92  S   UNL A   1      45.489  36.791  27.394  1.00  0.00     0.124 S 
ATOM     93  O   UNL A   1      46.541  37.683  27.868  1.00  0.00    -0.237 OA
ATOM     94  O   UNL A   1      45.805  36.002  26.208  1.00  0.00    -0.237 OA
ATOM     95  O   UNL A   1      44.140  37.356  27.420  1.00  0.00    -0.744 OA
ENDBRANCH  88  92
ENDBRANCH  62  85
ENDBRANCH  36  37
ENDBRANCH  29  31
ENDBRANCH  28  29
ENDBRANCH  27  28
ENDBRANCH  26  27
ENDBRANCH   1  26
TORSDOF 20
ENDMDL
MODEL 2
REMARK VINA RESULT:     -10.8      5.372      9.040
REMARK SMILES C[C@@H]1CN(C(=O)C[NH+]2CCC(CC(=O)OCCOCCOC(=O)c3ccc(-c4c5nc(c(-c6cc(S(=O)(=O)[O-])ccc6F)c6ccc([nH]6)c(-c6cc(S(=O)(=O)[O-])ccc6F)c6nc(c(-c7cc(S(=O)(=O)[O-])ccc7F)c7ccc4[nH]7)C=C6)C=C5)cc3)CC2)C[C@@H](C)O1
REMARK SMILES IDX 18 1 17 2 16 3 15 4 13 5 14 6 12 7 11 8 8 9 9 10 88 11 10 13
REMARK SMILES IDX 87 14 7 15 5 16 1 17 2 18 3 19 92 20 4 21 90 22 89 23 91 24
REMARK SMILES IDX 6 25 19 26 20 27 21 28 22 29 23 30 24 31 25 32 86 33 26 34
REMARK SMILES IDX 85 35 27 36 28 37 29 38 79 39 30 40 84 41 78 42 80 43 31 44
REMARK SMILES IDX 83 45 77 46 76 47 32 49 64 50 44 51 63 52 45 53 48 54 62 55
REMARK SMILES IDX 81 56 46 57 47 58 61 60 82 61 49 62 33 63 34 64 42 65 35 66
REMARK SMILES IDX 41 67 43 68 40 69 36 70 37 71 38 72 39 73 65 74 66 75 74 76
REMARK SMILES IDX 67 77 73 78 75 79 72 80 68 81 69 82 70 83 71 84 50 85 51 86
REMARK SMILES IDX 59 87 52 88 58 89 60 90 57 91 53 92 54 93 55 94 56 95
REMARK H PARENT 8 12 80 48 48 59
REMARK Flexibility Score: inf
ROOT
ATOM      1  O   UNL A   1      34.678  30.395  26.894  1.00  0.00    -0.374 OA
ENDROOT
BRANCH   1   2
ATOM      2  C   UNL A   1      34.609  28.968  26.926  1.00  0.00     0.202 C 
BRANCH   2   3
ATOM      3  C   UNL A   1      33.510  28.326  26.076  1.00  0.00     0.261 C 
BRANCH   3   4
ATOM      4  O   UNL A   1      32.871  29.342  25.287  1.00  0.00    -0.463 OA
BRANCH   4   5
ATOM      5  C   UNL A   1      31.571  29.131  24.991  1.00  0.00     0.306 C 
ATOM      6  O   UNL A   1      30.784  29.977  24.583  1.00  0.00    -0.252 OA
BRANCH   5   7
ATOM      7  C   UNL A   1      31.180  27.678  25.120  1.00  0.00     0.126 C 
BRANCH   7   8
ATOM      8  C   UNL A   1      30.500  26.996  23.893  1.00  0.00     0.011 C 
ATOM      9  N   UNL A   1      31.830  24.806  22.484  1.00  0.00    -0.327 N 
ATOM     10  C   UNL A   1      30.597  24.475  23.181  1.00  0.00     0.262 C 
ATOM     11  C   UNL A   1      31.563  26.038  21.725  1.00  0.00     0.262 C 
ATOM     12  H   UNL A   1      32.075  24.028  21.871  1.00  0.00     0.348 HD
ATOM     13  C   UNL A   1      30.189  25.517  24.212  1.00  0.00     0.066 C 
ATOM     14  C   UNL A   1      31.313  27.259  22.610  1.00  0.00     0.066 C 
BRANCH   9  15
ATOM     15  C   UNL A   1      33.043  24.912  23.338  1.00  0.00     0.363 C 
BRANCH  15  16
ATOM     16  C   UNL A   1      34.095  23.791  23.122  1.00  0.00     0.277 C 
ATOM     17  C   UNL A   1      33.362  21.423  25.968  1.00  0.00     0.040 C 
ATOM     18  C   UNL A   1      34.551  22.306  26.362  1.00  0.00     0.135 C 
ATOM     19  C   UNL A   1      34.732  23.642  25.603  1.00  0.00     0.151 C 
ATOM     20  O   UNL A   1      35.765  21.548  26.205  1.00  0.00    -0.372 OA
ATOM     21  N   UNL A   1      34.912  23.385  24.178  1.00  0.00    -0.333 N 
ATOM     22  C   UNL A   1      36.068  21.258  24.822  1.00  0.00     0.135 C 
ATOM     23  C   UNL A   1      36.076  22.526  23.932  1.00  0.00     0.151 C 
ATOM     24  C   UNL A   1      37.430  20.584  24.840  1.00  0.00     0.040 C 
ATOM     25  O   UNL A   1      34.264  23.317  21.993  1.00  0.00    -0.268 OA
ENDBRANCH  15  16
ENDBRANCH   9  15
ENDBRANCH   7   8
ENDBRANCH   5   7
ENDBRANCH   4   5
ENDBRANCH   3   4
ENDBRANCH   2   3
ENDBRANCH   1   2
BRANCH   1  26
ATOM     26  C   UNL A   1      34.002  31.128  27.915  1.00  0.00     0.202 C 
BRANCH  26  27
ATOM     27  C   UNL A   1      33.018  32.221  27.466  1.00  0.00     0.261 C 
BRANCH  27  28
ATOM     28  O   UNL A   1      33.641  33.515  27.349  1.00  0.00    -0.460 OA
BRANCH  28  29
ATOM     29  C   UNL A   1      33.500  34.315  28.436  1.00  0.00     0.338 C 
ATOM     30  O   UNL A   1      32.554  35.040  28.686  1.00  0.00    -0.246 OA
BRANCH  29  31
ATOM     31  C   UNL A   1      34.559  34.022  29.425  1.00  0.00     0.060 A 
ATOM     32  C   UNL A   1      35.883  34.220  29.012  1.00  0.00     0.016 A 
ATOM     33  C   UNL A   1      34.284  33.490  30.686  1.00  0.00     0.016 A 
ATOM     34  C   UNL A   1      36.939  33.834  29.833  1.00  0.00     0.010 A 
ATOM     35  C   UNL A   1      35.350  33.093  31.507  1.00  0.00     0.010 A 
ATOM     36  C   UNL A   1      36.681  33.223  31.066  1.00  0.00    -0.014 A 
BRANCH  36  37
ATOM     37  C   UNL A   1      37.804  32.576  31.794  1.00  0.00     0.031 A 
ATOM     38  C   UNL A   1      38.525  31.424  31.147  1.00  0.00     0.074 A 
ATOM     39  C   UNL A   1      38.223  33.047  32.982  1.00  0.00     0.049 A 
ATOM     40  N   UNL A   1      39.526  30.709  31.594  1.00  0.00    -0.248 NA
ATOM     41  C   UNL A   1      38.044  31.024  29.818  1.00  0.00     0.031 C 
ATOM     42  C   UNL A   1      37.640  34.185  33.689  1.00  0.00     0.029 A 
ATOM     43  N   UNL A   1      39.238  32.622  33.803  1.00  0.00    -0.354 N 
ATOM     44  C   UNL A   1      39.794  29.770  30.602  1.00  0.00     0.074 A 
ATOM     45  C   UNL A   1      38.812  29.978  29.558  1.00  0.00     0.031 C 
ATOM     46  C   UNL A   1      38.299  34.360  34.846  1.00  0.00     0.029 A 
ATOM     47  C   UNL A   1      39.323  33.324  34.981  1.00  0.00     0.049 A 
ATOM     48  H   UNL A   1      39.847  31.883  33.570  1.00  0.00     0.167 HD
ATOM     49  C   UNL A   1      40.774  28.831  30.560  1.00  0.00     0.034 A 
ATOM     50  C   UNL A   1      40.112  33.137  36.059  1.00  0.00     0.034 A 
ATOM     51  C   UNL A   1      41.733  28.625  31.621  1.00  0.00     0.049 A 
ATOM     52  C   UNL A   1      41.135  32.029  36.038  1.00  0.00     0.074 A 
ATOM     53  C   UNL A   1      42.777  27.719  31.676  1.00  0.00     0.029 A 
ATOM     54  N   UNL A   1      41.753  29.322  32.823  1.00  0.00    -0.354 N 
ATOM     55  N   UNL A   1      41.391  31.156  35.091  1.00  0.00    -0.248 NA
ATOM     56  C   UNL A   1      41.985  31.890  37.229  1.00  0.00     0.031 C 
ATOM     57  C   UNL A   1      43.369  27.806  32.941  1.00  0.00     0.029 A 
ATOM     58  C   UNL A   1      42.761  28.833  33.644  1.00  0.00     0.049 A 
ATOM     59  H   UNL A   1      41.141  30.056  33.060  1.00  0.00     0.167 HD
ATOM     60  C   UNL A   1      42.446  30.378  35.563  1.00  0.00     0.074 A 
ATOM     61  C   UNL A   1      42.787  30.897  36.873  1.00  0.00     0.031 C 
ATOM     62  C   UNL A   1      43.080  29.337  34.963  1.00  0.00     0.034 A 
BRANCH  49  63
ATOM     63  C   UNL A   1      40.802  27.922  29.351  1.00  0.00     0.023 A 
ATOM     64  C   UNL A   1      41.726  28.103  28.306  1.00  0.00     0.031 A 
ATOM     65  C   UNL A   1      39.843  26.902  29.207  1.00  0.00     0.131 A 
ATOM     66  C   UNL A   1      41.605  27.356  27.125  1.00  0.00     0.055 A 
ATOM     67  C   UNL A   1      39.792  26.094  28.068  1.00  0.00     0.041 A 
ATOM     68  F   UNL A   1      38.919  26.691  30.156  1.00  0.00    -0.206 F 
ATOM     69  C   UNL A   1      40.661  26.334  27.009  1.00  0.00     0.022 A 
BRANCH  66  70
ATOM     70  S   UNL A   1      42.561  27.876  25.673  1.00  0.00     0.124 S 
ATOM     71  O   UNL A   1      43.839  28.245  26.277  1.00  0.00    -0.237 OA
ATOM     72  O   UNL A   1      42.567  26.671  24.851  1.00  0.00    -0.237 OA
ATOM     73  O   UNL A   1      41.789  28.996  25.137  1.00  0.00    -0.744 OA
ENDBRANCH  66  70
ENDBRANCH  49  63
BRANCH  50  74
ATOM     74  C   UNL A   1      39.920  33.987  37.269  1.00  0.00     0.023 A 
ATOM     75  C   UNL A   1      39.176  33.542  38.372  1.00  0.00     0.031 A 
ATOM     76  C   UNL A   1      40.485  35.274  37.327  1.00  0.00     0.131 A 
ATOM     77  C   UNL A   1      38.999  34.388  39.479  1.00  0.00     0.055 A 
ATOM     78  C   UNL A   1      40.346  36.092  38.448  1.00  0.00     0.041 A 
ATOM     79  F   UNL A   1      41.206  35.747  36.298  1.00  0.00    -0.206 F 
ATOM     80  C   UNL A   1      39.592  35.653  39.531  1.00  0.00     0.022 A 
BRANCH  77  81
ATOM     81  S   UNL A   1      37.938  33.832  40.842  1.00  0.00     0.124 S 
ATOM     82  O   UNL A   1      36.889  33.113  40.127  1.00  0.00    -0.237 OA
ATOM     83  O   UNL A   1      38.857  33.015  41.627  1.00  0.00    -0.237 OA
ATOM     84  O   UNL A   1      37.520  35.079  41.477  1.00  0.00    -0.744 OA
ENDBRANCH  77  81
ENDBRANCH  50  74
BRANCH  62  85
ATOM     85  C   UNL A   1      44.237  28.709  35.707  1.00  0.00     0.023 A 
ATOM     86  C   UNL A   1      44.060  27.622  36.581  1.00  0.00     0.031 A 
ATOM     87  C   UNL A   1      45.541  29.212  35.539  1.00  0.00     0.131 A 
ATOM     88  C   UNL A   1      45.156  27.111  37.295  1.00  0.00     0.055 A 
ATOM     89  C   UNL A   1      46.638  28.657  36.202  1.00  0.00     0.041 A 
ATOM     90  F   UNL A   1      45.773  30.253  34.723  1.00  0.00    -0.206 F 
ATOM     91  C   UNL A   1      46.447  27.610  37.096  1.00  0.00     0.022 A 
BRANCH  88  92
ATOM     92  S   UNL A   1      44.860  25.852  38.568  1.00  0.00     0.124 S 
ATOM     93  O   UNL A   1      44.031  24.888  37.853  1.00  0.00    -0.237 OA
ATOM     94  O   UNL A   1      46.213  25.414  38.894  1.00  0.00    -0.237 OA
ATOM     95  O   UNL A   1      44.177  26.591  39.629  1.00  0.00    -0.744 OA
ENDBRANCH  88  92
ENDBRANCH  62  85
ENDBRANCH  36  37
ENDBRANCH  29  31
ENDBRANCH  28  29
ENDBRANCH  27  28
ENDBRANCH  26  27
ENDBRANCH   1  26
TORSDOF 20
ENDMDL
MODEL 3
REMARK VINA RESULT:     -10.7      4.443      9.174
REMARK SMILES C[C@@H]1CN(C(=O)C[NH+]2CCC(CC(=O)OCCOCCOC(=O)c3ccc(-c4c5nc(c(-c6cc(S(=O)(=O)[O-])ccc6F)c6ccc([nH]6)c(-c6cc(S(=O)(=O)[O-])ccc6F)c6nc(c(-c7cc(S(=O)(=O)[O-])ccc7F)c7ccc4[nH]7)C=C6)C=C5)cc3)CC2)C[C@@H](C)O1
REMARK SMILES IDX 18 1 17 2 16 3 15 4 13 5 14 6 12 7 11 8 8 9 9 10 88 11 10 13
REMARK SMILES IDX 87 14 7 15 5 16 1 17 2 18 3 19 92 20 4 21 90 22 89 23 91 24
REMARK SMILES IDX 6 25 19 26 20 27 21 28 22 29 23 30 24 31 25 32 86 33 26 34
REMARK SMILES IDX 85 35 27 36 28 37 29 38 79 39 30 40 84 41 78 42 80 43 31 44
REMARK SMILES IDX 83 45 77 46 76 47 32 49 64 50 44 51 63 52 45 53 48 54 62 55
REMARK SMILES IDX 81 56 46 57 47 58 61 60 82 61 49 62 33 63 34 64 42 65 35 66
REMARK SMILES IDX 41 67 43 68 40 69 36 70 37 71 38 72 39 73 65 74 66 75 74 76
REMARK SMILES IDX 67 77 73 78 75 79 72 80 68 81 69 82 70 83 71 84 50 85 51 86
REMARK SMILES IDX 59 87 52 88 58 89 60 90 57 91 53 92 54 93 55 94 56 95
REMARK H PARENT 8 12 80 48 48 59
REMARK Flexibility Score: inf
ROOT
ATOM      1  O   UNL A   1      41.939  21.619  27.271  1.00  0.00    -0.374 OA
ENDROOT
BRANCH   1   2
ATOM      2  C   UNL A   1      40.515  21.506  27.252  1.00  0.00     0.202 C 
BRANCH   2   3
ATOM      3  C   UNL A   1      39.806  22.110  26.038  1.00  0.00     0.261 C 
BRANCH   3   4
ATOM      4  O   UNL A   1      38.402  22.213  26.316  1.00  0.00    -0.463 OA
BRANCH   4   5
ATOM      5  C   UNL A   1      37.579  21.575  25.457  1.00  0.00     0.306 C 
ATOM      6  O   UNL A   1      37.808  20.502  24.911  1.00  0.00    -0.252 OA
BRANCH   5   7
ATOM      7  C   UNL A   1      36.254  22.282  25.296  1.00  0.00     0.126 C 
BRANCH   7   8
ATOM      8  C   UNL A   1      35.082  21.490  24.642  1.00  0.00     0.011 C 
ATOM      9  N   UNL A   1      32.321  22.408  24.941  1.00  0.00    -0.327 N 
ATOM     10  C   UNL A   1      32.872  22.438  23.596  1.00  0.00     0.262 C 
ATOM     11  C   UNL A   1      32.663  21.091  25.503  1.00  0.00     0.262 C 
ATOM     12  H   UNL A   1      31.311  22.544  24.882  1.00  0.00     0.348 HD
ATOM     13  C   UNL A   1      34.391  22.356  23.565  1.00  0.00     0.066 C 
ATOM     14  C   UNL A   1      34.162  20.893  25.726  1.00  0.00     0.066 C 
BRANCH   9  15
ATOM     15  C   UNL A   1      32.726  23.530  25.829  1.00  0.00     0.363 C 
BRANCH  15  16
ATOM     16  C   UNL A   1      31.784  24.764  25.794  1.00  0.00     0.277 C 
ATOM     17  C   UNL A   1      31.791  25.695  22.136  1.00  0.00     0.040 C 
ATOM     18  C   UNL A   1      32.774  26.609  22.875  1.00  0.00     0.135 C 
ATOM     19  C   UNL A   1      33.307  26.128  24.245  1.00  0.00     0.151 C 
ATOM     20  O   UNL A   1      32.155  27.893  23.075  1.00  0.00    -0.372 OA
ATOM     21  N   UNL A   1      32.199  25.943  25.174  1.00  0.00    -0.333 N 
ATOM     22  C   UNL A   1      31.053  27.843  24.009  1.00  0.00     0.135 C 
ATOM     23  C   UNL A   1      31.442  27.188  25.358  1.00  0.00     0.151 C 
ATOM     24  C   UNL A   1      30.618  29.286  24.199  1.00  0.00     0.040 C 
ATOM     25  O   UNL A   1      30.700  24.725  26.387  1.00  0.00    -0.268 OA
ENDBRANCH  15  16
ENDBRANCH   9  15
ENDBRANCH   7   8
ENDBRANCH   5   7
ENDBRANCH   4   5
ENDBRANCH   3   4
ENDBRANCH   2   3
ENDBRANCH   1   2
BRANCH   1  26
ATOM     26  C   UNL A   1      42.670  21.152  26.138  1.00  0.00     0.202 C 
BRANCH  26  27
ATOM     27  C   UNL A   1      43.656  22.132  25.480  1.00  0.00     0.261 C 
BRANCH  27  28
ATOM     28  O   UNL A   1      43.011  23.328  25.000  1.00  0.00    -0.460 OA
BRANCH  28  29
ATOM     29  C   UNL A   1      43.711  24.473  25.208  1.00  0.00     0.338 C 
ATOM     30  O   UNL A   1      44.699  24.840  24.598  1.00  0.00    -0.246 OA
BRANCH  29  31
ATOM     31  C   UNL A   1      42.975  25.358  26.136  1.00  0.00     0.060 A 
ATOM     32  C   UNL A   1      43.559  26.598  26.424  1.00  0.00     0.016 A 
ATOM     33  C   UNL A   1      41.798  24.965  26.776  1.00  0.00     0.016 A 
ATOM     34  C   UNL A   1      43.003  27.427  27.394  1.00  0.00     0.010 A 
ATOM     35  C   UNL A   1      41.245  25.797  27.760  1.00  0.00     0.010 A 
ATOM     36  C   UNL A   1      41.869  27.012  28.104  1.00  0.00    -0.014 A 
BRANCH  36  37
ATOM     37  C   UNL A   1      41.459  27.778  29.311  1.00  0.00     0.031 A 
ATOM     38  C   UNL A   1      40.213  28.618  29.253  1.00  0.00     0.074 A 
ATOM     39  C   UNL A   1      42.146  27.675  30.462  1.00  0.00     0.049 A 
ATOM     40  N   UNL A   1      39.669  29.368  30.178  1.00  0.00    -0.248 NA
ATOM     41  C   UNL A   1      39.487  28.615  27.976  1.00  0.00     0.031 C 
ATOM     42  C   UNL A   1      43.340  26.856  30.660  1.00  0.00     0.029 A 
ATOM     43  N   UNL A   1      41.935  28.266  31.684  1.00  0.00    -0.354 N 
ATOM     44  C   UNL A   1      38.537  29.930  29.593  1.00  0.00     0.074 A 
ATOM     45  C   UNL A   1      38.510  29.473  28.219  1.00  0.00     0.031 C 
ATOM     46  C   UNL A   1      43.766  27.008  31.925  1.00  0.00     0.029 A 
ATOM     47  C   UNL A   1      42.899  27.963  32.615  1.00  0.00     0.049 A 
ATOM     48  H   UNL A   1      41.167  28.852  31.874  1.00  0.00     0.167 HD
ATOM     49  C   UNL A   1      37.602  30.740  30.152  1.00  0.00     0.034 A 
ATOM     50  C   UNL A   1      43.082  28.424  33.869  1.00  0.00     0.034 A 
ATOM     51  C   UNL A   1      37.657  31.203  31.520  1.00  0.00     0.049 A 
ATOM     52  C   UNL A   1      42.088  29.399  34.448  1.00  0.00     0.074 A 
ATOM     53  C   UNL A   1      36.757  32.009  32.195  1.00  0.00     0.029 A 
ATOM     54  N   UNL A   1      38.679  30.917  32.418  1.00  0.00    -0.354 N 
ATOM     55  N   UNL A   1      41.014  29.913  33.893  1.00  0.00    -0.248 NA
ATOM     56  C   UNL A   1      42.323  29.845  35.827  1.00  0.00     0.031 C 
ATOM     57  C   UNL A   1      37.277  32.282  33.465  1.00  0.00     0.029 A 
ATOM     58  C   UNL A   1      38.454  31.569  33.623  1.00  0.00     0.049 A 
ATOM     59  H   UNL A   1      39.451  30.336  32.227  1.00  0.00     0.167 HD
ATOM     60  C   UNL A   1      40.434  30.727  34.864  1.00  0.00     0.074 A 
ATOM     61  C   UNL A   1      41.271  30.622  36.043  1.00  0.00     0.031 C 
ATOM     62  C   UNL A   1      39.308  31.483  34.789  1.00  0.00     0.034 A 
BRANCH  49  63
ATOM     63  C   UNL A   1      36.485  31.222  29.253  1.00  0.00     0.023 A 
ATOM     64  C   UNL A   1      35.493  30.350  28.769  1.00  0.00     0.031 A 
ATOM     65  C   UNL A   1      36.453  32.559  28.814  1.00  0.00     0.131 A 
ATOM     66  C   UNL A   1      34.582  30.795  27.798  1.00  0.00     0.055 A 
ATOM     67  C   UNL A   1      35.480  33.019  27.923  1.00  0.00     0.041 A 
ATOM     68  F   UNL A   1      37.382  33.436  29.221  1.00  0.00    -0.206 F 
ATOM     69  C   UNL A   1      34.552  32.130  27.391  1.00  0.00     0.022 A 
BRANCH  66  70
ATOM     70  S   UNL A   1      33.578  29.559  26.927  1.00  0.00     0.124 S 
ATOM     71  O   UNL A   1      32.295  29.683  27.614  1.00  0.00    -0.237 OA
ATOM     72  O   UNL A   1      33.616  30.036  25.549  1.00  0.00    -0.237 OA
ATOM     73  O   UNL A   1      34.288  28.304  27.174  1.00  0.00    -0.744 OA
ENDBRANCH  66  70
ENDBRANCH  49  63
BRANCH  50  74
ATOM     74  C   UNL A   1      44.292  28.010  34.637  1.00  0.00     0.023 A 
ATOM     75  C   UNL A   1      45.497  28.723  34.554  1.00  0.00     0.031 A 
ATOM     76  C   UNL A   1      44.249  26.875  35.468  1.00  0.00     0.131 A 
ATOM     77  C   UNL A   1      46.619  28.279  35.275  1.00  0.00     0.055 A 
ATOM     78  C   UNL A   1      45.352  26.466  36.218  1.00  0.00     0.041 A 
ATOM     79  F   UNL A   1      43.119  26.159  35.582  1.00  0.00    -0.206 F 
ATOM     80  C   UNL A   1      46.549  27.167  36.118  1.00  0.00     0.022 A 
BRANCH  77  81
ATOM     81  S   UNL A   1      48.195  29.152  35.060  1.00  0.00     0.124 S 
ATOM     82  O   UNL A   1      47.752  30.443  34.546  1.00  0.00    -0.237 OA
ATOM     83  O   UNL A   1      48.730  29.150  36.418  1.00  0.00    -0.237 OA
ATOM     84  O   UNL A   1      48.920  28.315  34.107  1.00  0.00    -0.744 OA
ENDBRANCH  77  81
ENDBRANCH  50  74
BRANCH  62  85
ATOM     85  C   UNL A   1      38.893  32.232  36.035  1.00  0.00     0.023 A 
ATOM     86  C   UNL A   1      38.138  31.624  37.055  1.00  0.00     0.031 A 
ATOM     87  C   UNL A   1      39.257  33.581  36.203  1.00  0.00     0.131 A 
ATOM     88  C   UNL A   1      37.725  32.378  38.165  1.00  0.00     0.055 A 
ATOM     89  C   UNL A   1      38.900  34.307  37.341  1.00  0.00     0.041 A 
ATOM     90  F   UNL A   1      39.972  34.218  35.262  1.00  0.00    -0.206 F 
ATOM     91  C   UNL A   1      38.118  33.710  38.324  1.00  0.00     0.022 A 
BRANCH  88  92
ATOM     92  S   UNL A   1      36.579  31.626  39.355  1.00  0.00     0.124 S 
ATOM     93  O   UNL A   1      37.311  31.766  40.609  1.00  0.00    -0.237 OA
ATOM     94  O   UNL A   1      35.390  32.460  39.212  1.00  0.00    -0.237 OA
ATOM     95  O   UNL A   1      36.434  30.254  38.871  1.00  0.00    -0.744 OA
ENDBRANCH  88  92
ENDBRANCH  62  85
ENDBRANCH  36  37
ENDBRANCH  29  31
ENDBRANCH  28  29
ENDBRANCH  27  28
ENDBRANCH  26  27
ENDBRANCH   1  26
TORSDOF 20
ENDMDL
