MODEL 1
REMARK VINA RESULT:      -9.4      0.000      0.000
REMARK SMILES CCC(CC)(C[C@H](O)COC)C(=O)OCCOCCOC(=O)c1ccc(-c2c3nc(c(-c4cc(S(=O)(=O)[O-])ccc4F)c4ccc([nH]4)c(-c4cc(S(=O)(=O)[O-])ccc4F)c4nc(c(-c5cc(S(=O)(=O)[O-])ccc5F)c5ccc2[nH]5)C=C4)C=C3)cc1
REMARK SMILES IDX 16 1 15 2 14 3 12 4 13 5 3 6 2 7 1 8 4 9 5 10 6 11 7 12 9 13
REMARK SMILES IDX 10 14 11 15 8 16 17 18 18 19 19 20 20 21 21 22 22 23 23 24
REMARK SMILES IDX 24 25 85 26 25 27 84 28 26 29 27 30 28 31 78 32 29 33 83 34
REMARK SMILES IDX 77 35 79 36 30 37 82 38 76 39 75 40 31 42 63 43 43 44 62 45
REMARK SMILES IDX 44 46 47 47 61 48 80 49 45 50 46 51 60 53 81 54 48 55 32 56
REMARK SMILES IDX 33 57 41 58 34 59 40 60 42 61 39 62 35 63 36 64 37 65 38 66
REMARK SMILES IDX 64 67 65 68 73 69 66 70 72 71 74 72 71 73 67 74 68 75 69 76
REMARK SMILES IDX 70 77 49 78 50 79 58 80 51 81 57 82 59 83 56 84 52 85 53 86
REMARK SMILES IDX 54 87 55 88
REMARK H PARENT 8 17 79 41 47 52
REMARK Flexibility Score: inf
ROOT
ATOM      1  C   UNL A   1      32.445  27.152  25.845  1.00  0.00     0.202 C 
ENDROOT
BRANCH   1   2
ATOM      2  C   UNL A   1      33.708  26.285  25.943  1.00  0.00     0.261 C 
BRANCH   2   3
ATOM      3  O   UNL A   1      34.084  25.589  24.735  1.00  0.00    -0.463 OA
BRANCH   3   4
ATOM      4  C   UNL A   1      34.799  24.447  24.944  1.00  0.00     0.312 C 
ATOM      5  O   UNL A   1      35.615  24.323  25.849  1.00  0.00    -0.252 OA
BRANCH   4   6
ATOM      6  C   UNL A   1      34.529  23.360  23.888  1.00  0.00     0.070 C 
BRANCH   6   7
ATOM      7  C   UNL A   1      35.857  23.075  23.107  1.00  0.00     0.015 C 
ATOM      8  C   UNL A   1      37.056  22.559  23.903  1.00  0.00     0.005 C 
ENDBRANCH   6   7
BRANCH   6   9
ATOM      9  C   UNL A   1      33.432  23.949  22.943  1.00  0.00     0.015 C 
ATOM     10  C   UNL A   1      33.164  23.159  21.665  1.00  0.00     0.005 C 
ENDBRANCH   6   9
BRANCH   6  11
ATOM     11  C   UNL A   1      33.971  22.026  24.502  1.00  0.00     0.053 C 
BRANCH  11  12
ATOM     12  C   UNL A   1      34.635  21.357  25.725  1.00  0.00     0.141 C 
BRANCH  12  13
ATOM     13  C   UNL A   1      33.640  21.266  26.906  1.00  0.00     0.191 C 
BRANCH  13  14
ATOM     14  O   UNL A   1      33.420  22.518  27.570  1.00  0.00    -0.382 OA
ATOM     15  C   UNL A   1      32.143  23.092  27.316  1.00  0.00     0.195 C 
ENDBRANCH  13  14
ENDBRANCH  12  13
BRANCH  12  16
ATOM     16  O   UNL A   1      35.082  20.040  25.430  1.00  0.00    -0.391 OA
ATOM     17  H   UNL A   1      34.411  19.400  25.712  1.00  0.00     0.211 HD
ENDBRANCH  12  16
ENDBRANCH  11  12
ENDBRANCH   6  11
ENDBRANCH   4   6
ENDBRANCH   3   4
ENDBRANCH   2   3
ENDBRANCH   1   2
BRANCH   1  18
ATOM     18  O   UNL A   1      32.266  27.950  24.677  1.00  0.00    -0.374 OA
BRANCH  18  19
ATOM     19  C   UNL A   1      32.536  29.341  24.805  1.00  0.00     0.202 C 
BRANCH  19  20
ATOM     20  C   UNL A   1      31.742  30.115  25.862  1.00  0.00     0.261 C 
BRANCH  20  21
ATOM     21  O   UNL A   1      32.476  30.207  27.096  1.00  0.00    -0.460 OA
BRANCH  21  22
ATOM     22  C   UNL A   1      33.143  31.375  27.254  1.00  0.00     0.338 C 
ATOM     23  O   UNL A   1      32.660  32.500  27.251  1.00  0.00    -0.246 OA
BRANCH  22  24
ATOM     24  C   UNL A   1      34.535  31.118  27.664  1.00  0.00     0.060 A 
ATOM     25  C   UNL A   1      34.918  29.776  27.783  1.00  0.00     0.016 A 
ATOM     26  C   UNL A   1      35.419  32.144  28.006  1.00  0.00     0.016 A 
ATOM     27  C   UNL A   1      36.157  29.450  28.324  1.00  0.00     0.010 A 
ATOM     28  C   UNL A   1      36.663  31.813  28.558  1.00  0.00     0.010 A 
ATOM     29  C   UNL A   1      37.010  30.465  28.770  1.00  0.00    -0.014 A 
BRANCH  29  30
ATOM     30  C   UNL A   1      38.138  30.099  29.662  1.00  0.00     0.031 A 
ATOM     31  C   UNL A   1      39.189  29.159  29.130  1.00  0.00     0.074 A 
ATOM     32  C   UNL A   1      38.272  30.652  30.880  1.00  0.00     0.049 A 
ATOM     33  N   UNL A   1      40.263  28.692  29.714  1.00  0.00    -0.248 NA
ATOM     34  C   UNL A   1      38.999  28.684  27.751  1.00  0.00     0.031 C 
ATOM     35  C   UNL A   1      37.355  31.626  31.469  1.00  0.00     0.029 A 
ATOM     36  N   UNL A   1      39.239  30.476  31.838  1.00  0.00    -0.354 N 
ATOM     37  C   UNL A   1      40.873  27.865  28.775  1.00  0.00     0.074 A 
ATOM     38  C   UNL A   1      40.027  27.865  27.602  1.00  0.00     0.031 C 
ATOM     39  C   UNL A   1      37.802  31.956  32.693  1.00  0.00     0.029 A 
ATOM     40  C   UNL A   1      39.013  31.192  32.989  1.00  0.00     0.049 A 
ATOM     41  H   UNL A   1      40.022  29.891  31.712  1.00  0.00     0.167 HD
ATOM     42  C   UNL A   1      42.039  27.179  28.879  1.00  0.00     0.034 A 
ATOM     43  C   UNL A   1      39.692  31.208  34.154  1.00  0.00     0.034 A 
ATOM     44  C   UNL A   1      42.864  27.184  30.062  1.00  0.00     0.049 A 
ATOM     45  C   UNL A   1      40.936  30.362  34.284  1.00  0.00     0.074 A 
ATOM     46  C   UNL A   1      44.060  26.525  30.283  1.00  0.00     0.029 A 
ATOM     47  N   UNL A   1      42.569  27.876  31.231  1.00  0.00    -0.354 N 
ATOM     48  N   UNL A   1      41.498  29.576  33.394  1.00  0.00    -0.248 NA
ATOM     49  C   UNL A   1      41.641  30.413  35.572  1.00  0.00     0.031 C 
ATOM     50  C   UNL A   1      44.451  26.761  31.606  1.00  0.00     0.029 A 
ATOM     51  C   UNL A   1      43.543  27.631  32.187  1.00  0.00     0.049 A 
ATOM     52  H   UNL A   1      41.784  28.454  31.362  1.00  0.00     0.167 HD
ATOM     53  C   UNL A   1      42.640  29.064  34.006  1.00  0.00     0.074 A 
ATOM     54  C   UNL A   1      42.690  29.639  35.336  1.00  0.00     0.031 C 
ATOM     55  C   UNL A   1      43.570  28.205  33.514  1.00  0.00     0.034 A 
BRANCH  42  56
ATOM     56  C   UNL A   1      42.441  26.321  27.703  1.00  0.00     0.023 A 
ATOM     57  C   UNL A   1      41.907  25.035  27.502  1.00  0.00     0.031 A 
ATOM     58  C   UNL A   1      43.413  26.777  26.794  1.00  0.00     0.131 A 
ATOM     59  C   UNL A   1      42.406  24.222  26.471  1.00  0.00     0.055 A 
ATOM     60  C   UNL A   1      43.844  25.995  25.722  1.00  0.00     0.041 A 
ATOM     61  F   UNL A   1      43.978  27.986  26.949  1.00  0.00    -0.206 F 
ATOM     62  C   UNL A   1      43.352  24.703  25.565  1.00  0.00     0.022 A 
BRANCH  59  63
ATOM     63  S   UNL A   1      41.914  22.476  26.427  1.00  0.00     0.124 S 
ATOM     64  O   UNL A   1      42.528  22.028  25.180  1.00  0.00    -0.237 OA
ATOM     65  O   UNL A   1      42.502  21.953  27.655  1.00  0.00    -0.237 OA
ATOM     66  O   UNL A   1      40.454  22.532  26.409  1.00  0.00    -0.744 OA
ENDBRANCH  59  63
ENDBRANCH  42  56
BRANCH  43  67
ATOM     67  C   UNL A   1      39.191  32.013  35.306  1.00  0.00     0.023 A 
ATOM     68  C   UNL A   1      38.551  31.408  36.399  1.00  0.00     0.031 A 
ATOM     69  C   UNL A   1      39.310  33.415  35.305  1.00  0.00     0.131 A 
ATOM     70  C   UNL A   1      38.023  32.205  37.427  1.00  0.00     0.055 A 
ATOM     71  C   UNL A   1      38.827  34.199  36.353  1.00  0.00     0.041 A 
ATOM     72  F   UNL A   1      39.913  34.045  34.283  1.00  0.00    -0.206 F 
ATOM     73  C   UNL A   1      38.169  33.594  37.418  1.00  0.00     0.022 A 
BRANCH  70  74
ATOM     74  S   UNL A   1      37.073  31.404  38.749  1.00  0.00     0.124 S 
ATOM     75  O   UNL A   1      36.925  30.050  38.231  1.00  0.00    -0.237 OA
ATOM     76  O   UNL A   1      37.963  31.559  39.896  1.00  0.00    -0.237 OA
ATOM     77  O   UNL A   1      35.842  32.190  38.808  1.00  0.00    -0.744 OA
ENDBRANCH  70  74
ENDBRANCH  43  67
BRANCH  55  78
ATOM     78  C   UNL A   1      44.744  27.877  34.403  1.00  0.00     0.023 A 
ATOM     79  C   UNL A   1      44.731  26.774  35.275  1.00  0.00     0.031 A 
ATOM     80  C   UNL A   1      45.896  28.684  34.374  1.00  0.00     0.131 A 
ATOM     81  C   UNL A   1      45.827  26.539  36.119  1.00  0.00     0.055 A 
ATOM     82  C   UNL A   1      47.007  28.410  35.173  1.00  0.00     0.041 A 
ATOM     83  F   UNL A   1      45.963  29.751  33.561  1.00  0.00    -0.206 F 
ATOM     84  C   UNL A   1      46.971  27.339  36.062  1.00  0.00     0.022 A 
BRANCH  81  85
ATOM     85  S   UNL A   1      45.705  25.221  37.360  1.00  0.00     0.124 S 
ATOM     86  O   UNL A   1      47.105  24.852  37.549  1.00  0.00    -0.237 OA
ATOM     87  O   UNL A   1      45.070  25.905  38.481  1.00  0.00    -0.237 OA
ATOM     88  O   UNL A   1      44.880  24.208  36.704  1.00  0.00    -0.744 OA
ENDBRANCH  81  85
ENDBRANCH  55  78
ENDBRANCH  29  30
ENDBRANCH  22  24
ENDBRANCH  21  22
ENDBRANCH  20  21
ENDBRANCH  19  20
ENDBRANCH  18  19
ENDBRANCH   1  18
TORSDOF 24
ENDMDL
MODEL 2
REMARK VINA RESULT:      -9.2      2.683      8.161
REMARK SMILES CCC(CC)(C[C@H](O)COC)C(=O)OCCOCCOC(=O)c1ccc(-c2c3nc(c(-c4cc(S(=O)(=O)[O-])ccc4F)c4ccc([nH]4)c(-c4cc(S(=O)(=O)[O-])ccc4F)c4nc(c(-c5cc(S(=O)(=O)[O-])ccc5F)c5ccc2[nH]5)C=C4)C=C3)cc1
REMARK SMILES IDX 16 1 15 2 14 3 12 4 13 5 3 6 2 7 1 8 4 9 5 10 6 11 7 12 9 13
REMARK SMILES IDX 10 14 11 15 8 16 17 18 18 19 19 20 20 21 21 22 22 23 23 24
REMARK SMILES IDX 24 25 85 26 25 27 84 28 26 29 27 30 28 31 78 32 29 33 83 34
REMARK SMILES IDX 77 35 79 36 30 37 82 38 76 39 75 40 31 42 63 43 43 44 62 45
REMARK SMILES IDX 44 46 47 47 61 48 80 49 45 50 46 51 60 53 81 54 48 55 32 56
REMARK SMILES IDX 33 57 41 58 34 59 40 60 42 61 39 62 35 63 36 64 37 65 38 66
REMARK SMILES IDX 64 67 65 68 73 69 66 70 72 71 74 72 71 73 67 74 68 75 69 76
REMARK SMILES IDX 70 77 49 78 50 79 58 80 51 81 57 82 59 83 56 84 52 85 53 86
REMARK SMILES IDX 54 87 55 88
REMARK H PARENT 8 17 79 41 47 52
REMARK Flexibility Score: inf
ROOT
ATOM      1  C   UNL A   1      33.374  27.413  22.606  1.00  0.00     0.202 C 
ENDROOT
BRANCH   1   2
ATOM      2  C   UNL A   1      32.572  26.322  21.884  1.00  0.00     0.261 C 
BRANCH   2   3
ATOM      3  O   UNL A   1      32.204  25.181  22.690  1.00  0.00    -0.463 OA
BRANCH   3   4
ATOM      4  C   UNL A   1      32.784  24.009  22.304  1.00  0.00     0.312 C 
ATOM      5  O   UNL A   1      33.414  23.884  21.261  1.00  0.00    -0.252 OA
BRANCH   4   6
ATOM      6  C   UNL A   1      32.508  22.846  23.274  1.00  0.00     0.070 C 
BRANCH   6   7
ATOM      7  C   UNL A   1      33.821  22.528  24.068  1.00  0.00     0.015 C 
ATOM      8  C   UNL A   1      34.717  23.702  24.463  1.00  0.00     0.005 C 
ENDBRANCH   6   7
BRANCH   6   9
ATOM      9  C   UNL A   1      32.083  21.638  22.377  1.00  0.00     0.015 C 
ATOM     10  C   UNL A   1      32.347  20.253  22.962  1.00  0.00     0.005 C 
ENDBRANCH   6   9
BRANCH   6  11
ATOM     11  C   UNL A   1      31.334  23.140  24.275  1.00  0.00     0.053 C 
BRANCH  11  12
ATOM     12  C   UNL A   1      31.416  22.736  25.763  1.00  0.00     0.141 C 
BRANCH  12  13
ATOM     13  C   UNL A   1      30.359  23.500  26.595  1.00  0.00     0.191 C 
BRANCH  13  14
ATOM     14  O   UNL A   1      30.721  24.860  26.873  1.00  0.00    -0.382 OA
ATOM     15  C   UNL A   1      32.061  25.187  26.524  1.00  0.00     0.195 C 
ENDBRANCH  13  14
ENDBRANCH  12  13
BRANCH  12  16
ATOM     16  O   UNL A   1      31.191  21.344  25.947  1.00  0.00    -0.391 OA
ATOM     17  H   UNL A   1      30.526  21.037  25.312  1.00  0.00     0.211 HD
ENDBRANCH  12  16
ENDBRANCH  11  12
ENDBRANCH   6  11
ENDBRANCH   4   6
ENDBRANCH   3   4
ENDBRANCH   2   3
ENDBRANCH   1   2
BRANCH   1  18
ATOM     18  O   UNL A   1      33.325  27.454  24.030  1.00  0.00    -0.374 OA
BRANCH  18  19
ATOM     19  C   UNL A   1      32.620  28.543  24.615  1.00  0.00     0.202 C 
BRANCH  19  20
ATOM     20  C   UNL A   1      32.800  28.768  26.119  1.00  0.00     0.261 C 
BRANCH  20  21
ATOM     21  O   UNL A   1      34.183  28.994  26.446  1.00  0.00    -0.460 OA
BRANCH  21  22
ATOM     22  C   UNL A   1      34.404  30.128  27.153  1.00  0.00     0.338 C 
ATOM     23  O   UNL A   1      33.625  31.062  27.300  1.00  0.00    -0.246 OA
BRANCH  22  24
ATOM     24  C   UNL A   1      35.647  30.010  27.936  1.00  0.00     0.060 A 
ATOM     25  C   UNL A   1      36.842  30.296  27.264  1.00  0.00     0.016 A 
ATOM     26  C   UNL A   1      35.663  29.555  29.256  1.00  0.00     0.016 A 
ATOM     27  C   UNL A   1      38.064  30.048  27.879  1.00  0.00     0.010 A 
ATOM     28  C   UNL A   1      36.896  29.298  29.871  1.00  0.00     0.010 A 
ATOM     29  C   UNL A   1      38.097  29.491  29.162  1.00  0.00    -0.014 A 
BRANCH  29  30
ATOM     30  C   UNL A   1      39.370  28.901  29.645  1.00  0.00     0.031 A 
ATOM     31  C   UNL A   1      40.018  29.508  30.863  1.00  0.00     0.074 A 
ATOM     32  C   UNL A   1      39.894  27.805  29.070  1.00  0.00     0.049 A 
ATOM     33  N   UNL A   1      41.126  29.174  31.472  1.00  0.00    -0.248 NA
ATOM     34  C   UNL A   1      39.315  30.647  31.474  1.00  0.00     0.031 C 
ATOM     35  C   UNL A   1      39.316  27.093  27.931  1.00  0.00     0.029 A 
ATOM     36  N   UNL A   1      41.028  27.095  29.372  1.00  0.00    -0.354 N 
ATOM     37  C   UNL A   1      41.256  30.063  32.535  1.00  0.00     0.074 A 
ATOM     38  C   UNL A   1      40.135  30.974  32.460  1.00  0.00     0.031 C 
ATOM     39  C   UNL A   1      40.106  26.049  27.626  1.00  0.00     0.029 A 
ATOM     40  C   UNL A   1      41.262  26.040  28.522  1.00  0.00     0.049 A 
ATOM     41  H   UNL A   1      41.620  27.320  30.127  1.00  0.00     0.167 HD
ATOM     42  C   UNL A   1      42.216  30.108  33.492  1.00  0.00     0.034 A 
ATOM     43  C   UNL A   1      42.302  25.184  28.461  1.00  0.00     0.034 A 
ATOM     44  C   UNL A   1      43.332  29.196  33.544  1.00  0.00     0.049 A 
ATOM     45  C   UNL A   1      43.411  25.309  29.477  1.00  0.00     0.074 A 
ATOM     46  C   UNL A   1      44.366  29.148  34.462  1.00  0.00     0.029 A 
ATOM     47  N   UNL A   1      43.567  28.177  32.628  1.00  0.00    -0.354 N 
ATOM     48  N   UNL A   1      43.529  26.160  30.471  1.00  0.00    -0.248 NA
ATOM     49  C   UNL A   1      44.522  24.354  29.369  1.00  0.00     0.031 C 
ATOM     50  C   UNL A   1      45.261  28.149  34.062  1.00  0.00     0.029 A 
ATOM     51  C   UNL A   1      44.746  27.518  32.940  1.00  0.00     0.049 A 
ATOM     52  H   UNL A   1      42.982  27.955  31.869  1.00  0.00     0.167 HD
ATOM     53  C   UNL A   1      44.712  25.821  31.125  1.00  0.00     0.074 A 
ATOM     54  C   UNL A   1      45.263  24.683  30.417  1.00  0.00     0.031 C 
ATOM     55  C   UNL A   1      45.287  26.390  32.216  1.00  0.00     0.034 A 
BRANCH  42  56
ATOM     56  C   UNL A   1      42.124  31.219  34.510  1.00  0.00     0.023 A 
ATOM     57  C   UNL A   1      41.110  31.255  35.484  1.00  0.00     0.031 A 
ATOM     58  C   UNL A   1      43.036  32.290  34.473  1.00  0.00     0.131 A 
ATOM     59  C   UNL A   1      40.984  32.373  36.325  1.00  0.00     0.055 A 
ATOM     60  C   UNL A   1      42.954  33.359  35.367  1.00  0.00     0.041 A 
ATOM     61  F   UNL A   1      44.010  32.325  33.549  1.00  0.00    -0.206 F 
ATOM     62  C   UNL A   1      41.915  33.412  36.289  1.00  0.00     0.022 A 
BRANCH  59  63
ATOM     63  S   UNL A   1      39.498  32.520  37.356  1.00  0.00     0.124 S 
ATOM     64  O   UNL A   1      38.903  33.750  36.840  1.00  0.00    -0.237 OA
ATOM     65  O   UNL A   1      38.783  31.286  37.056  1.00  0.00    -0.237 OA
ATOM     66  O   UNL A   1      40.033  32.618  38.713  1.00  0.00    -0.744 OA
ENDBRANCH  59  63
ENDBRANCH  42  56
BRANCH  43  67
ATOM     67  C   UNL A   1      42.373  24.163  27.375  1.00  0.00     0.023 A 
ATOM     68  C   UNL A   1      41.639  22.968  27.443  1.00  0.00     0.031 A 
ATOM     69  C   UNL A   1      43.217  24.355  26.266  1.00  0.00     0.131 A 
ATOM     70  C   UNL A   1      41.792  21.997  26.441  1.00  0.00     0.055 A 
ATOM     71  C   UNL A   1      43.328  23.408  25.247  1.00  0.00     0.041 A 
ATOM     72  F   UNL A   1      43.943  25.480  26.151  1.00  0.00    -0.206 F 
ATOM     73  C   UNL A   1      42.620  22.215  25.337  1.00  0.00     0.022 A 
BRANCH  70  74
ATOM     74  S   UNL A   1      40.943  20.405  26.635  1.00  0.00     0.124 S 
ATOM     75  O   UNL A   1      41.832  19.504  25.912  1.00  0.00    -0.237 OA
ATOM     76  O   UNL A   1      40.916  20.253  28.086  1.00  0.00    -0.237 OA
ATOM     77  O   UNL A   1      39.642  20.634  26.010  1.00  0.00    -0.744 OA
ENDBRANCH  70  74
ENDBRANCH  43  67
BRANCH  55  78
ATOM     78  C   UNL A   1      46.554  25.756  32.736  1.00  0.00     0.023 A 
ATOM     79  C   UNL A   1      47.810  26.032  32.171  1.00  0.00     0.031 A 
ATOM     80  C   UNL A   1      46.497  24.860  33.819  1.00  0.00     0.131 A 
ATOM     81  C   UNL A   1      48.953  25.379  32.657  1.00  0.00     0.055 A 
ATOM     82  C   UNL A   1      47.646  24.258  34.337  1.00  0.00     0.041 A 
ATOM     83  F   UNL A   1      45.323  24.558  34.397  1.00  0.00    -0.206 F 
ATOM     84  C   UNL A   1      48.882  24.507  33.747  1.00  0.00     0.022 A 
BRANCH  81  85
ATOM     85  S   UNL A   1      50.529  25.616  31.790  1.00  0.00     0.124 S 
ATOM     86  O   UNL A   1      51.414  26.028  32.875  1.00  0.00    -0.237 OA
ATOM     87  O   UNL A   1      50.781  24.292  31.231  1.00  0.00    -0.237 OA
ATOM     88  O   UNL A   1      50.227  26.656  30.807  1.00  0.00    -0.744 OA
ENDBRANCH  81  85
ENDBRANCH  55  78
ENDBRANCH  29  30
ENDBRANCH  22  24
ENDBRANCH  21  22
ENDBRANCH  20  21
ENDBRANCH  19  20
ENDBRANCH  18  19
ENDBRANCH   1  18
TORSDOF 24
ENDMDL
MODEL 3
REMARK VINA RESULT:      -9.0      2.195      2.695
REMARK SMILES CCC(CC)(C[C@H](O)COC)C(=O)OCCOCCOC(=O)c1ccc(-c2c3nc(c(-c4cc(S(=O)(=O)[O-])ccc4F)c4ccc([nH]4)c(-c4cc(S(=O)(=O)[O-])ccc4F)c4nc(c(-c5cc(S(=O)(=O)[O-])ccc5F)c5ccc2[nH]5)C=C4)C=C3)cc1
REMARK SMILES IDX 16 1 15 2 14 3 12 4 13 5 3 6 2 7 1 8 4 9 5 10 6 11 7 12 9 13
REMARK SMILES IDX 10 14 11 15 8 16 17 18 18 19 19 20 20 21 21 22 22 23 23 24
REMARK SMILES IDX 24 25 85 26 25 27 84 28 26 29 27 30 28 31 78 32 29 33 83 34
REMARK SMILES IDX 77 35 79 36 30 37 82 38 76 39 75 40 31 42 63 43 43 44 62 45
REMARK SMILES IDX 44 46 47 47 61 48 80 49 45 50 46 51 60 53 81 54 48 55 32 56
REMARK SMILES IDX 33 57 41 58 34 59 40 60 42 61 39 62 35 63 36 64 37 65 38 66
REMARK SMILES IDX 64 67 65 68 73 69 66 70 72 71 74 72 71 73 67 74 68 75 69 76
REMARK SMILES IDX 70 77 49 78 50 79 58 80 51 81 57 82 59 83 56 84 52 85 53 86
REMARK SMILES IDX 54 87 55 88
REMARK H PARENT 8 17 79 41 47 52
REMARK Flexibility Score: inf
ROOT
ATOM      1  C   UNL A   1      33.441  26.936  25.966  1.00  0.00     0.202 C 
ENDROOT
BRANCH   1   2
ATOM      2  C   UNL A   1      33.635  26.633  24.474  1.00  0.00     0.261 C 
BRANCH   2   3
ATOM      3  O   UNL A   1      32.753  25.632  23.920  1.00  0.00    -0.463 OA
BRANCH   3   4
ATOM      4  C   UNL A   1      33.354  24.438  23.655  1.00  0.00     0.312 C 
ATOM      5  O   UNL A   1      34.239  24.303  22.818  1.00  0.00    -0.252 OA
BRANCH   4   6
ATOM      6  C   UNL A   1      32.761  23.267  24.461  1.00  0.00     0.070 C 
BRANCH   6   7
ATOM      7  C   UNL A   1      33.176  21.921  23.775  1.00  0.00     0.015 C 
ATOM      8  C   UNL A   1      32.489  20.639  24.246  1.00  0.00     0.005 C 
ENDBRANCH   6   7
BRANCH   6   9
ATOM      9  C   UNL A   1      31.211  23.467  24.421  1.00  0.00     0.015 C 
ATOM     10  C   UNL A   1      30.650  24.490  25.406  1.00  0.00     0.005 C 
ENDBRANCH   6   9
BRANCH   6  11
ATOM     11  C   UNL A   1      33.210  23.263  25.966  1.00  0.00     0.053 C 
BRANCH  11  12
ATOM     12  C   UNL A   1      34.439  22.461  26.443  1.00  0.00     0.141 C 
BRANCH  12  13
ATOM     13  C   UNL A   1      35.746  23.101  25.918  1.00  0.00     0.191 C 
BRANCH  13  14
ATOM     14  O   UNL A   1      36.656  22.156  25.338  1.00  0.00    -0.382 OA
ATOM     15  C   UNL A   1      36.902  22.364  23.952  1.00  0.00     0.195 C 
ENDBRANCH  13  14
ENDBRANCH  12  13
BRANCH  12  16
ATOM     16  O   UNL A   1      34.520  22.409  27.862  1.00  0.00    -0.391 OA
ATOM     17  H   UNL A   1      33.669  22.672  28.244  1.00  0.00     0.211 HD
ENDBRANCH  12  16
ENDBRANCH  11  12
ENDBRANCH   6  11
ENDBRANCH   4   6
ENDBRANCH   3   4
ENDBRANCH   2   3
ENDBRANCH   1   2
BRANCH   1  18
ATOM     18  O   UNL A   1      32.159  27.381  26.401  1.00  0.00    -0.374 OA
BRANCH  18  19
ATOM     19  C   UNL A   1      32.139  28.415  27.380  1.00  0.00     0.202 C 
BRANCH  19  20
ATOM     20  C   UNL A   1      32.068  29.859  26.872  1.00  0.00     0.261 C 
BRANCH  20  21
ATOM     21  O   UNL A   1      33.376  30.351  26.529  1.00  0.00    -0.460 OA
BRANCH  21  22
ATOM     22  C   UNL A   1      33.806  31.366  27.316  1.00  0.00     0.338 C 
ATOM     23  O   UNL A   1      33.136  32.305  27.729  1.00  0.00    -0.246 OA
BRANCH  22  24
ATOM     24  C   UNL A   1      35.163  31.087  27.816  1.00  0.00     0.060 A 
ATOM     25  C   UNL A   1      35.469  29.748  28.091  1.00  0.00     0.016 A 
ATOM     26  C   UNL A   1      36.086  32.099  28.091  1.00  0.00     0.016 A 
ATOM     27  C   UNL A   1      36.665  29.421  28.721  1.00  0.00     0.010 A 
ATOM     28  C   UNL A   1      37.286  31.769  28.733  1.00  0.00     0.010 A 
ATOM     29  C   UNL A   1      37.551  30.436  29.100  1.00  0.00    -0.014 A 
BRANCH  29  30
ATOM     30  C   UNL A   1      38.620  30.112  30.078  1.00  0.00     0.031 A 
ATOM     31  C   UNL A   1      39.704  29.154  29.655  1.00  0.00     0.074 A 
ATOM     32  C   UNL A   1      38.674  30.716  31.278  1.00  0.00     0.049 A 
ATOM     33  N   UNL A   1      40.738  28.716  30.326  1.00  0.00    -0.248 NA
ATOM     34  C   UNL A   1      39.604  28.621  28.288  1.00  0.00     0.031 C 
ATOM     35  C   UNL A   1      37.720  31.711  31.764  1.00  0.00     0.029 A 
ATOM     36  N   UNL A   1      39.577  30.585  32.302  1.00  0.00    -0.354 N 
ATOM     37  C   UNL A   1      41.408  27.853  29.465  1.00  0.00     0.074 A 
ATOM     38  C   UNL A   1      40.640  27.800  28.240  1.00  0.00     0.031 C 
ATOM     39  C   UNL A   1      38.086  32.095  33.000  1.00  0.00     0.029 A 
ATOM     40  C   UNL A   1      39.276  31.348  33.404  1.00  0.00     0.049 A 
ATOM     41  H   UNL A   1      40.367  29.999  32.252  1.00  0.00     0.167 HD
ATOM     42  C   UNL A   1      42.566  27.176  29.673  1.00  0.00     0.034 A 
ATOM     43  C   UNL A   1      39.878  31.416  34.609  1.00  0.00     0.034 A 
ATOM     44  C   UNL A   1      43.312  27.234  30.905  1.00  0.00     0.049 A 
ATOM     45  C   UNL A   1      41.112  30.581  34.856  1.00  0.00     0.074 A 
ATOM     46  C   UNL A   1      44.493  26.590  31.231  1.00  0.00     0.029 A 
ATOM     47  N   UNL A   1      42.942  27.974  32.023  1.00  0.00    -0.354 N 
ATOM     48  N   UNL A   1      41.732  29.760  34.038  1.00  0.00    -0.248 NA
ATOM     49  C   UNL A   1      41.732  30.689  36.183  1.00  0.00     0.031 C 
ATOM     50  C   UNL A   1      44.797  26.883  32.565  1.00  0.00     0.029 A 
ATOM     51  C   UNL A   1      43.852  27.774  33.049  1.00  0.00     0.049 A 
ATOM     52  H   UNL A   1      42.149  28.554  32.078  1.00  0.00     0.167 HD
ATOM     53  C   UNL A   1      42.832  29.279  34.744  1.00  0.00     0.074 A 
ATOM     54  C   UNL A   1      42.795  29.909  36.048  1.00  0.00     0.031 C 
ATOM     55  C   UNL A   1      43.793  28.403  34.349  1.00  0.00     0.034 A 
BRANCH  42  56
ATOM     56  C   UNL A   1      43.044  26.271  28.563  1.00  0.00     0.023 A 
ATOM     57  C   UNL A   1      44.140  26.606  27.748  1.00  0.00     0.031 A 
ATOM     58  C   UNL A   1      42.358  25.075  28.281  1.00  0.00     0.131 A 
ATOM     59  C   UNL A   1      44.468  25.799  26.647  1.00  0.00     0.055 A 
ATOM     60  C   UNL A   1      42.741  24.236  27.233  1.00  0.00     0.041 A 
ATOM     61  F   UNL A   1      41.287  24.715  29.006  1.00  0.00    -0.206 F 
ATOM     62  C   UNL A   1      43.791  24.604  26.399  1.00  0.00     0.022 A 
BRANCH  59  63
ATOM     63  S   UNL A   1      45.688  26.415  25.452  1.00  0.00     0.124 S 
ATOM     64  O   UNL A   1      45.864  25.252  24.586  1.00  0.00    -0.237 OA
ATOM     65  O   UNL A   1      45.000  27.556  24.861  1.00  0.00    -0.237 OA
ATOM     66  O   UNL A   1      46.844  26.744  26.283  1.00  0.00    -0.744 OA
ENDBRANCH  59  63
ENDBRANCH  42  56
BRANCH  43  67
ATOM     67  C   UNL A   1      39.303  32.267  35.691  1.00  0.00     0.023 A 
ATOM     68  C   UNL A   1      39.749  33.579  35.908  1.00  0.00     0.031 A 
ATOM     69  C   UNL A   1      38.319  31.754  36.557  1.00  0.00     0.131 A 
ATOM     70  C   UNL A   1      39.239  34.321  36.985  1.00  0.00     0.055 A 
ATOM     71  C   UNL A   1      37.779  32.513  37.596  1.00  0.00     0.041 A 
ATOM     72  F   UNL A   1      37.856  30.503  36.395  1.00  0.00    -0.206 F 
ATOM     73  C   UNL A   1      38.248  33.802  37.821  1.00  0.00     0.022 A 
BRANCH  70  74
ATOM     74  S   UNL A   1      39.944  35.959  37.326  1.00  0.00     0.124 S 
ATOM     75  O   UNL A   1      39.173  36.378  38.489  1.00  0.00    -0.237 OA
ATOM     76  O   UNL A   1      41.348  35.638  37.566  1.00  0.00    -0.237 OA
ATOM     77  O   UNL A   1      39.679  36.705  36.098  1.00  0.00    -0.744 OA
ENDBRANCH  70  74
ENDBRANCH  43  67
BRANCH  55  78
ATOM     78  C   UNL A   1      44.907  28.117  35.326  1.00  0.00     0.023 A 
ATOM     79  C   UNL A   1      44.768  27.172  36.357  1.00  0.00     0.031 A 
ATOM     80  C   UNL A   1      46.130  28.804  35.218  1.00  0.00     0.131 A 
ATOM     81  C   UNL A   1      45.815  26.977  37.271  1.00  0.00     0.055 A 
ATOM     82  C   UNL A   1      47.189  28.563  36.095  1.00  0.00     0.041 A 
ATOM     83  F   UNL A   1      46.318  29.719  34.254  1.00  0.00    -0.206 F 
ATOM     84  C   UNL A   1      47.030  27.654  37.137  1.00  0.00     0.022 A 
BRANCH  81  85
ATOM     85  S   UNL A   1      45.537  25.888  38.695  1.00  0.00     0.124 S 
ATOM     86  O   UNL A   1      46.868  25.819  39.289  1.00  0.00    -0.237 OA
ATOM     87  O   UNL A   1      44.536  26.623  39.460  1.00  0.00    -0.237 OA
ATOM     88  O   UNL A   1      45.063  24.644  38.089  1.00  0.00    -0.744 OA
ENDBRANCH  81  85
ENDBRANCH  55  78
ENDBRANCH  29  30
ENDBRANCH  22  24
ENDBRANCH  21  22
ENDBRANCH  20  21
ENDBRANCH  19  20
ENDBRANCH  18  19
ENDBRANCH   1  18
TORSDOF 24
ENDMDL
