MODEL 1
REMARK VINA RESULT:     -10.3      0.000      0.000
REMARK SMILES CO[C@H]1C[C@@H](C(=O)OCCOCCOC(=O)c2ccc(-c3c4nc(c(-c5cc(S(=O)(=O)[O-])ccc5F)c5ccc([nH]5)c(-c5cc(S(=O)(=O)[O-])ccc5F)c5nc(c(-c6cc(S(=O)(=O)[O-])ccc6F)c6ccc3[nH]6)C=C5)C=C4)cc2)N(C(=O)CSc2cccs2)C1
REMARK SMILES IDX 10 1 9 2 8 3 6 4 7 5 5 6 3 7 4 8 90 9 80 10 2 11 1 12 81 13
REMARK SMILES IDX 82 14 83 15 84 16 85 17 86 18 89 19 87 20 88 21 11 22 12 23
REMARK SMILES IDX 13 24 14 25 15 26 16 27 17 28 18 29 79 30 19 31 78 32 20 33
REMARK SMILES IDX 21 34 22 35 72 36 23 37 77 38 71 39 73 40 24 41 76 42 70 43
REMARK SMILES IDX 69 44 25 46 57 47 37 48 56 49 38 50 41 51 55 52 74 53 39 54
REMARK SMILES IDX 40 55 54 57 75 58 42 59 26 60 27 61 35 62 28 63 34 64 36 65
REMARK SMILES IDX 33 66 29 67 30 68 31 69 32 70 58 71 59 72 67 73 60 74 66 75
REMARK SMILES IDX 68 76 65 77 61 78 62 79 63 80 64 81 43 82 44 83 52 84 45 85
REMARK SMILES IDX 51 86 53 87 50 88 46 89 47 90 48 91 49 92
REMARK H PARENT 73 45 41 56
REMARK Flexibility Score: inf
ROOT
ATOM      1  C   UNL A   1      37.134  21.782  24.573  1.00  0.00     0.202 C 
ENDROOT
BRANCH   1   2
ATOM      2  C   UNL A   1      36.396  23.102  24.806  1.00  0.00     0.261 C 
BRANCH   2   3
ATOM      3  O   UNL A   1      34.964  22.967  24.687  1.00  0.00    -0.462 OA
BRANCH   3   4
ATOM      4  C   UNL A   1      34.394  23.908  23.901  1.00  0.00     0.329 C 
ATOM      5  O   UNL A   1      34.476  23.928  22.674  1.00  0.00    -0.250 OA
BRANCH   4   6
ATOM      6  C   UNL A   1      33.557  24.954  24.649  1.00  0.00     0.197 C 
ATOM      7  C   UNL A   1      31.903  24.969  26.432  1.00  0.00     0.140 C 
ATOM      8  C   UNL A   1      33.049  24.155  25.862  1.00  0.00     0.071 C 
ATOM      9  C   UNL A   1      31.323  25.683  25.217  1.00  0.00     0.152 C 
ATOM     10  N   UNL A   1      32.343  25.646  24.169  1.00  0.00    -0.325 N 
BRANCH   7  11
ATOM     11  O   UNL A   1      30.918  24.279  27.194  1.00  0.00    -0.380 OA
ATOM     12  C   UNL A   1      30.419  23.061  26.662  1.00  0.00     0.195 C 
ENDBRANCH   7  11
BRANCH  10  13
ATOM     13  C   UNL A   1      32.165  26.548  23.127  1.00  0.00     0.233 C 
ATOM     14  O   UNL A   1      31.040  26.703  22.643  1.00  0.00    -0.274 OA
BRANCH  13  15
ATOM     15  C   UNL A   1      33.367  27.304  22.600  1.00  0.00     0.175 C 
BRANCH  15  16
ATOM     16  S   UNL A   1      33.381  29.043  23.115  1.00  0.00    -0.105 SA
BRANCH  16  17
ATOM     17  C   UNL A   1      33.157  29.008  24.852  1.00  0.00     0.060 A 
ATOM     18  C   UNL A   1      33.946  28.412  25.814  1.00  0.00     0.027 A 
ATOM     19  S   UNL A   1      31.749  29.701  25.546  1.00  0.00    -0.137 S 
ATOM     20  C   UNL A   1      33.349  28.455  27.111  1.00  0.00     0.013 A 
ATOM     21  C   UNL A   1      32.139  29.111  27.101  1.00  0.00     0.066 A 
ENDBRANCH  16  17
ENDBRANCH  15  16
ENDBRANCH  13  15
ENDBRANCH  10  13
ENDBRANCH   4   6
ENDBRANCH   3   4
ENDBRANCH   2   3
ENDBRANCH   1   2
BRANCH   1  22
ATOM     22  O   UNL A   1      36.423  20.576  24.842  1.00  0.00    -0.374 OA
BRANCH  22  23
ATOM     23  C   UNL A   1      37.176  19.372  24.975  1.00  0.00     0.202 C 
BRANCH  23  24
ATOM     24  C   UNL A   1      38.709  19.481  24.931  1.00  0.00     0.261 C 
BRANCH  24  25
ATOM     25  O   UNL A   1      39.294  19.521  26.247  1.00  0.00    -0.460 OA
BRANCH  25  26
ATOM     26  C   UNL A   1      40.607  19.859  26.289  1.00  0.00     0.338 C 
ATOM     27  O   UNL A   1      41.530  19.247  25.766  1.00  0.00    -0.246 OA
BRANCH  26  28
ATOM     28  C   UNL A   1      40.759  21.225  26.836  1.00  0.00     0.060 A 
ATOM     29  C   UNL A   1      40.155  22.279  26.139  1.00  0.00     0.016 A 
ATOM     30  C   UNL A   1      41.506  21.486  27.985  1.00  0.00     0.016 A 
ATOM     31  C   UNL A   1      40.342  23.598  26.554  1.00  0.00     0.010 A 
ATOM     32  C   UNL A   1      41.676  22.808  28.414  1.00  0.00     0.010 A 
ATOM     33  C   UNL A   1      41.141  23.877  27.670  1.00  0.00    -0.014 A 
BRANCH  33  34
ATOM     34  C   UNL A   1      41.598  25.272  27.924  1.00  0.00     0.031 A 
ATOM     35  C   UNL A   1      42.972  25.674  27.452  1.00  0.00     0.074 A 
ATOM     36  C   UNL A   1      40.802  26.187  28.510  1.00  0.00     0.049 A 
ATOM     37  N   UNL A   1      43.605  26.811  27.591  1.00  0.00    -0.248 NA
ATOM     38  C   UNL A   1      43.736  24.645  26.729  1.00  0.00     0.031 C 
ATOM     39  C   UNL A   1      39.431  25.954  28.957  1.00  0.00     0.029 A 
ATOM     40  N   UNL A   1      41.039  27.503  28.826  1.00  0.00    -0.354 N 
ATOM     41  C   UNL A   1      44.843  26.632  26.979  1.00  0.00     0.074 A 
ATOM     42  C   UNL A   1      44.890  25.259  26.523  1.00  0.00     0.031 C 
ATOM     43  C   UNL A   1      38.946  27.092  29.483  1.00  0.00     0.029 A 
ATOM     44  C   UNL A   1      39.985  28.121  29.456  1.00  0.00     0.049 A 
ATOM     45  H   UNL A   1      41.886  27.962  28.621  1.00  0.00     0.167 HD
ATOM     46  C   UNL A   1      45.842  27.531  26.794  1.00  0.00     0.034 A 
ATOM     47  C   UNL A   1      39.877  29.365  29.971  1.00  0.00     0.034 A 
ATOM     48  C   UNL A   1      45.793  28.894  27.263  1.00  0.00     0.049 A 
ATOM     49  C   UNL A   1      41.050  30.314  29.870  1.00  0.00     0.074 A 
ATOM     50  C   UNL A   1      46.752  29.884  27.133  1.00  0.00     0.029 A 
ATOM     51  N   UNL A   1      44.735  29.458  27.964  1.00  0.00    -0.354 N 
ATOM     52  N   UNL A   1      42.219  30.130  29.300  1.00  0.00    -0.248 NA
ATOM     53  C   UNL A   1      40.886  31.642  30.479  1.00  0.00     0.031 C 
ATOM     54  C   UNL A   1      46.311  31.017  27.825  1.00  0.00     0.029 A 
ATOM     55  C   UNL A   1      45.034  30.770  28.303  1.00  0.00     0.049 A 
ATOM     56  H   UNL A   1      43.896  28.995  28.189  1.00  0.00     0.167 HD
ATOM     57  C   UNL A   1      42.906  31.336  29.441  1.00  0.00     0.074 A 
ATOM     58  C   UNL A   1      42.023  32.237  30.149  1.00  0.00     0.031 C 
ATOM     59  C   UNL A   1      44.148  31.669  29.007  1.00  0.00     0.034 A 
BRANCH  46  60
ATOM     60  C   UNL A   1      47.090  27.039  26.099  1.00  0.00     0.023 A 
ATOM     61  C   UNL A   1      48.105  26.360  26.797  1.00  0.00     0.031 A 
ATOM     62  C   UNL A   1      47.294  27.298  24.733  1.00  0.00     0.131 A 
ATOM     63  C   UNL A   1      49.311  26.048  26.151  1.00  0.00     0.055 A 
ATOM     64  C   UNL A   1      48.457  26.899  24.072  1.00  0.00     0.041 A 
ATOM     65  F   UNL A   1      46.373  27.964  24.017  1.00  0.00    -0.206 F 
ATOM     66  C   UNL A   1      49.483  26.286  24.787  1.00  0.00     0.022 A 
BRANCH  63  67
ATOM     67  S   UNL A   1      50.712  25.495  27.161  1.00  0.00     0.124 S 
ATOM     68  O   UNL A   1      50.197  24.247  27.721  1.00  0.00    -0.237 OA
ATOM     69  O   UNL A   1      51.779  25.363  26.177  1.00  0.00    -0.237 OA
ATOM     70  O   UNL A   1      50.886  26.577  28.129  1.00  0.00    -0.744 OA
ENDBRANCH  63  67
ENDBRANCH  46  60
BRANCH  47  71
ATOM     71  C   UNL A   1      38.623  29.792  30.661  1.00  0.00     0.023 A 
ATOM     72  C   UNL A   1      37.652  30.557  29.992  1.00  0.00     0.031 A 
ATOM     73  C   UNL A   1      38.408  29.500  32.020  1.00  0.00     0.131 A 
ATOM     74  C   UNL A   1      36.537  31.040  30.694  1.00  0.00     0.055 A 
ATOM     75  C   UNL A   1      37.267  29.933  32.697  1.00  0.00     0.041 A 
ATOM     76  F   UNL A   1      39.306  28.779  32.710  1.00  0.00    -0.206 F 
ATOM     77  C   UNL A   1      36.329  30.721  32.037  1.00  0.00     0.022 A 
BRANCH  74  78
ATOM     78  S   UNL A   1      35.404  32.177  29.847  1.00  0.00     0.124 S 
ATOM     79  O   UNL A   1      36.289  33.287  29.519  1.00  0.00    -0.237 OA
ATOM     80  O   UNL A   1      34.945  31.366  28.723  1.00  0.00    -0.237 OA
ATOM     81  O   UNL A   1      34.390  32.463  30.860  1.00  0.00    -0.744 OA
ENDBRANCH  74  78
ENDBRANCH  47  71
BRANCH  59  82
ATOM     82  C   UNL A   1      44.607  33.096  29.213  1.00  0.00     0.023 A 
ATOM     83  C   UNL A   1      44.428  34.092  28.239  1.00  0.00     0.031 A 
ATOM     84  C   UNL A   1      45.221  33.463  30.425  1.00  0.00     0.131 A 
ATOM     85  C   UNL A   1      44.897  35.395  28.476  1.00  0.00     0.055 A 
ATOM     86  C   UNL A   1      45.628  34.773  30.681  1.00  0.00     0.041 A 
ATOM     87  F   UNL A   1      45.424  32.553  31.392  1.00  0.00    -0.206 F 
ATOM     88  C   UNL A   1      45.476  35.746  29.698  1.00  0.00     0.022 A 
BRANCH  85  89
ATOM     89  S   UNL A   1      44.817  36.614  27.134  1.00  0.00     0.124 S 
ATOM     90  O   UNL A   1      45.860  36.141  26.231  1.00  0.00    -0.237 OA
ATOM     91  O   UNL A   1      43.446  36.466  26.657  1.00  0.00    -0.237 OA
ATOM     92  O   UNL A   1      45.105  37.882  27.803  1.00  0.00    -0.744 OA
ENDBRANCH  85  89
ENDBRANCH  59  82
ENDBRANCH  33  34
ENDBRANCH  26  28
ENDBRANCH  25  26
ENDBRANCH  24  25
ENDBRANCH  23  24
ENDBRANCH  22  23
ENDBRANCH   1  22
TORSDOF 22
ENDMDL
MODEL 2
REMARK VINA RESULT:     -10.0      4.938     10.602
REMARK SMILES CO[C@H]1C[C@@H](C(=O)OCCOCCOC(=O)c2ccc(-c3c4nc(c(-c5cc(S(=O)(=O)[O-])ccc5F)c5ccc([nH]5)c(-c5cc(S(=O)(=O)[O-])ccc5F)c5nc(c(-c6cc(S(=O)(=O)[O-])ccc6F)c6ccc3[nH]6)C=C5)C=C4)cc2)N(C(=O)CSc2cccs2)C1
REMARK SMILES IDX 10 1 9 2 8 3 6 4 7 5 5 6 3 7 4 8 90 9 80 10 2 11 1 12 81 13
REMARK SMILES IDX 82 14 83 15 84 16 85 17 86 18 89 19 87 20 88 21 11 22 12 23
REMARK SMILES IDX 13 24 14 25 15 26 16 27 17 28 18 29 79 30 19 31 78 32 20 33
REMARK SMILES IDX 21 34 22 35 72 36 23 37 77 38 71 39 73 40 24 41 76 42 70 43
REMARK SMILES IDX 69 44 25 46 57 47 37 48 56 49 38 50 41 51 55 52 74 53 39 54
REMARK SMILES IDX 40 55 54 57 75 58 42 59 26 60 27 61 35 62 28 63 34 64 36 65
REMARK SMILES IDX 33 66 29 67 30 68 31 69 32 70 58 71 59 72 67 73 60 74 66 75
REMARK SMILES IDX 68 76 65 77 61 78 62 79 63 80 64 81 43 82 44 83 52 84 45 85
REMARK SMILES IDX 51 86 53 87 50 88 46 89 47 90 48 91 49 92
REMARK H PARENT 73 45 41 56
REMARK Flexibility Score: inf
ROOT
ATOM      1  C   UNL A   1      32.805  29.738  27.259  1.00  0.00     0.202 C 
ENDROOT
BRANCH   1   2
ATOM      2  C   UNL A   1      33.609  28.558  26.706  1.00  0.00     0.261 C 
BRANCH   2   3
ATOM      3  O   UNL A   1      32.940  27.293  26.894  1.00  0.00    -0.462 OA
BRANCH   3   4
ATOM      4  C   UNL A   1      31.818  27.157  26.152  1.00  0.00     0.329 C 
ATOM      5  O   UNL A   1      30.692  27.004  26.620  1.00  0.00    -0.250 OA
BRANCH   4   6
ATOM      6  C   UNL A   1      32.029  27.270  24.636  1.00  0.00     0.197 C 
ATOM      7  C   UNL A   1      30.832  28.202  22.735  1.00  0.00     0.140 C 
ATOM      8  C   UNL A   1      30.977  28.321  24.240  1.00  0.00     0.071 C 
ATOM      9  C   UNL A   1      31.135  26.735  22.454  1.00  0.00     0.152 C 
ATOM     10  N   UNL A   1      31.847  26.213  23.620  1.00  0.00    -0.325 N 
BRANCH   7  11
ATOM     11  O   UNL A   1      29.608  28.638  22.153  1.00  0.00    -0.380 OA
ATOM     12  C   UNL A   1      28.758  29.444  22.955  1.00  0.00     0.195 C 
ENDBRANCH   7  11
BRANCH  10  13
ATOM     13  C   UNL A   1      32.531  25.019  23.420  1.00  0.00     0.233 C 
ATOM     14  O   UNL A   1      33.765  25.020  23.413  1.00  0.00    -0.274 OA
BRANCH  13  15
ATOM     15  C   UNL A   1      31.735  23.750  23.195  1.00  0.00     0.175 C 
BRANCH  15  16
ATOM     16  S   UNL A   1      32.720  22.434  22.427  1.00  0.00    -0.105 SA
BRANCH  16  17
ATOM     17  C   UNL A   1      32.928  21.227  23.679  1.00  0.00     0.060 A 
ATOM     18  C   UNL A   1      32.419  19.946  23.738  1.00  0.00     0.027 A 
ATOM     19  S   UNL A   1      33.785  21.620  25.113  1.00  0.00    -0.137 S 
ATOM     20  C   UNL A   1      32.668  19.319  24.998  1.00  0.00     0.013 A 
ATOM     21  C   UNL A   1      33.384  20.131  25.846  1.00  0.00     0.066 A 
ENDBRANCH  16  17
ENDBRANCH  15  16
ENDBRANCH  13  15
ENDBRANCH  10  13
ENDBRANCH   4   6
ENDBRANCH   3   4
ENDBRANCH   2   3
ENDBRANCH   1   2
BRANCH   1  22
ATOM     22  O   UNL A   1      32.703  30.902  26.442  1.00  0.00    -0.374 OA
BRANCH  22  23
ATOM     23  C   UNL A   1      31.594  31.773  26.658  1.00  0.00     0.202 C 
BRANCH  23  24
ATOM     24  C   UNL A   1      31.882  33.278  26.780  1.00  0.00     0.261 C 
BRANCH  24  25
ATOM     25  O   UNL A   1      32.202  33.668  28.129  1.00  0.00    -0.460 OA
BRANCH  25  26
ATOM     26  C   UNL A   1      33.323  34.420  28.265  1.00  0.00     0.338 C 
ATOM     27  O   UNL A   1      33.369  35.640  28.363  1.00  0.00    -0.246 OA
BRANCH  26  28
ATOM     28  C   UNL A   1      34.485  33.549  28.544  1.00  0.00     0.060 A 
ATOM     29  C   UNL A   1      34.253  32.355  29.240  1.00  0.00     0.016 A 
ATOM     30  C   UNL A   1      35.782  33.899  28.172  1.00  0.00     0.016 A 
ATOM     31  C   UNL A   1      35.322  31.538  29.614  1.00  0.00     0.010 A 
ATOM     32  C   UNL A   1      36.852  33.069  28.529  1.00  0.00     0.010 A 
ATOM     33  C   UNL A   1      36.634  31.911  29.299  1.00  0.00    -0.014 A 
BRANCH  33  34
ATOM     34  C   UNL A   1      37.778  31.222  29.961  1.00  0.00     0.031 A 
ATOM     35  C   UNL A   1      38.088  31.564  31.396  1.00  0.00     0.074 A 
ATOM     36  C   UNL A   1      38.499  30.274  29.332  1.00  0.00     0.049 A 
ATOM     37  N   UNL A   1      39.051  31.132  32.169  1.00  0.00    -0.248 NA
ATOM     38  C   UNL A   1      37.189  32.534  32.041  1.00  0.00     0.031 C 
ATOM     39  C   UNL A   1      38.268  29.800  27.971  1.00  0.00     0.029 A 
ATOM     40  N   UNL A   1      39.574  29.537  29.767  1.00  0.00    -0.354 N 
ATOM     41  C   UNL A   1      38.878  31.781  33.389  1.00  0.00     0.074 A 
ATOM     42  C   UNL A   1      37.753  32.678  33.229  1.00  0.00     0.031 C 
ATOM     43  C   UNL A   1      39.171  28.846  27.683  1.00  0.00     0.029 A 
ATOM     44  C   UNL A   1      40.074  28.674  28.821  1.00  0.00     0.049 A 
ATOM     45  H   UNL A   1      39.952  29.619  30.672  1.00  0.00     0.167 HD
ATOM     46  C   UNL A   1      39.574  31.631  34.543  1.00  0.00     0.034 A 
ATOM     47  C   UNL A   1      41.148  27.857  28.858  1.00  0.00     0.034 A 
ATOM     48  C   UNL A   1      40.702  30.744  34.691  1.00  0.00     0.049 A 
ATOM     49  C   UNL A   1      41.992  27.798  30.112  1.00  0.00     0.074 A 
ATOM     50  C   UNL A   1      41.480  30.521  35.815  1.00  0.00     0.029 A 
ATOM     51  N   UNL A   1      41.223  29.943  33.684  1.00  0.00    -0.354 N 
ATOM     52  N   UNL A   1      41.825  28.425  31.255  1.00  0.00    -0.248 NA
ATOM     53  C   UNL A   1      43.168  26.916  30.082  1.00  0.00     0.031 C 
ATOM     54  C   UNL A   1      42.518  29.652  35.464  1.00  0.00     0.029 A 
ATOM     55  C   UNL A   1      42.332  29.252  34.151  1.00  0.00     0.049 A 
ATOM     56  H   UNL A   1      40.859  29.875  32.772  1.00  0.00     0.167 HD
ATOM     57  C   UNL A   1      42.846  27.973  32.091  1.00  0.00     0.074 A 
ATOM     58  C   UNL A   1      43.623  27.025  31.323  1.00  0.00     0.031 C 
ATOM     59  C   UNL A   1      43.105  28.303  33.382  1.00  0.00     0.034 A 
BRANCH  46  60
ATOM     60  C   UNL A   1      39.159  32.491  35.714  1.00  0.00     0.023 A 
ATOM     61  C   UNL A   1      39.561  33.834  35.822  1.00  0.00     0.031 A 
ATOM     62  C   UNL A   1      38.397  31.948  36.763  1.00  0.00     0.131 A 
ATOM     63  C   UNL A   1      39.280  34.558  36.991  1.00  0.00     0.055 A 
ATOM     64  C   UNL A   1      38.038  32.703  37.881  1.00  0.00     0.041 A 
ATOM     65  F   UNL A   1      38.004  30.665  36.730  1.00  0.00    -0.206 F 
ATOM     66  C   UNL A   1      38.496  34.012  38.009  1.00  0.00     0.022 A 
BRANCH  63  67
ATOM     67  S   UNL A   1      40.105  36.154  37.237  1.00  0.00     0.124 S 
ATOM     68  O   UNL A   1      39.268  36.763  38.269  1.00  0.00    -0.237 OA
ATOM     69  O   UNL A   1      41.444  35.757  37.652  1.00  0.00    -0.237 OA
ATOM     70  O   UNL A   1      40.021  36.790  35.924  1.00  0.00    -0.744 OA
ENDBRANCH  63  67
ENDBRANCH  46  60
BRANCH  47  71
ATOM     71  C   UNL A   1      41.520  27.040  27.666  1.00  0.00     0.023 A 
ATOM     72  C   UNL A   1      41.267  25.658  27.625  1.00  0.00     0.031 A 
ATOM     73  C   UNL A   1      42.196  27.616  26.574  1.00  0.00     0.131 A 
ATOM     74  C   UNL A   1      41.726  24.893  26.542  1.00  0.00     0.055 A 
ATOM     75  C   UNL A   1      42.597  26.860  25.471  1.00  0.00     0.041 A 
ATOM     76  F   UNL A   1      42.472  28.930  26.563  1.00  0.00    -0.206 F 
ATOM     77  C   UNL A   1      42.375  25.487  25.457  1.00  0.00     0.022 A 
BRANCH  74  78
ATOM     78  S   UNL A   1      41.545  23.090  26.612  1.00  0.00     0.124 S 
ATOM     79  O   UNL A   1      40.101  22.933  26.495  1.00  0.00    -0.237 OA
ATOM     80  O   UNL A   1      42.335  22.660  25.462  1.00  0.00    -0.237 OA
ATOM     81  O   UNL A   1      42.108  22.742  27.915  1.00  0.00    -0.744 OA
ENDBRANCH  74  78
ENDBRANCH  47  71
BRANCH  59  82
ATOM     82  C   UNL A   1      44.231  27.575  34.082  1.00  0.00     0.023 A 
ATOM     83  C   UNL A   1      44.015  26.428  34.864  1.00  0.00     0.031 A 
ATOM     84  C   UNL A   1      45.553  28.039  33.944  1.00  0.00     0.131 A 
ATOM     85  C   UNL A   1      45.098  25.809  35.512  1.00  0.00     0.055 A 
ATOM     86  C   UNL A   1      46.632  27.384  34.537  1.00  0.00     0.041 A 
ATOM     87  F   UNL A   1      45.820  29.134  33.213  1.00  0.00    -0.206 F 
ATOM     88  C   UNL A   1      46.406  26.268  35.336  1.00  0.00     0.022 A 
BRANCH  85  89
ATOM     89  S   UNL A   1      44.768  24.442  36.659  1.00  0.00     0.124 S 
ATOM     90  O   UNL A   1      46.056  24.289  37.328  1.00  0.00    -0.237 OA
ATOM     91  O   UNL A   1      43.684  24.974  37.477  1.00  0.00    -0.237 OA
ATOM     92  O   UNL A   1      44.393  23.337  35.778  1.00  0.00    -0.744 OA
ENDBRANCH  85  89
ENDBRANCH  59  82
ENDBRANCH  33  34
ENDBRANCH  26  28
ENDBRANCH  25  26
ENDBRANCH  24  25
ENDBRANCH  23  24
ENDBRANCH  22  23
ENDBRANCH   1  22
TORSDOF 22
ENDMDL
MODEL 3
REMARK VINA RESULT:      -9.9      1.588      2.339
REMARK SMILES CO[C@H]1C[C@@H](C(=O)OCCOCCOC(=O)c2ccc(-c3c4nc(c(-c5cc(S(=O)(=O)[O-])ccc5F)c5ccc([nH]5)c(-c5cc(S(=O)(=O)[O-])ccc5F)c5nc(c(-c6cc(S(=O)(=O)[O-])ccc6F)c6ccc3[nH]6)C=C5)C=C4)cc2)N(C(=O)CSc2cccs2)C1
REMARK SMILES IDX 10 1 9 2 8 3 6 4 7 5 5 6 3 7 4 8 90 9 80 10 2 11 1 12 81 13
REMARK SMILES IDX 82 14 83 15 84 16 85 17 86 18 89 19 87 20 88 21 11 22 12 23
REMARK SMILES IDX 13 24 14 25 15 26 16 27 17 28 18 29 79 30 19 31 78 32 20 33
REMARK SMILES IDX 21 34 22 35 72 36 23 37 77 38 71 39 73 40 24 41 76 42 70 43
REMARK SMILES IDX 69 44 25 46 57 47 37 48 56 49 38 50 41 51 55 52 74 53 39 54
REMARK SMILES IDX 40 55 54 57 75 58 42 59 26 60 27 61 35 62 28 63 34 64 36 65
REMARK SMILES IDX 33 66 29 67 30 68 31 69 32 70 58 71 59 72 67 73 60 74 66 75
REMARK SMILES IDX 68 76 65 77 61 78 62 79 63 80 64 81 43 82 44 83 52 84 45 85
REMARK SMILES IDX 51 86 53 87 50 88 46 89 47 90 48 91 49 92
REMARK H PARENT 73 45 41 56
REMARK Flexibility Score: inf
ROOT
ATOM      1  C   UNL A   1      34.635  21.688  26.174  1.00  0.00     0.202 C 
ENDROOT
BRANCH   1   2
ATOM      2  C   UNL A   1      33.649  22.496  25.326  1.00  0.00     0.261 C 
BRANCH   2   3
ATOM      3  O   UNL A   1      33.351  23.788  25.899  1.00  0.00    -0.462 OA
BRANCH   3   4
ATOM      4  C   UNL A   1      34.001  24.810  25.299  1.00  0.00     0.329 C 
ATOM      5  O   UNL A   1      35.165  24.756  24.907  1.00  0.00    -0.250 OA
BRANCH   4   6
ATOM      6  C   UNL A   1      33.153  26.068  25.071  1.00  0.00     0.197 C 
ATOM      7  C   UNL A   1      33.041  28.327  25.965  1.00  0.00     0.140 C 
ATOM      8  C   UNL A   1      33.981  27.151  25.786  1.00  0.00     0.071 C 
ATOM      9  C   UNL A   1      31.667  27.681  26.089  1.00  0.00     0.152 C 
ATOM     10  N   UNL A   1      31.778  26.326  25.548  1.00  0.00    -0.325 N 
BRANCH   7  11
ATOM     11  O   UNL A   1      33.322  29.242  27.019  1.00  0.00    -0.380 OA
ATOM     12  C   UNL A   1      32.619  30.475  27.014  1.00  0.00     0.195 C 
ENDBRANCH   7  11
BRANCH  10  13
ATOM     13  C   UNL A   1      30.576  25.707  25.229  1.00  0.00     0.233 C 
ATOM     14  O   UNL A   1      30.012  25.003  26.071  1.00  0.00    -0.274 OA
BRANCH  13  15
ATOM     15  C   UNL A   1      29.998  25.902  23.841  1.00  0.00     0.175 C 
BRANCH  15  16
ATOM     16  S   UNL A   1      28.364  26.686  23.868  1.00  0.00    -0.105 SA
BRANCH  16  17
ATOM     17  C   UNL A   1      28.597  28.258  23.129  1.00  0.00     0.060 A 
ATOM     18  C   UNL A   1      27.649  29.193  22.769  1.00  0.00     0.027 A 
ATOM     19  S   UNL A   1      30.172  28.759  22.667  1.00  0.00    -0.137 S 
ATOM     20  C   UNL A   1      28.213  30.285  22.039  1.00  0.00     0.013 A 
ATOM     21  C   UNL A   1      29.575  30.161  21.894  1.00  0.00     0.066 A 
ENDBRANCH  16  17
ENDBRANCH  15  16
ENDBRANCH  13  15
ENDBRANCH  10  13
ENDBRANCH   4   6
ENDBRANCH   3   4
ENDBRANCH   2   3
ENDBRANCH   1   2
BRANCH   1  22
ATOM     22  O   UNL A   1      35.964  21.549  25.679  1.00  0.00    -0.374 OA
BRANCH  22  23
ATOM     23  C   UNL A   1      36.309  20.327  25.028  1.00  0.00     0.202 C 
BRANCH  23  24
ATOM     24  C   UNL A   1      37.783  19.892  25.060  1.00  0.00     0.261 C 
BRANCH  24  25
ATOM     25  O   UNL A   1      38.679  21.006  25.233  1.00  0.00    -0.460 OA
BRANCH  25  26
ATOM     26  C   UNL A   1      39.676  20.814  26.134  1.00  0.00     0.338 C 
ATOM     27  O   UNL A   1      40.326  19.788  26.287  1.00  0.00    -0.246 OA
BRANCH  26  28
ATOM     28  C   UNL A   1      40.059  22.105  26.744  1.00  0.00     0.060 A 
ATOM     29  C   UNL A   1      39.361  23.251  26.341  1.00  0.00     0.016 A 
ATOM     30  C   UNL A   1      41.103  22.212  27.663  1.00  0.00     0.016 A 
ATOM     31  C   UNL A   1      39.740  24.509  26.811  1.00  0.00     0.010 A 
ATOM     32  C   UNL A   1      41.470  23.473  28.150  1.00  0.00     0.010 A 
ATOM     33  C   UNL A   1      40.826  24.635  27.686  1.00  0.00    -0.014 A 
BRANCH  33  34
ATOM     34  C   UNL A   1      41.425  25.976  27.934  1.00  0.00     0.031 A 
ATOM     35  C   UNL A   1      42.823  26.241  27.435  1.00  0.00     0.074 A 
ATOM     36  C   UNL A   1      40.737  26.963  28.539  1.00  0.00     0.049 A 
ATOM     37  N   UNL A   1      43.569  27.308  27.563  1.00  0.00    -0.248 NA
ATOM     38  C   UNL A   1      43.466  25.144  26.694  1.00  0.00     0.031 C 
ATOM     39  C   UNL A   1      39.359  26.866  29.013  1.00  0.00     0.029 A 
ATOM     40  N   UNL A   1      41.111  28.248  28.853  1.00  0.00    -0.354 N 
ATOM     41  C   UNL A   1      44.770  27.009  26.926  1.00  0.00     0.074 A 
ATOM     42  C   UNL A   1      44.671  25.640  26.466  1.00  0.00     0.031 C 
ATOM     43  C   UNL A   1      39.001  28.045  29.552  1.00  0.00     0.029 A 
ATOM     44  C   UNL A   1      40.137  28.966  29.506  1.00  0.00     0.049 A 
ATOM     45  H   UNL A   1      41.996  28.620  28.632  1.00  0.00     0.167 HD
ATOM     46  C   UNL A   1      45.851  27.804  26.723  1.00  0.00     0.034 A 
ATOM     47  C   UNL A   1      40.164  30.211  30.026  1.00  0.00     0.034 A 
ATOM     48  C   UNL A   1      45.949  29.162  27.197  1.00  0.00     0.049 A 
ATOM     49  C   UNL A   1      41.425  31.038  29.904  1.00  0.00     0.074 A 
ATOM     50  C   UNL A   1      46.999  30.052  27.049  1.00  0.00     0.029 A 
ATOM     51  N   UNL A   1      44.966  29.826  27.921  1.00  0.00    -0.354 N 
ATOM     52  N   UNL A   1      42.558  30.741  29.310  1.00  0.00    -0.248 NA
ATOM     53  C   UNL A   1      41.407  32.373  30.519  1.00  0.00     0.031 C 
ATOM     54  C   UNL A   1      46.687  31.220  27.753  1.00  0.00     0.029 A 
ATOM     55  C   UNL A   1      45.402  31.100  28.256  1.00  0.00     0.049 A 
ATOM     56  H   UNL A   1      44.090  29.449  28.161  1.00  0.00     0.167 HD
ATOM     57  C   UNL A   1      43.365  31.871  29.439  1.00  0.00     0.074 A 
ATOM     58  C   UNL A   1      42.591  32.853  30.168  1.00  0.00     0.031 C 
ATOM     59  C   UNL A   1      44.626  32.080  28.982  1.00  0.00     0.034 A 
BRANCH  46  60
ATOM     60  C   UNL A   1      47.029  27.193  26.001  1.00  0.00     0.023 A 
ATOM     61  C   UNL A   1      48.023  26.472  26.688  1.00  0.00     0.031 A 
ATOM     62  C   UNL A   1      47.191  27.377  24.618  1.00  0.00     0.131 A 
ATOM     63  C   UNL A   1      49.174  26.045  26.009  1.00  0.00     0.055 A 
ATOM     64  C   UNL A   1      48.293  26.865  23.929  1.00  0.00     0.041 A 
ATOM     65  F   UNL A   1      46.290  28.076  23.910  1.00  0.00    -0.206 F 
ATOM     66  C   UNL A   1      49.303  26.211  24.630  1.00  0.00     0.022 A 
BRANCH  63  67
ATOM     67  S   UNL A   1      50.575  25.435  26.986  1.00  0.00     0.124 S 
ATOM     68  O   UNL A   1      51.039  26.660  27.634  1.00  0.00    -0.237 OA
ATOM     69  O   UNL A   1      49.948  24.449  27.857  1.00  0.00    -0.237 OA
ATOM     70  O   UNL A   1      51.485  24.891  25.979  1.00  0.00    -0.744 OA
ENDBRANCH  63  67
ENDBRANCH  46  60
BRANCH  47  71
ATOM     71  C   UNL A   1      38.975  30.759  30.743  1.00  0.00     0.023 A 
ATOM     72  C   UNL A   1      37.891  31.307  30.036  1.00  0.00     0.031 A 
ATOM     73  C   UNL A   1      38.932  30.803  32.148  1.00  0.00     0.131 A 
ATOM     74  C   UNL A   1      36.836  31.916  30.732  1.00  0.00     0.055 A 
ATOM     75  C   UNL A   1      37.851  31.357  32.837  1.00  0.00     0.041 A 
ATOM     76  F   UNL A   1      39.943  30.301  32.875  1.00  0.00    -0.206 F 
ATOM     77  C   UNL A   1      36.800  31.930  32.128  1.00  0.00     0.022 A 
BRANCH  74  78
ATOM     78  S   UNL A   1      35.550  32.776  29.785  1.00  0.00     0.124 S 
ATOM     79  O   UNL A   1      34.401  32.659  30.673  1.00  0.00    -0.237 OA
ATOM     80  O   UNL A   1      36.121  34.112  29.642  1.00  0.00    -0.237 OA
ATOM     81  O   UNL A   1      35.466  32.003  28.547  1.00  0.00    -0.744 OA
ENDBRANCH  74  78
ENDBRANCH  47  71
BRANCH  59  82
ATOM     82  C   UNL A   1      45.229  33.453  29.181  1.00  0.00     0.023 A 
ATOM     83  C   UNL A   1      45.178  34.450  28.192  1.00  0.00     0.031 A 
ATOM     84  C   UNL A   1      45.852  33.770  30.403  1.00  0.00     0.131 A 
ATOM     85  C   UNL A   1      45.778  35.698  28.425  1.00  0.00     0.055 A 
ATOM     86  C   UNL A   1      46.391  35.032  30.653  1.00  0.00     0.041 A 
ATOM     87  F   UNL A   1      45.936  32.857  31.384  1.00  0.00    -0.206 F 
ATOM     88  C   UNL A   1      46.365  36.002  29.656  1.00  0.00     0.022 A 
BRANCH  85  89
ATOM     89  S   UNL A   1      45.857  36.900  27.068  1.00  0.00     0.124 S 
ATOM     90  O   UNL A   1      46.475  36.117  26.003  1.00  0.00    -0.237 OA
ATOM     91  O   UNL A   1      44.453  37.245  26.873  1.00  0.00    -0.237 OA
ATOM     92  O   UNL A   1      46.688  37.976  27.609  1.00  0.00    -0.744 OA
ENDBRANCH  85  89
ENDBRANCH  59  82
ENDBRANCH  33  34
ENDBRANCH  26  28
ENDBRANCH  25  26
ENDBRANCH  24  25
ENDBRANCH  23  24
ENDBRANCH  22  23
ENDBRANCH   1  22
TORSDOF 22
ENDMDL
