MODEL 1
REMARK VINA RESULT:     -12.7      0.000      0.000
REMARK SMILES Cc1nn([C@H]2CCS(=O)(=O)C2)c(C)c1/C=C(\CC(=O)OCCOCCOC(=O)c1ccc(-c2c3nc(c(-c4cc(S(=O)(=O)[O-])ccc4F)c4ccc([nH]4)c(-c4cc(S(=O)(=O)[O-])ccc4F)c4nc(c(-c5cc(S(=O)(=O)[O-])ccc5F)c5ccc2[nH]5)C=C4)C=C3)cc1)c1nc2ccccc2s1
REMARK SMILES IDX 23 1 22 2 21 3 20 4 18 5 19 6 17 7 16 8 15 9 14 10 1 11 2 12
REMARK SMILES IDX 3 13 4 14 12 15 13 16 5 17 6 18 11 19 7 20 8 21 9 22 10 23
REMARK SMILES IDX 92 24 93 25 100 26 94 27 99 28 95 29 98 30 96 31 97 32 24 33
REMARK SMILES IDX 25 34 26 35 27 36 28 37 29 38 30 39 91 40 31 41 90 42 32 43
REMARK SMILES IDX 33 44 34 45 84 46 35 47 89 48 83 49 85 50 36 51 88 52 82 53
REMARK SMILES IDX 81 54 37 56 69 57 49 58 68 59 50 60 53 61 67 62 86 63 51 64
REMARK SMILES IDX 52 65 66 67 87 68 54 69 38 70 39 71 47 72 40 73 46 74 48 75
REMARK SMILES IDX 45 76 41 77 42 78 43 79 44 80 70 81 71 82 79 83 72 84 78 85
REMARK SMILES IDX 80 86 77 87 73 88 74 89 75 90 76 91 55 92 56 93 64 94 57 95
REMARK SMILES IDX 63 96 65 97 62 98 58 99 59 100 60 101 61 102
REMARK H PARENT 85 55 53 66
REMARK Flexibility Score: inf
ROOT
ATOM      1  O   UNL A   1      33.172  31.487  27.783  1.00  0.00    -0.374 OA
ENDROOT
BRANCH   1   2
ATOM      2  C   UNL A   1      32.488  30.733  26.788  1.00  0.00     0.202 C 
BRANCH   2   3
ATOM      3  C   UNL A   1      32.847  29.255  26.576  1.00  0.00     0.261 C 
BRANCH   3   4
ATOM      4  O   UNL A   1      31.947  28.560  25.682  1.00  0.00    -0.463 OA
BRANCH   4   5
ATOM      5  C   UNL A   1      31.674  27.295  26.051  1.00  0.00     0.310 C 
ATOM      6  O   UNL A   1      31.187  26.997  27.146  1.00  0.00    -0.252 OA
BRANCH   5   7
ATOM      7  C   UNL A   1      31.775  26.210  24.986  1.00  0.00     0.161 C 
BRANCH   7   8
ATOM      8  C   UNL A   1      30.935  25.783  23.794  1.00  0.00    -0.000 C 
ATOM      9  C   UNL A   1      30.728  24.473  23.480  1.00  0.00     0.019 C 
BRANCH   9  10
ATOM     10  C   UNL A   1      31.355  23.336  24.108  1.00  0.00     0.019 A 
ATOM     11  C   UNL A   1      30.297  23.340  26.511  1.00  0.00     0.069 C 
ATOM     12  C   UNL A   1      31.091  22.775  25.387  1.00  0.00     0.067 A 
ATOM     13  N   UNL A   1      31.701  21.586  25.527  1.00  0.00    -0.177 NA
ATOM     14  N   UNL A   1      32.394  21.435  24.382  1.00  0.00    -0.265 N 
ATOM     15  C   UNL A   1      32.462  22.612  23.671  1.00  0.00     0.043 A 
ATOM     16  C   UNL A   1      33.521  22.896  22.655  1.00  0.00     0.067 C 
BRANCH  14  17
ATOM     17  C   UNL A   1      33.092  20.189  24.103  1.00  0.00     0.123 C 
ATOM     18  C   UNL A   1      34.413  19.975  24.877  1.00  0.00     0.044 C 
ATOM     19  C   UNL A   1      32.290  18.929  24.448  1.00  0.00     0.164 C 
ATOM     20  C   UNL A   1      34.911  18.577  24.511  1.00  0.00     0.139 C 
ATOM     21  S   UNL A   1      33.448  17.613  24.184  1.00  0.00     0.152 S 
ATOM     22  O   UNL A   1      33.431  17.290  22.765  1.00  0.00    -0.229 OA
ATOM     23  O   UNL A   1      33.287  16.608  25.201  1.00  0.00    -0.229 OA
ENDBRANCH  14  17
ENDBRANCH   9  10
BRANCH   8  24
ATOM     24  C   UNL A   1      30.064  26.758  23.171  1.00  0.00     0.121 A 
ATOM     25  N   UNL A   1      30.422  27.710  22.341  1.00  0.00    -0.236 NA
ATOM     26  S   UNL A   1      28.414  26.921  23.704  1.00  0.00    -0.114 S 
ATOM     27  C   UNL A   1      29.556  28.794  22.430  1.00  0.00     0.082 A 
ATOM     28  C   UNL A   1      28.395  28.560  23.161  1.00  0.00     0.055 A 
ATOM     29  C   UNL A   1      29.795  30.104  21.961  1.00  0.00     0.030 A 
ATOM     30  C   UNL A   1      27.462  29.585  23.405  1.00  0.00     0.021 A 
ATOM     31  C   UNL A   1      28.937  31.151  22.286  1.00  0.00     0.002 A 
ATOM     32  C   UNL A   1      27.776  30.889  22.995  1.00  0.00     0.002 A 
ENDBRANCH   8  24
ENDBRANCH   7   8
ENDBRANCH   5   7
ENDBRANCH   4   5
ENDBRANCH   3   4
ENDBRANCH   2   3
ENDBRANCH   1   2
BRANCH   1  33
ATOM     33  C   UNL A   1      34.543  31.815  27.628  1.00  0.00     0.202 C 
BRANCH  33  34
ATOM     34  C   UNL A   1      35.572  31.393  28.679  1.00  0.00     0.261 C 
BRANCH  34  35
ATOM     35  O   UNL A   1      36.695  30.661  28.183  1.00  0.00    -0.460 OA
BRANCH  35  36
ATOM     36  C   UNL A   1      37.048  29.593  28.939  1.00  0.00     0.338 C 
ATOM     37  O   UNL A   1      36.663  29.377  30.078  1.00  0.00    -0.246 OA
BRANCH  36  38
ATOM     38  C   UNL A   1      38.118  28.796  28.298  1.00  0.00     0.060 A 
ATOM     39  C   UNL A   1      38.562  27.710  29.051  1.00  0.00     0.016 A 
ATOM     40  C   UNL A   1      38.916  29.326  27.283  1.00  0.00     0.016 A 
ATOM     41  C   UNL A   1      39.907  27.396  29.029  1.00  0.00     0.010 A 
ATOM     42  C   UNL A   1      40.278  29.050  27.300  1.00  0.00     0.010 A 
ATOM     43  C   UNL A   1      40.781  28.163  28.251  1.00  0.00    -0.014 A 
BRANCH  43  44
ATOM     44  C   UNL A   1      42.196  27.824  28.282  1.00  0.00     0.031 A 
ATOM     45  C   UNL A   1      42.434  26.606  27.479  1.00  0.00     0.074 A 
ATOM     46  C   UNL A   1      43.195  28.481  28.909  1.00  0.00     0.049 A 
ATOM     47  N   UNL A   1      42.509  25.401  27.931  1.00  0.00    -0.248 NA
ATOM     48  C   UNL A   1      42.285  26.695  26.019  1.00  0.00     0.031 C 
ATOM     49  C   UNL A   1      43.186  29.783  29.572  1.00  0.00     0.029 A 
ATOM     50  N   UNL A   1      44.502  28.102  29.039  1.00  0.00    -0.354 N 
ATOM     51  C   UNL A   1      42.678  24.604  26.812  1.00  0.00     0.074 A 
ATOM     52  C   UNL A   1      42.264  25.403  25.692  1.00  0.00     0.031 C 
ATOM     53  C   UNL A   1      44.459  30.179  29.824  1.00  0.00     0.029 A 
ATOM     54  C   UNL A   1      45.373  29.102  29.472  1.00  0.00     0.049 A 
ATOM     55  H   UNL A   1      44.808  27.187  28.839  1.00  0.00     0.167 HD
ATOM     56  C   UNL A   1      43.416  23.465  26.877  1.00  0.00     0.034 A 
ATOM     57  C   UNL A   1      46.739  29.052  29.507  1.00  0.00     0.034 A 
ATOM     58  C   UNL A   1      43.632  23.065  28.251  1.00  0.00     0.049 A 
ATOM     59  C   UNL A   1      47.105  27.612  29.554  1.00  0.00     0.074 A 
ATOM     60  C   UNL A   1      42.802  22.726  29.304  1.00  0.00     0.029 A 
ATOM     61  N   UNL A   1      44.850  23.364  28.820  1.00  0.00    -0.354 N 
ATOM     62  N   UNL A   1      46.839  26.848  30.578  1.00  0.00    -0.248 NA
ATOM     63  C   UNL A   1      47.277  26.911  28.289  1.00  0.00     0.031 C 
ATOM     64  C   UNL A   1      43.408  23.314  30.453  1.00  0.00     0.029 A 
ATOM     65  C   UNL A   1      44.614  23.901  30.062  1.00  0.00     0.049 A 
ATOM     66  H   UNL A   1      45.733  23.219  28.410  1.00  0.00     0.167 HD
ATOM     67  C   UNL A   1      46.368  25.666  30.031  1.00  0.00     0.074 A 
ATOM     68  C   UNL A   1      46.735  25.732  28.615  1.00  0.00     0.031 C 
ATOM     69  C   UNL A   1      45.475  24.880  30.702  1.00  0.00     0.034 A 
BRANCH  56  70
ATOM     70  C   UNL A   1      44.278  22.954  25.746  1.00  0.00     0.023 A 
ATOM     71  C   UNL A   1      44.100  21.610  25.376  1.00  0.00     0.031 A 
ATOM     72  C   UNL A   1      45.429  23.591  25.226  1.00  0.00     0.131 A 
ATOM     73  C   UNL A   1      45.080  20.935  24.631  1.00  0.00     0.055 A 
ATOM     74  C   UNL A   1      46.363  22.934  24.425  1.00  0.00     0.041 A 
ATOM     75  F   UNL A   1      45.777  24.844  25.536  1.00  0.00    -0.206 F 
ATOM     76  C   UNL A   1      46.212  21.588  24.151  1.00  0.00     0.022 A 
BRANCH  73  77
ATOM     77  S   UNL A   1      44.934  19.141  24.459  1.00  0.00     0.124 S 
ATOM     78  O   UNL A   1      44.479  19.016  23.079  1.00  0.00    -0.237 OA
ATOM     79  O   UNL A   1      46.297  18.702  24.732  1.00  0.00    -0.237 OA
ATOM     80  O   UNL A   1      43.947  18.785  25.477  1.00  0.00    -0.744 OA
ENDBRANCH  73  77
ENDBRANCH  56  70
BRANCH  57  81
ATOM     81  C   UNL A   1      47.713  30.124  29.116  1.00  0.00     0.023 A 
ATOM     82  C   UNL A   1      47.502  31.037  28.051  1.00  0.00     0.031 A 
ATOM     83  C   UNL A   1      48.781  30.427  29.991  1.00  0.00     0.131 A 
ATOM     84  C   UNL A   1      48.334  32.181  27.907  1.00  0.00     0.055 A 
ATOM     85  C   UNL A   1      49.590  31.558  29.848  1.00  0.00     0.041 A 
ATOM     86  F   UNL A   1      49.020  29.678  31.079  1.00  0.00    -0.206 F 
ATOM     87  C   UNL A   1      49.364  32.445  28.810  1.00  0.00     0.022 A 
BRANCH  84  88
ATOM     88  S   UNL A   1      48.050  33.407  26.576  1.00  0.00     0.124 S 
ATOM     89  O   UNL A   1      49.227  33.233  25.734  1.00  0.00    -0.237 OA
ATOM     90  O   UNL A   1      46.777  32.974  26.013  1.00  0.00    -0.237 OA
ATOM     91  O   UNL A   1      47.995  34.683  27.293  1.00  0.00    -0.744 OA
ENDBRANCH  84  88
ENDBRANCH  57  81
BRANCH  69  92
ATOM     92  C   UNL A   1      45.227  25.156  32.173  1.00  0.00     0.023 A 
ATOM     93  C   UNL A   1      45.989  24.633  33.246  1.00  0.00     0.031 A 
ATOM     94  C   UNL A   1      44.229  26.095  32.483  1.00  0.00     0.131 A 
ATOM     95  C   UNL A   1      45.726  25.054  34.567  1.00  0.00     0.055 A 
ATOM     96  C   UNL A   1      43.989  26.528  33.785  1.00  0.00     0.041 A 
ATOM     97  F   UNL A   1      43.484  26.642  31.507  1.00  0.00    -0.206 F 
ATOM     98  C   UNL A   1      44.734  26.005  34.834  1.00  0.00     0.022 A 
BRANCH  95  99
ATOM     99  S   UNL A   1      46.655  24.359  35.974  1.00  0.00     0.124 S 
ATOM    100  O   UNL A   1      46.564  25.402  36.991  1.00  0.00    -0.237 OA
ATOM    101  O   UNL A   1      45.926  23.126  36.259  1.00  0.00    -0.237 OA
ATOM    102  O   UNL A   1      47.999  24.157  35.430  1.00  0.00    -0.744 OA
ENDBRANCH  95  99
ENDBRANCH  69  92
ENDBRANCH  43  44
ENDBRANCH  36  38
ENDBRANCH  35  36
ENDBRANCH  34  35
ENDBRANCH  33  34
ENDBRANCH   1  33
TORSDOF 21
ENDMDL
MODEL 2
REMARK VINA RESULT:     -12.5      1.583      2.082
REMARK SMILES Cc1nn([C@H]2CCS(=O)(=O)C2)c(C)c1/C=C(\CC(=O)OCCOCCOC(=O)c1ccc(-c2c3nc(c(-c4cc(S(=O)(=O)[O-])ccc4F)c4ccc([nH]4)c(-c4cc(S(=O)(=O)[O-])ccc4F)c4nc(c(-c5cc(S(=O)(=O)[O-])ccc5F)c5ccc2[nH]5)C=C4)C=C3)cc1)c1nc2ccccc2s1
REMARK SMILES IDX 23 1 22 2 21 3 20 4 18 5 19 6 17 7 16 8 15 9 14 10 1 11 2 12
REMARK SMILES IDX 3 13 4 14 12 15 13 16 5 17 6 18 11 19 7 20 8 21 9 22 10 23
REMARK SMILES IDX 92 24 93 25 100 26 94 27 99 28 95 29 98 30 96 31 97 32 24 33
REMARK SMILES IDX 25 34 26 35 27 36 28 37 29 38 30 39 91 40 31 41 90 42 32 43
REMARK SMILES IDX 33 44 34 45 84 46 35 47 89 48 83 49 85 50 36 51 88 52 82 53
REMARK SMILES IDX 81 54 37 56 69 57 49 58 68 59 50 60 53 61 67 62 86 63 51 64
REMARK SMILES IDX 52 65 66 67 87 68 54 69 38 70 39 71 47 72 40 73 46 74 48 75
REMARK SMILES IDX 45 76 41 77 42 78 43 79 44 80 70 81 71 82 79 83 72 84 78 85
REMARK SMILES IDX 80 86 77 87 73 88 74 89 75 90 76 91 55 92 56 93 64 94 57 95
REMARK SMILES IDX 63 96 65 97 62 98 58 99 59 100 60 101 61 102
REMARK H PARENT 85 55 53 66
REMARK Flexibility Score: inf
ROOT
ATOM      1  O   UNL A   1      34.455  31.224  27.323  1.00  0.00    -0.374 OA
ENDROOT
BRANCH   1   2
ATOM      2  C   UNL A   1      33.065  30.921  27.277  1.00  0.00     0.202 C 
BRANCH   2   3
ATOM      3  C   UNL A   1      32.564  29.790  26.368  1.00  0.00     0.261 C 
BRANCH   3   4
ATOM      4  O   UNL A   1      33.395  29.566  25.205  1.00  0.00    -0.463 OA
BRANCH   4   5
ATOM      5  C   UNL A   1      33.168  28.393  24.585  1.00  0.00     0.310 C 
ATOM      6  O   UNL A   1      33.278  27.297  25.143  1.00  0.00    -0.252 OA
BRANCH   5   7
ATOM      7  C   UNL A   1      32.543  28.436  23.197  1.00  0.00     0.161 C 
BRANCH   7   8
ATOM      8  C   UNL A   1      31.210  28.019  22.596  1.00  0.00    -0.000 C 
ATOM      9  C   UNL A   1      30.915  26.720  22.308  1.00  0.00     0.019 C 
BRANCH   9  10
ATOM     10  C   UNL A   1      31.823  25.602  22.385  1.00  0.00     0.019 A 
ATOM     11  C   UNL A   1      32.674  25.370  19.912  1.00  0.00     0.069 C 
ATOM     12  C   UNL A   1      32.672  25.081  21.371  1.00  0.00     0.067 A 
ATOM     13  N   UNL A   1      33.543  24.193  21.880  1.00  0.00    -0.177 NA
ATOM     14  N   UNL A   1      33.201  24.106  23.181  1.00  0.00    -0.265 N 
ATOM     15  C   UNL A   1      31.976  24.686  23.422  1.00  0.00     0.043 A 
ATOM     16  C   UNL A   1      31.125  24.341  24.602  1.00  0.00     0.067 C 
BRANCH  14  17
ATOM     17  C   UNL A   1      34.012  23.327  24.104  1.00  0.00     0.123 C 
ATOM     18  C   UNL A   1      33.935  21.793  23.929  1.00  0.00     0.044 C 
ATOM     19  C   UNL A   1      35.515  23.604  24.007  1.00  0.00     0.164 C 
ATOM     20  C   UNL A   1      34.930  21.191  24.919  1.00  0.00     0.139 C 
ATOM     21  S   UNL A   1      36.231  22.396  25.090  1.00  0.00     0.152 S 
ATOM     22  O   UNL A   1      36.174  22.931  26.443  1.00  0.00    -0.229 OA
ATOM     23  O   UNL A   1      37.449  21.886  24.518  1.00  0.00    -0.229 OA
ENDBRANCH  14  17
ENDBRANCH   9  10
BRANCH   8  24
ATOM     24  C   UNL A   1      30.105  28.955  22.637  1.00  0.00     0.121 A 
ATOM     25  N   UNL A   1      29.253  29.201  21.670  1.00  0.00    -0.236 NA
ATOM     26  S   UNL A   1      29.966  30.084  23.956  1.00  0.00    -0.114 S 
ATOM     27  C   UNL A   1      28.768  30.501  21.759  1.00  0.00     0.082 A 
ATOM     28  C   UNL A   1      29.075  31.163  22.944  1.00  0.00     0.055 A 
ATOM     29  C   UNL A   1      28.114  31.227  20.741  1.00  0.00     0.030 A 
ATOM     30  C   UNL A   1      28.719  32.511  23.146  1.00  0.00     0.021 A 
ATOM     31  C   UNL A   1      27.853  32.588  20.882  1.00  0.00     0.002 A 
ATOM     32  C   UNL A   1      28.147  33.220  22.079  1.00  0.00     0.002 A 
ENDBRANCH   8  24
ENDBRANCH   7   8
ENDBRANCH   5   7
ENDBRANCH   4   5
ENDBRANCH   3   4
ENDBRANCH   2   3
ENDBRANCH   1   2
BRANCH   1  33
ATOM     33  C   UNL A   1      34.951  32.213  28.211  1.00  0.00     0.202 C 
BRANCH  33  34
ATOM     34  C   UNL A   1      36.246  31.983  28.992  1.00  0.00     0.261 C 
BRANCH  34  35
ATOM     35  O   UNL A   1      37.163  31.056  28.407  1.00  0.00    -0.460 OA
BRANCH  35  36
ATOM     36  C   UNL A   1      37.127  29.813  28.945  1.00  0.00     0.338 C 
ATOM     37  O   UNL A   1      36.440  29.477  29.899  1.00  0.00    -0.246 OA
BRANCH  36  38
ATOM     38  C   UNL A   1      38.168  28.933  28.368  1.00  0.00     0.060 A 
ATOM     39  C   UNL A   1      38.603  27.916  29.216  1.00  0.00     0.016 A 
ATOM     40  C   UNL A   1      38.957  29.342  27.292  1.00  0.00     0.016 A 
ATOM     41  C   UNL A   1      39.941  27.571  29.202  1.00  0.00     0.010 A 
ATOM     42  C   UNL A   1      40.312  29.039  27.313  1.00  0.00     0.010 A 
ATOM     43  C   UNL A   1      40.815  28.238  28.338  1.00  0.00    -0.014 A 
BRANCH  43  44
ATOM     44  C   UNL A   1      42.224  27.872  28.377  1.00  0.00     0.031 A 
ATOM     45  C   UNL A   1      42.450  26.675  27.541  1.00  0.00     0.074 A 
ATOM     46  C   UNL A   1      43.226  28.491  29.038  1.00  0.00     0.049 A 
ATOM     47  N   UNL A   1      42.496  25.455  27.957  1.00  0.00    -0.248 NA
ATOM     48  C   UNL A   1      42.324  26.811  26.082  1.00  0.00     0.031 C 
ATOM     49  C   UNL A   1      43.230  29.772  29.740  1.00  0.00     0.029 A 
ATOM     50  N   UNL A   1      44.523  28.083  29.173  1.00  0.00    -0.354 N 
ATOM     51  C   UNL A   1      42.667  24.689  26.816  1.00  0.00     0.074 A 
ATOM     52  C   UNL A   1      42.284  25.529  25.716  1.00  0.00     0.031 C 
ATOM     53  C   UNL A   1      44.508  30.136  30.021  1.00  0.00     0.029 A 
ATOM     54  C   UNL A   1      45.406  29.053  29.649  1.00  0.00     0.049 A 
ATOM     55  H   UNL A   1      44.815  27.169  28.950  1.00  0.00     0.167 HD
ATOM     56  C   UNL A   1      43.383  23.535  26.856  1.00  0.00     0.034 A 
ATOM     57  C   UNL A   1      46.770  28.977  29.701  1.00  0.00     0.034 A 
ATOM     58  C   UNL A   1      43.572  23.090  28.221  1.00  0.00     0.049 A 
ATOM     59  C   UNL A   1      47.109  27.529  29.709  1.00  0.00     0.074 A 
ATOM     60  C   UNL A   1      42.722  22.735  29.251  1.00  0.00     0.029 A 
ATOM     61  N   UNL A   1      44.787  23.348  28.815  1.00  0.00    -0.354 N 
ATOM     62  N   UNL A   1      46.814  26.740  30.706  1.00  0.00    -0.248 NA
ATOM     63  C   UNL A   1      47.286  26.864  28.425  1.00  0.00     0.031 C 
ATOM     64  C   UNL A   1      43.322  23.276  30.426  1.00  0.00     0.029 A 
ATOM     65  C   UNL A   1      44.543  23.852  30.069  1.00  0.00     0.049 A 
ATOM     66  H   UNL A   1      45.674  23.199  28.412  1.00  0.00     0.167 HD
ATOM     67  C   UNL A   1      46.330  25.584  30.116  1.00  0.00     0.074 A 
ATOM     68  C   UNL A   1      46.718  25.686  28.708  1.00  0.00     0.031 C 
ATOM     69  C   UNL A   1      45.413  24.795  30.751  1.00  0.00     0.034 A 
BRANCH  56  70
ATOM     70  C   UNL A   1      44.251  23.043  25.723  1.00  0.00     0.023 A 
ATOM     71  C   UNL A   1      44.026  21.727  25.282  1.00  0.00     0.031 A 
ATOM     72  C   UNL A   1      45.441  23.653  25.262  1.00  0.00     0.131 A 
ATOM     73  C   UNL A   1      44.996  21.047  24.528  1.00  0.00     0.055 A 
ATOM     74  C   UNL A   1      46.367  22.996  24.452  1.00  0.00     0.041 A 
ATOM     75  F   UNL A   1      45.834  24.874  25.642  1.00  0.00    -0.206 F 
ATOM     76  C   UNL A   1      46.166  21.673  24.107  1.00  0.00     0.022 A 
BRANCH  73  77
ATOM     77  S   UNL A   1      44.778  19.272  24.263  1.00  0.00     0.124 S 
ATOM     78  O   UNL A   1      44.477  19.224  22.837  1.00  0.00    -0.237 OA
ATOM     79  O   UNL A   1      46.077  18.748  24.668  1.00  0.00    -0.237 OA
ATOM     80  O   UNL A   1      43.665  18.934  25.150  1.00  0.00    -0.744 OA
ENDBRANCH  73  77
ENDBRANCH  56  70
BRANCH  57  81
ATOM     81  C   UNL A   1      47.770  30.041  29.356  1.00  0.00     0.023 A 
ATOM     82  C   UNL A   1      47.638  30.924  28.253  1.00  0.00     0.031 A 
ATOM     83  C   UNL A   1      48.766  30.373  30.302  1.00  0.00     0.131 A 
ATOM     84  C   UNL A   1      48.477  32.067  28.142  1.00  0.00     0.055 A 
ATOM     85  C   UNL A   1      49.582  31.503  30.189  1.00  0.00     0.041 A 
ATOM     86  F   UNL A   1      48.923  29.655  31.425  1.00  0.00    -0.206 F 
ATOM     87  C   UNL A   1      49.435  32.360  29.113  1.00  0.00     0.022 A 
BRANCH  84  88
ATOM     88  S   UNL A   1      48.293  33.255  26.760  1.00  0.00     0.124 S 
ATOM     89  O   UNL A   1      49.517  33.040  25.998  1.00  0.00    -0.237 OA
ATOM     90  O   UNL A   1      47.052  32.820  26.132  1.00  0.00    -0.237 OA
ATOM     91  O   UNL A   1      48.213  34.553  27.433  1.00  0.00    -0.744 OA
ENDBRANCH  84  88
ENDBRANCH  57  81
BRANCH  69  92
ATOM     92  C   UNL A   1      45.150  25.030  32.226  1.00  0.00     0.023 A 
ATOM     93  C   UNL A   1      45.870  24.441  33.293  1.00  0.00     0.031 A 
ATOM     94  C   UNL A   1      44.184  25.999  32.551  1.00  0.00     0.131 A 
ATOM     95  C   UNL A   1      45.600  24.828  34.623  1.00  0.00     0.055 A 
ATOM     96  C   UNL A   1      43.939  26.397  33.863  1.00  0.00     0.041 A 
ATOM     97  F   UNL A   1      43.480  26.609  31.582  1.00  0.00    -0.206 F 
ATOM     98  C   UNL A   1      44.642  25.809  34.906  1.00  0.00     0.022 A 
BRANCH  95  99
ATOM     99  S   UNL A   1      46.473  24.048  36.021  1.00  0.00     0.124 S 
ATOM    100  O   UNL A   1      45.437  23.916  37.040  1.00  0.00    -0.237 OA
ATOM    101  O   UNL A   1      46.957  22.799  35.438  1.00  0.00    -0.237 OA
ATOM    102  O   UNL A   1      47.526  25.012  36.347  1.00  0.00    -0.744 OA
ENDBRANCH  95  99
ENDBRANCH  69  92
ENDBRANCH  43  44
ENDBRANCH  36  38
ENDBRANCH  35  36
ENDBRANCH  34  35
ENDBRANCH  33  34
ENDBRANCH   1  33
TORSDOF 21
ENDMDL
MODEL 3
REMARK VINA RESULT:     -12.4      2.072      7.011
REMARK SMILES Cc1nn([C@H]2CCS(=O)(=O)C2)c(C)c1/C=C(\CC(=O)OCCOCCOC(=O)c1ccc(-c2c3nc(c(-c4cc(S(=O)(=O)[O-])ccc4F)c4ccc([nH]4)c(-c4cc(S(=O)(=O)[O-])ccc4F)c4nc(c(-c5cc(S(=O)(=O)[O-])ccc5F)c5ccc2[nH]5)C=C4)C=C3)cc1)c1nc2ccccc2s1
REMARK SMILES IDX 23 1 22 2 21 3 20 4 18 5 19 6 17 7 16 8 15 9 14 10 1 11 2 12
REMARK SMILES IDX 3 13 4 14 12 15 13 16 5 17 6 18 11 19 7 20 8 21 9 22 10 23
REMARK SMILES IDX 92 24 93 25 100 26 94 27 99 28 95 29 98 30 96 31 97 32 24 33
REMARK SMILES IDX 25 34 26 35 27 36 28 37 29 38 30 39 91 40 31 41 90 42 32 43
REMARK SMILES IDX 33 44 34 45 84 46 35 47 89 48 83 49 85 50 36 51 88 52 82 53
REMARK SMILES IDX 81 54 37 56 69 57 49 58 68 59 50 60 53 61 67 62 86 63 51 64
REMARK SMILES IDX 52 65 66 67 87 68 54 69 38 70 39 71 47 72 40 73 46 74 48 75
REMARK SMILES IDX 45 76 41 77 42 78 43 79 44 80 70 81 71 82 79 83 72 84 78 85
REMARK SMILES IDX 80 86 77 87 73 88 74 89 75 90 76 91 55 92 56 93 64 94 57 95
REMARK SMILES IDX 63 96 65 97 62 98 58 99 59 100 60 101 61 102
REMARK H PARENT 85 55 53 66
REMARK Flexibility Score: inf
ROOT
ATOM      1  O   UNL A   1      32.786  31.123  27.458  1.00  0.00    -0.374 OA
ENDROOT
BRANCH   1   2
ATOM      2  C   UNL A   1      32.527  30.529  26.191  1.00  0.00     0.202 C 
BRANCH   2   3
ATOM      3  C   UNL A   1      31.996  29.091  26.121  1.00  0.00     0.261 C 
BRANCH   3   4
ATOM      4  O   UNL A   1      32.348  28.397  24.902  1.00  0.00    -0.463 OA
BRANCH   4   5
ATOM      5  C   UNL A   1      32.856  27.166  25.095  1.00  0.00     0.310 C 
ATOM      6  O   UNL A   1      33.950  26.959  25.631  1.00  0.00    -0.252 OA
BRANCH   5   7
ATOM      7  C   UNL A   1      31.943  25.975  24.836  1.00  0.00     0.161 C 
BRANCH   7   8
ATOM      8  C   UNL A   1      30.997  25.559  23.721  1.00  0.00    -0.000 C 
ATOM      9  C   UNL A   1      30.714  24.252  23.456  1.00  0.00     0.019 C 
BRANCH   9  10
ATOM     10  C   UNL A   1      31.342  23.103  24.062  1.00  0.00     0.019 A 
ATOM     11  C   UNL A   1      30.304  23.075  26.473  1.00  0.00     0.069 C 
ATOM     12  C   UNL A   1      31.086  22.525  25.334  1.00  0.00     0.067 A 
ATOM     13  N   UNL A   1      31.692  21.331  25.452  1.00  0.00    -0.177 NA
ATOM     14  N   UNL A   1      32.375  21.194  24.298  1.00  0.00    -0.265 N 
ATOM     15  C   UNL A   1      32.441  22.382  23.605  1.00  0.00     0.043 A 
ATOM     16  C   UNL A   1      33.493  22.677  22.584  1.00  0.00     0.067 C 
BRANCH  14  17
ATOM     17  C   UNL A   1      33.065  19.950  23.995  1.00  0.00     0.123 C 
ATOM     18  C   UNL A   1      34.276  19.619  24.897  1.00  0.00     0.044 C 
ATOM     19  C   UNL A   1      32.191  18.698  24.129  1.00  0.00     0.164 C 
ATOM     20  C   UNL A   1      34.774  18.239  24.471  1.00  0.00     0.139 C 
ATOM     21  S   UNL A   1      33.335  17.365  23.889  1.00  0.00     0.152 S 
ATOM     22  O   UNL A   1      33.480  17.163  22.455  1.00  0.00    -0.229 OA
ATOM     23  O   UNL A   1      33.022  16.284  24.787  1.00  0.00    -0.229 OA
ENDBRANCH  14  17
ENDBRANCH   9  10
BRANCH   8  24
ATOM     24  C   UNL A   1      30.120  26.557  23.144  1.00  0.00     0.121 A 
ATOM     25  N   UNL A   1      30.462  27.510  22.310  1.00  0.00    -0.236 NA
ATOM     26  S   UNL A   1      28.496  26.743  23.744  1.00  0.00    -0.114 S 
ATOM     27  C   UNL A   1      29.622  28.609  22.444  1.00  0.00     0.082 A 
ATOM     28  C   UNL A   1      28.487  28.389  23.218  1.00  0.00     0.055 A 
ATOM     29  C   UNL A   1      29.866  29.919  21.978  1.00  0.00     0.030 A 
ATOM     30  C   UNL A   1      27.583  29.428  23.510  1.00  0.00     0.021 A 
ATOM     31  C   UNL A   1      29.041  30.979  22.348  1.00  0.00     0.002 A 
ATOM     32  C   UNL A   1      27.906  30.731  23.100  1.00  0.00     0.002 A 
ENDBRANCH   8  24
ENDBRANCH   7   8
ENDBRANCH   5   7
ENDBRANCH   4   5
ENDBRANCH   3   4
ENDBRANCH   2   3
ENDBRANCH   1   2
BRANCH   1  33
ATOM     33  C   UNL A   1      33.990  31.836  27.691  1.00  0.00     0.202 C 
BRANCH  33  34
ATOM     34  C   UNL A   1      34.035  32.986  28.700  1.00  0.00     0.261 C 
BRANCH  34  35
ATOM     35  O   UNL A   1      35.333  33.322  29.193  1.00  0.00    -0.460 OA
BRANCH  35  36
ATOM     36  C   UNL A   1      35.908  32.366  29.962  1.00  0.00     0.338 C 
ATOM     37  O   UNL A   1      35.568  32.076  31.100  1.00  0.00    -0.246 OA
BRANCH  36  38
ATOM     38  C   UNL A   1      37.138  31.826  29.339  1.00  0.00     0.060 A 
ATOM     39  C   UNL A   1      36.996  30.556  28.782  1.00  0.00     0.016 A 
ATOM     40  C   UNL A   1      38.402  32.314  29.675  1.00  0.00     0.016 A 
ATOM     41  C   UNL A   1      38.047  29.666  28.891  1.00  0.00     0.010 A 
ATOM     42  C   UNL A   1      39.440  31.405  29.837  1.00  0.00     0.010 A 
ATOM     43  C   UNL A   1      39.219  30.060  29.544  1.00  0.00    -0.014 A 
BRANCH  43  44
ATOM     44  C   UNL A   1      40.290  29.082  29.671  1.00  0.00     0.031 A 
ATOM     45  C   UNL A   1      40.613  28.880  31.099  1.00  0.00     0.074 A 
ATOM     46  C   UNL A   1      40.925  28.412  28.686  1.00  0.00     0.049 A 
ATOM     47  N   UNL A   1      41.559  29.462  31.754  1.00  0.00    -0.248 NA
ATOM     48  C   UNL A   1      39.623  28.199  31.947  1.00  0.00     0.031 C 
ATOM     49  C   UNL A   1      40.617  28.333  27.261  1.00  0.00     0.029 A 
ATOM     50  N   UNL A   1      42.008  27.584  28.793  1.00  0.00    -0.354 N 
ATOM     51  C   UNL A   1      41.433  29.007  33.055  1.00  0.00     0.074 A 
ATOM     52  C   UNL A   1      40.103  28.475  33.160  1.00  0.00     0.031 C 
ATOM     53  C   UNL A   1      41.341  27.338  26.689  1.00  0.00     0.029 A 
ATOM     54  C   UNL A   1      42.269  26.797  27.671  1.00  0.00     0.049 A 
ATOM     55  H   UNL A   1      42.564  27.546  29.604  1.00  0.00     0.167 HD
ATOM     56  C   UNL A   1      42.529  28.843  33.842  1.00  0.00     0.034 A 
ATOM     57  C   UNL A   1      43.160  25.764  27.573  1.00  0.00     0.034 A 
ATOM     58  C   UNL A   1      43.674  29.532  33.285  1.00  0.00     0.049 A 
ATOM     59  C   UNL A   1      44.174  25.983  28.638  1.00  0.00     0.074 A 
ATOM     60  C   UNL A   1      43.955  30.847  32.966  1.00  0.00     0.029 A 
ATOM     61  N   UNL A   1      44.600  28.778  32.597  1.00  0.00    -0.354 N 
ATOM     62  N   UNL A   1      45.010  26.985  28.622  1.00  0.00    -0.248 NA
ATOM     63  C   UNL A   1      43.914  25.417  29.954  1.00  0.00     0.031 C 
ATOM     64  C   UNL A   1      44.687  30.782  31.744  1.00  0.00     0.029 A 
ATOM     65  C   UNL A   1      44.894  29.438  31.428  1.00  0.00     0.049 A 
ATOM     66  H   UNL A   1      44.983  27.920  32.890  1.00  0.00     0.167 HD
ATOM     67  C   UNL A   1      45.026  27.460  29.923  1.00  0.00     0.074 A 
ATOM     68  C   UNL A   1      44.392  26.406  30.718  1.00  0.00     0.031 C 
ATOM     69  C   UNL A   1      45.281  28.774  30.196  1.00  0.00     0.034 A 
BRANCH  56  70
ATOM     70  C   UNL A   1      42.673  27.746  34.869  1.00  0.00     0.023 A 
ATOM     71  C   UNL A   1      43.432  26.625  34.492  1.00  0.00     0.031 A 
ATOM     72  C   UNL A   1      41.895  27.598  36.041  1.00  0.00     0.131 A 
ATOM     73  C   UNL A   1      43.316  25.411  35.189  1.00  0.00     0.055 A 
ATOM     74  C   UNL A   1      41.840  26.411  36.772  1.00  0.00     0.041 A 
ATOM     75  F   UNL A   1      41.068  28.545  36.497  1.00  0.00    -0.206 F 
ATOM     76  C   UNL A   1      42.526  25.296  36.329  1.00  0.00     0.022 A 
BRANCH  73  77
ATOM     77  S   UNL A   1      44.078  23.939  34.467  1.00  0.00     0.124 S 
ATOM     78  O   UNL A   1      45.177  23.695  35.393  1.00  0.00    -0.237 OA
ATOM     79  O   UNL A   1      42.976  22.984  34.506  1.00  0.00    -0.237 OA
ATOM     80  O   UNL A   1      44.471  24.384  33.132  1.00  0.00    -0.744 OA
ENDBRANCH  73  77
ENDBRANCH  56  70
BRANCH  57  81
ATOM     81  C   UNL A   1      42.967  24.439  26.898  1.00  0.00     0.023 A 
ATOM     82  C   UNL A   1      43.857  23.906  25.929  1.00  0.00     0.031 A 
ATOM     83  C   UNL A   1      42.005  23.542  27.416  1.00  0.00     0.131 A 
ATOM     84  C   UNL A   1      43.757  22.545  25.529  1.00  0.00     0.055 A 
ATOM     85  C   UNL A   1      41.918  22.203  27.024  1.00  0.00     0.041 A 
ATOM     86  F   UNL A   1      41.167  23.915  28.395  1.00  0.00    -0.206 F 
ATOM     87  C   UNL A   1      42.800  21.696  26.085  1.00  0.00     0.022 A 
BRANCH  84  88
ATOM     88  S   UNL A   1      44.927  21.815  24.324  1.00  0.00     0.124 S 
ATOM     89  O   UNL A   1      46.218  22.054  24.957  1.00  0.00    -0.237 OA
ATOM     90  O   UNL A   1      44.484  20.428  24.253  1.00  0.00    -0.237 OA
ATOM     91  O   UNL A   1      44.691  22.592  23.105  1.00  0.00    -0.744 OA
ENDBRANCH  84  88
ENDBRANCH  57  81
BRANCH  69  92
ATOM     92  C   UNL A   1      45.839  29.650  29.089  1.00  0.00     0.023 A 
ATOM     93  C   UNL A   1      45.101  30.598  28.342  1.00  0.00     0.031 A 
ATOM     94  C   UNL A   1      47.226  29.587  28.871  1.00  0.00     0.131 A 
ATOM     95  C   UNL A   1      45.762  31.431  27.413  1.00  0.00     0.055 A 
ATOM     96  C   UNL A   1      47.879  30.429  27.973  1.00  0.00     0.041 A 
ATOM     97  F   UNL A   1      47.985  28.721  29.563  1.00  0.00    -0.206 F 
ATOM     98  C   UNL A   1      47.148  31.351  27.236  1.00  0.00     0.022 A 
BRANCH  95  99
ATOM     99  S   UNL A   1      44.831  32.624  26.397  1.00  0.00     0.124 S 
ATOM    100  O   UNL A   1      43.832  31.798  25.728  1.00  0.00    -0.237 OA
ATOM    101  O   UNL A   1      44.319  33.561  27.394  1.00  0.00    -0.237 OA
ATOM    102  O   UNL A   1      45.850  33.184  25.507  1.00  0.00    -0.744 OA
ENDBRANCH  95  99
ENDBRANCH  69  92
ENDBRANCH  43  44
ENDBRANCH  36  38
ENDBRANCH  35  36
ENDBRANCH  34  35
ENDBRANCH  33  34
ENDBRANCH   1  33
TORSDOF 21
ENDMDL
