MODEL 1
REMARK VINA RESULT:     -11.6      0.000      0.000
REMARK SMILES CC1=C2C(=O)N(C[C@H]3CCCO3)C(=O)N=C2S[C@@H]1C(=O)OCCOCCOC(=O)c1ccc(-c2c3nc(c(-c4cc(S(=O)(=O)[O-])ccc4F)c4ccc([nH]4)c(-c4cc(S(=O)(=O)[O-])ccc4F)c4nc(c(-c5cc(S(=O)(=O)[O-])ccc5F)c5ccc2[nH]5)C=C4)C=C3)cc1
REMARK SMILES IDX 25 1 24 2 23 3 22 4 21 5 19 6 20 7 18 8 1 9 2 10 3 11 4 12
REMARK SMILES IDX 16 13 17 14 5 15 6 16 15 17 13 18 14 19 7 20 8 21 9 22 12 23
REMARK SMILES IDX 10 24 11 25 26 26 27 27 28 28 29 29 30 30 31 31 92 32 32 33
REMARK SMILES IDX 91 34 33 35 34 36 35 37 85 38 36 39 90 40 84 41 86 42 37 43
REMARK SMILES IDX 89 44 83 45 82 46 38 48 70 49 50 50 69 51 51 52 54 53 68 54
REMARK SMILES IDX 87 55 52 56 53 57 67 59 88 60 55 61 39 62 40 63 48 64 41 65
REMARK SMILES IDX 47 66 49 67 46 68 42 69 43 70 44 71 45 72 71 73 72 74 80 75
REMARK SMILES IDX 73 76 79 77 81 78 78 79 74 80 75 81 76 82 77 83 56 84 57 85
REMARK SMILES IDX 65 86 58 87 64 88 66 89 63 90 59 91 60 92 61 93 62 94
REMARK H PARENT 86 47 54 58
REMARK Flexibility Score: inf
ROOT
ATOM      1  C   UNL A   1      35.916  20.583  25.097  1.00  0.00     0.202 C 
ENDROOT
BRANCH   1   2
ATOM      2  O   UNL A   1      34.953  19.645  24.616  1.00  0.00    -0.374 OA
BRANCH   2   3
ATOM      3  C   UNL A   1      33.720  19.526  25.323  1.00  0.00     0.202 C 
BRANCH   3   4
ATOM      4  C   UNL A   1      33.187  20.791  25.997  1.00  0.00     0.261 C 
BRANCH   4   5
ATOM      5  O   UNL A   1      31.978  21.253  25.381  1.00  0.00    -0.462 OA
BRANCH   5   6
ATOM      6  C   UNL A   1      32.129  21.801  24.149  1.00  0.00     0.323 C 
ATOM      7  O   UNL A   1      31.804  21.262  23.093  1.00  0.00    -0.251 OA
BRANCH   6   8
ATOM      8  C   UNL A   1      32.819  23.153  24.167  1.00  0.00     0.189 C 
ATOM      9  C   UNL A   1      30.691  24.272  25.105  1.00  0.00     0.042 C 
ATOM     10  C   UNL A   1      31.822  24.274  24.127  1.00  0.00    -0.033 C 
ATOM     11  C   UNL A   1      32.105  25.251  23.257  1.00  0.00     0.073 C 
ATOM     12  C   UNL A   1      31.438  26.527  23.046  1.00  0.00     0.264 C 
ATOM     13  C   UNL A   1      33.375  25.087  22.582  1.00  0.00     0.116 C 
ATOM     14  S   UNL A   1      33.964  23.466  22.771  1.00  0.00    -0.086 SA
ATOM     15  O   UNL A   1      30.221  26.634  23.064  1.00  0.00    -0.268 OA
ATOM     16  N   UNL A   1      32.362  27.528  22.875  1.00  0.00    -0.256 N 
ATOM     17  N   UNL A   1      34.021  26.023  22.000  1.00  0.00    -0.186 NA
ATOM     18  C   UNL A   1      33.546  27.313  22.145  1.00  0.00     0.351 C 
ATOM     19  O   UNL A   1      34.187  28.256  21.702  1.00  0.00    -0.246 OA
BRANCH  16  20
ATOM     20  C   UNL A   1      32.203  28.821  23.536  1.00  0.00     0.163 C 
BRANCH  20  21
ATOM     21  C   UNL A   1      32.717  29.051  24.969  1.00  0.00     0.138 C 
ATOM     22  C   UNL A   1      31.767  28.712  26.118  1.00  0.00     0.036 C 
ATOM     23  O   UNL A   1      33.849  28.156  25.146  1.00  0.00    -0.376 OA
ATOM     24  C   UNL A   1      32.102  27.295  26.482  1.00  0.00     0.031 C 
ATOM     25  C   UNL A   1      33.584  27.251  26.225  1.00  0.00     0.160 C 
ENDBRANCH  20  21
ENDBRANCH  16  20
ENDBRANCH   6   8
ENDBRANCH   5   6
ENDBRANCH   4   5
ENDBRANCH   3   4
ENDBRANCH   2   3
ENDBRANCH   1   2
BRANCH   1  26
ATOM     26  C   UNL A   1      37.400  20.217  24.973  1.00  0.00     0.261 C 
BRANCH  26  27
ATOM     27  O   UNL A   1      38.267  21.350  25.165  1.00  0.00    -0.460 OA
BRANCH  27  28
ATOM     28  C   UNL A   1      39.315  21.120  25.994  1.00  0.00     0.338 C 
ATOM     29  O   UNL A   1      39.978  20.098  26.068  1.00  0.00    -0.246 OA
BRANCH  28  30
ATOM     30  C   UNL A   1      39.704  22.364  26.686  1.00  0.00     0.060 A 
ATOM     31  C   UNL A   1      39.032  23.537  26.320  1.00  0.00     0.016 A 
ATOM     32  C   UNL A   1      40.760  22.406  27.598  1.00  0.00     0.016 A 
ATOM     33  C   UNL A   1      39.449  24.767  26.823  1.00  0.00     0.010 A 
ATOM     34  C   UNL A   1      41.186  23.646  28.093  1.00  0.00     0.010 A 
ATOM     35  C   UNL A   1      40.557  24.834  27.679  1.00  0.00    -0.014 A 
BRANCH  35  36
ATOM     36  C   UNL A   1      41.144  26.159  28.000  1.00  0.00     0.031 A 
ATOM     37  C   UNL A   1      42.546  26.462  27.538  1.00  0.00     0.074 A 
ATOM     38  C   UNL A   1      40.426  27.093  28.649  1.00  0.00     0.049 A 
ATOM     39  N   UNL A   1      43.266  27.538  27.723  1.00  0.00    -0.248 NA
ATOM     40  C   UNL A   1      43.223  25.410  26.764  1.00  0.00     0.031 C 
ATOM     41  C   UNL A   1      39.044  26.931  29.098  1.00  0.00     0.029 A 
ATOM     42  N   UNL A   1      40.761  28.363  29.047  1.00  0.00    -0.354 N 
ATOM     43  C   UNL A   1      44.482  27.293  27.094  1.00  0.00     0.074 A 
ATOM     44  C   UNL A   1      44.411  25.955  26.548  1.00  0.00     0.031 C 
ATOM     45  C   UNL A   1      38.654  28.055  29.724  1.00  0.00     0.029 A 
ATOM     46  C   UNL A   1      39.767  29.001  29.753  1.00  0.00     0.049 A 
ATOM     47  H   UNL A   1      41.631  28.778  28.848  1.00  0.00     0.167 HD
ATOM     48  C   UNL A   1      45.557  28.111  26.979  1.00  0.00     0.034 A 
ATOM     49  C   UNL A   1      39.769  30.199  30.374  1.00  0.00     0.034 A 
ATOM     50  C   UNL A   1      45.616  29.441  27.534  1.00  0.00     0.049 A 
ATOM     51  C   UNL A   1      41.010  31.060  30.300  1.00  0.00     0.074 A 
ATOM     52  C   UNL A   1      46.648  30.361  27.458  1.00  0.00     0.029 A 
ATOM     53  N   UNL A   1      44.607  30.039  28.278  1.00  0.00    -0.354 N 
ATOM     54  N   UNL A   1      42.147  30.820  29.688  1.00  0.00    -0.248 NA
ATOM     55  C   UNL A   1      40.963  32.354  30.994  1.00  0.00     0.031 C 
ATOM     56  C   UNL A   1      46.292  31.483  28.212  1.00  0.00     0.029 A 
ATOM     57  C   UNL A   1      45.007  31.298  28.696  1.00  0.00     0.049 A 
ATOM     58  H   UNL A   1      43.736  29.627  28.479  1.00  0.00     0.167 HD
ATOM     59  C   UNL A   1      42.936  31.950  29.896  1.00  0.00     0.074 A 
ATOM     60  C   UNL A   1      42.139  32.874  30.677  1.00  0.00     0.031 C 
ATOM     61  C   UNL A   1      44.201  32.206  29.478  1.00  0.00     0.034 A 
BRANCH  48  62
ATOM     62  C   UNL A   1      46.775  27.569  26.274  1.00  0.00     0.023 A 
ATOM     63  C   UNL A   1      47.065  27.892  24.937  1.00  0.00     0.031 A 
ATOM     64  C   UNL A   1      47.659  26.712  26.953  1.00  0.00     0.131 A 
ATOM     65  C   UNL A   1      48.183  27.322  24.307  1.00  0.00     0.055 A 
ATOM     66  C   UNL A   1      48.805  26.202  26.342  1.00  0.00     0.041 A 
ATOM     67  F   UNL A   1      47.418  26.352  28.224  1.00  0.00    -0.206 F 
ATOM     68  C   UNL A   1      49.068  26.498  25.009  1.00  0.00     0.022 A 
BRANCH  65  69
ATOM     69  S   UNL A   1      48.410  27.586  22.528  1.00  0.00     0.124 S 
ATOM     70  O   UNL A   1      47.215  28.356  22.189  1.00  0.00    -0.237 OA
ATOM     71  O   UNL A   1      49.674  28.311  22.473  1.00  0.00    -0.237 OA
ATOM     72  O   UNL A   1      48.443  26.231  21.981  1.00  0.00    -0.744 OA
ENDBRANCH  65  69
ENDBRANCH  48  62
BRANCH  49  73
ATOM     73  C   UNL A   1      38.587  30.648  31.167  1.00  0.00     0.023 A 
ATOM     74  C   UNL A   1      37.489  31.269  30.552  1.00  0.00     0.031 A 
ATOM     75  C   UNL A   1      38.578  30.532  32.569  1.00  0.00     0.131 A 
ATOM     76  C   UNL A   1      36.456  31.804  31.339  1.00  0.00     0.055 A 
ATOM     77  C   UNL A   1      37.521  31.014  33.343  1.00  0.00     0.041 A 
ATOM     78  F   UNL A   1      39.603  29.949  33.209  1.00  0.00    -0.206 F 
ATOM     79  C   UNL A   1      36.459  31.670  32.729  1.00  0.00     0.022 A 
BRANCH  76  80
ATOM     80  S   UNL A   1      35.160  32.777  30.525  1.00  0.00     0.124 S 
ATOM     81  O   UNL A   1      34.153  32.870  31.576  1.00  0.00    -0.237 OA
ATOM     82  O   UNL A   1      35.868  34.012  30.202  1.00  0.00    -0.237 OA
ATOM     83  O   UNL A   1      34.788  31.955  29.375  1.00  0.00    -0.744 OA
ENDBRANCH  76  80
ENDBRANCH  49  73
BRANCH  61  84
ATOM     84  C   UNL A   1      44.777  33.560  29.814  1.00  0.00     0.023 A 
ATOM     85  C   UNL A   1      44.532  34.690  29.014  1.00  0.00     0.031 A 
ATOM     86  C   UNL A   1      45.591  33.718  30.950  1.00  0.00     0.131 A 
ATOM     87  C   UNL A   1      45.140  35.915  29.330  1.00  0.00     0.055 A 
ATOM     88  C   UNL A   1      46.145  34.951  31.293  1.00  0.00     0.041 A 
ATOM     89  F   UNL A   1      45.859  32.672  31.750  1.00  0.00    -0.206 F 
ATOM     90  C   UNL A   1      45.931  36.056  30.474  1.00  0.00     0.022 A 
BRANCH  87  91
ATOM     91  S   UNL A   1      44.954  37.304  28.179  1.00  0.00     0.124 S 
ATOM     92  O   UNL A   1      46.297  37.875  28.175  1.00  0.00    -0.237 OA
ATOM     93  O   UNL A   1      44.541  36.637  26.948  1.00  0.00    -0.237 OA
ATOM     94  O   UNL A   1      43.929  38.136  28.807  1.00  0.00    -0.744 OA
ENDBRANCH  87  91
ENDBRANCH  61  84
ENDBRANCH  35  36
ENDBRANCH  28  30
ENDBRANCH  27  28
ENDBRANCH  26  27
ENDBRANCH   1  26
TORSDOF 19
ENDMDL
MODEL 2
REMARK VINA RESULT:     -11.6      4.693     10.148
REMARK SMILES CC1=C2C(=O)N(C[C@H]3CCCO3)C(=O)N=C2S[C@@H]1C(=O)OCCOCCOC(=O)c1ccc(-c2c3nc(c(-c4cc(S(=O)(=O)[O-])ccc4F)c4ccc([nH]4)c(-c4cc(S(=O)(=O)[O-])ccc4F)c4nc(c(-c5cc(S(=O)(=O)[O-])ccc5F)c5ccc2[nH]5)C=C4)C=C3)cc1
REMARK SMILES IDX 25 1 24 2 23 3 22 4 21 5 19 6 20 7 18 8 1 9 2 10 3 11 4 12
REMARK SMILES IDX 16 13 17 14 5 15 6 16 15 17 13 18 14 19 7 20 8 21 9 22 12 23
REMARK SMILES IDX 10 24 11 25 26 26 27 27 28 28 29 29 30 30 31 31 92 32 32 33
REMARK SMILES IDX 91 34 33 35 34 36 35 37 85 38 36 39 90 40 84 41 86 42 37 43
REMARK SMILES IDX 89 44 83 45 82 46 38 48 70 49 50 50 69 51 51 52 54 53 68 54
REMARK SMILES IDX 87 55 52 56 53 57 67 59 88 60 55 61 39 62 40 63 48 64 41 65
REMARK SMILES IDX 47 66 49 67 46 68 42 69 43 70 44 71 45 72 71 73 72 74 80 75
REMARK SMILES IDX 73 76 79 77 81 78 78 79 74 80 75 81 76 82 77 83 56 84 57 85
REMARK SMILES IDX 65 86 58 87 64 88 66 89 63 90 59 91 60 92 61 93 62 94
REMARK H PARENT 86 47 54 58
REMARK Flexibility Score: inf
ROOT
ATOM      1  C   UNL A   1      31.464  31.270  26.203  1.00  0.00     0.202 C 
ENDROOT
BRANCH   1   2
ATOM      2  O   UNL A   1      32.556  30.411  25.876  1.00  0.00    -0.374 OA
BRANCH   2   3
ATOM      3  C   UNL A   1      32.361  29.433  24.856  1.00  0.00     0.202 C 
BRANCH   3   4
ATOM      4  C   UNL A   1      30.934  29.256  24.336  1.00  0.00     0.261 C 
BRANCH   4   5
ATOM      5  O   UNL A   1      30.888  28.394  23.191  1.00  0.00    -0.462 OA
BRANCH   5   6
ATOM      6  C   UNL A   1      30.089  27.305  23.317  1.00  0.00     0.323 C 
ATOM      7  O   UNL A   1      28.881  27.339  23.543  1.00  0.00    -0.251 OA
BRANCH   6   8
ATOM      8  C   UNL A   1      30.839  25.989  23.223  1.00  0.00     0.189 C 
ATOM      9  C   UNL A   1      31.067  25.888  25.792  1.00  0.00     0.042 C 
ATOM     10  C   UNL A   1      31.689  25.758  24.437  1.00  0.00    -0.033 C 
ATOM     11  C   UNL A   1      32.938  25.348  24.185  1.00  0.00     0.073 C 
ATOM     12  C   UNL A   1      33.977  24.917  25.106  1.00  0.00     0.264 C 
ATOM     13  C   UNL A   1      33.206  25.114  22.781  1.00  0.00     0.116 C 
ATOM     14  S   UNL A   1      31.977  25.837  21.794  1.00  0.00    -0.086 SA
ATOM     15  O   UNL A   1      34.174  25.481  26.173  1.00  0.00    -0.268 OA
ATOM     16  N   UNL A   1      34.627  23.812  24.614  1.00  0.00    -0.256 N 
ATOM     17  N   UNL A   1      34.164  24.400  22.328  1.00  0.00    -0.186 NA
ATOM     18  C   UNL A   1      34.915  23.685  23.242  1.00  0.00     0.351 C 
ATOM     19  O   UNL A   1      35.771  22.902  22.853  1.00  0.00    -0.246 OA
BRANCH  16  20
ATOM     20  C   UNL A   1      34.945  22.677  25.477  1.00  0.00     0.163 C 
BRANCH  20  21
ATOM     21  C   UNL A   1      33.894  21.595  25.790  1.00  0.00     0.138 C 
ATOM     22  C   UNL A   1      32.424  21.973  25.614  1.00  0.00     0.036 C 
ATOM     23  O   UNL A   1      34.119  20.521  24.837  1.00  0.00    -0.376 OA
ATOM     24  C   UNL A   1      32.089  21.554  24.213  1.00  0.00     0.031 C 
ATOM     25  C   UNL A   1      32.941  20.325  24.045  1.00  0.00     0.160 C 
ENDBRANCH  20  21
ENDBRANCH  16  20
ENDBRANCH   6   8
ENDBRANCH   5   6
ENDBRANCH   4   5
ENDBRANCH   3   4
ENDBRANCH   2   3
ENDBRANCH   1   2
BRANCH   1  26
ATOM     26  C   UNL A   1      31.770  32.743  26.496  1.00  0.00     0.261 C 
BRANCH  26  27
ATOM     27  O   UNL A   1      32.256  32.952  27.834  1.00  0.00    -0.460 OA
BRANCH  27  28
ATOM     28  C   UNL A   1      33.295  33.820  27.924  1.00  0.00     0.338 C 
ATOM     29  O   UNL A   1      33.230  35.038  27.938  1.00  0.00    -0.246 OA
BRANCH  28  30
ATOM     30  C   UNL A   1      34.545  33.093  28.216  1.00  0.00     0.060 A 
ATOM     31  C   UNL A   1      34.432  31.751  28.602  1.00  0.00     0.016 A 
ATOM     32  C   UNL A   1      35.790  33.726  28.206  1.00  0.00     0.016 A 
ATOM     33  C   UNL A   1      35.555  31.050  29.033  1.00  0.00     0.010 A 
ATOM     34  C   UNL A   1      36.917  33.022  28.652  1.00  0.00     0.010 A 
ATOM     35  C   UNL A   1      36.798  31.695  29.103  1.00  0.00    -0.014 A 
BRANCH  35  36
ATOM     36  C   UNL A   1      37.923  31.023  29.800  1.00  0.00     0.031 A 
ATOM     37  C   UNL A   1      38.204  31.380  31.236  1.00  0.00     0.074 A 
ATOM     38  C   UNL A   1      38.653  30.078  29.180  1.00  0.00     0.049 A 
ATOM     39  N   UNL A   1      39.144  30.940  32.032  1.00  0.00    -0.248 NA
ATOM     40  C   UNL A   1      37.302  32.365  31.855  1.00  0.00     0.031 C 
ATOM     41  C   UNL A   1      38.440  29.614  27.810  1.00  0.00     0.029 A 
ATOM     42  N   UNL A   1      39.722  29.340  29.621  1.00  0.00    -0.354 N 
ATOM     43  C   UNL A   1      38.951  31.596  33.245  1.00  0.00     0.074 A 
ATOM     44  C   UNL A   1      37.823  32.484  33.068  1.00  0.00     0.031 C 
ATOM     45  C   UNL A   1      39.361  28.679  27.518  1.00  0.00     0.029 A 
ATOM     46  C   UNL A   1      40.251  28.505  28.664  1.00  0.00     0.049 A 
ATOM     47  H   UNL A   1      40.079  29.404  30.536  1.00  0.00     0.167 HD
ATOM     48  C   UNL A   1      39.650  31.465  34.399  1.00  0.00     0.034 A 
ATOM     49  C   UNL A   1      41.343  27.714  28.702  1.00  0.00     0.034 A 
ATOM     50  C   UNL A   1      40.776  30.578  34.559  1.00  0.00     0.049 A 
ATOM     51  C   UNL A   1      42.154  27.648  29.977  1.00  0.00     0.074 A 
ATOM     52  C   UNL A   1      41.541  30.354  35.691  1.00  0.00     0.029 A 
ATOM     53  N   UNL A   1      41.309  29.779  33.556  1.00  0.00    -0.354 N 
ATOM     54  N   UNL A   1      41.950  28.262  31.120  1.00  0.00    -0.248 NA
ATOM     55  C   UNL A   1      43.335  26.774  29.967  1.00  0.00     0.031 C 
ATOM     56  C   UNL A   1      42.575  29.475  35.354  1.00  0.00     0.029 A 
ATOM     57  C   UNL A   1      42.412  29.090  34.033  1.00  0.00     0.049 A 
ATOM     58  H   UNL A   1      40.954  29.713  32.640  1.00  0.00     0.167 HD
ATOM     59  C   UNL A   1      42.959  27.821  31.973  1.00  0.00     0.074 A 
ATOM     60  C   UNL A   1      43.760  26.879  31.217  1.00  0.00     0.031 C 
ATOM     61  C   UNL A   1      43.202  28.157  33.265  1.00  0.00     0.034 A 
BRANCH  48  62
ATOM     62  C   UNL A   1      39.248  32.339  35.560  1.00  0.00     0.023 A 
ATOM     63  C   UNL A   1      39.683  33.671  35.673  1.00  0.00     0.031 A 
ATOM     64  C   UNL A   1      38.418  31.827  36.573  1.00  0.00     0.131 A 
ATOM     65  C   UNL A   1      39.325  34.429  36.800  1.00  0.00     0.055 A 
ATOM     66  C   UNL A   1      38.010  32.606  37.656  1.00  0.00     0.041 A 
ATOM     67  F   UNL A   1      37.992  30.554  36.527  1.00  0.00    -0.206 F 
ATOM     68  C   UNL A   1      38.471  33.913  37.779  1.00  0.00     0.022 A 
BRANCH  65  69
ATOM     69  S   UNL A   1      40.073  36.066  37.022  1.00  0.00     0.124 S 
ATOM     70  O   UNL A   1      39.322  36.582  38.164  1.00  0.00    -0.237 OA
ATOM     71  O   UNL A   1      41.473  35.743  37.271  1.00  0.00    -0.237 OA
ATOM     72  O   UNL A   1      39.805  36.741  35.754  1.00  0.00    -0.744 OA
ENDBRANCH  65  69
ENDBRANCH  48  62
BRANCH  49  73
ATOM     73  C   UNL A   1      41.780  26.959  27.492  1.00  0.00     0.023 A 
ATOM     74  C   UNL A   1      41.588  25.572  27.389  1.00  0.00     0.031 A 
ATOM     75  C   UNL A   1      42.470  27.607  26.451  1.00  0.00     0.131 A 
ATOM     76  C   UNL A   1      42.132  24.869  26.301  1.00  0.00     0.055 A 
ATOM     77  C   UNL A   1      42.959  26.913  25.344  1.00  0.00     0.041 A 
ATOM     78  F   UNL A   1      42.683  28.931  26.499  1.00  0.00    -0.206 F 
ATOM     79  C   UNL A   1      42.806  25.532  25.273  1.00  0.00     0.022 A 
BRANCH  76  80
ATOM     80  S   UNL A   1      42.043  23.058  26.307  1.00  0.00     0.124 S 
ATOM     81  O   UNL A   1      40.613  22.830  26.476  1.00  0.00    -0.237 OA
ATOM     82  O   UNL A   1      42.596  22.725  24.998  1.00  0.00    -0.237 OA
ATOM     83  O   UNL A   1      42.876  22.679  27.447  1.00  0.00    -0.744 OA
ENDBRANCH  76  80
ENDBRANCH  49  73
BRANCH  61  84
ATOM     84  C   UNL A   1      44.350  27.460  33.954  1.00  0.00     0.023 A 
ATOM     85  C   UNL A   1      44.154  26.325  34.760  1.00  0.00     0.031 A 
ATOM     86  C   UNL A   1      45.662  27.947  33.806  1.00  0.00     0.131 A 
ATOM     87  C   UNL A   1      45.242  25.748  35.431  1.00  0.00     0.055 A 
ATOM     88  C   UNL A   1      46.749  27.333  34.428  1.00  0.00     0.041 A 
ATOM     89  F   UNL A   1      45.908  29.028  33.048  1.00  0.00    -0.206 F 
ATOM     90  C   UNL A   1      46.541  26.234  35.257  1.00  0.00     0.022 A 
BRANCH  87  91
ATOM     91  S   UNL A   1      44.929  24.402  36.607  1.00  0.00     0.124 S 
ATOM     92  O   UNL A   1      44.738  23.261  35.717  1.00  0.00    -0.237 OA
ATOM     93  O   UNL A   1      46.152  24.392  37.403  1.00  0.00    -0.237 OA
ATOM     94  O   UNL A   1      43.730  24.840  37.319  1.00  0.00    -0.744 OA
ENDBRANCH  87  91
ENDBRANCH  61  84
ENDBRANCH  35  36
ENDBRANCH  28  30
ENDBRANCH  27  28
ENDBRANCH  26  27
ENDBRANCH   1  26
TORSDOF 19
ENDMDL
MODEL 3
REMARK VINA RESULT:     -11.4      1.549      2.079
REMARK SMILES CC1=C2C(=O)N(C[C@H]3CCCO3)C(=O)N=C2S[C@@H]1C(=O)OCCOCCOC(=O)c1ccc(-c2c3nc(c(-c4cc(S(=O)(=O)[O-])ccc4F)c4ccc([nH]4)c(-c4cc(S(=O)(=O)[O-])ccc4F)c4nc(c(-c5cc(S(=O)(=O)[O-])ccc5F)c5ccc2[nH]5)C=C4)C=C3)cc1
REMARK SMILES IDX 25 1 24 2 23 3 22 4 21 5 19 6 20 7 18 8 1 9 2 10 3 11 4 12
REMARK SMILES IDX 16 13 17 14 5 15 6 16 15 17 13 18 14 19 7 20 8 21 9 22 12 23
REMARK SMILES IDX 10 24 11 25 26 26 27 27 28 28 29 29 30 30 31 31 92 32 32 33
REMARK SMILES IDX 91 34 33 35 34 36 35 37 85 38 36 39 90 40 84 41 86 42 37 43
REMARK SMILES IDX 89 44 83 45 82 46 38 48 70 49 50 50 69 51 51 52 54 53 68 54
REMARK SMILES IDX 87 55 52 56 53 57 67 59 88 60 55 61 39 62 40 63 48 64 41 65
REMARK SMILES IDX 47 66 49 67 46 68 42 69 43 70 44 71 45 72 71 73 72 74 80 75
REMARK SMILES IDX 73 76 79 77 81 78 78 79 74 80 75 81 76 82 77 83 56 84 57 85
REMARK SMILES IDX 65 86 58 87 64 88 66 89 63 90 59 91 60 92 61 93 62 94
REMARK H PARENT 86 47 54 58
REMARK Flexibility Score: inf
ROOT
ATOM      1  C   UNL A   1      35.725  21.444  24.958  1.00  0.00     0.202 C 
ENDROOT
BRANCH   1   2
ATOM      2  O   UNL A   1      34.448  21.485  25.596  1.00  0.00    -0.374 OA
BRANCH   2   3
ATOM      3  C   UNL A   1      34.320  22.246  26.796  1.00  0.00     0.202 C 
BRANCH   3   4
ATOM      4  C   UNL A   1      33.082  21.978  27.653  1.00  0.00     0.261 C 
BRANCH   4   5
ATOM      5  O   UNL A   1      32.185  23.096  27.654  1.00  0.00    -0.462 OA
BRANCH   5   6
ATOM      6  C   UNL A   1      31.660  23.419  26.445  1.00  0.00     0.323 C 
ATOM      7  O   UNL A   1      31.099  22.632  25.686  1.00  0.00    -0.251 OA
BRANCH   6   8
ATOM      8  C   UNL A   1      31.887  24.868  26.054  1.00  0.00     0.189 C 
ATOM      9  C   UNL A   1      29.397  25.412  26.462  1.00  0.00     0.042 C 
ATOM     10  C   UNL A   1      30.613  25.515  25.597  1.00  0.00    -0.033 C 
ATOM     11  C   UNL A   1      30.715  26.231  24.470  1.00  0.00     0.073 C 
ATOM     12  C   UNL A   1      29.730  27.080  23.818  1.00  0.00     0.264 C 
ATOM     13  C   UNL A   1      32.064  26.323  23.953  1.00  0.00     0.116 C 
ATOM     14  S   UNL A   1      33.086  25.133  24.693  1.00  0.00    -0.086 SA
ATOM     15  O   UNL A   1      28.552  26.763  23.737  1.00  0.00    -0.268 OA
ATOM     16  N   UNL A   1      30.315  28.240  23.376  1.00  0.00    -0.256 N 
ATOM     17  N   UNL A   1      32.474  27.211  23.130  1.00  0.00    -0.186 NA
ATOM     18  C   UNL A   1      31.607  28.241  22.819  1.00  0.00     0.351 C 
ATOM     19  O   UNL A   1      31.988  29.174  22.125  1.00  0.00    -0.246 OA
BRANCH  16  20
ATOM     20  C   UNL A   1      29.662  29.534  23.567  1.00  0.00     0.163 C 
BRANCH  20  21
ATOM     21  C   UNL A   1      28.338  29.870  22.856  1.00  0.00     0.138 C 
ATOM     22  C   UNL A   1      27.673  31.201  23.203  1.00  0.00     0.036 C 
ATOM     23  O   UNL A   1      28.648  29.967  21.439  1.00  0.00    -0.376 OA
ATOM     24  C   UNL A   1      28.191  32.164  22.175  1.00  0.00     0.031 C 
ATOM     25  C   UNL A   1      28.327  31.281  20.965  1.00  0.00     0.160 C 
ENDBRANCH  20  21
ENDBRANCH  16  20
ENDBRANCH   6   8
ENDBRANCH   5   6
ENDBRANCH   4   5
ENDBRANCH   3   4
ENDBRANCH   2   3
ENDBRANCH   1   2
BRANCH   1  26
ATOM     26  C   UNL A   1      36.937  21.034  25.802  1.00  0.00     0.261 C 
BRANCH  26  27
ATOM     27  O   UNL A   1      38.188  21.352  25.165  1.00  0.00    -0.460 OA
BRANCH  27  28
ATOM     28  C   UNL A   1      39.280  21.167  25.948  1.00  0.00     0.338 C 
ATOM     29  O   UNL A   1      39.964  20.159  26.021  1.00  0.00    -0.246 OA
BRANCH  28  30
ATOM     30  C   UNL A   1      39.680  22.439  26.579  1.00  0.00     0.060 A 
ATOM     31  C   UNL A   1      39.080  23.610  26.099  1.00  0.00     0.016 A 
ATOM     32  C   UNL A   1      40.683  22.502  27.548  1.00  0.00     0.016 A 
ATOM     33  C   UNL A   1      39.518  24.854  26.545  1.00  0.00     0.010 A 
ATOM     34  C   UNL A   1      41.131  23.755  27.987  1.00  0.00     0.010 A 
ATOM     35  C   UNL A   1      40.577  24.936  27.459  1.00  0.00    -0.014 A 
BRANCH  35  36
ATOM     36  C   UNL A   1      41.200  26.256  27.728  1.00  0.00     0.031 A 
ATOM     37  C   UNL A   1      42.566  26.543  27.161  1.00  0.00     0.074 A 
ATOM     38  C   UNL A   1      40.542  27.201  28.424  1.00  0.00     0.049 A 
ATOM     39  N   UNL A   1      43.308  27.613  27.285  1.00  0.00    -0.248 NA
ATOM     40  C   UNL A   1      43.173  25.480  26.344  1.00  0.00     0.031 C 
ATOM     41  C   UNL A   1      39.196  27.055  28.977  1.00  0.00     0.029 A 
ATOM     42  N   UNL A   1      40.918  28.469  28.789  1.00  0.00    -0.354 N 
ATOM     43  C   UNL A   1      44.472  27.352  26.568  1.00  0.00     0.074 A 
ATOM     44  C   UNL A   1      44.347  26.012  26.036  1.00  0.00     0.031 C 
ATOM     45  C   UNL A   1      38.865  28.186  29.623  1.00  0.00     0.029 A 
ATOM     46  C   UNL A   1      39.987  29.121  29.564  1.00  0.00     0.049 A 
ATOM     47  H   UNL A   1      41.775  28.874  28.523  1.00  0.00     0.167 HD
ATOM     48  C   UNL A   1      45.543  28.158  26.369  1.00  0.00     0.034 A 
ATOM     49  C   UNL A   1      40.046  30.322  30.176  1.00  0.00     0.034 A 
ATOM     50  C   UNL A   1      45.656  29.491  26.910  1.00  0.00     0.049 A 
ATOM     51  C   UNL A   1      41.287  31.169  30.005  1.00  0.00     0.074 A 
ATOM     52  C   UNL A   1      46.689  30.399  26.752  1.00  0.00     0.029 A 
ATOM     53  N   UNL A   1      44.712  30.102  27.724  1.00  0.00    -0.354 N 
ATOM     54  N   UNL A   1      42.373  30.915  29.311  1.00  0.00    -0.248 NA
ATOM     55  C   UNL A   1      41.305  32.467  30.694  1.00  0.00     0.031 C 
ATOM     56  C   UNL A   1      46.401  31.529  27.525  1.00  0.00     0.029 A 
ATOM     57  C   UNL A   1      45.155  31.359  28.105  1.00  0.00     0.049 A 
ATOM     58  H   UNL A   1      43.854  29.700  27.992  1.00  0.00     0.167 HD
ATOM     59  C   UNL A   1      43.186  32.038  29.453  1.00  0.00     0.074 A 
ATOM     60  C   UNL A   1      42.459  32.973  30.287  1.00  0.00     0.031 C 
ATOM     61  C   UNL A   1      44.419  32.279  28.940  1.00  0.00     0.034 A 
BRANCH  48  62
ATOM     62  C   UNL A   1      46.699  27.601  25.577  1.00  0.00     0.023 A 
ATOM     63  C   UNL A   1      46.954  28.000  24.253  1.00  0.00     0.031 A 
ATOM     64  C   UNL A   1      47.558  26.651  26.158  1.00  0.00     0.131 A 
ATOM     65  C   UNL A   1      48.012  27.413  23.539  1.00  0.00     0.055 A 
ATOM     66  C   UNL A   1      48.648  26.123  25.466  1.00  0.00     0.041 A 
ATOM     67  F   UNL A   1      47.347  26.218  27.412  1.00  0.00    -0.206 F 
ATOM     68  C   UNL A   1      48.875  26.496  24.145  1.00  0.00     0.022 A 
BRANCH  65  69
ATOM     69  S   UNL A   1      48.184  27.788  21.773  1.00  0.00     0.124 S 
ATOM     70  O   UNL A   1      49.282  28.752  21.781  1.00  0.00    -0.237 OA
ATOM     71  O   UNL A   1      48.485  26.482  21.200  1.00  0.00    -0.237 OA
ATOM     72  O   UNL A   1      46.881  28.343  21.412  1.00  0.00    -0.744 OA
ENDBRANCH  65  69
ENDBRANCH  48  62
BRANCH  49  73
ATOM     73  C   UNL A   1      38.932  30.786  31.053  1.00  0.00     0.023 A 
ATOM     74  C   UNL A   1      37.888  31.577  30.549  1.00  0.00     0.031 A 
ATOM     75  C   UNL A   1      38.942  30.509  32.433  1.00  0.00     0.131 A 
ATOM     76  C   UNL A   1      36.930  32.113  31.425  1.00  0.00     0.055 A 
ATOM     77  C   UNL A   1      37.955  30.997  33.291  1.00  0.00     0.041 A 
ATOM     78  F   UNL A   1      39.917  29.759  32.969  1.00  0.00    -0.206 F 
ATOM     79  C   UNL A   1      36.950  31.818  32.790  1.00  0.00     0.022 A 
BRANCH  76  80
ATOM     80  S   UNL A   1      35.720  33.294  30.771  1.00  0.00     0.124 S 
ATOM     81  O   UNL A   1      35.822  34.388  31.730  1.00  0.00    -0.237 OA
ATOM     82  O   UNL A   1      36.247  33.558  29.436  1.00  0.00    -0.237 OA
ATOM     83  O   UNL A   1      34.463  32.548  30.805  1.00  0.00    -0.744 OA
ENDBRANCH  76  80
ENDBRANCH  49  73
BRANCH  61  84
ATOM     84  C   UNL A   1      45.031  33.628  29.224  1.00  0.00     0.023 A 
ATOM     85  C   UNL A   1      44.832  34.729  28.372  1.00  0.00     0.031 A 
ATOM     86  C   UNL A   1      45.835  33.811  30.364  1.00  0.00     0.131 A 
ATOM     87  C   UNL A   1      45.473  35.947  28.643  1.00  0.00     0.055 A 
ATOM     88  C   UNL A   1      46.422  35.042  30.661  1.00  0.00     0.041 A 
ATOM     89  F   UNL A   1      46.059  32.795  31.213  1.00  0.00    -0.206 F 
ATOM     90  C   UNL A   1      46.253  36.115  29.791  1.00  0.00     0.022 A 
BRANCH  87  91
ATOM     91  S   UNL A   1      45.346  37.289  27.429  1.00  0.00     0.124 S 
ATOM     92  O   UNL A   1      46.296  36.863  26.406  1.00  0.00    -0.237 OA
ATOM     93  O   UNL A   1      43.937  37.237  27.052  1.00  0.00    -0.237 OA
ATOM     94  O   UNL A   1      45.741  38.476  28.186  1.00  0.00    -0.744 OA
ENDBRANCH  87  91
ENDBRANCH  61  84
ENDBRANCH  35  36
ENDBRANCH  28  30
ENDBRANCH  27  28
ENDBRANCH  26  27
ENDBRANCH   1  26
TORSDOF 19
ENDMDL
