MODEL 1
REMARK VINA RESULT:     -11.7      0.000      0.000
REMARK SMILES Cc1ccccc1NC(=S)NN1C(=O)CS[C@H]1c1ccccc1C(=O)OCCOCCOC(=O)c1ccc(-c2c3nc(c(-c4cc(S(=O)(=O)[O-])ccc4F)c4ccc([nH]4)c(-c4cc(S(=O)(=O)[O-])ccc4F)c4nc(c(-c5cc(S(=O)(=O)[O-])ccc5F)c5ccc2[nH]5)C=C4)C=C3)cc1
REMARK SMILES IDX 28 1 27 2 26 3 24 4 25 5 23 6 18 7 19 8 20 9 22 10 21 11
REMARK SMILES IDX 17 12 12 13 13 14 14 15 15 16 16 17 11 18 9 20 10 21 8 22
REMARK SMILES IDX 7 24 1 25 2 26 3 27 4 28 6 29 5 30 29 31 30 32 31 33 32 34
REMARK SMILES IDX 33 35 34 36 35 37 36 38 97 39 37 40 96 41 38 42 39 43 40 44
REMARK SMILES IDX 90 45 41 46 95 47 89 48 91 49 42 50 94 51 88 52 87 53 43 55
REMARK SMILES IDX 75 56 55 57 74 58 56 59 59 60 73 61 92 62 57 63 58 64 72 66
REMARK SMILES IDX 93 67 60 68 44 69 45 70 53 71 46 72 52 73 54 74 51 75 47 76
REMARK SMILES IDX 48 77 49 78 50 79 76 80 77 81 85 82 78 83 84 84 86 85 83 86
REMARK SMILES IDX 79 87 80 88 81 89 82 90 61 91 62 92 70 93 63 94 69 95 71 96
REMARK SMILES IDX 68 97 64 98 65 99 66 100 67 101
REMARK H PARENT 11 19 8 23 91 54 59 65
REMARK Flexibility Score: inf
ROOT
ATOM      1  C   UNL A   1      39.295  24.474  27.095  1.00  0.00     0.202 C 
ENDROOT
BRANCH   1   2
ATOM      2  C   UNL A   1      37.797  23.672  26.391  1.00  0.00     0.261 C 
BRANCH   2   3
ATOM      3  O   UNL A   1      37.114  23.853  24.775  1.00  0.00    -0.460 OA
BRANCH   3   4
ATOM      4  C   UNL A   1      36.173  23.409  23.766  1.00  0.00     0.338 C 
ATOM      5  O   UNL A   1      36.636  23.002  22.695  1.00  0.00    -0.246 OA
BRANCH   4   6
ATOM      6  C   UNL A   1      34.571  23.216  23.680  1.00  0.00     0.066 A 
ATOM      7  C   UNL A   1      33.604  23.010  24.705  1.00  0.00     0.001 A 
ATOM      8  C   UNL A   1      32.244  23.345  24.505  1.00  0.00     0.008 A 
ATOM      9  C   UNL A   1      31.752  23.550  23.232  1.00  0.00     0.000 A 
ATOM     10  C   UNL A   1      34.005  23.300  22.385  1.00  0.00     0.016 A 
ATOM     11  C   UNL A   1      32.619  23.409  22.161  1.00  0.00     0.001 A 
BRANCH   7  12
ATOM     12  C   UNL A   1      33.934  22.179  25.923  1.00  0.00     0.197 C 
ATOM     13  N   UNL A   1      32.744  21.495  26.234  1.00  0.00    -0.236 N 
ATOM     14  C   UNL A   1      32.696  20.459  25.102  1.00  0.00     0.252 C 
ATOM     15  O   UNL A   1      31.845  20.192  24.256  1.00  0.00    -0.272 OA
ATOM     16  C   UNL A   1      34.045  19.790  24.944  1.00  0.00     0.174 C 
ATOM     17  S   UNL A   1      35.218  20.928  25.670  1.00  0.00    -0.120 SA
BRANCH  13  18
ATOM     18  N   UNL A   1      31.595  22.593  27.045  1.00  0.00    -0.270 N 
ATOM     19  H   UNL A   1      31.828  22.625  28.001  1.00  0.00     0.191 HD
BRANCH  18  20
ATOM     20  C   UNL A   1      30.405  23.490  26.827  1.00  0.00     0.189 C 
ATOM     21  S   UNL A   1      29.075  22.493  27.238  1.00  0.00    -0.039 S 
BRANCH  20  22
ATOM     22  N   UNL A   1      30.186  24.943  26.457  1.00  0.00    -0.331 N 
ATOM     23  H   UNL A   1      29.685  25.338  27.207  1.00  0.00     0.169 HD
BRANCH  22  24
ATOM     24  C   UNL A   1      30.405  26.168  25.362  1.00  0.00     0.043 A 
ATOM     25  C   UNL A   1      32.733  27.429  26.021  1.00  0.00     0.046 C 
ATOM     26  C   UNL A   1      31.581  27.007  25.137  1.00  0.00    -0.028 A 
ATOM     27  C   UNL A   1      31.718  27.829  23.938  1.00  0.00     0.005 A 
ATOM     28  C   UNL A   1      30.760  27.921  22.963  1.00  0.00     0.000 A 
ATOM     29  C   UNL A   1      29.402  26.614  24.481  1.00  0.00     0.026 A 
ATOM     30  C   UNL A   1      29.564  27.354  23.277  1.00  0.00     0.002 A 
ENDBRANCH  22  24
ENDBRANCH  20  22
ENDBRANCH  18  20
ENDBRANCH  13  18
ENDBRANCH   7  12
ENDBRANCH   4   6
ENDBRANCH   3   4
ENDBRANCH   2   3
ENDBRANCH   1   2
BRANCH   1  31
ATOM     31  O   UNL A   1      40.120  25.459  26.354  1.00  0.00    -0.374 OA
BRANCH  31  32
ATOM     32  C   UNL A   1      40.709  26.701  26.737  1.00  0.00     0.202 C 
BRANCH  32  33
ATOM     33  C   UNL A   1      42.078  26.903  26.002  1.00  0.00     0.261 C 
BRANCH  33  34
ATOM     34  O   UNL A   1      42.880  25.683  26.046  1.00  0.00    -0.460 OA
BRANCH  34  35
ATOM     35  C   UNL A   1      44.226  25.750  26.270  1.00  0.00     0.338 C 
ATOM     36  O   UNL A   1      45.057  26.242  25.528  1.00  0.00    -0.246 OA
BRANCH  35  37
ATOM     37  C   UNL A   1      44.555  24.946  27.501  1.00  0.00     0.060 A 
ATOM     38  C   UNL A   1      43.551  24.263  28.187  1.00  0.00     0.016 A 
ATOM     39  C   UNL A   1      45.779  25.067  28.142  1.00  0.00     0.016 A 
ATOM     40  C   UNL A   1      43.657  24.070  29.586  1.00  0.00     0.010 A 
ATOM     41  C   UNL A   1      45.828  24.927  29.541  1.00  0.00     0.010 A 
ATOM     42  C   UNL A   1      44.670  24.674  30.291  1.00  0.00    -0.014 A 
BRANCH  42  43
ATOM     43  C   UNL A   1      44.577  25.129  31.719  1.00  0.00     0.031 A 
ATOM     44  C   UNL A   1      44.035  26.522  31.943  1.00  0.00     0.074 A 
ATOM     45  C   UNL A   1      44.713  24.404  32.892  1.00  0.00     0.049 A 
ATOM     46  N   UNL A   1      43.965  27.133  33.090  1.00  0.00    -0.248 NA
ATOM     47  C   UNL A   1      43.555  27.371  30.850  1.00  0.00     0.031 C 
ATOM     48  C   UNL A   1      43.745  24.671  33.953  1.00  0.00     0.029 A 
ATOM     49  N   UNL A   1      45.404  23.271  33.436  1.00  0.00    -0.354 N 
ATOM     50  C   UNL A   1      42.974  28.071  32.943  1.00  0.00     0.074 A 
ATOM     51  C   UNL A   1      42.986  28.368  31.535  1.00  0.00     0.031 C 
ATOM     52  C   UNL A   1      44.023  23.974  35.042  1.00  0.00     0.029 A 
ATOM     53  C   UNL A   1      45.213  23.185  34.858  1.00  0.00     0.049 A 
ATOM     54  H   UNL A   1      45.937  22.636  32.904  1.00  0.00     0.167 HD
ATOM     55  C   UNL A   1      42.077  28.304  33.948  1.00  0.00     0.034 A 
ATOM     56  C   UNL A   1      45.803  22.558  35.937  1.00  0.00     0.034 A 
ATOM     57  C   UNL A   1      42.418  27.657  35.234  1.00  0.00     0.049 A 
ATOM     58  C   UNL A   1      45.835  23.563  37.108  1.00  0.00     0.074 A 
ATOM     59  C   UNL A   1      41.708  26.842  36.102  1.00  0.00     0.029 A 
ATOM     60  N   UNL A   1      43.718  27.704  35.748  1.00  0.00    -0.354 N 
ATOM     61  N   UNL A   1      44.952  24.510  37.270  1.00  0.00    -0.248 NA
ATOM     62  C   UNL A   1      46.936  23.731  38.063  1.00  0.00     0.031 C 
ATOM     63  C   UNL A   1      42.583  26.413  37.134  1.00  0.00     0.029 A 
ATOM     64  C   UNL A   1      43.835  26.964  36.918  1.00  0.00     0.049 A 
ATOM     65  H   UNL A   1      44.460  28.201  35.333  1.00  0.00     0.167 HD
ATOM     66  C   UNL A   1      45.553  25.578  37.876  1.00  0.00     0.074 A 
ATOM     67  C   UNL A   1      46.702  24.975  38.527  1.00  0.00     0.031 C 
ATOM     68  C   UNL A   1      45.106  26.857  37.650  1.00  0.00     0.034 A 
BRANCH  55  69
ATOM     69  C   UNL A   1      40.724  28.994  33.742  1.00  0.00     0.023 A 
ATOM     70  C   UNL A   1      40.383  30.094  34.563  1.00  0.00     0.031 A 
ATOM     71  C   UNL A   1      39.704  28.590  32.848  1.00  0.00     0.131 A 
ATOM     72  C   UNL A   1      39.133  30.740  34.456  1.00  0.00     0.055 A 
ATOM     73  C   UNL A   1      38.500  29.290  32.679  1.00  0.00     0.041 A 
ATOM     74  F   UNL A   1      39.768  27.457  32.139  1.00  0.00    -0.206 F 
ATOM     75  C   UNL A   1      38.207  30.372  33.485  1.00  0.00     0.022 A 
BRANCH  72  76
ATOM     76  S   UNL A   1      38.692  32.046  35.636  1.00  0.00     0.124 S 
ATOM     77  O   UNL A   1      37.235  31.963  35.651  1.00  0.00    -0.237 OA
ATOM     78  O   UNL A   1      39.380  31.623  36.850  1.00  0.00    -0.237 OA
ATOM     79  O   UNL A   1      39.231  33.257  35.016  1.00  0.00    -0.744 OA
ENDBRANCH  72  76
ENDBRANCH  55  69
BRANCH  56  80
ATOM     80  C   UNL A   1      46.829  21.494  35.717  1.00  0.00     0.023 A 
ATOM     81  C   UNL A   1      47.977  21.622  34.869  1.00  0.00     0.031 A 
ATOM     82  C   UNL A   1      46.841  20.499  36.685  1.00  0.00     0.131 A 
ATOM     83  C   UNL A   1      49.183  20.962  35.218  1.00  0.00     0.055 A 
ATOM     84  C   UNL A   1      48.027  19.891  37.048  1.00  0.00     0.041 A 
ATOM     85  F   UNL A   1      45.735  20.213  37.387  1.00  0.00    -0.206 F 
ATOM     86  C   UNL A   1      49.206  20.177  36.366  1.00  0.00     0.022 A 
BRANCH  83  87
ATOM     87  S   UNL A   1      50.812  21.156  34.338  1.00  0.00     0.124 S 
ATOM     88  O   UNL A   1      51.177  19.778  34.019  1.00  0.00    -0.237 OA
ATOM     89  O   UNL A   1      50.536  21.996  33.181  1.00  0.00    -0.237 OA
ATOM     90  O   UNL A   1      51.661  21.809  35.330  1.00  0.00    -0.744 OA
ENDBRANCH  83  87
ENDBRANCH  56  80
BRANCH  68  91
ATOM     91  C   UNL A   1      45.799  28.106  38.157  1.00  0.00     0.023 A 
ATOM     92  C   UNL A   1      45.445  28.748  39.352  1.00  0.00     0.031 A 
ATOM     93  C   UNL A   1      46.848  28.714  37.425  1.00  0.00     0.131 A 
ATOM     94  C   UNL A   1      45.983  29.999  39.693  1.00  0.00     0.055 A 
ATOM     95  C   UNL A   1      47.454  29.912  37.817  1.00  0.00     0.041 A 
ATOM     96  F   UNL A   1      47.316  28.179  36.288  1.00  0.00    -0.206 F 
ATOM     97  C   UNL A   1      46.996  30.585  38.939  1.00  0.00     0.022 A 
BRANCH  94  98
ATOM     98  S   UNL A   1      45.211  30.908  41.059  1.00  0.00     0.124 S 
ATOM     99  O   UNL A   1      43.871  31.160  40.534  1.00  0.00    -0.237 OA
ATOM    100  O   UNL A   1      45.291  29.951  42.158  1.00  0.00    -0.237 OA
ATOM    101  O   UNL A   1      46.051  32.095  41.205  1.00  0.00    -0.744 OA
ENDBRANCH  94  98
ENDBRANCH  68  91
ENDBRANCH  42  43
ENDBRANCH  35  37
ENDBRANCH  34  35
ENDBRANCH  33  34
ENDBRANCH  32  33
ENDBRANCH  31  32
ENDBRANCH   1  31
TORSDOF 22
ENDMDL
MODEL 2
REMARK VINA RESULT:     -11.7      2.244      3.386
REMARK SMILES Cc1ccccc1NC(=S)NN1C(=O)CS[C@H]1c1ccccc1C(=O)OCCOCCOC(=O)c1ccc(-c2c3nc(c(-c4cc(S(=O)(=O)[O-])ccc4F)c4ccc([nH]4)c(-c4cc(S(=O)(=O)[O-])ccc4F)c4nc(c(-c5cc(S(=O)(=O)[O-])ccc5F)c5ccc2[nH]5)C=C4)C=C3)cc1
REMARK SMILES IDX 28 1 27 2 26 3 24 4 25 5 23 6 18 7 19 8 20 9 22 10 21 11
REMARK SMILES IDX 17 12 12 13 13 14 14 15 15 16 16 17 11 18 9 20 10 21 8 22
REMARK SMILES IDX 7 24 1 25 2 26 3 27 4 28 6 29 5 30 29 31 30 32 31 33 32 34
REMARK SMILES IDX 33 35 34 36 35 37 36 38 97 39 37 40 96 41 38 42 39 43 40 44
REMARK SMILES IDX 90 45 41 46 95 47 89 48 91 49 42 50 94 51 88 52 87 53 43 55
REMARK SMILES IDX 75 56 55 57 74 58 56 59 59 60 73 61 92 62 57 63 58 64 72 66
REMARK SMILES IDX 93 67 60 68 44 69 45 70 53 71 46 72 52 73 54 74 51 75 47 76
REMARK SMILES IDX 48 77 49 78 50 79 76 80 77 81 85 82 78 83 84 84 86 85 83 86
REMARK SMILES IDX 79 87 80 88 81 89 82 90 61 91 62 92 70 93 63 94 69 95 71 96
REMARK SMILES IDX 68 97 64 98 65 99 66 100 67 101
REMARK H PARENT 11 19 8 23 91 54 59 65
REMARK Flexibility Score: inf
ROOT
ATOM      1  C   UNL A   1      38.697  23.326  26.490  1.00  0.00     0.202 C 
ENDROOT
BRANCH   1   2
ATOM      2  C   UNL A   1      37.371  22.566  25.467  1.00  0.00     0.261 C 
BRANCH   2   3
ATOM      3  O   UNL A   1      36.296  23.348  24.308  1.00  0.00    -0.460 OA
BRANCH   3   4
ATOM      4  C   UNL A   1      34.947  23.657  23.876  1.00  0.00     0.338 C 
ATOM      5  O   UNL A   1      34.175  22.708  23.698  1.00  0.00    -0.246 OA
BRANCH   4   6
ATOM      6  C   UNL A   1      34.094  25.003  23.614  1.00  0.00     0.066 A 
ATOM      7  C   UNL A   1      33.784  26.090  24.481  1.00  0.00     0.001 A 
ATOM      8  C   UNL A   1      33.460  27.367  23.965  1.00  0.00     0.008 A 
ATOM      9  C   UNL A   1      33.098  27.518  22.641  1.00  0.00     0.000 A 
ATOM     10  C   UNL A   1      33.590  25.173  22.301  1.00  0.00     0.016 A 
ATOM     11  C   UNL A   1      33.052  26.390  21.840  1.00  0.00     0.001 A 
BRANCH   7  12
ATOM     12  C   UNL A   1      33.519  25.856  25.950  1.00  0.00     0.197 C 
ATOM     13  N   UNL A   1      32.635  26.882  26.331  1.00  0.00    -0.236 N 
ATOM     14  C   UNL A   1      31.336  26.414  25.658  1.00  0.00     0.252 C 
ATOM     15  O   UNL A   1      30.569  26.956  24.865  1.00  0.00    -0.272 OA
ATOM     16  C   UNL A   1      31.101  24.944  25.932  1.00  0.00     0.174 C 
ATOM     17  S   UNL A   1      32.712  24.283  26.339  1.00  0.00    -0.120 SA
BRANCH  13  18
ATOM     18  N   UNL A   1      33.520  28.419  26.528  1.00  0.00    -0.270 N 
ATOM     19  H   UNL A   1      34.357  28.355  26.015  1.00  0.00     0.191 HD
BRANCH  18  20
ATOM     20  C   UNL A   1      33.476  29.775  27.180  1.00  0.00     0.189 C 
ATOM     21  S   UNL A   1      32.172  30.554  26.391  1.00  0.00    -0.039 S 
BRANCH  20  22
ATOM     22  N   UNL A   1      34.202  30.463  28.319  1.00  0.00    -0.331 N 
ATOM     23  H   UNL A   1      33.794  30.118  29.145  1.00  0.00     0.169 HD
BRANCH  22  24
ATOM     24  C   UNL A   1      35.371  31.534  28.803  1.00  0.00     0.043 A 
ATOM     25  C   UNL A   1      37.745  30.190  28.798  1.00  0.00     0.046 C 
ATOM     26  C   UNL A   1      36.825  31.390  28.774  1.00  0.00    -0.028 A 
ATOM     27  C   UNL A   1      37.713  32.536  28.950  1.00  0.00     0.005 A 
ATOM     28  C   UNL A   1      37.273  33.809  29.198  1.00  0.00     0.000 A 
ATOM     29  C   UNL A   1      35.089  32.784  29.384  1.00  0.00     0.026 A 
ATOM     30  C   UNL A   1      35.947  33.915  29.481  1.00  0.00     0.002 A 
ENDBRANCH  22  24
ENDBRANCH  20  22
ENDBRANCH  18  20
ENDBRANCH  13  18
ENDBRANCH   7  12
ENDBRANCH   4   6
ENDBRANCH   3   4
ENDBRANCH   2   3
ENDBRANCH   1   2
BRANCH   1  31
ATOM     31  O   UNL A   1      39.198  24.707  26.284  1.00  0.00    -0.374 OA
BRANCH  31  32
ATOM     32  C   UNL A   1      39.912  25.607  27.132  1.00  0.00     0.202 C 
BRANCH  32  33
ATOM     33  C   UNL A   1      41.256  26.040  26.455  1.00  0.00     0.261 C 
BRANCH  33  34
ATOM     34  O   UNL A   1      42.136  24.890  26.258  1.00  0.00    -0.460 OA
BRANCH  34  35
ATOM     35  C   UNL A   1      43.492  25.053  26.247  1.00  0.00     0.338 C 
ATOM     36  O   UNL A   1      44.157  25.499  25.330  1.00  0.00    -0.246 OA
BRANCH  35  37
ATOM     37  C   UNL A   1      44.068  24.414  27.484  1.00  0.00     0.060 A 
ATOM     38  C   UNL A   1      43.270  23.615  28.303  1.00  0.00     0.016 A 
ATOM     39  C   UNL A   1      45.299  24.799  27.994  1.00  0.00     0.016 A 
ATOM     40  C   UNL A   1      43.529  23.548  29.693  1.00  0.00     0.010 A 
ATOM     41  C   UNL A   1      45.492  24.775  29.388  1.00  0.00     0.010 A 
ATOM     42  C   UNL A   1      44.469  24.375  30.261  1.00  0.00    -0.014 A 
BRANCH  42  43
ATOM     43  C   UNL A   1      44.416  24.911  31.662  1.00  0.00     0.031 A 
ATOM     44  C   UNL A   1      43.857  26.305  31.825  1.00  0.00     0.074 A 
ATOM     45  C   UNL A   1      44.603  24.257  32.870  1.00  0.00     0.049 A 
ATOM     46  N   UNL A   1      43.815  26.981  32.936  1.00  0.00    -0.248 NA
ATOM     47  C   UNL A   1      43.326  27.082  30.701  1.00  0.00     0.031 C 
ATOM     48  C   UNL A   1      43.666  24.570  33.946  1.00  0.00     0.029 A 
ATOM     49  N   UNL A   1      45.332  23.168  33.454  1.00  0.00    -0.354 N 
ATOM     50  C   UNL A   1      42.802  27.893  32.769  1.00  0.00     0.074 A 
ATOM     51  C   UNL A   1      42.762  28.108  31.347  1.00  0.00     0.031 C 
ATOM     52  C   UNL A   1      43.993  23.941  35.063  1.00  0.00     0.029 A 
ATOM     53  C   UNL A   1      45.190  23.162  34.884  1.00  0.00     0.049 A 
ATOM     54  H   UNL A   1      45.858  22.512  32.942  1.00  0.00     0.167 HD
ATOM     55  C   UNL A   1      41.935  28.169  33.789  1.00  0.00     0.034 A 
ATOM     56  C   UNL A   1      45.826  22.608  35.977  1.00  0.00     0.034 A 
ATOM     57  C   UNL A   1      42.330  27.604  35.097  1.00  0.00     0.049 A 
ATOM     58  C   UNL A   1      45.880  23.680  37.086  1.00  0.00     0.074 A 
ATOM     59  C   UNL A   1      41.664  26.829  36.035  1.00  0.00     0.029 A 
ATOM     60  N   UNL A   1      43.646  27.701  35.563  1.00  0.00    -0.354 N 
ATOM     61  N   UNL A   1      44.986  24.621  37.224  1.00  0.00    -0.248 NA
ATOM     62  C   UNL A   1      47.008  23.920  37.991  1.00  0.00     0.031 C 
ATOM     63  C   UNL A   1      42.580  26.476  37.060  1.00  0.00     0.029 A 
ATOM     64  C   UNL A   1      43.814  27.032  36.769  1.00  0.00     0.049 A 
ATOM     65  H   UNL A   1      44.365  28.185  35.095  1.00  0.00     0.167 HD
ATOM     66  C   UNL A   1      45.588  25.732  37.747  1.00  0.00     0.074 A 
ATOM     67  C   UNL A   1      46.768  25.185  38.392  1.00  0.00     0.031 C 
ATOM     68  C   UNL A   1      45.111  26.988  37.463  1.00  0.00     0.034 A 
BRANCH  55  69
ATOM     69  C   UNL A   1      40.564  28.826  33.590  1.00  0.00     0.023 A 
ATOM     70  C   UNL A   1      40.161  29.856  34.472  1.00  0.00     0.031 A 
ATOM     71  C   UNL A   1      39.583  28.448  32.642  1.00  0.00     0.131 A 
ATOM     72  C   UNL A   1      38.892  30.464  34.371  1.00  0.00     0.055 A 
ATOM     73  C   UNL A   1      38.360  29.115  32.485  1.00  0.00     0.041 A 
ATOM     74  F   UNL A   1      39.708  27.368  31.861  1.00  0.00    -0.206 F 
ATOM     75  C   UNL A   1      38.007  30.130  33.352  1.00  0.00     0.022 A 
BRANCH  72  76
ATOM     76  S   UNL A   1      38.373  31.671  35.622  1.00  0.00     0.124 S 
ATOM     77  O   UNL A   1      39.472  32.631  35.593  1.00  0.00    -0.237 OA
ATOM     78  O   UNL A   1      37.090  32.133  35.106  1.00  0.00    -0.237 OA
ATOM     79  O   UNL A   1      38.289  30.873  36.846  1.00  0.00    -0.744 OA
ENDBRANCH  72  76
ENDBRANCH  55  69
BRANCH  56  80
ATOM     80  C   UNL A   1      46.863  21.549  35.784  1.00  0.00     0.023 A 
ATOM     81  C   UNL A   1      47.975  21.643  34.884  1.00  0.00     0.031 A 
ATOM     82  C   UNL A   1      46.931  20.618  36.811  1.00  0.00     0.131 A 
ATOM     83  C   UNL A   1      49.206  21.026  35.226  1.00  0.00     0.055 A 
ATOM     84  C   UNL A   1      48.142  20.054  37.164  1.00  0.00     0.041 A 
ATOM     85  F   UNL A   1      45.859  20.359  37.573  1.00  0.00    -0.206 F 
ATOM     86  C   UNL A   1      49.288  20.316  36.418  1.00  0.00     0.022 A 
BRANCH  83  87
ATOM     87  S   UNL A   1      50.795  21.191  34.271  1.00  0.00     0.124 S 
ATOM     88  O   UNL A   1      51.726  21.704  35.274  1.00  0.00    -0.237 OA
ATOM     89  O   UNL A   1      51.103  19.853  33.784  1.00  0.00    -0.237 OA
ATOM     90  O   UNL A   1      50.457  22.125  33.202  1.00  0.00    -0.744 OA
ENDBRANCH  83  87
ENDBRANCH  56  80
BRANCH  68  91
ATOM     91  C   UNL A   1      45.798  28.275  37.873  1.00  0.00     0.023 A 
ATOM     92  C   UNL A   1      45.346  29.083  38.925  1.00  0.00     0.031 A 
ATOM     93  C   UNL A   1      46.943  28.748  37.187  1.00  0.00     0.131 A 
ATOM     94  C   UNL A   1      45.897  30.355  39.155  1.00  0.00     0.055 A 
ATOM     95  C   UNL A   1      47.554  29.972  37.482  1.00  0.00     0.041 A 
ATOM     96  F   UNL A   1      47.507  28.051  36.190  1.00  0.00    -0.206 F 
ATOM     97  C   UNL A   1      47.008  30.804  38.447  1.00  0.00     0.022 A 
BRANCH  94  98
ATOM     98  S   UNL A   1      45.024  31.462  40.294  1.00  0.00     0.124 S 
ATOM     99  O   UNL A   1      43.630  31.253  39.908  1.00  0.00    -0.237 OA
ATOM    100  O   UNL A   1      45.406  30.934  41.600  1.00  0.00    -0.237 OA
ATOM    101  O   UNL A   1      45.561  32.783  39.975  1.00  0.00    -0.744 OA
ENDBRANCH  94  98
ENDBRANCH  68  91
ENDBRANCH  42  43
ENDBRANCH  35  37
ENDBRANCH  34  35
ENDBRANCH  33  34
ENDBRANCH  32  33
ENDBRANCH  31  32
ENDBRANCH   1  31
TORSDOF 22
ENDMDL
MODEL 3
REMARK VINA RESULT:     -11.6      4.470      8.453
REMARK SMILES Cc1ccccc1NC(=S)NN1C(=O)CS[C@H]1c1ccccc1C(=O)OCCOCCOC(=O)c1ccc(-c2c3nc(c(-c4cc(S(=O)(=O)[O-])ccc4F)c4ccc([nH]4)c(-c4cc(S(=O)(=O)[O-])ccc4F)c4nc(c(-c5cc(S(=O)(=O)[O-])ccc5F)c5ccc2[nH]5)C=C4)C=C3)cc1
REMARK SMILES IDX 28 1 27 2 26 3 24 4 25 5 23 6 18 7 19 8 20 9 22 10 21 11
REMARK SMILES IDX 17 12 12 13 13 14 14 15 15 16 16 17 11 18 9 20 10 21 8 22
REMARK SMILES IDX 7 24 1 25 2 26 3 27 4 28 6 29 5 30 29 31 30 32 31 33 32 34
REMARK SMILES IDX 33 35 34 36 35 37 36 38 97 39 37 40 96 41 38 42 39 43 40 44
REMARK SMILES IDX 90 45 41 46 95 47 89 48 91 49 42 50 94 51 88 52 87 53 43 55
REMARK SMILES IDX 75 56 55 57 74 58 56 59 59 60 73 61 92 62 57 63 58 64 72 66
REMARK SMILES IDX 93 67 60 68 44 69 45 70 53 71 46 72 52 73 54 74 51 75 47 76
REMARK SMILES IDX 48 77 49 78 50 79 76 80 77 81 85 82 78 83 84 84 86 85 83 86
REMARK SMILES IDX 79 87 80 88 81 89 82 90 61 91 62 92 70 93 63 94 69 95 71 96
REMARK SMILES IDX 68 97 64 98 65 99 66 100 67 101
REMARK H PARENT 11 19 8 23 91 54 59 65
REMARK Flexibility Score: inf
ROOT
ATOM      1  C   UNL A   1      33.701  29.786  27.171  1.00  0.00     0.202 C 
ENDROOT
BRANCH   1   2
ATOM      2  C   UNL A   1      32.828  29.830  25.552  1.00  0.00     0.261 C 
BRANCH   2   3
ATOM      3  O   UNL A   1      31.558  28.758  24.963  1.00  0.00    -0.460 OA
BRANCH   3   4
ATOM      4  C   UNL A   1      31.071  27.410  24.744  1.00  0.00     0.338 C 
ATOM      5  O   UNL A   1      30.136  27.265  23.947  1.00  0.00    -0.246 OA
BRANCH   4   6
ATOM      6  C   UNL A   1      31.494  25.931  25.236  1.00  0.00     0.066 A 
ATOM      7  C   UNL A   1      32.777  25.326  25.362  1.00  0.00     0.001 A 
ATOM      8  C   UNL A   1      32.989  24.239  26.243  1.00  0.00     0.008 A 
ATOM      9  C   UNL A   1      31.921  23.517  26.737  1.00  0.00     0.000 A 
ATOM     10  C   UNL A   1      30.434  25.089  25.653  1.00  0.00     0.016 A 
ATOM     11  C   UNL A   1      30.645  23.878  26.341  1.00  0.00     0.001 A 
BRANCH   7  12
ATOM     12  C   UNL A   1      33.876  25.631  24.370  1.00  0.00     0.197 C 
ATOM     13  N   UNL A   1      34.325  24.375  23.923  1.00  0.00    -0.236 N 
ATOM     14  C   UNL A   1      33.152  23.945  23.029  1.00  0.00     0.252 C 
ATOM     15  O   UNL A   1      32.433  22.948  23.024  1.00  0.00    -0.272 OA
ATOM     16  C   UNL A   1      32.747  25.080  22.112  1.00  0.00     0.174 C 
ATOM     17  S   UNL A   1      33.351  26.562  22.910  1.00  0.00    -0.120 SA
BRANCH  13  18
ATOM     18  N   UNL A   1      35.370  23.617  25.155  1.00  0.00    -0.270 N 
ATOM     19  H   UNL A   1      35.555  24.288  25.850  1.00  0.00     0.191 HD
BRANCH  18  20
ATOM     20  C   UNL A   1      36.077  22.344  25.538  1.00  0.00     0.189 C 
ATOM     21  S   UNL A   1      35.053  21.119  24.920  1.00  0.00    -0.039 S 
BRANCH  20  22
ATOM     22  N   UNL A   1      37.395  21.981  26.191  1.00  0.00    -0.331 N 
ATOM     23  H   UNL A   1      37.264  21.087  26.582  1.00  0.00     0.169 HD
BRANCH  22  24
ATOM     24  C   UNL A   1      38.956  22.408  26.549  1.00  0.00     0.043 A 
ATOM     25  C   UNL A   1      39.026  25.129  26.727  1.00  0.00     0.046 C 
ATOM     26  C   UNL A   1      39.489  23.708  26.952  1.00  0.00    -0.028 A 
ATOM     27  C   UNL A   1      40.827  23.844  27.523  1.00  0.00     0.005 A 
ATOM     28  C   UNL A   1      41.697  22.799  27.684  1.00  0.00     0.000 A 
ATOM     29  C   UNL A   1      40.046  21.521  26.460  1.00  0.00     0.026 A 
ATOM     30  C   UNL A   1      41.318  21.638  27.084  1.00  0.00     0.002 A 
ENDBRANCH  22  24
ENDBRANCH  20  22
ENDBRANCH  18  20
ENDBRANCH  13  18
ENDBRANCH   7  12
ENDBRANCH   4   6
ENDBRANCH   3   4
ENDBRANCH   2   3
ENDBRANCH   1   2
BRANCH   1  31
ATOM     31  O   UNL A   1      34.144  31.003  27.893  1.00  0.00    -0.374 OA
BRANCH  31  32
ATOM     32  C   UNL A   1      35.362  31.748  27.865  1.00  0.00     0.202 C 
BRANCH  32  33
ATOM     33  C   UNL A   1      36.178  31.505  29.179  1.00  0.00     0.261 C 
BRANCH  33  34
ATOM     34  O   UNL A   1      37.228  30.512  28.967  1.00  0.00    -0.460 OA
BRANCH  34  35
ATOM     35  C   UNL A   1      37.262  29.372  29.718  1.00  0.00     0.338 C 
ATOM     36  O   UNL A   1      36.671  29.181  30.765  1.00  0.00    -0.246 OA
BRANCH  35  37
ATOM     37  C   UNL A   1      38.301  28.443  29.146  1.00  0.00     0.060 A 
ATOM     38  C   UNL A   1      38.658  27.278  29.825  1.00  0.00     0.016 A 
ATOM     39  C   UNL A   1      39.117  28.828  28.093  1.00  0.00     0.016 A 
ATOM     40  C   UNL A   1      39.972  26.764  29.703  1.00  0.00     0.010 A 
ATOM     41  C   UNL A   1      40.436  28.340  28.045  1.00  0.00     0.010 A 
ATOM     42  C   UNL A   1      40.935  27.483  29.037  1.00  0.00    -0.014 A 
BRANCH  42  43
ATOM     43  C   UNL A   1      42.402  27.464  29.354  1.00  0.00     0.031 A 
ATOM     44  C   UNL A   1      42.892  28.517  30.321  1.00  0.00     0.074 A 
ATOM     45  C   UNL A   1      43.360  26.505  29.067  1.00  0.00     0.049 A 
ATOM     46  N   UNL A   1      44.133  28.728  30.649  1.00  0.00    -0.248 NA
ATOM     47  C   UNL A   1      41.992  29.468  30.978  1.00  0.00     0.031 C 
ATOM     48  C   UNL A   1      44.302  26.167  30.131  1.00  0.00     0.029 A 
ATOM     49  N   UNL A   1      43.693  25.511  28.086  1.00  0.00    -0.354 N 
ATOM     50  C   UNL A   1      44.087  29.343  31.876  1.00  0.00     0.074 A 
ATOM     51  C   UNL A   1      42.817  30.020  31.874  1.00  0.00     0.031 C 
ATOM     52  C   UNL A   1      45.207  25.298  29.712  1.00  0.00     0.029 A 
ATOM     53  C   UNL A   1      45.003  24.971  28.325  1.00  0.00     0.049 A 
ATOM     54  H   UNL A   1      43.101  25.236  27.349  1.00  0.00     0.167 HD
ATOM     55  C   UNL A   1      44.977  29.010  32.858  1.00  0.00     0.034 A 
ATOM     56  C   UNL A   1      45.962  24.258  27.633  1.00  0.00     0.034 A 
ATOM     57  C   UNL A   1      46.092  28.149  32.408  1.00  0.00     0.049 A 
ATOM     58  C   UNL A   1      47.341  24.851  27.990  1.00  0.00     0.074 A 
ATOM     59  C   UNL A   1      46.611  26.951  32.875  1.00  0.00     0.029 A 
ATOM     60  N   UNL A   1      46.784  28.418  31.222  1.00  0.00    -0.354 N 
ATOM     61  N   UNL A   1      47.609  25.417  29.136  1.00  0.00    -0.248 NA
ATOM     62  C   UNL A   1      48.457  25.048  27.058  1.00  0.00     0.031 C 
ATOM     63  C   UNL A   1      47.617  26.516  31.972  1.00  0.00     0.029 A 
ATOM     64  C   UNL A   1      47.732  27.440  30.948  1.00  0.00     0.049 A 
ATOM     65  H   UNL A   1      46.621  29.204  30.653  1.00  0.00     0.167 HD
ATOM     66  C   UNL A   1      48.547  26.393  28.941  1.00  0.00     0.074 A 
ATOM     67  C   UNL A   1      49.183  25.985  27.701  1.00  0.00     0.031 C 
ATOM     68  C   UNL A   1      48.590  27.498  29.755  1.00  0.00     0.034 A 
BRANCH  55  69
ATOM     69  C   UNL A   1      44.758  29.312  34.345  1.00  0.00     0.023 A 
ATOM     70  C   UNL A   1      45.121  30.583  34.848  1.00  0.00     0.031 A 
ATOM     71  C   UNL A   1      44.296  28.403  35.327  1.00  0.00     0.131 A 
ATOM     72  C   UNL A   1      44.991  30.904  36.216  1.00  0.00     0.055 A 
ATOM     73  C   UNL A   1      44.081  28.753  36.668  1.00  0.00     0.041 A 
ATOM     74  F   UNL A   1      44.096  27.104  35.075  1.00  0.00    -0.206 F 
ATOM     75  C   UNL A   1      44.429  30.010  37.121  1.00  0.00     0.022 A 
BRANCH  72  76
ATOM     76  S   UNL A   1      45.614  32.495  36.828  1.00  0.00     0.124 S 
ATOM     77  O   UNL A   1      45.195  32.468  38.226  1.00  0.00    -0.237 OA
ATOM     78  O   UNL A   1      47.046  32.395  36.575  1.00  0.00    -0.237 OA
ATOM     79  O   UNL A   1      44.912  33.474  35.998  1.00  0.00    -0.744 OA
ENDBRANCH  72  76
ENDBRANCH  55  69
BRANCH  56  80
ATOM     80  C   UNL A   1      45.631  23.643  26.312  1.00  0.00     0.023 A 
ATOM     81  C   UNL A   1      45.594  22.234  26.048  1.00  0.00     0.031 A 
ATOM     82  C   UNL A   1      44.965  24.488  25.436  1.00  0.00     0.131 A 
ATOM     83  C   UNL A   1      44.660  21.722  25.111  1.00  0.00     0.055 A 
ATOM     84  C   UNL A   1      44.027  23.985  24.556  1.00  0.00     0.041 A 
ATOM     85  F   UNL A   1      45.109  25.819  25.525  1.00  0.00    -0.206 F 
ATOM     86  C   UNL A   1      43.823  22.612  24.448  1.00  0.00     0.022 A 
BRANCH  83  87
ATOM     87  S   UNL A   1      44.351  19.917  24.775  1.00  0.00     0.124 S 
ATOM     88  O   UNL A   1      45.376  19.255  25.579  1.00  0.00    -0.237 OA
ATOM     89  O   UNL A   1      42.983  19.665  25.204  1.00  0.00    -0.237 OA
ATOM     90  O   UNL A   1      44.527  19.803  23.330  1.00  0.00    -0.744 OA
ENDBRANCH  83  87
ENDBRANCH  56  80
BRANCH  68  91
ATOM     91  C   UNL A   1      49.492  28.694  29.524  1.00  0.00     0.023 A 
ATOM     92  C   UNL A   1      49.719  29.248  28.256  1.00  0.00     0.031 A 
ATOM     93  C   UNL A   1      50.184  29.312  30.593  1.00  0.00     0.131 A 
ATOM     94  C   UNL A   1      50.700  30.233  28.057  1.00  0.00     0.055 A 
ATOM     95  C   UNL A   1      51.090  30.362  30.407  1.00  0.00     0.041 A 
ATOM     96  F   UNL A   1      50.024  28.910  31.863  1.00  0.00    -0.206 F 
ATOM     97  C   UNL A   1      51.383  30.805  29.127  1.00  0.00     0.022 A 
BRANCH  94  98
ATOM     98  S   UNL A   1      51.166  30.631  26.351  1.00  0.00     0.124 S 
ATOM     99  O   UNL A   1      50.539  31.938  26.164  1.00  0.00    -0.237 OA
ATOM    100  O   UNL A   1      52.623  30.630  26.415  1.00  0.00    -0.237 OA
ATOM    101  O   UNL A   1      50.576  29.546  25.569  1.00  0.00    -0.744 OA
ENDBRANCH  94  98
ENDBRANCH  68  91
ENDBRANCH  42  43
ENDBRANCH  35  37
ENDBRANCH  34  35
ENDBRANCH  33  34
ENDBRANCH  32  33
ENDBRANCH  31  32
ENDBRANCH   1  31
TORSDOF 22
ENDMDL
