MODEL 1
REMARK VINA RESULT:     -11.1      0.000      0.000
REMARK SMILES O=C(OCCOCCOC(=O)[C@H]1C=C[C@H](NS(=O)(=O)c2ccc(F)c(F)c2F)C1)c1ccc(-c2c3nc(c(-c4cc(S(=O)(=O)[O-])ccc4F)c4ccc([nH]4)c(-c4cc(S(=O)(=O)[O-])ccc4F)c4nc(c(-c5cc(S(=O)(=O)[O-])ccc5F)c5ccc2[nH]5)C=C4)C=C3)cc1
REMARK SMILES IDX 6 1 5 2 4 3 3 4 2 5 1 6 30 7 31 8 92 9 32 10 91 11 33 12
REMARK SMILES IDX 34 13 35 14 85 15 36 16 90 17 84 18 86 19 37 20 89 21 83 22
REMARK SMILES IDX 82 23 38 25 70 26 50 27 69 28 51 29 54 30 68 31 87 32 52 33
REMARK SMILES IDX 53 34 67 36 88 37 55 38 39 39 40 40 48 41 41 42 47 43 49 44
REMARK SMILES IDX 46 45 42 46 43 47 44 48 45 49 71 50 72 51 80 52 73 53 79 54
REMARK SMILES IDX 81 55 78 56 74 57 75 58 76 59 77 60 56 61 57 62 65 63 58 64
REMARK SMILES IDX 64 65 66 66 63 67 59 68 60 69 61 70 62 71 7 72 8 73 9 74
REMARK SMILES IDX 10 75 11 76 12 77 13 78 29 79 14 80 15 81 16 82 17 84 18 85
REMARK SMILES IDX 19 86 20 87 21 88 27 89 22 90 25 91 28 92 23 93 26 94 24 95
REMARK H PARENT 86 24 54 35 16 83
REMARK Flexibility Score: inf
ROOT
ATOM      1  O   UNL A   1      34.754  21.383  26.265  1.00  0.00    -0.374 OA
ENDROOT
BRANCH   1   2
ATOM      2  C   UNL A   1      35.450  20.663  25.251  1.00  0.00     0.202 C 
BRANCH   2   3
ATOM      3  C   UNL A   1      36.792  21.232  24.791  1.00  0.00     0.261 C 
BRANCH   3   4
ATOM      4  O   UNL A   1      37.468  21.852  25.897  1.00  0.00    -0.460 OA
BRANCH   4   5
ATOM      5  C   UNL A   1      38.798  21.809  26.156  1.00  0.00     0.338 C 
ATOM      6  O   UNL A   1      39.393  20.737  26.077  1.00  0.00    -0.246 OA
BRANCH   5   7
ATOM      7  C   UNL A   1      39.565  23.028  26.526  1.00  0.00     0.060 A 
ATOM      8  C   UNL A   1      39.340  24.271  25.939  1.00  0.00     0.016 A 
ATOM      9  C   UNL A   1      40.489  22.947  27.574  1.00  0.00     0.016 A 
ATOM     10  C   UNL A   1      40.042  25.393  26.303  1.00  0.00     0.010 A 
ATOM     11  C   UNL A   1      41.148  24.098  28.016  1.00  0.00     0.010 A 
ATOM     12  C   UNL A   1      40.907  25.324  27.382  1.00  0.00    -0.014 A 
BRANCH  12  13
ATOM     13  C   UNL A   1      41.543  26.586  27.770  1.00  0.00     0.031 A 
ATOM     14  C   UNL A   1      40.760  27.543  28.600  1.00  0.00     0.074 A 
ATOM     15  C   UNL A   1      42.857  26.743  27.517  1.00  0.00     0.049 A 
ATOM     16  N   UNL A   1      41.085  28.739  28.994  1.00  0.00    -0.248 NA
ATOM     17  C   UNL A   1      39.435  27.088  29.059  1.00  0.00     0.031 C 
ATOM     18  C   UNL A   1      43.717  25.743  26.866  1.00  0.00     0.029 A 
ATOM     19  N   UNL A   1      43.713  27.769  27.804  1.00  0.00    -0.354 N 
ATOM     20  C   UNL A   1      39.989  29.204  29.708  1.00  0.00     0.074 A 
ATOM     21  C   UNL A   1      38.995  28.155  29.708  1.00  0.00     0.031 C 
ATOM     22  C   UNL A   1      44.977  26.201  26.826  1.00  0.00     0.029 A 
ATOM     23  C   UNL A   1      44.991  27.564  27.336  1.00  0.00     0.049 A 
ATOM     24  H   UNL A   1      43.442  28.576  28.297  1.00  0.00     0.167 HD
ATOM     25  C   UNL A   1      39.842  30.419  30.280  1.00  0.00     0.034 A 
ATOM     26  C   UNL A   1      46.028  28.419  27.266  1.00  0.00     0.034 A 
ATOM     27  C   UNL A   1      40.877  31.418  30.239  1.00  0.00     0.049 A 
ATOM     28  C   UNL A   1      45.785  29.811  27.797  1.00  0.00     0.074 A 
ATOM     29  C   UNL A   1      40.851  32.712  30.720  1.00  0.00     0.029 A 
ATOM     30  N   UNL A   1      42.134  31.227  29.670  1.00  0.00    -0.354 N 
ATOM     31  N   UNL A   1      44.715  30.287  28.397  1.00  0.00    -0.248 NA
ATOM     32  C   UNL A   1      46.868  30.782  27.629  1.00  0.00     0.031 C 
ATOM     33  C   UNL A   1      42.057  33.325  30.371  1.00  0.00     0.029 A 
ATOM     34  C   UNL A   1      42.875  32.390  29.751  1.00  0.00     0.049 A 
ATOM     35  H   UNL A   1      42.449  30.384  29.269  1.00  0.00     0.167 HD
ATOM     36  C   UNL A   1      45.005  31.612  28.694  1.00  0.00     0.074 A 
ATOM     37  C   UNL A   1      46.363  31.844  28.238  1.00  0.00     0.031 C 
ATOM     38  C   UNL A   1      44.229  32.562  29.277  1.00  0.00     0.034 A 
BRANCH  25  39
ATOM     39  C   UNL A   1      38.496  30.751  30.862  1.00  0.00     0.023 A 
ATOM     40  C   UNL A   1      37.498  31.414  30.128  1.00  0.00     0.031 A 
ATOM     41  C   UNL A   1      38.234  30.445  32.210  1.00  0.00     0.131 A 
ATOM     42  C   UNL A   1      36.304  31.793  30.762  1.00  0.00     0.055 A 
ATOM     43  C   UNL A   1      37.017  30.760  32.813  1.00  0.00     0.041 A 
ATOM     44  F   UNL A   1      39.169  29.853  32.969  1.00  0.00    -0.206 F 
ATOM     45  C   UNL A   1      36.046  31.447  32.092  1.00  0.00     0.022 A 
BRANCH  42  46
ATOM     46  S   UNL A   1      35.139  32.856  29.865  1.00  0.00     0.124 S 
ATOM     47  O   UNL A   1      36.013  33.937  29.418  1.00  0.00    -0.237 OA
ATOM     48  O   UNL A   1      34.638  31.968  28.823  1.00  0.00    -0.237 OA
ATOM     49  O   UNL A   1      34.162  33.233  30.885  1.00  0.00    -0.744 OA
ENDBRANCH  42  46
ENDBRANCH  25  39
BRANCH  26  50
ATOM     50  C   UNL A   1      47.303  28.052  26.580  1.00  0.00     0.023 A 
ATOM     51  C   UNL A   1      47.428  28.129  25.185  1.00  0.00     0.031 A 
ATOM     52  C   UNL A   1      48.391  27.518  27.301  1.00  0.00     0.131 A 
ATOM     53  C   UNL A   1      48.572  27.613  24.552  1.00  0.00     0.055 A 
ATOM     54  C   UNL A   1      49.558  27.080  26.674  1.00  0.00     0.041 A 
ATOM     55  F   UNL A   1      48.334  27.403  28.637  1.00  0.00    -0.206 F 
ATOM     56  C   UNL A   1      49.644  27.104  25.287  1.00  0.00     0.022 A 
BRANCH  53  57
ATOM     57  S   UNL A   1      48.570  27.472  22.743  1.00  0.00     0.124 S 
ATOM     58  O   UNL A   1      47.307  28.115  22.398  1.00  0.00    -0.237 OA
ATOM     59  O   UNL A   1      49.781  28.200  22.383  1.00  0.00    -0.237 OA
ATOM     60  O   UNL A   1      48.619  26.029  22.515  1.00  0.00    -0.744 OA
ENDBRANCH  53  57
ENDBRANCH  26  50
BRANCH  38  61
ATOM     61  C   UNL A   1      44.865  33.910  29.479  1.00  0.00     0.023 A 
ATOM     62  C   UNL A   1      44.761  34.921  28.510  1.00  0.00     0.031 A 
ATOM     63  C   UNL A   1      45.581  34.182  30.658  1.00  0.00     0.131 A 
ATOM     64  C   UNL A   1      45.418  36.140  28.710  1.00  0.00     0.055 A 
ATOM     65  C   UNL A   1      46.169  35.424  30.884  1.00  0.00     0.041 A 
ATOM     66  F   UNL A   1      45.710  33.245  31.611  1.00  0.00    -0.206 F 
ATOM     67  C   UNL A   1      46.101  36.407  29.901  1.00  0.00     0.022 A 
BRANCH  64  68
ATOM     68  S   UNL A   1      45.451  37.336  27.350  1.00  0.00     0.124 S 
ATOM     69  O   UNL A   1      46.284  36.652  26.367  1.00  0.00    -0.237 OA
ATOM     70  O   UNL A   1      44.038  37.463  27.010  1.00  0.00    -0.237 OA
ATOM     71  O   UNL A   1      46.052  38.524  27.954  1.00  0.00    -0.744 OA
ENDBRANCH  64  68
ENDBRANCH  38  61
ENDBRANCH  12  13
ENDBRANCH   5   7
ENDBRANCH   4   5
ENDBRANCH   3   4
ENDBRANCH   2   3
ENDBRANCH   1   2
BRANCH   1  72
ATOM     72  C   UNL A   1      33.510  20.842  26.712  1.00  0.00     0.202 C 
BRANCH  72  73
ATOM     73  C   UNL A   1      33.047  19.782  25.707  1.00  0.00     0.261 C 
BRANCH  73  74
ATOM     74  O   UNL A   1      31.895  20.292  25.013  1.00  0.00    -0.463 OA
BRANCH  74  75
ATOM     75  C   UNL A   1      32.134  20.832  23.786  1.00  0.00     0.312 C 
ATOM     76  O   UNL A   1      32.156  20.207  22.733  1.00  0.00    -0.252 OA
BRANCH  75  77
ATOM     77  C   UNL A   1      32.295  22.350  23.856  1.00  0.00     0.123 C 
ATOM     78  C   UNL A   1      33.349  22.789  22.880  1.00  0.00    -0.015 C 
ATOM     79  C   UNL A   1      31.075  23.181  23.413  1.00  0.00     0.043 C 
ATOM     80  C   UNL A   1      32.945  23.813  22.126  1.00  0.00    -0.011 C 
ATOM     81  C   UNL A   1      31.621  24.330  22.549  1.00  0.00     0.093 C 
BRANCH  81  82
ATOM     82  N   UNL A   1      31.796  25.515  23.383  1.00  0.00    -0.204 NA
ATOM     83  H   UNL A   1      32.669  25.949  23.083  1.00  0.00     0.142 HD
BRANCH  82  84
ATOM     84  S   UNL A   1      30.653  26.736  23.431  1.00  0.00     0.244 S 
ATOM     85  O   UNL A   1      30.749  27.451  22.183  1.00  0.00    -0.207 OA
ATOM     86  O   UNL A   1      29.393  26.150  23.846  1.00  0.00    -0.207 OA
BRANCH  84  87
ATOM     87  C   UNL A   1      31.150  27.842  24.702  1.00  0.00     0.121 A 
ATOM     88  C   UNL A   1      31.384  29.187  24.373  1.00  0.00     0.028 A 
ATOM     89  C   UNL A   1      31.293  27.401  26.010  1.00  0.00     0.181 A 
ATOM     90  C   UNL A   1      31.776  30.083  25.368  1.00  0.00     0.044 A 
ATOM     91  C   UNL A   1      31.667  28.302  26.998  1.00  0.00     0.195 A 
ATOM     92  F   UNL A   1      31.061  26.125  26.349  1.00  0.00    -0.202 F 
ATOM     93  C   UNL A   1      31.913  29.633  26.677  1.00  0.00     0.161 A 
ATOM     94  F   UNL A   1      31.786  27.889  28.269  1.00  0.00    -0.200 F 
ATOM     95  F   UNL A   1      32.286  30.498  27.629  1.00  0.00    -0.204 F 
ENDBRANCH  84  87
ENDBRANCH  82  84
ENDBRANCH  81  82
ENDBRANCH  75  77
ENDBRANCH  74  75
ENDBRANCH  73  74
ENDBRANCH  72  73
ENDBRANCH   1  72
TORSDOF 20
ENDMDL
MODEL 2
REMARK VINA RESULT:     -11.0      5.281     10.340
REMARK SMILES O=C(OCCOCCOC(=O)[C@H]1C=C[C@H](NS(=O)(=O)c2ccc(F)c(F)c2F)C1)c1ccc(-c2c3nc(c(-c4cc(S(=O)(=O)[O-])ccc4F)c4ccc([nH]4)c(-c4cc(S(=O)(=O)[O-])ccc4F)c4nc(c(-c5cc(S(=O)(=O)[O-])ccc5F)c5ccc2[nH]5)C=C4)C=C3)cc1
REMARK SMILES IDX 6 1 5 2 4 3 3 4 2 5 1 6 30 7 31 8 92 9 32 10 91 11 33 12
REMARK SMILES IDX 34 13 35 14 85 15 36 16 90 17 84 18 86 19 37 20 89 21 83 22
REMARK SMILES IDX 82 23 38 25 70 26 50 27 69 28 51 29 54 30 68 31 87 32 52 33
REMARK SMILES IDX 53 34 67 36 88 37 55 38 39 39 40 40 48 41 41 42 47 43 49 44
REMARK SMILES IDX 46 45 42 46 43 47 44 48 45 49 71 50 72 51 80 52 73 53 79 54
REMARK SMILES IDX 81 55 78 56 74 57 75 58 76 59 77 60 56 61 57 62 65 63 58 64
REMARK SMILES IDX 64 65 66 66 63 67 59 68 60 69 61 70 62 71 7 72 8 73 9 74
REMARK SMILES IDX 10 75 11 76 12 77 13 78 29 79 14 80 15 81 16 82 17 84 18 85
REMARK SMILES IDX 19 86 20 87 21 88 27 89 22 90 25 91 28 92 23 93 26 94 24 95
REMARK H PARENT 86 24 54 35 16 83
REMARK Flexibility Score: inf
ROOT
ATOM      1  O   UNL A   1      31.634  28.945  24.262  1.00  0.00    -0.374 OA
ENDROOT
BRANCH   1   2
ATOM      2  C   UNL A   1      31.388  30.003  25.185  1.00  0.00     0.202 C 
BRANCH   2   3
ATOM      3  C   UNL A   1      32.040  29.889  26.563  1.00  0.00     0.261 C 
BRANCH   3   4
ATOM      4  O   UNL A   1      33.391  30.375  26.509  1.00  0.00    -0.460 OA
BRANCH   4   5
ATOM      5  C   UNL A   1      33.956  31.278  27.346  1.00  0.00     0.338 C 
ATOM      6  O   UNL A   1      33.436  32.383  27.481  1.00  0.00    -0.246 OA
BRANCH   5   7
ATOM      7  C   UNL A   1      35.190  30.969  28.117  1.00  0.00     0.060 A 
ATOM      8  C   UNL A   1      35.406  29.741  28.738  1.00  0.00     0.016 A 
ATOM      9  C   UNL A   1      36.220  31.916  28.145  1.00  0.00     0.016 A 
ATOM     10  C   UNL A   1      36.557  29.461  29.432  1.00  0.00     0.010 A 
ATOM     11  C   UNL A   1      37.433  31.613  28.771  1.00  0.00     0.010 A 
ATOM     12  C   UNL A   1      37.598  30.373  29.402  1.00  0.00    -0.014 A 
BRANCH  12  13
ATOM     13  C   UNL A   1      38.828  29.958  30.082  1.00  0.00     0.031 A 
ATOM     14  C   UNL A   1      39.755  29.040  29.364  1.00  0.00     0.074 A 
ATOM     15  C   UNL A   1      39.151  30.563  31.242  1.00  0.00     0.049 A 
ATOM     16  N   UNL A   1      40.852  28.487  29.791  1.00  0.00    -0.248 NA
ATOM     17  C   UNL A   1      39.408  28.711  27.970  1.00  0.00     0.031 C 
ATOM     18  C   UNL A   1      38.357  31.615  31.896  1.00  0.00     0.029 A 
ATOM     19  N   UNL A   1      40.238  30.423  32.058  1.00  0.00    -0.354 N 
ATOM     20  C   UNL A   1      41.305  27.703  28.739  1.00  0.00     0.074 A 
ATOM     21  C   UNL A   1      40.374  27.866  27.645  1.00  0.00     0.031 C 
ATOM     22  C   UNL A   1      38.998  32.033  32.997  1.00  0.00     0.029 A 
ATOM     23  C   UNL A   1      40.178  31.204  33.190  1.00  0.00     0.049 A 
ATOM     24  H   UNL A   1      40.991  29.822  31.857  1.00  0.00     0.167 HD
ATOM     25  C   UNL A   1      42.394  26.904  28.726  1.00  0.00     0.034 A 
ATOM     26  C   UNL A   1      40.958  31.187  34.287  1.00  0.00     0.034 A 
ATOM     27  C   UNL A   1      43.278  26.790  29.856  1.00  0.00     0.049 A 
ATOM     28  C   UNL A   1      42.089  30.188  34.291  1.00  0.00     0.074 A 
ATOM     29  C   UNL A   1      44.383  25.978  30.012  1.00  0.00     0.029 A 
ATOM     30  N   UNL A   1      43.144  27.517  31.036  1.00  0.00    -0.354 N 
ATOM     31  N   UNL A   1      42.472  29.376  33.329  1.00  0.00    -0.248 NA
ATOM     32  C   UNL A   1      42.877  30.084  35.521  1.00  0.00     0.031 C 
ATOM     33  C   UNL A   1      44.867  26.155  31.311  1.00  0.00     0.029 A 
ATOM     34  C   UNL A   1      44.121  27.143  31.939  1.00  0.00     0.049 A 
ATOM     35  H   UNL A   1      42.454  28.200  31.203  1.00  0.00     0.167 HD
ATOM     36  C   UNL A   1      43.560  28.677  33.834  1.00  0.00     0.074 A 
ATOM     37  C   UNL A   1      43.790  29.191  35.171  1.00  0.00     0.031 C 
ATOM     38  C   UNL A   1      44.301  27.693  33.263  1.00  0.00     0.034 A 
BRANCH  25  39
ATOM     39  C   UNL A   1      42.591  26.024  27.523  1.00  0.00     0.023 A 
ATOM     40  C   UNL A   1      42.073  24.720  27.446  1.00  0.00     0.031 A 
ATOM     41  C   UNL A   1      43.373  26.490  26.450  1.00  0.00     0.131 A 
ATOM     42  C   UNL A   1      42.386  23.911  26.343  1.00  0.00     0.055 A 
ATOM     43  C   UNL A   1      43.619  25.706  25.323  1.00  0.00     0.041 A 
ATOM     44  F   UNL A   1      43.930  27.711  26.491  1.00  0.00    -0.206 F 
ATOM     45  C   UNL A   1      43.132  24.404  25.269  1.00  0.00     0.022 A 
BRANCH  42  46
ATOM     46  S   UNL A   1      41.909  22.161  26.381  1.00  0.00     0.124 S 
ATOM     47  O   UNL A   1      42.621  21.637  25.219  1.00  0.00    -0.237 OA
ATOM     48  O   UNL A   1      42.404  21.725  27.682  1.00  0.00    -0.237 OA
ATOM     49  O   UNL A   1      40.454  22.198  26.249  1.00  0.00    -0.744 OA
ENDBRANCH  42  46
ENDBRANCH  25  39
BRANCH  26  50
ATOM     50  C   UNL A   1      40.639  32.018  35.488  1.00  0.00     0.023 A 
ATOM     51  C   UNL A   1      39.515  31.748  36.283  1.00  0.00     0.031 A 
ATOM     52  C   UNL A   1      41.400  33.162  35.805  1.00  0.00     0.131 A 
ATOM     53  C   UNL A   1      39.141  32.646  37.297  1.00  0.00     0.055 A 
ATOM     54  C   UNL A   1      41.068  34.008  36.865  1.00  0.00     0.041 A 
ATOM     55  F   UNL A   1      42.481  33.487  35.078  1.00  0.00    -0.206 F 
ATOM     56  C   UNL A   1      39.918  33.764  37.604  1.00  0.00     0.022 A 
BRANCH  53  57
ATOM     57  S   UNL A   1      37.533  32.414  38.107  1.00  0.00     0.124 S 
ATOM     58  O   UNL A   1      37.411  30.961  38.109  1.00  0.00    -0.237 OA
ATOM     59  O   UNL A   1      37.756  33.042  39.404  1.00  0.00    -0.237 OA
ATOM     60  O   UNL A   1      36.604  33.117  37.225  1.00  0.00    -0.744 OA
ENDBRANCH  53  57
ENDBRANCH  26  50
BRANCH  38  61
ATOM     61  C   UNL A   1      45.442  27.157  34.084  1.00  0.00     0.023 A 
ATOM     62  C   UNL A   1      45.302  25.998  34.864  1.00  0.00     0.031 A 
ATOM     63  C   UNL A   1      46.683  27.816  34.079  1.00  0.00     0.131 A 
ATOM     64  C   UNL A   1      46.369  25.568  35.660  1.00  0.00     0.055 A 
ATOM     65  C   UNL A   1      47.766  27.339  34.815  1.00  0.00     0.041 A 
ATOM     66  F   UNL A   1      46.864  28.930  33.350  1.00  0.00    -0.206 F 
ATOM     67  C   UNL A   1      47.607  26.216  35.622  1.00  0.00     0.022 A 
BRANCH  64  68
ATOM     68  S   UNL A   1      46.086  24.206  36.821  1.00  0.00     0.124 S 
ATOM     69  O   UNL A   1      44.675  23.911  36.600  1.00  0.00    -0.237 OA
ATOM     70  O   UNL A   1      47.029  23.196  36.355  1.00  0.00    -0.237 OA
ATOM     71  O   UNL A   1      46.401  24.795  38.121  1.00  0.00    -0.744 OA
ENDBRANCH  64  68
ENDBRANCH  38  61
ENDBRANCH  12  13
ENDBRANCH   5   7
ENDBRANCH   4   5
ENDBRANCH   3   4
ENDBRANCH   2   3
ENDBRANCH   1   2
BRANCH   1  72
ATOM     72  C   UNL A   1      30.572  28.593  23.374  1.00  0.00     0.202 C 
BRANCH  72  73
ATOM     73  C   UNL A   1      30.559  27.070  23.206  1.00  0.00     0.261 C 
BRANCH  73  74
ATOM     74  O   UNL A   1      29.728  26.511  24.239  1.00  0.00    -0.463 OA
BRANCH  74  75
ATOM     75  C   UNL A   1      30.385  26.010  25.321  1.00  0.00     0.312 C 
ATOM     76  O   UNL A   1      30.037  26.156  26.486  1.00  0.00    -0.252 OA
BRANCH  75  77
ATOM     77  C   UNL A   1      31.586  25.159  24.912  1.00  0.00     0.123 C 
ATOM     78  C   UNL A   1      32.777  25.538  25.744  1.00  0.00    -0.015 C 
ATOM     79  C   UNL A   1      31.467  23.647  25.183  1.00  0.00     0.043 C 
ATOM     80  C   UNL A   1      33.394  24.472  26.259  1.00  0.00    -0.011 C 
ATOM     81  C   UNL A   1      32.821  23.200  25.759  1.00  0.00     0.093 C 
BRANCH  81  82
ATOM     82  N   UNL A   1      33.651  22.675  24.678  1.00  0.00    -0.204 NA
ATOM     83  H   UNL A   1      34.056  23.486  24.210  1.00  0.00     0.142 HD
BRANCH  82  84
ATOM     84  S   UNL A   1      34.916  21.618  24.971  1.00  0.00     0.244 S 
ATOM     85  O   UNL A   1      35.925  21.885  23.977  1.00  0.00    -0.207 OA
ATOM     86  O   UNL A   1      35.239  21.692  26.384  1.00  0.00    -0.207 OA
BRANCH  84  87
ATOM     87  C   UNL A   1      34.302  20.001  24.668  1.00  0.00     0.121 A 
ATOM     88  C   UNL A   1      32.948  19.845  24.333  1.00  0.00     0.028 A 
ATOM     89  C   UNL A   1      35.141  18.898  24.741  1.00  0.00     0.181 A 
ATOM     90  C   UNL A   1      32.440  18.569  24.084  1.00  0.00     0.044 A 
ATOM     91  C   UNL A   1      34.634  17.633  24.476  1.00  0.00     0.195 A 
ATOM     92  F   UNL A   1      36.440  19.026  25.046  1.00  0.00    -0.202 F 
ATOM     93  C   UNL A   1      33.290  17.470  24.156  1.00  0.00     0.161 A 
ATOM     94  F   UNL A   1      35.444  16.565  24.523  1.00  0.00    -0.200 F 
ATOM     95  F   UNL A   1      32.799  16.248  23.913  1.00  0.00    -0.204 F 
ENDBRANCH  84  87
ENDBRANCH  82  84
ENDBRANCH  81  82
ENDBRANCH  75  77
ENDBRANCH  74  75
ENDBRANCH  73  74
ENDBRANCH  72  73
ENDBRANCH   1  72
TORSDOF 20
ENDMDL
MODEL 3
REMARK VINA RESULT:     -10.8      5.097     10.195
REMARK SMILES O=C(OCCOCCOC(=O)[C@H]1C=C[C@H](NS(=O)(=O)c2ccc(F)c(F)c2F)C1)c1ccc(-c2c3nc(c(-c4cc(S(=O)(=O)[O-])ccc4F)c4ccc([nH]4)c(-c4cc(S(=O)(=O)[O-])ccc4F)c4nc(c(-c5cc(S(=O)(=O)[O-])ccc5F)c5ccc2[nH]5)C=C4)C=C3)cc1
REMARK SMILES IDX 6 1 5 2 4 3 3 4 2 5 1 6 30 7 31 8 92 9 32 10 91 11 33 12
REMARK SMILES IDX 34 13 35 14 85 15 36 16 90 17 84 18 86 19 37 20 89 21 83 22
REMARK SMILES IDX 82 23 38 25 70 26 50 27 69 28 51 29 54 30 68 31 87 32 52 33
REMARK SMILES IDX 53 34 67 36 88 37 55 38 39 39 40 40 48 41 41 42 47 43 49 44
REMARK SMILES IDX 46 45 42 46 43 47 44 48 45 49 71 50 72 51 80 52 73 53 79 54
REMARK SMILES IDX 81 55 78 56 74 57 75 58 76 59 77 60 56 61 57 62 65 63 58 64
REMARK SMILES IDX 64 65 66 66 63 67 59 68 60 69 61 70 62 71 7 72 8 73 9 74
REMARK SMILES IDX 10 75 11 76 12 77 13 78 29 79 14 80 15 81 16 82 17 84 18 85
REMARK SMILES IDX 19 86 20 87 21 88 27 89 22 90 25 91 28 92 23 93 26 94 24 95
REMARK H PARENT 86 24 54 35 16 83
REMARK Flexibility Score: inf
ROOT
ATOM      1  O   UNL A   1      30.590  30.735  24.833  1.00  0.00    -0.374 OA
ENDROOT
BRANCH   1   2
ATOM      2  C   UNL A   1      31.221  31.179  26.032  1.00  0.00     0.202 C 
BRANCH   2   3
ATOM      3  C   UNL A   1      32.143  30.188  26.740  1.00  0.00     0.261 C 
BRANCH   3   4
ATOM      4  O   UNL A   1      33.502  30.649  26.676  1.00  0.00    -0.460 OA
BRANCH   4   5
ATOM      5  C   UNL A   1      34.100  31.518  27.527  1.00  0.00     0.338 C 
ATOM      6  O   UNL A   1      33.621  32.639  27.679  1.00  0.00    -0.246 OA
BRANCH   5   7
ATOM      7  C   UNL A   1      35.322  31.152  28.293  1.00  0.00     0.060 A 
ATOM      8  C   UNL A   1      35.474  29.923  28.930  1.00  0.00     0.016 A 
ATOM      9  C   UNL A   1      36.403  32.041  28.298  1.00  0.00     0.016 A 
ATOM     10  C   UNL A   1      36.614  29.590  29.619  1.00  0.00     0.010 A 
ATOM     11  C   UNL A   1      37.602  31.680  28.919  1.00  0.00     0.010 A 
ATOM     12  C   UNL A   1      37.704  30.442  29.567  1.00  0.00    -0.014 A 
BRANCH  12  13
ATOM     13  C   UNL A   1      38.916  29.970  30.243  1.00  0.00     0.031 A 
ATOM     14  C   UNL A   1      39.820  29.045  29.505  1.00  0.00     0.074 A 
ATOM     15  C   UNL A   1      39.248  30.530  31.423  1.00  0.00     0.049 A 
ATOM     16  N   UNL A   1      40.895  28.446  29.924  1.00  0.00    -0.248 NA
ATOM     17  C   UNL A   1      39.474  28.768  28.099  1.00  0.00     0.031 C 
ATOM     18  C   UNL A   1      38.481  31.586  32.102  1.00  0.00     0.029 A 
ATOM     19  N   UNL A   1      40.323  30.332  32.243  1.00  0.00    -0.354 N 
ATOM     20  C   UNL A   1      41.333  27.679  28.852  1.00  0.00     0.074 A 
ATOM     21  C   UNL A   1      40.416  27.903  27.757  1.00  0.00     0.031 C 
ATOM     22  C   UNL A   1      39.125  31.952  33.220  1.00  0.00     0.029 A 
ATOM     23  C   UNL A   1      40.278  31.082  33.396  1.00  0.00     0.049 A 
ATOM     24  H   UNL A   1      41.058  29.715  32.029  1.00  0.00     0.167 HD
ATOM     25  C   UNL A   1      42.397  26.848  28.823  1.00  0.00     0.034 A 
ATOM     26  C   UNL A   1      41.047  31.008  34.498  1.00  0.00     0.034 A 
ATOM     27  C   UNL A   1      43.268  26.674  29.955  1.00  0.00     0.049 A 
ATOM     28  C   UNL A   1      42.147  29.975  34.481  1.00  0.00     0.074 A 
ATOM     29  C   UNL A   1      44.346  25.823  30.095  1.00  0.00     0.029 A 
ATOM     30  N   UNL A   1      43.147  27.370  31.156  1.00  0.00    -0.354 N 
ATOM     31  N   UNL A   1      42.513  29.180  33.498  1.00  0.00    -0.248 NA
ATOM     32  C   UNL A   1      42.922  29.810  35.712  1.00  0.00     0.031 C 
ATOM     33  C   UNL A   1      44.825  25.947  31.402  1.00  0.00     0.029 A 
ATOM     34  C   UNL A   1      44.104  26.939  32.054  1.00  0.00     0.049 A 
ATOM     35  H   UNL A   1      42.476  28.068  31.338  1.00  0.00     0.167 HD
ATOM     36  C   UNL A   1      43.575  28.433  33.990  1.00  0.00     0.074 A 
ATOM     37  C   UNL A   1      43.809  28.900  35.343  1.00  0.00     0.031 C 
ATOM     38  C   UNL A   1      44.290  27.443  33.395  1.00  0.00     0.034 A 
BRANCH  25  39
ATOM     39  C   UNL A   1      42.577  25.998  27.596  1.00  0.00     0.023 A 
ATOM     40  C   UNL A   1      42.084  24.686  27.506  1.00  0.00     0.031 A 
ATOM     41  C   UNL A   1      43.317  26.503  26.511  1.00  0.00     0.131 A 
ATOM     42  C   UNL A   1      42.380  23.907  26.376  1.00  0.00     0.055 A 
ATOM     43  C   UNL A   1      43.546  25.749  25.361  1.00  0.00     0.041 A 
ATOM     44  F   UNL A   1      43.849  27.735  26.562  1.00  0.00    -0.206 F 
ATOM     45  C   UNL A   1      43.085  24.438  25.292  1.00  0.00     0.022 A 
BRANCH  42  46
ATOM     46  S   UNL A   1      41.942  22.147  26.390  1.00  0.00     0.124 S 
ATOM     47  O   UNL A   1      42.757  21.632  25.294  1.00  0.00    -0.237 OA
ATOM     48  O   UNL A   1      42.340  21.731  27.730  1.00  0.00    -0.237 OA
ATOM     49  O   UNL A   1      40.502  22.149  26.141  1.00  0.00    -0.744 OA
ENDBRANCH  42  46
ENDBRANCH  25  39
BRANCH  26  50
ATOM     50  C   UNL A   1      40.745  31.812  35.721  1.00  0.00     0.023 A 
ATOM     51  C   UNL A   1      39.533  31.660  36.412  1.00  0.00     0.031 A 
ATOM     52  C   UNL A   1      41.622  32.824  36.163  1.00  0.00     0.131 A 
ATOM     53  C   UNL A   1      39.200  32.547  37.449  1.00  0.00     0.055 A 
ATOM     54  C   UNL A   1      41.320  33.652  37.246  1.00  0.00     0.041 A 
ATOM     55  F   UNL A   1      42.792  33.034  35.540  1.00  0.00    -0.206 F 
ATOM     56  C   UNL A   1      40.091  33.531  37.881  1.00  0.00     0.022 A 
BRANCH  53  57
ATOM     57  S   UNL A   1      37.515  32.497  38.121  1.00  0.00     0.124 S 
ATOM     58  O   UNL A   1      37.687  33.176  39.400  1.00  0.00    -0.237 OA
ATOM     59  O   UNL A   1      36.764  33.224  37.104  1.00  0.00    -0.237 OA
ATOM     60  O   UNL A   1      37.226  31.067  38.207  1.00  0.00    -0.744 OA
ENDBRANCH  53  57
ENDBRANCH  26  50
BRANCH  38  61
ATOM     61  C   UNL A   1      45.408  26.849  34.208  1.00  0.00     0.023 A 
ATOM     62  C   UNL A   1      45.189  25.760  35.067  1.00  0.00     0.031 A 
ATOM     63  C   UNL A   1      46.705  27.381  34.116  1.00  0.00     0.131 A 
ATOM     64  C   UNL A   1      46.242  25.275  35.850  1.00  0.00     0.055 A 
ATOM     65  C   UNL A   1      47.766  26.844  34.842  1.00  0.00     0.041 A 
ATOM     66  F   UNL A   1      46.962  28.424  33.310  1.00  0.00    -0.206 F 
ATOM     67  C   UNL A   1      47.534  25.794  35.726  1.00  0.00     0.022 A 
BRANCH  64  68
ATOM     68  S   UNL A   1      45.877  24.022  37.107  1.00  0.00     0.124 S 
ATOM     69  O   UNL A   1      44.688  24.573  37.745  1.00  0.00    -0.237 OA
ATOM     70  O   UNL A   1      45.671  22.823  36.302  1.00  0.00    -0.237 OA
ATOM     71  O   UNL A   1      47.080  24.011  37.937  1.00  0.00    -0.744 OA
ENDBRANCH  64  68
ENDBRANCH  38  61
ENDBRANCH  12  13
ENDBRANCH   5   7
ENDBRANCH   4   5
ENDBRANCH   3   4
ENDBRANCH   2   3
ENDBRANCH   1   2
BRANCH   1  72
ATOM     72  C   UNL A   1      29.570  31.571  24.284  1.00  0.00     0.202 C 
BRANCH  72  73
ATOM     73  C   UNL A   1      28.819  30.783  23.206  1.00  0.00     0.261 C 
BRANCH  73  74
ATOM     74  O   UNL A   1      28.996  29.380  23.469  1.00  0.00    -0.463 OA
BRANCH  74  75
ATOM     75  C   UNL A   1      29.728  28.693  22.548  1.00  0.00     0.312 C 
ATOM     76  O   UNL A   1      30.065  29.124  21.453  1.00  0.00    -0.252 OA
BRANCH  75  77
ATOM     77  C   UNL A   1      30.160  27.326  23.074  1.00  0.00     0.123 C 
ATOM     78  C   UNL A   1      31.416  27.474  23.885  1.00  0.00    -0.015 C 
ATOM     79  C   UNL A   1      29.204  26.652  24.076  1.00  0.00     0.043 C 
ATOM     80  C   UNL A   1      31.334  26.850  25.062  1.00  0.00    -0.011 C 
ATOM     81  C   UNL A   1      30.084  26.065  25.192  1.00  0.00     0.093 C 
BRANCH  81  82
ATOM     82  N   UNL A   1      30.351  24.659  24.902  1.00  0.00    -0.204 NA
ATOM     83  H   UNL A   1      30.934  24.646  24.065  1.00  0.00     0.142 HD
BRANCH  82  84
ATOM     84  S   UNL A   1      31.098  23.656  26.014  1.00  0.00     0.244 S 
ATOM     85  O   UNL A   1      31.372  24.455  27.183  1.00  0.00    -0.207 OA
ATOM     86  O   UNL A   1      30.306  22.445  26.122  1.00  0.00    -0.207 OA
BRANCH  84  87
ATOM     87  C   UNL A   1      32.646  23.199  25.322  1.00  0.00     0.121 A 
ATOM     88  C   UNL A   1      33.054  23.804  24.123  1.00  0.00     0.028 A 
ATOM     89  C   UNL A   1      33.459  22.270  25.955  1.00  0.00     0.181 A 
ATOM     90  C   UNL A   1      34.281  23.459  23.557  1.00  0.00     0.044 A 
ATOM     91  C   UNL A   1      34.688  21.943  25.395  1.00  0.00     0.195 A 
ATOM     92  F   UNL A   1      33.096  21.690  27.107  1.00  0.00    -0.202 F 
ATOM     93  C   UNL A   1      35.092  22.529  24.200  1.00  0.00     0.161 A 
ATOM     94  F   UNL A   1      35.490  21.062  26.012  1.00  0.00    -0.200 F 
ATOM     95  F   UNL A   1      36.271  22.203  23.655  1.00  0.00    -0.204 F 
ENDBRANCH  84  87
ENDBRANCH  82  84
ENDBRANCH  81  82
ENDBRANCH  75  77
ENDBRANCH  74  75
ENDBRANCH  73  74
ENDBRANCH  72  73
ENDBRANCH   1  72
TORSDOF 20
ENDMDL
