MODEL 1
REMARK VINA RESULT:     -11.1      0.000      0.000
REMARK SMILES Cc1ccc(CNC(=O)NC[C@@H]2CC[C@@H](C(=O)OCCOCCOC(=O)c3ccc(-c4c5nc(c(-c6cc(S(=O)(=O)[O-])ccc6F)c6ccc([nH]6)c(-c6cc(S(=O)(=O)[O-])ccc6F)c6nc(c(-c7cc(S(=O)(=O)[O-])ccc7F)c7ccc4[nH]7)C=C6)C=C5)cc3)O2)cn1
REMARK SMILES IDX 20 1 19 2 18 3 16 4 17 5 15 6 12 7 13 8 90 9 14 10 11 11
REMARK SMILES IDX 10 12 7 13 8 14 9 16 6 18 5 19 1 20 2 21 3 22 92 23 4 24
REMARK SMILES IDX 91 25 21 26 22 27 23 28 24 29 25 30 26 31 27 32 28 33 89 34
REMARK SMILES IDX 29 35 88 36 30 37 31 38 32 39 82 40 33 41 87 42 81 43 83 44
REMARK SMILES IDX 34 45 86 46 80 47 79 48 35 50 67 51 47 52 66 53 48 54 51 55
REMARK SMILES IDX 65 56 84 57 49 58 50 59 64 61 85 62 52 63 36 64 37 65 45 66
REMARK SMILES IDX 38 67 44 68 46 69 43 70 39 71 40 72 41 73 42 74 68 75 69 76
REMARK SMILES IDX 77 77 70 78 76 79 78 80 75 81 71 82 72 83 73 84 74 85 53 86
REMARK SMILES IDX 54 87 62 88 55 89 61 90 63 91 60 92 56 93 57 94 58 95 59 96
REMARK H PARENT 7 15 10 17 83 49 51 60
REMARK Flexibility Score: inf
ROOT
ATOM      1  C   UNL A   1      36.005  18.436  24.621  1.00  0.00     0.202 C 
ENDROOT
BRANCH   1   2
ATOM      2  C   UNL A   1      34.778  17.535  24.460  1.00  0.00     0.261 C 
BRANCH   2   3
ATOM      3  O   UNL A   1      33.705  18.273  23.856  1.00  0.00    -0.461 OA
BRANCH   3   4
ATOM      4  C   UNL A   1      32.575  18.402  24.598  1.00  0.00     0.335 C 
ATOM      5  O   UNL A   1      31.995  17.491  25.179  1.00  0.00    -0.249 OA
BRANCH   4   6
ATOM      6  C   UNL A   1      32.160  19.873  24.726  1.00  0.00     0.228 C 
ATOM      7  C   UNL A   1      33.286  21.810  25.418  1.00  0.00     0.138 C 
ATOM      8  C   UNL A   1      32.747  22.045  24.018  1.00  0.00     0.037 C 
ATOM      9  O   UNL A   1      32.643  20.598  25.865  1.00  0.00    -0.361 OA
ATOM     10  C   UNL A   1      32.593  20.645  23.494  1.00  0.00     0.047 C 
BRANCH   7  11
ATOM     11  C   UNL A   1      33.011  22.955  26.409  1.00  0.00     0.149 C 
BRANCH  11  12
ATOM     12  N   UNL A   1      31.710  22.837  27.051  1.00  0.00    -0.336 N 
ATOM     13  N   UNL A   1      30.198  24.282  25.948  1.00  0.00    -0.334 N 
ATOM     14  C   UNL A   1      30.496  23.361  26.865  1.00  0.00     0.315 C 
ATOM     15  H   UNL A   1      29.234  24.479  25.912  1.00  0.00     0.165 HD
ATOM     16  O   UNL A   1      29.578  22.964  27.584  1.00  0.00    -0.249 OA
ATOM     17  H   UNL A   1      31.730  22.215  27.814  1.00  0.00     0.165 HD
BRANCH  13  18
ATOM     18  C   UNL A   1      30.956  25.057  25.000  1.00  0.00     0.155 C 
BRANCH  18  19
ATOM     19  C   UNL A   1      31.805  26.119  25.634  1.00  0.00    -0.010 A 
ATOM     20  C   UNL A   1      34.100  29.230  27.421  1.00  0.00     0.066 C 
ATOM     21  C   UNL A   1      33.315  28.142  26.756  1.00  0.00     0.037 A 
ATOM     22  C   UNL A   1      33.886  27.341  25.775  1.00  0.00     0.024 A 
ATOM     23  N   UNL A   1      32.037  27.982  27.168  1.00  0.00    -0.261 NA
ATOM     24  C   UNL A   1      33.120  26.327  25.206  1.00  0.00     0.009 A 
ATOM     25  C   UNL A   1      31.315  26.986  26.602  1.00  0.00     0.116 A 
ENDBRANCH  18  19
ENDBRANCH  13  18
ENDBRANCH  11  12
ENDBRANCH   7  11
ENDBRANCH   4   6
ENDBRANCH   3   4
ENDBRANCH   2   3
ENDBRANCH   1   2
BRANCH   1  26
ATOM     26  O   UNL A   1      35.717  19.792  24.972  1.00  0.00    -0.374 OA
BRANCH  26  27
ATOM     27  C   UNL A   1      36.824  20.695  24.988  1.00  0.00     0.202 C 
BRANCH  27  28
ATOM     28  C   UNL A   1      38.199  20.078  25.269  1.00  0.00     0.261 C 
BRANCH  28  29
ATOM     29  O   UNL A   1      39.215  21.088  25.395  1.00  0.00    -0.460 OA
BRANCH  29  30
ATOM     30  C   UNL A   1      40.049  20.924  26.448  1.00  0.00     0.338 C 
ATOM     31  O   UNL A   1      40.616  19.890  26.779  1.00  0.00    -0.246 OA
BRANCH  30  32
ATOM     32  C   UNL A   1      40.359  22.233  27.055  1.00  0.00     0.060 A 
ATOM     33  C   UNL A   1      39.656  23.345  26.573  1.00  0.00     0.016 A 
ATOM     34  C   UNL A   1      41.345  22.388  28.032  1.00  0.00     0.016 A 
ATOM     35  C   UNL A   1      39.974  24.622  27.026  1.00  0.00     0.010 A 
ATOM     36  C   UNL A   1      41.669  23.674  28.482  1.00  0.00     0.010 A 
ATOM     37  C   UNL A   1      41.010  24.799  27.953  1.00  0.00    -0.014 A 
BRANCH  37  38
ATOM     38  C   UNL A   1      41.493  26.173  28.244  1.00  0.00     0.031 A 
ATOM     39  C   UNL A   1      42.866  26.573  27.774  1.00  0.00     0.074 A 
ATOM     40  C   UNL A   1      40.702  27.062  28.869  1.00  0.00     0.049 A 
ATOM     41  N   UNL A   1      43.492  27.713  27.909  1.00  0.00    -0.248 NA
ATOM     42  C   UNL A   1      43.635  25.546  27.054  1.00  0.00     0.031 C 
ATOM     43  C   UNL A   1      39.338  26.802  29.326  1.00  0.00     0.029 A 
ATOM     44  N   UNL A   1      40.932  28.368  29.225  1.00  0.00    -0.354 N 
ATOM     45  C   UNL A   1      44.730  27.542  27.299  1.00  0.00     0.074 A 
ATOM     46  C   UNL A   1      44.778  26.176  26.823  1.00  0.00     0.031 C 
ATOM     47  C   UNL A   1      38.851  27.915  29.903  1.00  0.00     0.029 A 
ATOM     48  C   UNL A   1      39.879  28.953  29.888  1.00  0.00     0.049 A 
ATOM     49  H   UNL A   1      41.771  28.841  29.023  1.00  0.00     0.167 HD
ATOM     50  C   UNL A   1      45.730  28.444  27.143  1.00  0.00     0.034 A 
ATOM     51  C   UNL A   1      39.769  30.180  30.438  1.00  0.00     0.034 A 
ATOM     52  C   UNL A   1      45.669  29.801  27.629  1.00  0.00     0.049 A 
ATOM     53  C   UNL A   1      40.932  31.138  30.328  1.00  0.00     0.074 A 
ATOM     54  C   UNL A   1      46.612  30.807  27.501  1.00  0.00     0.029 A 
ATOM     55  N   UNL A   1      44.611  30.341  28.351  1.00  0.00    -0.354 N 
ATOM     56  N   UNL A   1      42.089  30.970  29.729  1.00  0.00    -0.248 NA
ATOM     57  C   UNL A   1      40.768  32.452  30.963  1.00  0.00     0.031 C 
ATOM     58  C   UNL A   1      46.160  31.926  28.209  1.00  0.00     0.029 A 
ATOM     59  C   UNL A   1      44.897  31.650  28.709  1.00  0.00     0.049 A 
ATOM     60  H   UNL A   1      43.780  29.864  28.575  1.00  0.00     0.167 HD
ATOM     61  C   UNL A   1      42.775  32.173  29.886  1.00  0.00     0.074 A 
ATOM     62  C   UNL A   1      41.896  33.058  30.622  1.00  0.00     0.031 C 
ATOM     63  C   UNL A   1      44.016  32.518  29.455  1.00  0.00     0.034 A 
BRANCH  50  64
ATOM     64  C   UNL A   1      46.996  27.970  26.470  1.00  0.00     0.023 A 
ATOM     65  C   UNL A   1      47.195  28.094  25.083  1.00  0.00     0.031 A 
ATOM     66  C   UNL A   1      48.013  27.364  27.228  1.00  0.00     0.131 A 
ATOM     67  C   UNL A   1      48.352  27.562  24.492  1.00  0.00     0.055 A 
ATOM     68  C   UNL A   1      49.195  26.904  26.644  1.00  0.00     0.041 A 
ATOM     69  F   UNL A   1      47.869  27.196  28.553  1.00  0.00    -0.206 F 
ATOM     70  C   UNL A   1      49.363  26.990  25.266  1.00  0.00     0.022 A 
BRANCH  67  71
ATOM     71  S   UNL A   1      48.455  27.506  22.681  1.00  0.00     0.124 S 
ATOM     72  O   UNL A   1      49.747  28.143  22.439  1.00  0.00    -0.237 OA
ATOM     73  O   UNL A   1      48.385  26.076  22.406  1.00  0.00    -0.237 OA
ATOM     74  O   UNL A   1      47.295  28.283  22.247  1.00  0.00    -0.744 OA
ENDBRANCH  67  71
ENDBRANCH  50  64
BRANCH  51  75
ATOM     75  C   UNL A   1      38.534  30.574  31.177  1.00  0.00     0.023 A 
ATOM     76  C   UNL A   1      37.491  31.260  30.534  1.00  0.00     0.031 A 
ATOM     77  C   UNL A   1      38.410  30.331  32.557  1.00  0.00     0.131 A 
ATOM     78  C   UNL A   1      36.395  31.725  31.278  1.00  0.00     0.055 A 
ATOM     79  C   UNL A   1      37.291  30.746  33.283  1.00  0.00     0.041 A 
ATOM     80  F   UNL A   1      39.378  29.682  33.222  1.00  0.00    -0.206 F 
ATOM     81  C   UNL A   1      36.282  31.461  32.645  1.00  0.00     0.022 A 
BRANCH  78  82
ATOM     82  S   UNL A   1      35.161  32.766  30.450  1.00  0.00     0.124 S 
ATOM     83  O   UNL A   1      34.134  32.883  31.478  1.00  0.00    -0.237 OA
ATOM     84  O   UNL A   1      35.928  33.974  30.166  1.00  0.00    -0.237 OA
ATOM     85  O   UNL A   1      34.784  31.979  29.277  1.00  0.00    -0.744 OA
ENDBRANCH  78  82
ENDBRANCH  51  75
BRANCH  63  86
ATOM     86  C   UNL A   1      44.470  33.932  29.732  1.00  0.00     0.023 A 
ATOM     87  C   UNL A   1      45.190  34.267  30.893  1.00  0.00     0.031 A 
ATOM     88  C   UNL A   1      44.160  34.964  28.828  1.00  0.00     0.131 A 
ATOM     89  C   UNL A   1      45.522  35.606  31.148  1.00  0.00     0.055 A 
ATOM     90  C   UNL A   1      44.548  36.284  29.056  1.00  0.00     0.041 A 
ATOM     91  F   UNL A   1      43.472  34.704  27.704  1.00  0.00    -0.206 F 
ATOM     92  C   UNL A   1      45.220  36.615  30.229  1.00  0.00     0.022 A 
BRANCH  89  93
ATOM     93  S   UNL A   1      46.264  36.031  32.749  1.00  0.00     0.124 S 
ATOM     94  O   UNL A   1      45.641  37.319  33.039  1.00  0.00    -0.237 OA
ATOM     95  O   UNL A   1      45.847  34.916  33.592  1.00  0.00    -0.237 OA
ATOM     96  O   UNL A   1      47.696  36.086  32.459  1.00  0.00    -0.744 OA
ENDBRANCH  89  93
ENDBRANCH  63  86
ENDBRANCH  37  38
ENDBRANCH  30  32
ENDBRANCH  29  30
ENDBRANCH  28  29
ENDBRANCH  27  28
ENDBRANCH  26  27
ENDBRANCH   1  26
TORSDOF 21
ENDMDL
MODEL 2
REMARK VINA RESULT:     -10.9      3.072      3.790
REMARK SMILES Cc1ccc(CNC(=O)NC[C@@H]2CC[C@@H](C(=O)OCCOCCOC(=O)c3ccc(-c4c5nc(c(-c6cc(S(=O)(=O)[O-])ccc6F)c6ccc([nH]6)c(-c6cc(S(=O)(=O)[O-])ccc6F)c6nc(c(-c7cc(S(=O)(=O)[O-])ccc7F)c7ccc4[nH]7)C=C6)C=C5)cc3)O2)cn1
REMARK SMILES IDX 20 1 19 2 18 3 16 4 17 5 15 6 12 7 13 8 90 9 14 10 11 11
REMARK SMILES IDX 10 12 7 13 8 14 9 16 6 18 5 19 1 20 2 21 3 22 92 23 4 24
REMARK SMILES IDX 91 25 21 26 22 27 23 28 24 29 25 30 26 31 27 32 28 33 89 34
REMARK SMILES IDX 29 35 88 36 30 37 31 38 32 39 82 40 33 41 87 42 81 43 83 44
REMARK SMILES IDX 34 45 86 46 80 47 79 48 35 50 67 51 47 52 66 53 48 54 51 55
REMARK SMILES IDX 65 56 84 57 49 58 50 59 64 61 85 62 52 63 36 64 37 65 45 66
REMARK SMILES IDX 38 67 44 68 46 69 43 70 39 71 40 72 41 73 42 74 68 75 69 76
REMARK SMILES IDX 77 77 70 78 76 79 78 80 75 81 71 82 72 83 73 84 74 85 53 86
REMARK SMILES IDX 54 87 62 88 55 89 61 90 63 91 60 92 56 93 57 94 58 95 59 96
REMARK H PARENT 7 15 10 17 83 49 51 60
REMARK Flexibility Score: inf
ROOT
ATOM      1  C   UNL A   1      33.759  20.190  25.718  1.00  0.00     0.202 C 
ENDROOT
BRANCH   1   2
ATOM      2  C   UNL A   1      32.657  21.217  25.441  1.00  0.00     0.261 C 
BRANCH   2   3
ATOM      3  O   UNL A   1      33.228  22.529  25.334  1.00  0.00    -0.461 OA
BRANCH   3   4
ATOM      4  C   UNL A   1      33.233  23.081  24.093  1.00  0.00     0.335 C 
ATOM      5  O   UNL A   1      33.628  22.533  23.071  1.00  0.00    -0.249 OA
BRANCH   4   6
ATOM      6  C   UNL A   1      32.565  24.462  24.097  1.00  0.00     0.228 C 
ATOM      7  C   UNL A   1      31.238  25.614  22.545  1.00  0.00     0.138 C 
ATOM      8  C   UNL A   1      30.473  25.523  23.854  1.00  0.00     0.037 C 
ATOM      9  O   UNL A   1      32.583  25.207  22.873  1.00  0.00    -0.361 OA
ATOM     10  C   UNL A   1      31.114  24.337  24.519  1.00  0.00     0.047 C 
BRANCH   7  11
ATOM     11  C   UNL A   1      31.246  27.015  21.906  1.00  0.00     0.149 C 
BRANCH  11  12
ATOM     12  N   UNL A   1      32.392  27.811  22.322  1.00  0.00    -0.336 N 
ATOM     13  N   UNL A   1      31.670  29.365  23.951  1.00  0.00    -0.334 N 
ATOM     14  C   UNL A   1      32.611  28.791  23.201  1.00  0.00     0.315 C 
ATOM     15  H   UNL A   1      32.042  30.008  24.596  1.00  0.00     0.165 HD
ATOM     16  O   UNL A   1      33.767  29.195  23.341  1.00  0.00    -0.249 OA
ATOM     17  H   UNL A   1      33.209  27.565  21.832  1.00  0.00     0.165 HD
BRANCH  13  18
ATOM     18  C   UNL A   1      30.235  29.266  24.036  1.00  0.00     0.155 C 
BRANCH  18  19
ATOM     19  C   UNL A   1      29.511  30.233  23.147  1.00  0.00    -0.010 A 
ATOM     20  C   UNL A   1      27.559  32.951  20.512  1.00  0.00     0.066 C 
ATOM     21  C   UNL A   1      28.262  32.028  21.460  1.00  0.00     0.037 A 
ATOM     22  C   UNL A   1      28.484  32.390  22.783  1.00  0.00     0.024 A 
ATOM     23  N   UNL A   1      28.656  30.835  20.960  1.00  0.00    -0.261 NA
ATOM     24  C   UNL A   1      29.121  31.486  23.628  1.00  0.00     0.009 A 
ATOM     25  C   UNL A   1      29.269  29.972  21.804  1.00  0.00     0.116 A 
ENDBRANCH  18  19
ENDBRANCH  13  18
ENDBRANCH  11  12
ENDBRANCH   7  11
ENDBRANCH   4   6
ENDBRANCH   3   4
ENDBRANCH   2   3
ENDBRANCH   1   2
BRANCH   1  26
ATOM     26  O   UNL A   1      35.089  20.717  25.719  1.00  0.00    -0.374 OA
BRANCH  26  27
ATOM     27  C   UNL A   1      35.934  20.311  24.640  1.00  0.00     0.202 C 
BRANCH  27  28
ATOM     28  C   UNL A   1      37.399  20.034  24.994  1.00  0.00     0.261 C 
BRANCH  28  29
ATOM     29  O   UNL A   1      38.079  21.234  25.404  1.00  0.00    -0.460 OA
BRANCH  29  30
ATOM     30  C   UNL A   1      39.236  21.029  26.075  1.00  0.00     0.338 C 
ATOM     31  O   UNL A   1      39.915  20.009  26.069  1.00  0.00    -0.246 OA
BRANCH  30  32
ATOM     32  C   UNL A   1      39.699  22.292  26.680  1.00  0.00     0.060 A 
ATOM     33  C   UNL A   1      39.090  23.475  26.241  1.00  0.00     0.016 A 
ATOM     34  C   UNL A   1      40.738  22.336  27.613  1.00  0.00     0.016 A 
ATOM     35  C   UNL A   1      39.552  24.708  26.691  1.00  0.00     0.010 A 
ATOM     36  C   UNL A   1      41.206  23.577  28.061  1.00  0.00     0.010 A 
ATOM     37  C   UNL A   1      40.639  24.769  27.572  1.00  0.00    -0.014 A 
BRANCH  37  38
ATOM     38  C   UNL A   1      41.268  26.084  27.855  1.00  0.00     0.031 A 
ATOM     39  C   UNL A   1      42.666  26.340  27.360  1.00  0.00     0.074 A 
ATOM     40  C   UNL A   1      40.584  27.050  28.494  1.00  0.00     0.049 A 
ATOM     41  N   UNL A   1      43.410  27.409  27.485  1.00  0.00    -0.248 NA
ATOM     42  C   UNL A   1      43.312  25.240  26.627  1.00  0.00     0.031 C 
ATOM     43  C   UNL A   1      39.209  26.933  28.975  1.00  0.00     0.029 A 
ATOM     44  N   UNL A   1      40.955  28.324  28.845  1.00  0.00    -0.354 N 
ATOM     45  C   UNL A   1      44.612  27.111  26.852  1.00  0.00     0.074 A 
ATOM     46  C   UNL A   1      44.509  25.747  26.376  1.00  0.00     0.031 C 
ATOM     47  C   UNL A   1      38.851  28.089  29.560  1.00  0.00     0.029 A 
ATOM     48  C   UNL A   1      39.981  29.015  29.527  1.00  0.00     0.049 A 
ATOM     49  H   UNL A   1      41.836  28.708  28.628  1.00  0.00     0.167 HD
ATOM     50  C   UNL A   1      45.698  27.904  26.679  1.00  0.00     0.034 A 
ATOM     51  C   UNL A   1      40.009  30.246  30.078  1.00  0.00     0.034 A 
ATOM     52  C   UNL A   1      45.787  29.259  27.165  1.00  0.00     0.049 A 
ATOM     53  C   UNL A   1      41.263  31.078  29.947  1.00  0.00     0.074 A 
ATOM     54  C   UNL A   1      46.827  30.161  27.020  1.00  0.00     0.029 A 
ATOM     55  N   UNL A   1      44.804  29.905  27.906  1.00  0.00    -0.354 N 
ATOM     56  N   UNL A   1      42.386  30.791  29.328  1.00  0.00    -0.248 NA
ATOM     57  C   UNL A   1      41.249  32.401  30.584  1.00  0.00     0.031 C 
ATOM     58  C   UNL A   1      46.507  31.320  27.736  1.00  0.00     0.029 A 
ATOM     59  C   UNL A   1      45.232  31.177  28.259  1.00  0.00     0.049 A 
ATOM     60  H   UNL A   1      43.932  29.517  28.144  1.00  0.00     0.167 HD
ATOM     61  C   UNL A   1      43.196  31.916  29.472  1.00  0.00     0.074 A 
ATOM     62  C   UNL A   1      42.427  32.886  30.224  1.00  0.00     0.031 C 
ATOM     63  C   UNL A   1      44.459  32.131  29.020  1.00  0.00     0.034 A 
BRANCH  50  64
ATOM     64  C   UNL A   1      46.896  27.302  25.983  1.00  0.00     0.023 A 
ATOM     65  C   UNL A   1      47.906  26.625  26.688  1.00  0.00     0.031 A 
ATOM     66  C   UNL A   1      47.039  27.429  24.589  1.00  0.00     0.131 A 
ATOM     67  C   UNL A   1      49.042  26.157  26.008  1.00  0.00     0.055 A 
ATOM     68  C   UNL A   1      48.134  26.896  23.908  1.00  0.00     0.041 A 
ATOM     69  F   UNL A   1      46.118  28.087  23.866  1.00  0.00    -0.206 F 
ATOM     70  C   UNL A   1      49.150  26.266  24.620  1.00  0.00     0.022 A 
BRANCH  67  71
ATOM     71  S   UNL A   1      50.437  25.524  26.979  1.00  0.00     0.124 S 
ATOM     72  O   UNL A   1      51.423  25.248  25.937  1.00  0.00    -0.237 OA
ATOM     73  O   UNL A   1      50.738  26.642  27.865  1.00  0.00    -0.237 OA
ATOM     74  O   UNL A   1      49.888  24.338  27.636  1.00  0.00    -0.744 OA
ENDBRANCH  67  71
ENDBRANCH  50  64
BRANCH  51  75
ATOM     75  C   UNL A   1      38.835  30.765  30.839  1.00  0.00     0.023 A 
ATOM     76  C   UNL A   1      37.822  31.498  30.199  1.00  0.00     0.031 A 
ATOM     77  C   UNL A   1      38.745  30.595  32.232  1.00  0.00     0.131 A 
ATOM     78  C   UNL A   1      36.793  32.078  30.957  1.00  0.00     0.055 A 
ATOM     79  C   UNL A   1      37.688  31.126  32.975  1.00  0.00     0.041 A 
ATOM     80  F   UNL A   1      39.687  29.906  32.894  1.00  0.00    -0.206 F 
ATOM     81  C   UNL A   1      36.711  31.886  32.338  1.00  0.00     0.022 A 
BRANCH  78  82
ATOM     82  S   UNL A   1      35.609  33.171  30.122  1.00  0.00     0.124 S 
ATOM     83  O   UNL A   1      36.454  33.817  29.125  1.00  0.00    -0.237 OA
ATOM     84  O   UNL A   1      34.627  32.220  29.613  1.00  0.00    -0.237 OA
ATOM     85  O   UNL A   1      35.133  34.041  31.196  1.00  0.00    -0.744 OA
ENDBRANCH  78  82
ENDBRANCH  51  75
BRANCH  63  86
ATOM     86  C   UNL A   1      45.062  33.489  29.289  1.00  0.00     0.023 A 
ATOM     87  C   UNL A   1      44.895  34.566  28.399  1.00  0.00     0.031 A 
ATOM     88  C   UNL A   1      45.833  33.704  30.446  1.00  0.00     0.131 A 
ATOM     89  C   UNL A   1      45.540  35.786  28.650  1.00  0.00     0.055 A 
ATOM     90  C   UNL A   1      46.419  34.939  30.722  1.00  0.00     0.041 A 
ATOM     91  F   UNL A   1      46.028  32.711  31.330  1.00  0.00    -0.206 F 
ATOM     92  C   UNL A   1      46.287  35.985  29.814  1.00  0.00     0.022 A 
BRANCH  89  93
ATOM     93  S   UNL A   1      45.475  37.083  27.382  1.00  0.00     0.124 S 
ATOM     94  O   UNL A   1      44.095  36.984  26.917  1.00  0.00    -0.237 OA
ATOM     95  O   UNL A   1      45.806  38.282  28.146  1.00  0.00    -0.237 OA
ATOM     96  O   UNL A   1      46.488  36.667  26.413  1.00  0.00    -0.744 OA
ENDBRANCH  89  93
ENDBRANCH  63  86
ENDBRANCH  37  38
ENDBRANCH  30  32
ENDBRANCH  29  30
ENDBRANCH  28  29
ENDBRANCH  27  28
ENDBRANCH  26  27
ENDBRANCH   1  26
TORSDOF 21
ENDMDL
MODEL 3
REMARK VINA RESULT:     -10.8      4.879      8.757
REMARK SMILES Cc1ccc(CNC(=O)NC[C@@H]2CC[C@@H](C(=O)OCCOCCOC(=O)c3ccc(-c4c5nc(c(-c6cc(S(=O)(=O)[O-])ccc6F)c6ccc([nH]6)c(-c6cc(S(=O)(=O)[O-])ccc6F)c6nc(c(-c7cc(S(=O)(=O)[O-])ccc7F)c7ccc4[nH]7)C=C6)C=C5)cc3)O2)cn1
REMARK SMILES IDX 20 1 19 2 18 3 16 4 17 5 15 6 12 7 13 8 90 9 14 10 11 11
REMARK SMILES IDX 10 12 7 13 8 14 9 16 6 18 5 19 1 20 2 21 3 22 92 23 4 24
REMARK SMILES IDX 91 25 21 26 22 27 23 28 24 29 25 30 26 31 27 32 28 33 89 34
REMARK SMILES IDX 29 35 88 36 30 37 31 38 32 39 82 40 33 41 87 42 81 43 83 44
REMARK SMILES IDX 34 45 86 46 80 47 79 48 35 50 67 51 47 52 66 53 48 54 51 55
REMARK SMILES IDX 65 56 84 57 49 58 50 59 64 61 85 62 52 63 36 64 37 65 45 66
REMARK SMILES IDX 38 67 44 68 46 69 43 70 39 71 40 72 41 73 42 74 68 75 69 76
REMARK SMILES IDX 77 77 70 78 76 79 78 80 75 81 71 82 72 83 73 84 74 85 53 86
REMARK SMILES IDX 54 87 62 88 55 89 61 90 63 91 60 92 56 93 57 94 58 95 59 96
REMARK H PARENT 7 15 10 17 83 49 51 60
REMARK Flexibility Score: inf
ROOT
ATOM      1  C   UNL A   1      33.037  30.559  26.757  1.00  0.00     0.202 C 
ENDROOT
BRANCH   1   2
ATOM      2  C   UNL A   1      33.297  29.383  25.810  1.00  0.00     0.261 C 
BRANCH   2   3
ATOM      3  O   UNL A   1      32.681  29.634  24.539  1.00  0.00    -0.461 OA
BRANCH   3   4
ATOM      4  C   UNL A   1      33.060  28.821  23.518  1.00  0.00     0.335 C 
ATOM      5  O   UNL A   1      34.129  28.879  22.921  1.00  0.00    -0.249 OA
BRANCH   4   6
ATOM      6  C   UNL A   1      32.021  27.721  23.270  1.00  0.00     0.228 C 
ATOM      7  C   UNL A   1      30.979  26.146  24.660  1.00  0.00     0.138 C 
ATOM      8  C   UNL A   1      29.900  26.964  23.972  1.00  0.00     0.037 C 
ATOM      9  O   UNL A   1      32.197  26.478  23.963  1.00  0.00    -0.361 OA
ATOM     10  C   UNL A   1      30.634  28.227  23.615  1.00  0.00     0.047 C 
BRANCH   7  11
ATOM     11  C   UNL A   1      30.744  24.624  24.627  1.00  0.00     0.149 C 
BRANCH  11  12
ATOM     12  N   UNL A   1      30.188  24.118  25.873  1.00  0.00    -0.336 N 
ATOM     13  N   UNL A   1      31.151  22.005  26.317  1.00  0.00    -0.334 N 
ATOM     14  C   UNL A   1      30.358  23.031  26.628  1.00  0.00     0.315 C 
ATOM     15  H   UNL A   1      31.206  21.338  27.039  1.00  0.00     0.165 HD
ATOM     16  O   UNL A   1      29.747  22.966  27.696  1.00  0.00    -0.249 OA
ATOM     17  H   UNL A   1      29.520  24.732  26.255  1.00  0.00     0.165 HD
BRANCH  13  18
ATOM     18  C   UNL A   1      31.944  21.643  25.170  1.00  0.00     0.155 C 
BRANCH  18  19
ATOM     19  C   UNL A   1      33.354  22.149  25.230  1.00  0.00    -0.010 A 
ATOM     20  C   UNL A   1      37.311  23.704  25.488  1.00  0.00     0.066 C 
ATOM     21  C   UNL A   1      35.917  23.172  25.357  1.00  0.00     0.037 A 
ATOM     22  C   UNL A   1      35.423  22.743  24.131  1.00  0.00     0.024 A 
ATOM     23  N   UNL A   1      35.179  23.128  26.490  1.00  0.00    -0.261 NA
ATOM     24  C   UNL A   1      34.128  22.235  24.069  1.00  0.00     0.009 A 
ATOM     25  C   UNL A   1      33.925  22.626  26.403  1.00  0.00     0.116 A 
ENDBRANCH  18  19
ENDBRANCH  13  18
ENDBRANCH  11  12
ENDBRANCH   7  11
ENDBRANCH   4   6
ENDBRANCH   3   4
ENDBRANCH   2   3
ENDBRANCH   1   2
BRANCH   1  26
ATOM     26  O   UNL A   1      31.790  31.231  26.555  1.00  0.00    -0.374 OA
BRANCH  26  27
ATOM     27  C   UNL A   1      31.767  32.630  26.846  1.00  0.00     0.202 C 
BRANCH  27  28
ATOM     28  C   UNL A   1      32.799  33.128  27.864  1.00  0.00     0.261 C 
BRANCH  28  29
ATOM     29  O   UNL A   1      32.725  34.554  28.036  1.00  0.00    -0.460 OA
BRANCH  29  30
ATOM     30  C   UNL A   1      33.198  35.008  29.220  1.00  0.00     0.338 C 
ATOM     31  O   UNL A   1      32.678  35.852  29.940  1.00  0.00    -0.246 OA
BRANCH  30  32
ATOM     32  C   UNL A   1      34.352  34.197  29.648  1.00  0.00     0.060 A 
ATOM     33  C   UNL A   1      34.124  33.227  30.634  1.00  0.00     0.016 A 
ATOM     34  C   UNL A   1      35.639  34.404  29.145  1.00  0.00     0.016 A 
ATOM     35  C   UNL A   1      35.189  32.500  31.158  1.00  0.00     0.010 A 
ATOM     36  C   UNL A   1      36.710  33.677  29.678  1.00  0.00     0.010 A 
ATOM     37  C   UNL A   1      36.493  32.749  30.713  1.00  0.00    -0.014 A 
BRANCH  37  38
ATOM     38  C   UNL A   1      37.635  32.142  31.445  1.00  0.00     0.031 A 
ATOM     39  C   UNL A   1      38.403  31.025  30.791  1.00  0.00     0.074 A 
ATOM     40  C   UNL A   1      38.011  32.615  32.646  1.00  0.00     0.049 A 
ATOM     41  N   UNL A   1      39.432  30.352  31.236  1.00  0.00    -0.248 NA
ATOM     42  C   UNL A   1      37.947  30.612  29.455  1.00  0.00     0.031 C 
ATOM     43  C   UNL A   1      37.373  33.724  33.353  1.00  0.00     0.029 A 
ATOM     44  N   UNL A   1      39.026  32.223  33.482  1.00  0.00    -0.354 N 
ATOM     45  C   UNL A   1      39.744  29.432  30.241  1.00  0.00     0.074 A 
ATOM     46  C   UNL A   1      38.772  29.612  29.183  1.00  0.00     0.031 C 
ATOM     47  C   UNL A   1      38.012  33.924  34.519  1.00  0.00     0.029 A 
ATOM     48  C   UNL A   1      39.080  32.936  34.657  1.00  0.00     0.049 A 
ATOM     49  H   UNL A   1      39.658  31.500  33.262  1.00  0.00     0.167 HD
ATOM     50  C   UNL A   1      40.753  28.527  30.209  1.00  0.00     0.034 A 
ATOM     51  C   UNL A   1      39.887  32.792  35.729  1.00  0.00     0.034 A 
ATOM     52  C   UNL A   1      41.711  28.355  31.274  1.00  0.00     0.049 A 
ATOM     53  C   UNL A   1      40.948  31.716  35.705  1.00  0.00     0.074 A 
ATOM     54  C   UNL A   1      42.789  27.490  31.334  1.00  0.00     0.029 A 
ATOM     55  N   UNL A   1      41.697  29.054  32.476  1.00  0.00    -0.354 N 
ATOM     56  N   UNL A   1      41.246  30.868  34.748  1.00  0.00    -0.248 NA
ATOM     57  C   UNL A   1      41.785  31.587  36.905  1.00  0.00     0.031 C 
ATOM     58  C   UNL A   1      43.379  27.608  32.597  1.00  0.00     0.029 A 
ATOM     59  C   UNL A   1      42.722  28.608  33.298  1.00  0.00     0.049 A 
ATOM     60  H   UNL A   1      41.054  29.761  32.710  1.00  0.00     0.167 HD
ATOM     61  C   UNL A   1      42.329  30.128  35.220  1.00  0.00     0.074 A 
ATOM     62  C   UNL A   1      42.638  30.642  36.538  1.00  0.00     0.031 C 
ATOM     63  C   UNL A   1      43.011  29.121  34.617  1.00  0.00     0.034 A 
BRANCH  50  64
ATOM     64  C   UNL A   1      40.833  27.616  29.007  1.00  0.00     0.023 A 
ATOM     65  C   UNL A   1      41.784  27.803  27.990  1.00  0.00     0.031 A 
ATOM     66  C   UNL A   1      39.923  26.551  28.868  1.00  0.00     0.131 A 
ATOM     67  C   UNL A   1      41.765  26.982  26.852  1.00  0.00     0.055 A 
ATOM     68  C   UNL A   1      39.957  25.691  27.770  1.00  0.00     0.041 A 
ATOM     69  F   UNL A   1      38.976  26.337  29.796  1.00  0.00    -0.206 F 
ATOM     70  C   UNL A   1      40.873  25.912  26.747  1.00  0.00     0.022 A 
BRANCH  67  71
ATOM     71  S   UNL A   1      42.831  27.414  25.449  1.00  0.00     0.124 S 
ATOM     72  O   UNL A   1      42.871  26.155  24.709  1.00  0.00    -0.237 OA
ATOM     73  O   UNL A   1      42.096  28.504  24.818  1.00  0.00    -0.237 OA
ATOM     74  O   UNL A   1      44.092  27.797  26.082  1.00  0.00    -0.744 OA
ENDBRANCH  67  71
ENDBRANCH  50  64
BRANCH  51  75
ATOM     75  C   UNL A   1      39.712  33.653  36.934  1.00  0.00     0.023 A 
ATOM     76  C   UNL A   1      40.551  34.755  37.167  1.00  0.00     0.031 A 
ATOM     77  C   UNL A   1      38.746  33.344  37.909  1.00  0.00     0.131 A 
ATOM     78  C   UNL A   1      40.443  35.476  38.367  1.00  0.00     0.055 A 
ATOM     79  C   UNL A   1      38.605  34.098  39.075  1.00  0.00     0.041 A 
ATOM     80  F   UNL A   1      37.920  32.299  37.739  1.00  0.00    -0.206 F 
ATOM     81  C   UNL A   1      39.468  35.163  39.316  1.00  0.00     0.022 A 
BRANCH  78  82
ATOM     82  S   UNL A   1      41.663  36.773  38.714  1.00  0.00     0.124 S 
ATOM     83  O   UNL A   1      40.814  37.862  39.180  1.00  0.00    -0.237 OA
ATOM     84  O   UNL A   1      42.503  36.135  39.722  1.00  0.00    -0.237 OA
ATOM     85  O   UNL A   1      42.305  36.991  37.419  1.00  0.00    -0.744 OA
ENDBRANCH  78  82
ENDBRANCH  51  75
BRANCH  63  86
ATOM     86  C   UNL A   1      44.190  28.546  35.366  1.00  0.00     0.023 A 
ATOM     87  C   UNL A   1      44.040  27.503  36.298  1.00  0.00     0.031 A 
ATOM     88  C   UNL A   1      45.481  29.062  35.157  1.00  0.00     0.131 A 
ATOM     89  C   UNL A   1      45.150  27.054  37.030  1.00  0.00     0.055 A 
ATOM     90  C   UNL A   1      46.592  28.568  35.840  1.00  0.00     0.041 A 
ATOM     91  F   UNL A   1      45.684  30.060  34.280  1.00  0.00    -0.206 F 
ATOM     92  C   UNL A   1      46.428  27.568  36.794  1.00  0.00     0.022 A 
BRANCH  89  93
ATOM     93  S   UNL A   1      44.887  25.858  38.368  1.00  0.00     0.124 S 
ATOM     94  O   UNL A   1      46.224  25.751  38.946  1.00  0.00    -0.237 OA
ATOM     95  O   UNL A   1      43.888  26.528  39.194  1.00  0.00    -0.237 OA
ATOM     96  O   UNL A   1      44.415  24.662  37.672  1.00  0.00    -0.744 OA
ENDBRANCH  89  93
ENDBRANCH  63  86
ENDBRANCH  37  38
ENDBRANCH  30  32
ENDBRANCH  29  30
ENDBRANCH  28  29
ENDBRANCH  27  28
ENDBRANCH  26  27
ENDBRANCH   1  26
TORSDOF 21
ENDMDL
