MODEL 1
REMARK VINA RESULT:     -12.1      0.000      0.000
REMARK SMILES COc1ccc2c(CC(=O)OCCOCCOC(=O)c3ccc(-c4c5nc(c(-c6cc(S(=O)(=O)[O-])ccc6F)c6ccc([nH]6)c(-c6cc(S(=O)(=O)[O-])ccc6F)c6nc(c(-c7cc(S(=O)(=O)[O-])ccc7F)c7ccc4[nH]7)C=C6)C=C5)cc3)c(C(=O)c3cc(C)ccn3)[nH]c2c1
REMARK SMILES IDX 14 1 13 2 12 3 11 4 9 5 10 6 8 7 7 8 3 9 4 10 95 11 5 12
REMARK SMILES IDX 94 13 6 14 93 15 83 16 2 18 1 19 84 20 85 21 86 22 87 23
REMARK SMILES IDX 92 24 88 25 91 26 89 27 90 28 15 29 16 30 17 31 18 32 19 33
REMARK SMILES IDX 20 34 21 35 82 36 22 37 81 38 23 39 24 40 25 41 75 42 26 43
REMARK SMILES IDX 80 44 74 45 76 46 27 47 79 48 73 49 72 50 28 52 60 53 40 54
REMARK SMILES IDX 59 55 41 56 44 57 58 58 77 59 42 60 43 61 57 63 78 64 45 65
REMARK SMILES IDX 29 66 30 67 38 68 31 69 37 70 39 71 36 72 32 73 33 74 34 75
REMARK SMILES IDX 35 76 61 77 62 78 70 79 63 80 69 81 71 82 68 83 64 84 65 85
REMARK SMILES IDX 66 86 67 87 46 88 47 89 55 90 48 91 54 92 56 93 53 94 49 95
REMARK SMILES IDX 50 96 51 97 52 98
REMARK H PARENT 93 17 76 51 44 62
REMARK Flexibility Score: inf
ROOT
ATOM      1  O   UNL A   1      34.271  22.080  25.005  1.00  0.00    -0.374 OA
ENDROOT
BRANCH   1   2
ATOM      2  C   UNL A   1      33.042  22.534  25.566  1.00  0.00     0.202 C 
BRANCH   2   3
ATOM      3  C   UNL A   1      32.620  23.989  25.311  1.00  0.00     0.261 C 
BRANCH   3   4
ATOM      4  O   UNL A   1      31.197  24.232  25.385  1.00  0.00    -0.463 OA
BRANCH   4   5
ATOM      5  C   UNL A   1      30.682  24.986  24.376  1.00  0.00     0.310 C 
ATOM      6  O   UNL A   1      30.590  24.602  23.210  1.00  0.00    -0.252 OA
BRANCH   5   7
ATOM      7  C   UNL A   1      30.132  26.342  24.771  1.00  0.00     0.161 C 
BRANCH   7   8
ATOM      8  C   UNL A   1      30.436  27.547  23.920  1.00  0.00     0.000 A 
ATOM      9  C   UNL A   1      27.984  30.364  21.963  1.00  0.00     0.120 A 
ATOM     10  C   UNL A   1      27.320  29.254  22.478  1.00  0.00     0.047 A 
ATOM     11  C   UNL A   1      29.382  30.435  21.996  1.00  0.00     0.073 A 
ATOM     12  C   UNL A   1      28.035  28.222  23.104  1.00  0.00     0.014 A 
ATOM     13  C   UNL A   1      30.075  29.413  22.659  1.00  0.00     0.050 A 
ATOM     14  C   UNL A   1      29.437  28.320  23.234  1.00  0.00     0.004 A 
ATOM     15  N   UNL A   1      31.420  29.259  22.893  1.00  0.00    -0.351 N 
ATOM     16  C   UNL A   1      31.645  28.254  23.814  1.00  0.00     0.093 A 
ATOM     17  H   UNL A   1      32.127  29.792  22.464  1.00  0.00     0.167 HD
BRANCH   9  18
ATOM     18  O   UNL A   1      27.357  31.425  21.363  1.00  0.00    -0.497 OA
ATOM     19  C   UNL A   1      28.163  32.595  21.239  1.00  0.00     0.278 C 
ENDBRANCH   9  18
BRANCH  16  20
ATOM     20  C   UNL A   1      32.913  28.035  24.517  1.00  0.00     0.227 C 
ATOM     21  O   UNL A   1      33.688  27.123  24.235  1.00  0.00    -0.285 OA
BRANCH  20  22
ATOM     22  C   UNL A   1      33.328  28.967  25.612  1.00  0.00     0.113 A 
ATOM     23  C   UNL A   1      34.488  28.769  26.345  1.00  0.00     0.036 A 
ATOM     24  N   UNL A   1      32.485  30.009  25.825  1.00  0.00    -0.253 NA
ATOM     25  C   UNL A   1      34.778  29.675  27.373  1.00  0.00    -0.047 A 
ATOM     26  C   UNL A   1      32.763  30.848  26.838  1.00  0.00     0.112 A 
ATOM     27  C   UNL A   1      36.027  29.566  28.194  1.00  0.00     0.044 C 
ATOM     28  C   UNL A   1      33.884  30.721  27.633  1.00  0.00     0.023 A 
ENDBRANCH  20  22
ENDBRANCH  16  20
ENDBRANCH   7   8
ENDBRANCH   5   7
ENDBRANCH   4   5
ENDBRANCH   3   4
ENDBRANCH   2   3
ENDBRANCH   1   2
BRANCH   1  29
ATOM     29  C   UNL A   1      35.188  21.433  25.880  1.00  0.00     0.202 C 
BRANCH  29  30
ATOM     30  C   UNL A   1      36.434  20.788  25.271  1.00  0.00     0.261 C 
BRANCH  30  31
ATOM     31  O   UNL A   1      37.555  21.646  25.078  1.00  0.00    -0.460 OA
BRANCH  31  32
ATOM     32  C   UNL A   1      38.679  21.249  25.706  1.00  0.00     0.338 C 
ATOM     33  O   UNL A   1      39.175  20.130  25.746  1.00  0.00    -0.246 OA
BRANCH  32  34
ATOM     34  C   UNL A   1      39.285  22.426  26.319  1.00  0.00     0.060 A 
ATOM     35  C   UNL A   1      38.691  23.671  26.102  1.00  0.00     0.016 A 
ATOM     36  C   UNL A   1      40.467  22.293  27.049  1.00  0.00     0.016 A 
ATOM     37  C   UNL A   1      39.316  24.815  26.587  1.00  0.00     0.010 A 
ATOM     38  C   UNL A   1      41.090  23.439  27.536  1.00  0.00     0.010 A 
ATOM     39  C   UNL A   1      40.533  24.703  27.275  1.00  0.00    -0.014 A 
BRANCH  39  40
ATOM     40  C   UNL A   1      41.304  25.920  27.603  1.00  0.00     0.031 A 
ATOM     41  C   UNL A   1      40.650  26.979  28.442  1.00  0.00     0.074 A 
ATOM     42  C   UNL A   1      42.561  26.061  27.151  1.00  0.00     0.049 A 
ATOM     43  N   UNL A   1      41.093  28.159  28.785  1.00  0.00    -0.248 NA
ATOM     44  C   UNL A   1      39.306  26.666  28.958  1.00  0.00     0.031 C 
ATOM     45  C   UNL A   1      43.287  25.065  26.363  1.00  0.00     0.029 A 
ATOM     46  N   UNL A   1      43.444  27.100  27.280  1.00  0.00    -0.354 N 
ATOM     47  C   UNL A   1      40.084  28.734  29.549  1.00  0.00     0.074 A 
ATOM     48  C   UNL A   1      38.989  27.788  29.585  1.00  0.00     0.031 C 
ATOM     49  C   UNL A   1      44.506  25.547  26.070  1.00  0.00     0.029 A 
ATOM     50  C   UNL A   1      44.625  26.901  26.605  1.00  0.00     0.049 A 
ATOM     51  H   UNL A   1      43.251  27.911  27.804  1.00  0.00     0.167 HD
ATOM     52  C   UNL A   1      40.080  29.941  30.165  1.00  0.00     0.034 A 
ATOM     53  C   UNL A   1      45.667  27.736  26.418  1.00  0.00     0.034 A 
ATOM     54  C   UNL A   1      41.185  30.866  30.093  1.00  0.00     0.049 A 
ATOM     55  C   UNL A   1      45.607  29.108  27.044  1.00  0.00     0.074 A 
ATOM     56  C   UNL A   1      41.308  32.113  30.678  1.00  0.00     0.029 A 
ATOM     57  N   UNL A   1      42.357  30.646  29.377  1.00  0.00    -0.354 N 
ATOM     58  N   UNL A   1      44.650  29.644  27.769  1.00  0.00    -0.248 NA
ATOM     59  C   UNL A   1      46.765  29.984  26.835  1.00  0.00     0.031 C 
ATOM     60  C   UNL A   1      42.517  32.676  30.256  1.00  0.00     0.029 A 
ATOM     61  C   UNL A   1      43.192  31.747  29.478  1.00  0.00     0.049 A 
ATOM     62  H   UNL A   1      42.563  29.827  28.871  1.00  0.00     0.167 HD
ATOM     63  C   UNL A   1      45.109  30.908  28.132  1.00  0.00     0.074 A 
ATOM     64  C   UNL A   1      46.430  31.048  27.549  1.00  0.00     0.031 C 
ATOM     65  C   UNL A   1      44.504  31.861  28.884  1.00  0.00     0.034 A 
BRANCH  52  66
ATOM     66  C   UNL A   1      38.828  30.341  30.909  1.00  0.00     0.023 A 
ATOM     67  C   UNL A   1      37.893  31.238  30.363  1.00  0.00     0.031 A 
ATOM     68  C   UNL A   1      38.585  29.846  32.202  1.00  0.00     0.131 A 
ATOM     69  C   UNL A   1      36.800  31.666  31.132  1.00  0.00     0.055 A 
ATOM     70  C   UNL A   1      37.452  30.212  32.932  1.00  0.00     0.041 A 
ATOM     71  F   UNL A   1      39.454  29.008  32.789  1.00  0.00    -0.206 F 
ATOM     72  C   UNL A   1      36.559  31.140  32.403  1.00  0.00     0.022 A 
BRANCH  69  73
ATOM     73  S   UNL A   1      35.779  33.031  30.509  1.00  0.00     0.124 S 
ATOM     74  O   UNL A   1      34.430  32.514  30.727  1.00  0.00    -0.237 OA
ATOM     75  O   UNL A   1      36.184  34.142  31.362  1.00  0.00    -0.237 OA
ATOM     76  O   UNL A   1      36.176  33.144  29.107  1.00  0.00    -0.744 OA
ENDBRANCH  69  73
ENDBRANCH  52  66
BRANCH  53  77
ATOM     77  C   UNL A   1      46.826  27.319  25.580  1.00  0.00     0.023 A 
ATOM     78  C   UNL A   1      46.992  27.806  24.275  1.00  0.00     0.031 A 
ATOM     79  C   UNL A   1      47.772  26.395  26.064  1.00  0.00     0.131 A 
ATOM     80  C   UNL A   1      48.052  27.337  23.483  1.00  0.00     0.055 A 
ATOM     81  C   UNL A   1      48.855  25.974  25.291  1.00  0.00     0.041 A 
ATOM     82  F   UNL A   1      47.661  25.897  27.306  1.00  0.00    -0.206 F 
ATOM     83  C   UNL A   1      48.993  26.436  23.987  1.00  0.00     0.022 A 
BRANCH  80  84
ATOM     84  S   UNL A   1      48.133  27.856  21.746  1.00  0.00     0.124 S 
ATOM     85  O   UNL A   1      48.276  26.576  21.061  1.00  0.00    -0.237 OA
ATOM     86  O   UNL A   1      46.854  28.538  21.575  1.00  0.00    -0.237 OA
ATOM     87  O   UNL A   1      49.309  28.722  21.705  1.00  0.00    -0.744 OA
ENDBRANCH  80  84
ENDBRANCH  53  77
BRANCH  65  88
ATOM     88  C   UNL A   1      45.292  33.116  29.167  1.00  0.00     0.023 A 
ATOM     89  C   UNL A   1      45.351  34.180  28.251  1.00  0.00     0.031 A 
ATOM     90  C   UNL A   1      45.982  33.248  30.386  1.00  0.00     0.131 A 
ATOM     91  C   UNL A   1      46.122  35.312  28.550  1.00  0.00     0.055 A 
ATOM     92  C   UNL A   1      46.699  34.402  30.702  1.00  0.00     0.041 A 
ATOM     93  F   UNL A   1      45.960  32.259  31.294  1.00  0.00    -0.206 F 
ATOM     94  C   UNL A   1      46.781  35.439  29.777  1.00  0.00     0.022 A 
BRANCH  91  95
ATOM     95  S   UNL A   1      46.319  36.594  27.281  1.00  0.00     0.124 S 
ATOM     96  O   UNL A   1      46.890  35.836  26.173  1.00  0.00    -0.237 OA
ATOM     97  O   UNL A   1      44.949  37.061  27.094  1.00  0.00    -0.237 OA
ATOM     98  O   UNL A   1      47.223  37.559  27.904  1.00  0.00    -0.744 OA
ENDBRANCH  91  95
ENDBRANCH  65  88
ENDBRANCH  39  40
ENDBRANCH  32  34
ENDBRANCH  31  32
ENDBRANCH  30  31
ENDBRANCH  29  30
ENDBRANCH   1  29
TORSDOF 21
ENDMDL
MODEL 2
REMARK VINA RESULT:     -11.7      1.488      7.446
REMARK SMILES COc1ccc2c(CC(=O)OCCOCCOC(=O)c3ccc(-c4c5nc(c(-c6cc(S(=O)(=O)[O-])ccc6F)c6ccc([nH]6)c(-c6cc(S(=O)(=O)[O-])ccc6F)c6nc(c(-c7cc(S(=O)(=O)[O-])ccc7F)c7ccc4[nH]7)C=C6)C=C5)cc3)c(C(=O)c3cc(C)ccn3)[nH]c2c1
REMARK SMILES IDX 14 1 13 2 12 3 11 4 9 5 10 6 8 7 7 8 3 9 4 10 95 11 5 12
REMARK SMILES IDX 94 13 6 14 93 15 83 16 2 18 1 19 84 20 85 21 86 22 87 23
REMARK SMILES IDX 92 24 88 25 91 26 89 27 90 28 15 29 16 30 17 31 18 32 19 33
REMARK SMILES IDX 20 34 21 35 82 36 22 37 81 38 23 39 24 40 25 41 75 42 26 43
REMARK SMILES IDX 80 44 74 45 76 46 27 47 79 48 73 49 72 50 28 52 60 53 40 54
REMARK SMILES IDX 59 55 41 56 44 57 58 58 77 59 42 60 43 61 57 63 78 64 45 65
REMARK SMILES IDX 29 66 30 67 38 68 31 69 37 70 39 71 36 72 32 73 33 74 34 75
REMARK SMILES IDX 35 76 61 77 62 78 70 79 63 80 69 81 71 82 68 83 64 84 65 85
REMARK SMILES IDX 66 86 67 87 46 88 47 89 55 90 48 91 54 92 56 93 53 94 49 95
REMARK SMILES IDX 50 96 51 97 52 98
REMARK H PARENT 93 17 76 51 44 62
REMARK Flexibility Score: inf
ROOT
ATOM      1  O   UNL A   1      35.455  22.879  24.969  1.00  0.00    -0.374 OA
ENDROOT
BRANCH   1   2
ATOM      2  C   UNL A   1      34.541  23.666  24.209  1.00  0.00     0.202 C 
BRANCH   2   3
ATOM      3  C   UNL A   1      33.036  23.417  24.397  1.00  0.00     0.261 C 
BRANCH   3   4
ATOM      4  O   UNL A   1      32.316  24.496  25.034  1.00  0.00    -0.463 OA
BRANCH   4   5
ATOM      5  C   UNL A   1      31.188  24.902  24.389  1.00  0.00     0.310 C 
ATOM      6  O   UNL A   1      30.633  24.254  23.500  1.00  0.00    -0.252 OA
BRANCH   5   7
ATOM      7  C   UNL A   1      30.570  26.197  24.877  1.00  0.00     0.161 C 
BRANCH   7   8
ATOM      8  C   UNL A   1      30.760  27.461  24.080  1.00  0.00     0.000 A 
ATOM      9  C   UNL A   1      28.055  30.130  22.254  1.00  0.00     0.120 A 
ATOM     10  C   UNL A   1      27.496  28.943  22.720  1.00  0.00     0.047 A 
ATOM     11  C   UNL A   1      29.440  30.325  22.289  1.00  0.00     0.073 A 
ATOM     12  C   UNL A   1      28.304  27.952  23.298  1.00  0.00     0.014 A 
ATOM     13  C   UNL A   1      30.225  29.341  22.905  1.00  0.00     0.050 A 
ATOM     14  C   UNL A   1      29.692  28.171  23.431  1.00  0.00     0.004 A 
ATOM     15  N   UNL A   1      31.580  29.300  23.131  1.00  0.00    -0.351 N 
ATOM     16  C   UNL A   1      31.900  28.278  24.006  1.00  0.00     0.093 A 
ATOM     17  H   UNL A   1      32.234  29.913  22.726  1.00  0.00     0.167 HD
BRANCH   9  18
ATOM     18  O   UNL A   1      27.331  31.156  21.703  1.00  0.00    -0.497 OA
ATOM     19  C   UNL A   1      28.028  31.902  20.708  1.00  0.00     0.278 C 
ENDBRANCH   9  18
BRANCH  16  20
ATOM     20  C   UNL A   1      33.186  28.143  24.697  1.00  0.00     0.227 C 
ATOM     21  O   UNL A   1      34.024  27.295  24.396  1.00  0.00    -0.285 OA
BRANCH  20  22
ATOM     22  C   UNL A   1      33.540  29.089  25.802  1.00  0.00     0.113 A 
ATOM     23  C   UNL A   1      34.657  28.899  26.601  1.00  0.00     0.036 A 
ATOM     24  N   UNL A   1      32.688  30.134  25.955  1.00  0.00    -0.253 NA
ATOM     25  C   UNL A   1      34.890  29.818  27.632  1.00  0.00    -0.047 A 
ATOM     26  C   UNL A   1      32.909  30.985  26.971  1.00  0.00     0.112 A 
ATOM     27  C   UNL A   1      36.091  29.719  28.523  1.00  0.00     0.044 C 
ATOM     28  C   UNL A   1      33.984  30.868  27.829  1.00  0.00     0.023 A 
ENDBRANCH  20  22
ENDBRANCH  16  20
ENDBRANCH   7   8
ENDBRANCH   5   7
ENDBRANCH   4   5
ENDBRANCH   3   4
ENDBRANCH   2   3
ENDBRANCH   1   2
BRANCH   1  29
ATOM     29  C   UNL A   1      36.121  21.819  24.293  1.00  0.00     0.202 C 
BRANCH  29  30
ATOM     30  C   UNL A   1      37.396  21.253  24.920  1.00  0.00     0.261 C 
BRANCH  30  31
ATOM     31  O   UNL A   1      37.866  21.911  26.093  1.00  0.00    -0.460 OA
BRANCH  31  32
ATOM     32  C   UNL A   1      39.189  21.786  26.314  1.00  0.00     0.338 C 
ATOM     33  O   UNL A   1      39.904  20.809  26.128  1.00  0.00    -0.246 OA
BRANCH  32  34
ATOM     34  C   UNL A   1      39.685  23.077  26.780  1.00  0.00     0.060 A 
ATOM     35  C   UNL A   1      39.052  24.237  26.330  1.00  0.00     0.016 A 
ATOM     36  C   UNL A   1      40.810  23.127  27.606  1.00  0.00     0.016 A 
ATOM     37  C   UNL A   1      39.579  25.476  26.676  1.00  0.00     0.010 A 
ATOM     38  C   UNL A   1      41.334  24.368  27.953  1.00  0.00     0.010 A 
ATOM     39  C   UNL A   1      40.740  25.543  27.460  1.00  0.00    -0.014 A 
BRANCH  39  40
ATOM     40  C   UNL A   1      41.422  26.840  27.651  1.00  0.00     0.031 A 
ATOM     41  C   UNL A   1      42.792  27.022  27.064  1.00  0.00     0.074 A 
ATOM     42  C   UNL A   1      40.817  27.823  28.336  1.00  0.00     0.049 A 
ATOM     43  N   UNL A   1      43.614  28.031  27.172  1.00  0.00    -0.248 NA
ATOM     44  C   UNL A   1      43.308  25.907  26.252  1.00  0.00     0.031 C 
ATOM     45  C   UNL A   1      39.472  27.746  28.905  1.00  0.00     0.029 A 
ATOM     46  N   UNL A   1      41.257  29.074  28.680  1.00  0.00    -0.354 N 
ATOM     47  C   UNL A   1      44.747  27.673  26.450  1.00  0.00     0.074 A 
ATOM     48  C   UNL A   1      44.521  26.337  25.942  1.00  0.00     0.031 C 
ATOM     49  C   UNL A   1      39.200  28.899  29.538  1.00  0.00     0.029 A 
ATOM     50  C   UNL A   1      40.368  29.773  29.460  1.00  0.00     0.049 A 
ATOM     51  H   UNL A   1      42.128  29.436  28.396  1.00  0.00     0.167 HD
ATOM     52  C   UNL A   1      45.869  28.402  26.231  1.00  0.00     0.034 A 
ATOM     53  C   UNL A   1      40.501  30.969  30.067  1.00  0.00     0.034 A 
ATOM     54  C   UNL A   1      46.066  29.726  26.767  1.00  0.00     0.049 A 
ATOM     55  C   UNL A   1      41.792  31.728  29.878  1.00  0.00     0.074 A 
ATOM     56  C   UNL A   1      47.151  30.570  26.612  1.00  0.00     0.029 A 
ATOM     57  N   UNL A   1      45.155  30.396  27.579  1.00  0.00    -0.354 N 
ATOM     58  N   UNL A   1      42.859  31.384  29.190  1.00  0.00    -0.248 NA
ATOM     59  C   UNL A   1      41.897  33.034  30.538  1.00  0.00     0.031 C 
ATOM     60  C   UNL A   1      46.930  31.713  27.387  1.00  0.00     0.029 A 
ATOM     61  C   UNL A   1      45.669  31.625  27.959  1.00  0.00     0.049 A 
ATOM     62  H   UNL A   1      44.275  30.046  27.846  1.00  0.00     0.167 HD
ATOM     63  C   UNL A   1      43.747  32.451  29.307  1.00  0.00     0.074 A 
ATOM     64  C   UNL A   1      43.086  33.448  30.127  1.00  0.00     0.031 C 
ATOM     65  C   UNL A   1      44.989  32.600  28.780  1.00  0.00     0.034 A 
BRANCH  52  66
ATOM     66  C   UNL A   1      46.976  27.755  25.433  1.00  0.00     0.023 A 
ATOM     67  C   UNL A   1      47.227  28.103  24.093  1.00  0.00     0.031 A 
ATOM     68  C   UNL A   1      47.769  26.749  26.009  1.00  0.00     0.131 A 
ATOM     69  C   UNL A   1      48.193  27.401  23.356  1.00  0.00     0.055 A 
ATOM     70  C   UNL A   1      48.786  26.109  25.294  1.00  0.00     0.041 A 
ATOM     71  F   UNL A   1      47.561  26.353  27.275  1.00  0.00    -0.206 F 
ATOM     72  C   UNL A   1      48.992  26.424  23.955  1.00  0.00     0.022 A 
BRANCH  69  73
ATOM     73  S   UNL A   1      48.291  27.677  21.565  1.00  0.00     0.124 S 
ATOM     74  O   UNL A   1      49.379  28.648  21.475  1.00  0.00    -0.237 OA
ATOM     75  O   UNL A   1      48.582  26.343  21.056  1.00  0.00    -0.237 OA
ATOM     76  O   UNL A   1      46.970  28.201  21.226  1.00  0.00    -0.744 OA
ENDBRANCH  69  73
ENDBRANCH  52  66
BRANCH  53  77
ATOM     77  C   UNL A   1      39.411  31.502  30.931  1.00  0.00     0.023 A 
ATOM     78  C   UNL A   1      39.465  31.379  32.328  1.00  0.00     0.031 A 
ATOM     79  C   UNL A   1      38.277  32.116  30.367  1.00  0.00     0.131 A 
ATOM     80  C   UNL A   1      38.388  31.823  33.112  1.00  0.00     0.055 A 
ATOM     81  C   UNL A   1      37.234  32.605  31.155  1.00  0.00     0.041 A 
ATOM     82  F   UNL A   1      38.173  32.260  29.037  1.00  0.00    -0.206 F 
ATOM     83  C   UNL A   1      37.280  32.449  32.536  1.00  0.00     0.022 A 
BRANCH  80  84
ATOM     84  S   UNL A   1      38.417  31.489  34.895  1.00  0.00     0.124 S 
ATOM     85  O   UNL A   1      39.777  31.880  35.247  1.00  0.00    -0.237 OA
ATOM     86  O   UNL A   1      37.350  32.357  35.382  1.00  0.00    -0.237 OA
ATOM     87  O   UNL A   1      38.138  30.056  34.976  1.00  0.00    -0.744 OA
ENDBRANCH  80  84
ENDBRANCH  53  77
BRANCH  65  88
ATOM     88  C   UNL A   1      45.686  33.915  29.026  1.00  0.00     0.023 A 
ATOM     89  C   UNL A   1      45.546  35.006  28.153  1.00  0.00     0.031 A 
ATOM     90  C   UNL A   1      46.490  34.076  30.169  1.00  0.00     0.131 A 
ATOM     91  C   UNL A   1      46.238  36.198  28.412  1.00  0.00     0.055 A 
ATOM     92  C   UNL A   1      47.128  35.284  30.453  1.00  0.00     0.041 A 
ATOM     93  F   UNL A   1      46.658  33.064  31.036  1.00  0.00    -0.206 F 
ATOM     94  C   UNL A   1      47.013  36.350  29.567  1.00  0.00     0.022 A 
BRANCH  91  95
ATOM     95  S   UNL A   1      46.177  37.529  27.182  1.00  0.00     0.124 S 
ATOM     96  O   UNL A   1      46.844  38.621  27.884  1.00  0.00    -0.237 OA
ATOM     97  O   UNL A   1      46.910  36.951  26.059  1.00  0.00    -0.237 OA
ATOM     98  O   UNL A   1      44.745  37.720  26.953  1.00  0.00    -0.744 OA
ENDBRANCH  91  95
ENDBRANCH  65  88
ENDBRANCH  39  40
ENDBRANCH  32  34
ENDBRANCH  31  32
ENDBRANCH  30  31
ENDBRANCH  29  30
ENDBRANCH   1  29
TORSDOF 21
ENDMDL
MODEL 3
REMARK VINA RESULT:     -11.7      1.496      2.963
REMARK SMILES COc1ccc2c(CC(=O)OCCOCCOC(=O)c3ccc(-c4c5nc(c(-c6cc(S(=O)(=O)[O-])ccc6F)c6ccc([nH]6)c(-c6cc(S(=O)(=O)[O-])ccc6F)c6nc(c(-c7cc(S(=O)(=O)[O-])ccc7F)c7ccc4[nH]7)C=C6)C=C5)cc3)c(C(=O)c3cc(C)ccn3)[nH]c2c1
REMARK SMILES IDX 14 1 13 2 12 3 11 4 9 5 10 6 8 7 7 8 3 9 4 10 95 11 5 12
REMARK SMILES IDX 94 13 6 14 93 15 83 16 2 18 1 19 84 20 85 21 86 22 87 23
REMARK SMILES IDX 92 24 88 25 91 26 89 27 90 28 15 29 16 30 17 31 18 32 19 33
REMARK SMILES IDX 20 34 21 35 82 36 22 37 81 38 23 39 24 40 25 41 75 42 26 43
REMARK SMILES IDX 80 44 74 45 76 46 27 47 79 48 73 49 72 50 28 52 60 53 40 54
REMARK SMILES IDX 59 55 41 56 44 57 58 58 77 59 42 60 43 61 57 63 78 64 45 65
REMARK SMILES IDX 29 66 30 67 38 68 31 69 37 70 39 71 36 72 32 73 33 74 34 75
REMARK SMILES IDX 35 76 61 77 62 78 70 79 63 80 69 81 71 82 68 83 64 84 65 85
REMARK SMILES IDX 66 86 67 87 46 88 47 89 55 90 48 91 54 92 56 93 53 94 49 95
REMARK SMILES IDX 50 96 51 97 52 98
REMARK H PARENT 93 17 76 51 44 62
REMARK Flexibility Score: inf
ROOT
ATOM      1  O   UNL A   1      36.949  22.250  24.381  1.00  0.00    -0.374 OA
ENDROOT
BRANCH   1   2
ATOM      2  C   UNL A   1      36.207  23.031  25.315  1.00  0.00     0.202 C 
BRANCH   2   3
ATOM      3  C   UNL A   1      35.110  23.962  24.774  1.00  0.00     0.261 C 
BRANCH   3   4
ATOM      4  O   UNL A   1      34.656  24.970  25.705  1.00  0.00    -0.463 OA
BRANCH   4   5
ATOM      5  C   UNL A   1      33.947  25.994  25.153  1.00  0.00     0.310 C 
ATOM      6  O   UNL A   1      34.149  26.436  24.022  1.00  0.00    -0.252 OA
BRANCH   5   7
ATOM      7  C   UNL A   1      32.805  26.539  25.986  1.00  0.00     0.161 C 
BRANCH   7   8
ATOM      8  C   UNL A   1      31.396  26.461  25.460  1.00  0.00     0.000 A 
ATOM      9  C   UNL A   1      29.237  28.799  22.694  1.00  0.00     0.120 A 
ATOM     10  C   UNL A   1      30.465  29.325  23.086  1.00  0.00     0.047 A 
ATOM     11  C   UNL A   1      28.733  27.642  23.300  1.00  0.00     0.073 A 
ATOM     12  C   UNL A   1      31.250  28.665  24.044  1.00  0.00     0.014 A 
ATOM     13  C   UNL A   1      29.549  26.978  24.225  1.00  0.00     0.050 A 
ATOM     14  C   UNL A   1      30.804  27.445  24.596  1.00  0.00     0.004 A 
ATOM     15  N   UNL A   1      29.339  25.808  24.915  1.00  0.00    -0.351 N 
ATOM     16  C   UNL A   1      30.507  25.374  25.512  1.00  0.00     0.093 A 
ATOM     17  H   UNL A   1      28.474  25.343  24.977  1.00  0.00     0.167 HD
BRANCH   9  18
ATOM     18  O   UNL A   1      28.425  29.368  21.747  1.00  0.00    -0.497 OA
ATOM     19  C   UNL A   1      28.711  30.737  21.470  1.00  0.00     0.278 C 
ENDBRANCH   9  18
BRANCH  16  20
ATOM     20  C   UNL A   1      30.717  24.029  26.055  1.00  0.00     0.227 C 
ATOM     21  O   UNL A   1      30.385  23.705  27.194  1.00  0.00    -0.285 OA
BRANCH  20  22
ATOM     22  C   UNL A   1      31.332  22.968  25.198  1.00  0.00     0.113 A 
ATOM     23  C   UNL A   1      31.847  21.797  25.734  1.00  0.00     0.036 A 
ATOM     24  N   UNL A   1      31.342  23.241  23.868  1.00  0.00    -0.253 NA
ATOM     25  C   UNL A   1      32.433  20.876  24.856  1.00  0.00    -0.047 A 
ATOM     26  C   UNL A   1      31.940  22.361  23.047  1.00  0.00     0.112 A 
ATOM     27  C   UNL A   1      32.983  19.566  25.336  1.00  0.00     0.044 C 
ATOM     28  C   UNL A   1      32.496  21.178  23.490  1.00  0.00     0.023 A 
ENDBRANCH  20  22
ENDBRANCH  16  20
ENDBRANCH   7   8
ENDBRANCH   5   7
ENDBRANCH   4   5
ENDBRANCH   3   4
ENDBRANCH   2   3
ENDBRANCH   1   2
BRANCH   1  29
ATOM     29  C   UNL A   1      36.868  20.835  24.505  1.00  0.00     0.202 C 
BRANCH  29  30
ATOM     30  C   UNL A   1      38.007  20.108  25.223  1.00  0.00     0.261 C 
BRANCH  30  31
ATOM     31  O   UNL A   1      38.545  20.760  26.369  1.00  0.00    -0.460 OA
BRANCH  31  32
ATOM     32  C   UNL A   1      39.892  20.778  26.423  1.00  0.00     0.338 C 
ATOM     33  O   UNL A   1      40.679  19.897  26.100  1.00  0.00    -0.246 OA
BRANCH  32  34
ATOM     34  C   UNL A   1      40.300  22.096  26.895  1.00  0.00     0.060 A 
ATOM     35  C   UNL A   1      39.849  23.222  26.202  1.00  0.00     0.016 A 
ATOM     36  C   UNL A   1      41.174  22.202  27.978  1.00  0.00     0.016 A 
ATOM     37  C   UNL A   1      40.316  24.478  26.571  1.00  0.00     0.010 A 
ATOM     38  C   UNL A   1      41.639  23.461  28.347  1.00  0.00     0.010 A 
ATOM     39  C   UNL A   1      41.237  24.597  27.622  1.00  0.00    -0.014 A 
BRANCH  39  40
ATOM     40  C   UNL A   1      41.896  25.894  27.876  1.00  0.00     0.031 A 
ATOM     41  C   UNL A   1      41.141  26.945  28.637  1.00  0.00     0.074 A 
ATOM     42  C   UNL A   1      43.144  26.113  27.430  1.00  0.00     0.049 A 
ATOM     43  N   UNL A   1      41.476  28.178  28.906  1.00  0.00    -0.248 NA
ATOM     44  C   UNL A   1      39.820  26.551  29.158  1.00  0.00     0.031 C 
ATOM     45  C   UNL A   1      43.965  25.135  26.718  1.00  0.00     0.029 A 
ATOM     46  N   UNL A   1      43.933  27.230  27.499  1.00  0.00    -0.354 N 
ATOM     47  C   UNL A   1      40.409  28.713  29.620  1.00  0.00     0.074 A 
ATOM     48  C   UNL A   1      39.398  27.680  29.706  1.00  0.00     0.031 C 
ATOM     49  C   UNL A   1      45.143  25.700  26.406  1.00  0.00     0.029 A 
ATOM     50  C   UNL A   1      45.138  27.091  26.852  1.00  0.00     0.049 A 
ATOM     51  H   UNL A   1      43.663  28.054  27.967  1.00  0.00     0.167 HD
ATOM     52  C   UNL A   1      40.292  29.952  30.154  1.00  0.00     0.034 A 
ATOM     53  C   UNL A   1      46.107  27.998  26.622  1.00  0.00     0.034 A 
ATOM     54  C   UNL A   1      41.315  30.962  30.034  1.00  0.00     0.049 A 
ATOM     55  C   UNL A   1      45.921  29.397  27.155  1.00  0.00     0.074 A 
ATOM     56  C   UNL A   1      41.322  32.251  30.537  1.00  0.00     0.029 A 
ATOM     57  N   UNL A   1      42.514  30.798  29.346  1.00  0.00    -0.354 N 
ATOM     58  N   UNL A   1      44.909  29.895  27.833  1.00  0.00    -0.248 NA
ATOM     59  C   UNL A   1      47.003  30.355  26.901  1.00  0.00     0.031 C 
ATOM     60  C   UNL A   1      42.485  32.887  30.092  1.00  0.00     0.029 A 
ATOM     61  C   UNL A   1      43.249  31.971  29.384  1.00  0.00     0.049 A 
ATOM     62  H   UNL A   1      42.797  29.969  28.898  1.00  0.00     0.167 HD
ATOM     63  C   UNL A   1      45.254  31.214  28.117  1.00  0.00     0.074 A 
ATOM     64  C   UNL A   1      46.567  31.430  27.540  1.00  0.00     0.031 C 
ATOM     65  C   UNL A   1      44.557  32.159  28.797  1.00  0.00     0.034 A 
BRANCH  52  66
ATOM     66  C   UNL A   1      38.999  30.290  30.857  1.00  0.00     0.023 A 
ATOM     67  C   UNL A   1      38.033  31.129  30.274  1.00  0.00     0.031 A 
ATOM     68  C   UNL A   1      38.744  29.795  32.148  1.00  0.00     0.131 A 
ATOM     69  C   UNL A   1      36.895  31.504  31.005  1.00  0.00     0.055 A 
ATOM     70  C   UNL A   1      37.571  30.107  32.840  1.00  0.00     0.041 A 
ATOM     71  F   UNL A   1      39.640  29.012  32.770  1.00  0.00    -0.206 F 
ATOM     72  C   UNL A   1      36.646  30.978  32.275  1.00  0.00     0.022 A 
BRANCH  69  73
ATOM     73  S   UNL A   1      35.821  32.805  30.337  1.00  0.00     0.124 S 
ATOM     74  O   UNL A   1      36.290  33.980  31.067  1.00  0.00    -0.237 OA
ATOM     75  O   UNL A   1      36.132  32.770  28.913  1.00  0.00    -0.237 OA
ATOM     76  O   UNL A   1      34.477  32.356  30.693  1.00  0.00    -0.744 OA
ENDBRANCH  69  73
ENDBRANCH  52  66
BRANCH  53  77
ATOM     77  C   UNL A   1      47.312  27.629  25.826  1.00  0.00     0.023 A 
ATOM     78  C   UNL A   1      47.382  27.892  24.450  1.00  0.00     0.031 A 
ATOM     79  C   UNL A   1      48.402  26.973  26.428  1.00  0.00     0.131 A 
ATOM     80  C   UNL A   1      48.498  27.464  23.712  1.00  0.00     0.055 A 
ATOM     81  C   UNL A   1      49.533  26.600  25.700  1.00  0.00     0.041 A 
ATOM     82  F   UNL A   1      48.388  26.697  27.742  1.00  0.00    -0.206 F 
ATOM     83  C   UNL A   1      49.580  26.834  24.331  1.00  0.00     0.022 A 
BRANCH  80  84
ATOM     84  S   UNL A   1      48.474  27.666  21.909  1.00  0.00     0.124 S 
ATOM     85  O   UNL A   1      48.706  26.300  21.455  1.00  0.00    -0.237 OA
ATOM     86  O   UNL A   1      47.136  28.202  21.683  1.00  0.00    -0.237 OA
ATOM     87  O   UNL A   1      49.568  28.602  21.658  1.00  0.00    -0.744 OA
ENDBRANCH  80  84
ENDBRANCH  53  77
BRANCH  65  88
ATOM     88  C   UNL A   1      45.231  33.492  29.005  1.00  0.00     0.023 A 
ATOM     89  C   UNL A   1      45.196  34.504  28.031  1.00  0.00     0.031 A 
ATOM     90  C   UNL A   1      45.905  33.754  30.212  1.00  0.00     0.131 A 
ATOM     91  C   UNL A   1      45.863  35.715  28.262  1.00  0.00     0.055 A 
ATOM     92  C   UNL A   1      46.517  34.984  30.460  1.00  0.00     0.041 A 
ATOM     93  F   UNL A   1      45.969  32.821  31.175  1.00  0.00    -0.206 F 
ATOM     94  C   UNL A   1      46.507  35.969  29.477  1.00  0.00     0.022 A 
BRANCH  91  95
ATOM     95  S   UNL A   1      45.947  36.935  26.922  1.00  0.00     0.124 S 
ATOM     96  O   UNL A   1      46.260  36.096  25.769  1.00  0.00    -0.237 OA
ATOM     97  O   UNL A   1      44.607  37.514  26.942  1.00  0.00    -0.237 OA
ATOM     98  O   UNL A   1      47.018  37.836  27.343  1.00  0.00    -0.744 OA
ENDBRANCH  91  95
ENDBRANCH  65  88
ENDBRANCH  39  40
ENDBRANCH  32  34
ENDBRANCH  31  32
ENDBRANCH  30  31
ENDBRANCH  29  30
ENDBRANCH   1  29
TORSDOF 21
ENDMDL
