MODEL 1
REMARK VINA RESULT:     -12.8      0.000      0.000
REMARK SMILES O=C(OCCOCCOC(=O)c1ccc([C@@H]2CC(O)=Nc3c2ncn3-c2cccc(Cl)c2)cc1)c1ccc(-c2c3nc(c(-c4cc(S(=O)(=O)[O-])ccc4F)c4ccc([nH]4)c(-c4cc(S(=O)(=O)[O-])ccc4F)c4nc(c(-c5cc(S(=O)(=O)[O-])ccc5F)c5ccc2[nH]5)C=C4)C=C3)cc1
REMARK SMILES IDX 5 1 4 2 3 3 2 4 1 5 35 6 36 7 97 8 37 9 96 10 38 11 39 12
REMARK SMILES IDX 40 13 90 14 41 15 95 16 89 17 91 18 42 19 94 20 88 21 87 22
REMARK SMILES IDX 43 24 75 25 55 26 74 27 56 28 59 29 73 30 92 31 57 32 58 33
REMARK SMILES IDX 72 35 93 36 60 37 44 38 45 39 53 40 46 41 52 42 54 43 51 44
REMARK SMILES IDX 47 45 48 46 49 47 50 48 76 49 77 50 85 51 78 52 84 53 86 54
REMARK SMILES IDX 83 55 79 56 80 57 81 58 82 59 61 60 62 61 70 62 63 63 69 64
REMARK SMILES IDX 71 65 68 66 64 67 65 68 66 69 67 70 6 71 7 72 8 73 9 74
REMARK SMILES IDX 10 75 11 76 12 77 13 78 34 79 14 80 33 81 15 82 16 83 17 84
REMARK SMILES IDX 22 85 18 86 21 87 23 88 20 89 25 90 24 91 19 92 26 94 27 95
REMARK SMILES IDX 32 96 28 97 30 98 29 99 31 100
REMARK H PARENT 91 23 59 34 19 93
REMARK Flexibility Score: inf
ROOT
ATOM      1  C   UNL A   1      33.482  30.468  27.268  1.00  0.00     0.202 C 
ENDROOT
BRANCH   1   2
ATOM      2  C   UNL A   1      34.677  29.520  27.281  1.00  0.00     0.261 C 
BRANCH   2   3
ATOM      3  O   UNL A   1      35.935  30.154  27.554  1.00  0.00    -0.460 OA
BRANCH   3   4
ATOM      4  C   UNL A   1      36.789  29.786  28.533  1.00  0.00     0.338 C 
ATOM      5  O   UNL A   1      36.483  29.950  29.713  1.00  0.00    -0.246 OA
BRANCH   4   6
ATOM      6  C   UNL A   1      37.981  28.967  28.191  1.00  0.00     0.060 A 
ATOM      7  C   UNL A   1      38.465  27.908  28.957  1.00  0.00     0.016 A 
ATOM      8  C   UNL A   1      38.741  29.430  27.106  1.00  0.00     0.016 A 
ATOM      9  C   UNL A   1      39.789  27.549  28.862  1.00  0.00     0.010 A 
ATOM     10  C   UNL A   1      40.052  29.024  26.958  1.00  0.00     0.010 A 
ATOM     11  C   UNL A   1      40.592  28.178  27.917  1.00  0.00    -0.014 A 
BRANCH  11  12
ATOM     12  C   UNL A   1      41.994  27.819  27.899  1.00  0.00     0.031 A 
ATOM     13  C   UNL A   1      42.232  26.497  27.276  1.00  0.00     0.074 A 
ATOM     14  C   UNL A   1      42.951  28.650  28.353  1.00  0.00     0.049 A 
ATOM     15  N   UNL A   1      42.599  25.404  27.858  1.00  0.00    -0.248 NA
ATOM     16  C   UNL A   1      41.766  26.307  25.891  1.00  0.00     0.031 C 
ATOM     17  C   UNL A   1      42.809  30.042  28.790  1.00  0.00     0.029 A 
ATOM     18  N   UNL A   1      44.291  28.452  28.425  1.00  0.00    -0.354 N 
ATOM     19  C   UNL A   1      42.676  24.454  26.845  1.00  0.00     0.074 A 
ATOM     20  C   UNL A   1      41.925  24.992  25.747  1.00  0.00     0.031 C 
ATOM     21  C   UNL A   1      44.029  30.625  28.819  1.00  0.00     0.029 A 
ATOM     22  C   UNL A   1      45.041  29.619  28.534  1.00  0.00     0.049 A 
ATOM     23  H   UNL A   1      44.700  27.557  28.400  1.00  0.00     0.167 HD
ATOM     24  C   UNL A   1      43.604  23.460  26.900  1.00  0.00     0.034 A 
ATOM     25  C   UNL A   1      46.379  29.749  28.315  1.00  0.00     0.034 A 
ATOM     26  C   UNL A   1      44.077  23.283  28.260  1.00  0.00     0.049 A 
ATOM     27  C   UNL A   1      46.962  28.388  28.464  1.00  0.00     0.074 A 
ATOM     28  C   UNL A   1      43.465  22.981  29.462  1.00  0.00     0.029 A 
ATOM     29  N   UNL A   1      45.307  23.811  28.599  1.00  0.00    -0.354 N 
ATOM     30  N   UNL A   1      46.968  27.740  29.600  1.00  0.00    -0.248 NA
ATOM     31  C   UNL A   1      47.045  27.546  27.276  1.00  0.00     0.031 C 
ATOM     32  C   UNL A   1      44.124  23.799  30.428  1.00  0.00     0.029 A 
ATOM     33  C   UNL A   1      45.163  24.479  29.790  1.00  0.00     0.049 A 
ATOM     34  H   UNL A   1      46.139  23.725  28.079  1.00  0.00     0.167 HD
ATOM     35  C   UNL A   1      46.614  26.438  29.275  1.00  0.00     0.074 A 
ATOM     36  C   UNL A   1      46.757  26.359  27.821  1.00  0.00     0.031 C 
ATOM     37  C   UNL A   1      45.950  25.640  30.166  1.00  0.00     0.034 A 
BRANCH  24  38
ATOM     38  C   UNL A   1      44.409  23.000  25.697  1.00  0.00     0.023 A 
ATOM     39  C   UNL A   1      44.386  21.619  25.434  1.00  0.00     0.031 A 
ATOM     40  C   UNL A   1      45.421  23.728  25.029  1.00  0.00     0.131 A 
ATOM     41  C   UNL A   1      45.432  21.002  24.731  1.00  0.00     0.055 A 
ATOM     42  C   UNL A   1      46.424  23.115  24.273  1.00  0.00     0.041 A 
ATOM     43  F   UNL A   1      45.550  25.055  25.111  1.00  0.00    -0.206 F 
ATOM     44  C   UNL A   1      46.464  21.739  24.161  1.00  0.00     0.022 A 
BRANCH  41  45
ATOM     45  S   UNL A   1      45.525  19.196  24.783  1.00  0.00     0.124 S 
ATOM     46  O   UNL A   1      44.217  18.863  25.338  1.00  0.00    -0.237 OA
ATOM     47  O   UNL A   1      45.732  18.870  23.376  1.00  0.00    -0.237 OA
ATOM     48  O   UNL A   1      46.665  18.942  25.660  1.00  0.00    -0.744 OA
ENDBRANCH  41  45
ENDBRANCH  24  38
BRANCH  25  49
ATOM     49  C   UNL A   1      47.058  30.878  27.606  1.00  0.00     0.023 A 
ATOM     50  C   UNL A   1      46.366  31.982  27.055  1.00  0.00     0.031 A 
ATOM     51  C   UNL A   1      48.467  30.991  27.664  1.00  0.00     0.131 A 
ATOM     52  C   UNL A   1      47.081  33.116  26.590  1.00  0.00     0.055 A 
ATOM     53  C   UNL A   1      49.165  32.110  27.202  1.00  0.00     0.041 A 
ATOM     54  F   UNL A   1      49.218  30.046  28.251  1.00  0.00    -0.206 F 
ATOM     55  C   UNL A   1      48.473  33.182  26.671  1.00  0.00     0.022 A 
BRANCH  52  56
ATOM     56  S   UNL A   1      46.202  34.576  25.931  1.00  0.00     0.124 S 
ATOM     57  O   UNL A   1      45.498  34.022  24.781  1.00  0.00    -0.237 OA
ATOM     58  O   UNL A   1      45.379  34.986  27.063  1.00  0.00    -0.237 OA
ATOM     59  O   UNL A   1      47.284  35.504  25.598  1.00  0.00    -0.744 OA
ENDBRANCH  52  56
ENDBRANCH  25  49
BRANCH  37  60
ATOM     60  C   UNL A   1      45.860  26.081  31.613  1.00  0.00     0.023 A 
ATOM     61  C   UNL A   1      44.720  26.653  32.226  1.00  0.00     0.031 A 
ATOM     62  C   UNL A   1      46.959  25.777  32.437  1.00  0.00     0.131 A 
ATOM     63  C   UNL A   1      44.719  26.903  33.615  1.00  0.00     0.055 A 
ATOM     64  C   UNL A   1      46.945  26.007  33.811  1.00  0.00     0.041 A 
ATOM     65  F   UNL A   1      48.059  25.206  31.921  1.00  0.00    -0.206 F 
ATOM     66  C   UNL A   1      45.826  26.576  34.405  1.00  0.00     0.022 A 
BRANCH  63  67
ATOM     67  S   UNL A   1      43.281  27.675  34.429  1.00  0.00     0.124 S 
ATOM     68  O   UNL A   1      43.882  28.538  35.439  1.00  0.00    -0.237 OA
ATOM     69  O   UNL A   1      42.617  28.353  33.319  1.00  0.00    -0.237 OA
ATOM     70  O   UNL A   1      42.542  26.531  34.968  1.00  0.00    -0.744 OA
ENDBRANCH  63  67
ENDBRANCH  37  60
ENDBRANCH  11  12
ENDBRANCH   4   6
ENDBRANCH   3   4
ENDBRANCH   2   3
ENDBRANCH   1   2
BRANCH   1  71
ATOM     71  O   UNL A   1      32.288  30.083  26.601  1.00  0.00    -0.374 OA
BRANCH  71  72
ATOM     72  C   UNL A   1      32.421  29.424  25.333  1.00  0.00     0.202 C 
BRANCH  72  73
ATOM     73  C   UNL A   1      31.233  29.365  24.354  1.00  0.00     0.261 C 
BRANCH  73  74
ATOM     74  O   UNL A   1      30.546  28.101  24.345  1.00  0.00    -0.460 OA
BRANCH  74  75
ATOM     75  C   UNL A   1      30.615  27.413  23.173  1.00  0.00     0.338 C 
ATOM     76  O   UNL A   1      30.340  27.814  22.066  1.00  0.00    -0.246 OA
BRANCH  75  77
ATOM     77  C   UNL A   1      31.322  26.136  23.414  1.00  0.00     0.060 A 
ATOM     78  C   UNL A   1      31.858  25.470  22.305  1.00  0.00     0.016 A 
ATOM     79  C   UNL A   1      31.460  25.602  24.692  1.00  0.00     0.016 A 
ATOM     80  C   UNL A   1      32.553  24.277  22.475  1.00  0.00     0.005 A 
ATOM     81  C   UNL A   1      32.106  24.373  24.852  1.00  0.00     0.005 A 
ATOM     82  C   UNL A   1      32.667  23.699  23.748  1.00  0.00    -0.038 A 
BRANCH  82  83
ATOM     83  C   UNL A   1      33.305  22.322  23.850  1.00  0.00     0.081 C 
ATOM     84  C   UNL A   1      32.811  21.590  25.115  1.00  0.00     0.111 C 
ATOM     85  C   UNL A   1      34.774  22.508  23.867  1.00  0.00     0.093 A 
ATOM     86  C   UNL A   1      33.832  21.493  26.237  1.00  0.00     0.188 C 
ATOM     87  C   UNL A   1      35.527  22.162  24.965  1.00  0.00     0.164 A 
ATOM     88  N   UNL A   1      35.531  23.100  22.896  1.00  0.00    -0.238 NA
ATOM     89  N   UNL A   1      35.107  21.696  26.167  1.00  0.00    -0.198 NA
ATOM     90  N   UNL A   1      36.810  22.573  24.661  1.00  0.00    -0.283 N 
ATOM     91  C   UNL A   1      36.737  23.175  23.423  1.00  0.00     0.206 A 
BRANCH  86  92
ATOM     92  O   UNL A   1      33.313  21.097  27.417  1.00  0.00    -0.496 OA
ATOM     93  H   UNL A   1      32.591  21.564  27.792  1.00  0.00     0.294 HD
ENDBRANCH  86  92
BRANCH  90  94
ATOM     94  C   UNL A   1      37.946  22.442  25.484  1.00  0.00     0.050 A 
ATOM     95  C   UNL A   1      38.302  23.473  26.361  1.00  0.00     0.027 A 
ATOM     96  C   UNL A   1      38.684  21.253  25.438  1.00  0.00     0.047 A 
ATOM     97  C   UNL A   1      39.376  23.283  27.233  1.00  0.00     0.004 A 
ATOM     98  C   UNL A   1      39.784  21.101  26.275  1.00  0.00     0.043 A 
ATOM     99  C   UNL A   1      40.121  22.101  27.184  1.00  0.00     0.020 A 
ATOM    100  Cl  UNL A   1      40.736  19.670  26.182  1.00  0.00    -0.084 Cl
ENDBRANCH  90  94
ENDBRANCH  82  83
ENDBRANCH  75  77
ENDBRANCH  74  75
ENDBRANCH  73  74
ENDBRANCH  72  73
ENDBRANCH  71  72
ENDBRANCH   1  71
TORSDOF 20
ENDMDL
MODEL 2
REMARK VINA RESULT:     -12.4      2.426      6.844
REMARK SMILES O=C(OCCOCCOC(=O)c1ccc([C@@H]2CC(O)=Nc3c2ncn3-c2cccc(Cl)c2)cc1)c1ccc(-c2c3nc(c(-c4cc(S(=O)(=O)[O-])ccc4F)c4ccc([nH]4)c(-c4cc(S(=O)(=O)[O-])ccc4F)c4nc(c(-c5cc(S(=O)(=O)[O-])ccc5F)c5ccc2[nH]5)C=C4)C=C3)cc1
REMARK SMILES IDX 5 1 4 2 3 3 2 4 1 5 35 6 36 7 97 8 37 9 96 10 38 11 39 12
REMARK SMILES IDX 40 13 90 14 41 15 95 16 89 17 91 18 42 19 94 20 88 21 87 22
REMARK SMILES IDX 43 24 75 25 55 26 74 27 56 28 59 29 73 30 92 31 57 32 58 33
REMARK SMILES IDX 72 35 93 36 60 37 44 38 45 39 53 40 46 41 52 42 54 43 51 44
REMARK SMILES IDX 47 45 48 46 49 47 50 48 76 49 77 50 85 51 78 52 84 53 86 54
REMARK SMILES IDX 83 55 79 56 80 57 81 58 82 59 61 60 62 61 70 62 63 63 69 64
REMARK SMILES IDX 71 65 68 66 64 67 65 68 66 69 67 70 6 71 7 72 8 73 9 74
REMARK SMILES IDX 10 75 11 76 12 77 13 78 34 79 14 80 33 81 15 82 16 83 17 84
REMARK SMILES IDX 22 85 18 86 21 87 23 88 20 89 25 90 24 91 19 92 26 94 27 95
REMARK SMILES IDX 32 96 28 97 30 98 29 99 31 100
REMARK H PARENT 91 23 59 34 19 93
REMARK Flexibility Score: inf
ROOT
ATOM      1  C   UNL A   1      33.600  29.175  27.287  1.00  0.00     0.202 C 
ENDROOT
BRANCH   1   2
ATOM      2  C   UNL A   1      33.845  30.675  27.420  1.00  0.00     0.261 C 
BRANCH   2   3
ATOM      3  O   UNL A   1      35.218  31.067  27.270  1.00  0.00    -0.460 OA
BRANCH   3   4
ATOM      4  C   UNL A   1      35.935  31.737  28.198  1.00  0.00     0.338 C 
ATOM      5  O   UNL A   1      35.599  32.871  28.536  1.00  0.00    -0.246 OA
BRANCH   4   6
ATOM      6  C   UNL A   1      36.974  31.016  28.977  1.00  0.00     0.060 A 
ATOM      7  C   UNL A   1      38.138  31.597  29.478  1.00  0.00     0.016 A 
ATOM      8  C   UNL A   1      36.819  29.623  29.046  1.00  0.00     0.016 A 
ATOM      9  C   UNL A   1      39.239  30.810  29.727  1.00  0.00     0.010 A 
ATOM     10  C   UNL A   1      37.900  28.824  29.363  1.00  0.00     0.010 A 
ATOM     11  C   UNL A   1      39.129  29.432  29.580  1.00  0.00    -0.014 A 
BRANCH  11  12
ATOM     12  C   UNL A   1      40.329  28.649  29.783  1.00  0.00     0.031 A 
ATOM     13  C   UNL A   1      40.688  28.526  31.215  1.00  0.00     0.074 A 
ATOM     14  C   UNL A   1      40.982  28.063  28.763  1.00  0.00     0.049 A 
ATOM     15  N   UNL A   1      41.686  29.071  31.828  1.00  0.00    -0.248 NA
ATOM     16  C   UNL A   1      39.684  27.936  32.117  1.00  0.00     0.031 C 
ATOM     17  C   UNL A   1      40.573  27.972  27.359  1.00  0.00     0.029 A 
ATOM     18  N   UNL A   1      42.121  27.326  28.788  1.00  0.00    -0.354 N 
ATOM     19  C   UNL A   1      41.578  28.654  33.151  1.00  0.00     0.074 A 
ATOM     20  C   UNL A   1      40.229  28.192  33.306  1.00  0.00     0.031 C 
ATOM     21  C   UNL A   1      41.302  27.012  26.745  1.00  0.00     0.029 A 
ATOM     22  C   UNL A   1      42.310  26.519  27.671  1.00  0.00     0.049 A 
ATOM     23  H   UNL A   1      42.761  27.358  29.536  1.00  0.00     0.167 HD
ATOM     24  C   UNL A   1      42.694  28.444  33.901  1.00  0.00     0.034 A 
ATOM     25  C   UNL A   1      43.172  25.470  27.562  1.00  0.00     0.034 A 
ATOM     26  C   UNL A   1      43.831  29.139  33.326  1.00  0.00     0.049 A 
ATOM     27  C   UNL A   1      44.211  25.671  28.608  1.00  0.00     0.074 A 
ATOM     28  C   UNL A   1      44.100  30.461  33.024  1.00  0.00     0.029 A 
ATOM     29  N   UNL A   1      44.748  28.404  32.601  1.00  0.00    -0.354 N 
ATOM     30  N   UNL A   1      45.052  26.672  28.587  1.00  0.00    -0.248 NA
ATOM     31  C   UNL A   1      43.977  25.092  29.926  1.00  0.00     0.031 C 
ATOM     32  C   UNL A   1      44.797  30.421  31.780  1.00  0.00     0.029 A 
ATOM     33  C   UNL A   1      45.004  29.084  31.436  1.00  0.00     0.049 A 
ATOM     34  H   UNL A   1      45.148  27.546  32.872  1.00  0.00     0.167 HD
ATOM     35  C   UNL A   1      45.105  27.127  29.899  1.00  0.00     0.074 A 
ATOM     36  C   UNL A   1      44.489  26.062  30.692  1.00  0.00     0.031 C 
ATOM     37  C   UNL A   1      45.362  28.439  30.185  1.00  0.00     0.034 A 
BRANCH  24  38
ATOM     38  C   UNL A   1      42.860  27.262  34.841  1.00  0.00     0.023 A 
ATOM     39  C   UNL A   1      43.735  26.249  34.407  1.00  0.00     0.031 A 
ATOM     40  C   UNL A   1      42.009  26.909  35.913  1.00  0.00     0.131 A 
ATOM     41  C   UNL A   1      43.601  24.933  34.873  1.00  0.00     0.055 A 
ATOM     42  C   UNL A   1      41.925  25.609  36.421  1.00  0.00     0.041 A 
ATOM     43  F   UNL A   1      41.162  27.763  36.493  1.00  0.00    -0.206 F 
ATOM     44  C   UNL A   1      42.689  24.600  35.868  1.00  0.00     0.022 A 
BRANCH  41  45
ATOM     45  S   UNL A   1      44.489  23.634  33.981  1.00  0.00     0.124 S 
ATOM     46  O   UNL A   1      44.848  22.737  35.073  1.00  0.00    -0.237 OA
ATOM     47  O   UNL A   1      43.464  23.154  33.060  1.00  0.00    -0.237 OA
ATOM     48  O   UNL A   1      45.601  24.351  33.363  1.00  0.00    -0.744 OA
ENDBRANCH  41  45
ENDBRANCH  24  38
BRANCH  25  49
ATOM     49  C   UNL A   1      42.895  24.158  26.898  1.00  0.00     0.023 A 
ATOM     50  C   UNL A   1      43.788  23.539  25.992  1.00  0.00     0.031 A 
ATOM     51  C   UNL A   1      41.807  23.369  27.340  1.00  0.00     0.131 A 
ATOM     52  C   UNL A   1      43.566  22.203  25.567  1.00  0.00     0.055 A 
ATOM     53  C   UNL A   1      41.593  22.055  26.916  1.00  0.00     0.041 A 
ATOM     54  F   UNL A   1      40.951  23.820  28.269  1.00  0.00    -0.206 F 
ATOM     55  C   UNL A   1      42.478  21.462  26.034  1.00  0.00     0.022 A 
BRANCH  52  56
ATOM     56  S   UNL A   1      44.739  21.365  24.446  1.00  0.00     0.124 S 
ATOM     57  O   UNL A   1      46.011  21.544  25.137  1.00  0.00    -0.237 OA
ATOM     58  O   UNL A   1      44.212  20.007  24.395  1.00  0.00    -0.237 OA
ATOM     59  O   UNL A   1      44.612  22.115  23.195  1.00  0.00    -0.744 OA
ENDBRANCH  52  56
ENDBRANCH  25  49
BRANCH  37  60
ATOM     60  C   UNL A   1      45.877  29.339  29.080  1.00  0.00     0.023 A 
ATOM     61  C   UNL A   1      45.119  30.323  28.404  1.00  0.00     0.031 A 
ATOM     62  C   UNL A   1      47.255  29.271  28.800  1.00  0.00     0.131 A 
ATOM     63  C   UNL A   1      45.749  31.186  27.482  1.00  0.00     0.055 A 
ATOM     64  C   UNL A   1      47.875  30.139  27.905  1.00  0.00     0.041 A 
ATOM     65  F   UNL A   1      48.035  28.378  29.431  1.00  0.00    -0.206 F 
ATOM     66  C   UNL A   1      47.123  31.097  27.238  1.00  0.00     0.022 A 
BRANCH  63  67
ATOM     67  S   UNL A   1      44.792  32.439  26.565  1.00  0.00     0.124 S 
ATOM     68  O   UNL A   1      44.226  33.275  27.616  1.00  0.00    -0.237 OA
ATOM     69  O   UNL A   1      45.813  33.064  25.728  1.00  0.00    -0.237 OA
ATOM     70  O   UNL A   1      43.810  31.642  25.826  1.00  0.00    -0.744 OA
ENDBRANCH  63  67
ENDBRANCH  37  60
ENDBRANCH  11  12
ENDBRANCH   4   6
ENDBRANCH   3   4
ENDBRANCH   2   3
ENDBRANCH   1   2
BRANCH   1  71
ATOM     71  O   UNL A   1      32.731  28.694  26.270  1.00  0.00    -0.374 OA
BRANCH  71  72
ATOM     72  C   UNL A   1      31.685  29.569  25.825  1.00  0.00     0.202 C 
BRANCH  72  73
ATOM     73  C   UNL A   1      31.484  29.846  24.323  1.00  0.00     0.261 C 
BRANCH  73  74
ATOM     74  O   UNL A   1      30.116  29.739  23.887  1.00  0.00    -0.460 OA
BRANCH  74  75
ATOM     75  C   UNL A   1      29.932  29.051  22.727  1.00  0.00     0.338 C 
ATOM     76  O   UNL A   1      29.745  29.504  21.623  1.00  0.00    -0.246 OA
BRANCH  75  77
ATOM     77  C   UNL A   1      30.235  27.623  22.970  1.00  0.00     0.060 A 
ATOM     78  C   UNL A   1      29.578  26.990  24.033  1.00  0.00     0.016 A 
ATOM     79  C   UNL A   1      31.136  26.918  22.178  1.00  0.00     0.016 A 
ATOM     80  C   UNL A   1      29.807  25.643  24.294  1.00  0.00     0.005 A 
ATOM     81  C   UNL A   1      31.409  25.581  22.479  1.00  0.00     0.005 A 
ATOM     82  C   UNL A   1      30.743  24.924  23.535  1.00  0.00    -0.038 A 
BRANCH  82  83
ATOM     83  C   UNL A   1      31.061  23.499  23.962  1.00  0.00     0.081 C 
ATOM     84  C   UNL A   1      30.773  23.309  25.465  1.00  0.00     0.111 C 
ATOM     85  C   UNL A   1      32.483  23.241  23.642  1.00  0.00     0.093 A 
ATOM     86  C   UNL A   1      32.009  23.217  26.346  1.00  0.00     0.188 C 
ATOM     87  C   UNL A   1      33.405  22.993  24.632  1.00  0.00     0.164 A 
ATOM     88  N   UNL A   1      33.064  23.303  22.408  1.00  0.00    -0.238 NA
ATOM     89  N   UNL A   1      33.230  23.009  25.976  1.00  0.00    -0.198 NA
ATOM     90  N   UNL A   1      34.618  22.911  23.976  1.00  0.00    -0.283 N 
ATOM     91  C   UNL A   1      34.353  23.156  22.646  1.00  0.00     0.206 A 
BRANCH  86  92
ATOM     92  O   UNL A   1      31.750  23.320  27.665  1.00  0.00    -0.496 OA
ATOM     93  H   UNL A   1      31.173  22.708  28.078  1.00  0.00     0.294 HD
ENDBRANCH  86  92
BRANCH  90  94
ATOM     94  C   UNL A   1      35.875  22.674  24.568  1.00  0.00     0.050 A 
ATOM     95  C   UNL A   1      36.565  23.718  25.193  1.00  0.00     0.027 A 
ATOM     96  C   UNL A   1      36.396  21.375  24.558  1.00  0.00     0.047 A 
ATOM     97  C   UNL A   1      37.763  23.440  25.855  1.00  0.00     0.004 A 
ATOM     98  C   UNL A   1      37.617  21.125  25.174  1.00  0.00     0.043 A 
ATOM     99  C   UNL A   1      38.293  22.147  25.838  1.00  0.00     0.020 A 
ATOM    100  Cl  UNL A   1      38.298  19.546  25.111  1.00  0.00    -0.084 Cl
ENDBRANCH  90  94
ENDBRANCH  82  83
ENDBRANCH  75  77
ENDBRANCH  74  75
ENDBRANCH  73  74
ENDBRANCH  72  73
ENDBRANCH  71  72
ENDBRANCH   1  71
TORSDOF 20
ENDMDL
MODEL 3
REMARK VINA RESULT:     -12.3      1.609      2.710
REMARK SMILES O=C(OCCOCCOC(=O)c1ccc([C@@H]2CC(O)=Nc3c2ncn3-c2cccc(Cl)c2)cc1)c1ccc(-c2c3nc(c(-c4cc(S(=O)(=O)[O-])ccc4F)c4ccc([nH]4)c(-c4cc(S(=O)(=O)[O-])ccc4F)c4nc(c(-c5cc(S(=O)(=O)[O-])ccc5F)c5ccc2[nH]5)C=C4)C=C3)cc1
REMARK SMILES IDX 5 1 4 2 3 3 2 4 1 5 35 6 36 7 97 8 37 9 96 10 38 11 39 12
REMARK SMILES IDX 40 13 90 14 41 15 95 16 89 17 91 18 42 19 94 20 88 21 87 22
REMARK SMILES IDX 43 24 75 25 55 26 74 27 56 28 59 29 73 30 92 31 57 32 58 33
REMARK SMILES IDX 72 35 93 36 60 37 44 38 45 39 53 40 46 41 52 42 54 43 51 44
REMARK SMILES IDX 47 45 48 46 49 47 50 48 76 49 77 50 85 51 78 52 84 53 86 54
REMARK SMILES IDX 83 55 79 56 80 57 81 58 82 59 61 60 62 61 70 62 63 63 69 64
REMARK SMILES IDX 71 65 68 66 64 67 65 68 66 69 67 70 6 71 7 72 8 73 9 74
REMARK SMILES IDX 10 75 11 76 12 77 13 78 34 79 14 80 33 81 15 82 16 83 17 84
REMARK SMILES IDX 22 85 18 86 21 87 23 88 20 89 25 90 24 91 19 92 26 94 27 95
REMARK SMILES IDX 32 96 28 97 30 98 29 99 31 100
REMARK H PARENT 91 23 59 34 19 93
REMARK Flexibility Score: inf
ROOT
ATOM      1  C   UNL A   1      35.909  33.357  30.343  1.00  0.00     0.202 C 
ENDROOT
BRANCH   1   2
ATOM      2  C   UNL A   1      36.372  31.952  30.714  1.00  0.00     0.261 C 
BRANCH   2   3
ATOM      3  O   UNL A   1      36.995  31.230  29.641  1.00  0.00    -0.460 OA
BRANCH   3   4
ATOM      4  C   UNL A   1      36.793  29.923  29.370  1.00  0.00     0.338 C 
ATOM      5  O   UNL A   1      35.649  29.482  29.273  1.00  0.00    -0.246 OA
BRANCH   4   6
ATOM      6  C   UNL A   1      37.942  29.079  28.953  1.00  0.00     0.060 A 
ATOM      7  C   UNL A   1      38.502  28.061  29.723  1.00  0.00     0.016 A 
ATOM      8  C   UNL A   1      38.586  29.476  27.771  1.00  0.00     0.016 A 
ATOM      9  C   UNL A   1      39.810  27.688  29.511  1.00  0.00     0.010 A 
ATOM     10  C   UNL A   1      39.874  29.054  27.511  1.00  0.00     0.010 A 
ATOM     11  C   UNL A   1      40.510  28.259  28.455  1.00  0.00    -0.014 A 
BRANCH  11  12
ATOM     12  C   UNL A   1      41.903  27.891  28.312  1.00  0.00     0.031 A 
ATOM     13  C   UNL A   1      42.076  26.577  27.650  1.00  0.00     0.074 A 
ATOM     14  C   UNL A   1      42.901  28.708  28.695  1.00  0.00     0.049 A 
ATOM     15  N   UNL A   1      42.481  25.472  28.181  1.00  0.00    -0.248 NA
ATOM     16  C   UNL A   1      41.492  26.413  26.307  1.00  0.00     0.031 C 
ATOM     17  C   UNL A   1      42.809  30.093  29.164  1.00  0.00     0.029 A 
ATOM     18  N   UNL A   1      44.242  28.499  28.649  1.00  0.00    -0.354 N 
ATOM     19  C   UNL A   1      42.464  24.538  27.151  1.00  0.00     0.074 A 
ATOM     20  C   UNL A   1      41.627  25.099  26.129  1.00  0.00     0.031 C 
ATOM     21  C   UNL A   1      44.032  30.667  29.098  1.00  0.00     0.029 A 
ATOM     22  C   UNL A   1      45.007  29.659  28.712  1.00  0.00     0.049 A 
ATOM     23  H   UNL A   1      44.639  27.601  28.576  1.00  0.00     0.167 HD
ATOM     24  C   UNL A   1      43.385  23.538  27.111  1.00  0.00     0.034 A 
ATOM     25  C   UNL A   1      46.323  29.783  28.382  1.00  0.00     0.034 A 
ATOM     26  C   UNL A   1      43.971  23.334  28.423  1.00  0.00     0.049 A 
ATOM     27  C   UNL A   1      46.905  28.415  28.459  1.00  0.00     0.074 A 
ATOM     28  C   UNL A   1      43.461  23.018  29.668  1.00  0.00     0.029 A 
ATOM     29  N   UNL A   1      45.229  23.849  28.663  1.00  0.00    -0.354 N 
ATOM     30  N   UNL A   1      47.003  27.750  29.580  1.00  0.00    -0.248 NA
ATOM     31  C   UNL A   1      46.880  27.592  27.256  1.00  0.00     0.031 C 
ATOM     32  C   UNL A   1      44.207  23.815  30.586  1.00  0.00     0.029 A 
ATOM     33  C   UNL A   1      45.194  24.498  29.872  1.00  0.00     0.049 A 
ATOM     34  H   UNL A   1      46.014  23.765  28.073  1.00  0.00     0.167 HD
ATOM     35  C   UNL A   1      46.611  26.455  29.267  1.00  0.00     0.074 A 
ATOM     36  C   UNL A   1      46.629  26.398  27.804  1.00  0.00     0.031 C 
ATOM     37  C   UNL A   1      46.019  25.647  30.198  1.00  0.00     0.034 A 
BRANCH  24  38
ATOM     38  C   UNL A   1      44.081  23.091  25.836  1.00  0.00     0.023 A 
ATOM     39  C   UNL A   1      44.071  21.708  25.582  1.00  0.00     0.031 A 
ATOM     40  C   UNL A   1      45.002  23.842  25.069  1.00  0.00     0.131 A 
ATOM     41  C   UNL A   1      45.059  21.115  24.783  1.00  0.00     0.055 A 
ATOM     42  C   UNL A   1      45.943  23.251  24.221  1.00  0.00     0.041 A 
ATOM     43  F   UNL A   1      45.102  25.172  25.133  1.00  0.00    -0.206 F 
ATOM     44  C   UNL A   1      46.009  21.876  24.111  1.00  0.00     0.022 A 
BRANCH  41  45
ATOM     45  S   UNL A   1      45.206  19.313  24.832  1.00  0.00     0.124 S 
ATOM     46  O   UNL A   1      46.555  19.155  25.367  1.00  0.00    -0.237 OA
ATOM     47  O   UNL A   1      44.111  18.951  25.724  1.00  0.00    -0.237 OA
ATOM     48  O   UNL A   1      45.034  18.923  23.435  1.00  0.00    -0.744 OA
ENDBRANCH  41  45
ENDBRANCH  24  38
BRANCH  25  49
ATOM     49  C   UNL A   1      46.948  30.918  27.635  1.00  0.00     0.023 A 
ATOM     50  C   UNL A   1      46.206  31.970  27.050  1.00  0.00     0.031 A 
ATOM     51  C   UNL A   1      48.351  31.098  27.687  1.00  0.00     0.131 A 
ATOM     52  C   UNL A   1      46.867  33.121  26.547  1.00  0.00     0.055 A 
ATOM     53  C   UNL A   1      48.995  32.233  27.188  1.00  0.00     0.041 A 
ATOM     54  F   UNL A   1      49.146  30.209  28.303  1.00  0.00    -0.206 F 
ATOM     55  C   UNL A   1      48.255  33.254  26.623  1.00  0.00     0.022 A 
BRANCH  52  56
ATOM     56  S   UNL A   1      45.921  34.516  25.843  1.00  0.00     0.124 S 
ATOM     57  O   UNL A   1      45.032  34.876  26.941  1.00  0.00    -0.237 OA
ATOM     58  O   UNL A   1      46.970  35.474  25.514  1.00  0.00    -0.237 OA
ATOM     59  O   UNL A   1      45.252  33.925  24.683  1.00  0.00    -0.744 OA
ENDBRANCH  52  56
ENDBRANCH  25  49
BRANCH  37  60
ATOM     60  C   UNL A   1      46.056  26.066  31.654  1.00  0.00     0.023 A 
ATOM     61  C   UNL A   1      44.974  26.622  32.375  1.00  0.00     0.031 A 
ATOM     62  C   UNL A   1      47.226  25.754  32.373  1.00  0.00     0.131 A 
ATOM     63  C   UNL A   1      45.095  26.851  33.762  1.00  0.00     0.055 A 
ATOM     64  C   UNL A   1      47.333  25.962  33.745  1.00  0.00     0.041 A 
ATOM     65  F   UNL A   1      48.278  25.196  31.752  1.00  0.00    -0.206 F 
ATOM     66  C   UNL A   1      46.269  26.517  34.446  1.00  0.00     0.022 A 
BRANCH  63  67
ATOM     67  S   UNL A   1      43.733  27.603  34.713  1.00  0.00     0.124 S 
ATOM     68  O   UNL A   1      42.551  26.890  34.242  1.00  0.00    -0.237 OA
ATOM     69  O   UNL A   1      44.130  27.342  36.094  1.00  0.00    -0.237 OA
ATOM     70  O   UNL A   1      43.787  29.014  34.324  1.00  0.00    -0.744 OA
ENDBRANCH  63  67
ENDBRANCH  37  60
ENDBRANCH  11  12
ENDBRANCH   4   6
ENDBRANCH   3   4
ENDBRANCH   2   3
ENDBRANCH   1   2
BRANCH   1  71
ATOM     71  O   UNL A   1      35.524  33.639  29.004  1.00  0.00    -0.374 OA
BRANCH  71  72
ATOM     72  C   UNL A   1      34.266  33.116  28.554  1.00  0.00     0.202 C 
BRANCH  72  73
ATOM     73  C   UNL A   1      34.217  31.969  27.527  1.00  0.00     0.261 C 
BRANCH  73  74
ATOM     74  O   UNL A   1      33.220  30.971  27.813  1.00  0.00    -0.460 OA
BRANCH  74  75
ATOM     75  C   UNL A   1      32.117  31.011  27.017  1.00  0.00     0.338 C 
ATOM     76  O   UNL A   1      31.540  31.990  26.606  1.00  0.00    -0.246 OA
BRANCH  75  77
ATOM     77  C   UNL A   1      31.847  29.647  26.512  1.00  0.00     0.060 A 
ATOM     78  C   UNL A   1      31.408  29.518  25.189  1.00  0.00     0.016 A 
ATOM     79  C   UNL A   1      32.020  28.520  27.311  1.00  0.00     0.016 A 
ATOM     80  C   UNL A   1      31.161  28.258  24.654  1.00  0.00     0.005 A 
ATOM     81  C   UNL A   1      31.714  27.260  26.789  1.00  0.00     0.005 A 
ATOM     82  C   UNL A   1      31.288  27.112  25.453  1.00  0.00    -0.038 A 
BRANCH  82  83
ATOM     83  C   UNL A   1      30.860  25.779  24.858  1.00  0.00     0.081 C 
ATOM     84  C   UNL A   1      30.132  24.924  25.916  1.00  0.00     0.111 C 
ATOM     85  C   UNL A   1      32.076  25.101  24.354  1.00  0.00     0.093 A 
ATOM     86  C   UNL A   1      30.936  23.752  26.455  1.00  0.00     0.188 C 
ATOM     87  C   UNL A   1      32.513  23.916  24.898  1.00  0.00     0.164 A 
ATOM     88  N   UNL A   1      32.935  25.573  23.402  1.00  0.00    -0.238 NA
ATOM     89  N   UNL A   1      32.011  23.234  25.956  1.00  0.00    -0.198 NA
ATOM     90  N   UNL A   1      33.709  23.651  24.259  1.00  0.00    -0.283 N 
ATOM     91  C   UNL A   1      33.932  24.711  23.406  1.00  0.00     0.206 A 
BRANCH  86  92
ATOM     92  O   UNL A   1      30.404  23.181  27.554  1.00  0.00    -0.496 OA
ATOM     93  H   UNL A   1      30.607  23.521  28.404  1.00  0.00     0.294 HD
ENDBRANCH  86  92
BRANCH  90  94
ATOM     94  C   UNL A   1      34.547  22.540  24.482  1.00  0.00     0.050 A 
ATOM     95  C   UNL A   1      35.904  22.729  24.763  1.00  0.00     0.027 A 
ATOM     96  C   UNL A   1      33.992  21.255  24.459  1.00  0.00     0.047 A 
ATOM     97  C   UNL A   1      36.695  21.621  25.072  1.00  0.00     0.004 A 
ATOM     98  C   UNL A   1      34.804  20.157  24.716  1.00  0.00     0.043 A 
ATOM     99  C   UNL A   1      36.147  20.335  25.041  1.00  0.00     0.020 A 
ATOM    100  Cl  UNL A   1      34.146  18.569  24.627  1.00  0.00    -0.084 Cl
ENDBRANCH  90  94
ENDBRANCH  82  83
ENDBRANCH  75  77
ENDBRANCH  74  75
ENDBRANCH  73  74
ENDBRANCH  72  73
ENDBRANCH  71  72
ENDBRANCH   1  71
TORSDOF 20
ENDMDL
