MODEL 1
REMARK VINA RESULT:     -12.3      0.000      0.000
REMARK SMILES O=C(OCCOCCOC(=O)[C@@H]1CCCC[C@H]1C(=O)Nc1ccccc1C(=O)N1CCOCC1)c1ccc(-c2c3nc(c(-c4cc(S(=O)(=O)[O-])ccc4F)c4ccc([nH]4)c(-c4cc(S(=O)(=O)[O-])ccc4F)c4nc(c(-c5cc(S(=O)(=O)[O-])ccc5F)c5ccc2[nH]5)C=C4)C=C3)cc1
REMARK SMILES IDX 6 1 5 2 4 3 3 4 2 5 1 6 35 7 36 8 97 9 37 10 96 11 38 12
REMARK SMILES IDX 39 13 40 14 90 15 41 16 95 17 89 18 91 19 42 20 94 21 88 22
REMARK SMILES IDX 87 23 43 25 75 26 55 27 74 28 56 29 59 30 73 31 92 32 57 33
REMARK SMILES IDX 58 34 72 36 93 37 60 38 44 39 45 40 53 41 46 42 52 43 54 44
REMARK SMILES IDX 51 45 47 46 48 47 49 48 50 49 76 50 77 51 85 52 78 53 84 54
REMARK SMILES IDX 86 55 83 56 79 57 80 58 81 59 82 60 61 61 62 62 70 63 63 64
REMARK SMILES IDX 69 65 71 66 68 67 64 68 65 69 66 70 67 71 7 72 8 73 9 74
REMARK SMILES IDX 10 75 11 76 12 77 13 78 17 79 14 80 16 81 15 82 18 83 19 84
REMARK SMILES IDX 20 85 21 87 22 88 26 89 23 90 25 91 24 92 27 93 28 94 29 95
REMARK SMILES IDX 30 96 34 97 31 98 33 99 32 100
REMARK H PARENT 91 24 59 35 20 86
REMARK Flexibility Score: inf
ROOT
ATOM      1  O   UNL A   1      37.860  21.415  24.998  1.00  0.00    -0.374 OA
ENDROOT
BRANCH   1   2
ATOM      2  C   UNL A   1      37.603  20.008  24.958  1.00  0.00     0.202 C 
BRANCH   2   3
ATOM      3  C   UNL A   1      38.772  19.076  25.303  1.00  0.00     0.261 C 
BRANCH   3   4
ATOM      4  O   UNL A   1      39.506  19.535  26.449  1.00  0.00    -0.460 OA
BRANCH   4   5
ATOM      5  C   UNL A   1      40.714  20.155  26.429  1.00  0.00     0.338 C 
ATOM      6  O   UNL A   1      41.675  19.591  25.910  1.00  0.00    -0.246 OA
BRANCH   5   7
ATOM      7  C   UNL A   1      40.895  21.534  26.962  1.00  0.00     0.060 A 
ATOM      8  C   UNL A   1      40.265  22.654  26.429  1.00  0.00     0.016 A 
ATOM      9  C   UNL A   1      41.732  21.711  28.069  1.00  0.00     0.016 A 
ATOM     10  C   UNL A   1      40.563  23.925  26.840  1.00  0.00     0.010 A 
ATOM     11  C   UNL A   1      41.985  22.998  28.556  1.00  0.00     0.010 A 
ATOM     12  C   UNL A   1      41.431  24.106  27.901  1.00  0.00    -0.014 A 
BRANCH  12  13
ATOM     13  C   UNL A   1      41.884  25.485  28.102  1.00  0.00     0.031 A 
ATOM     14  C   UNL A   1      43.186  25.867  27.473  1.00  0.00     0.074 A 
ATOM     15  C   UNL A   1      41.026  26.391  28.606  1.00  0.00     0.049 A 
ATOM     16  N   UNL A   1      43.850  26.982  27.558  1.00  0.00    -0.248 NA
ATOM     17  C   UNL A   1      43.823  24.847  26.620  1.00  0.00     0.031 C 
ATOM     18  C   UNL A   1      39.642  26.110  29.012  1.00  0.00     0.029 A 
ATOM     19  N   UNL A   1      41.161  27.733  28.805  1.00  0.00    -0.354 N 
ATOM     20  C   UNL A   1      45.015  26.775  26.828  1.00  0.00     0.074 A 
ATOM     21  C   UNL A   1      44.965  25.432  26.301  1.00  0.00     0.031 C 
ATOM     22  C   UNL A   1      39.052  27.256  29.381  1.00  0.00     0.029 A 
ATOM     23  C   UNL A   1      40.044  28.320  29.350  1.00  0.00     0.049 A 
ATOM     24  H   UNL A   1      41.980  28.232  28.582  1.00  0.00     0.167 HD
ATOM     25  C   UNL A   1      46.037  27.644  26.650  1.00  0.00     0.034 A 
ATOM     26  C   UNL A   1      39.883  29.567  29.825  1.00  0.00     0.034 A 
ATOM     27  C   UNL A   1      46.003  28.973  27.203  1.00  0.00     0.049 A 
ATOM     28  C   UNL A   1      41.084  30.475  29.738  1.00  0.00     0.074 A 
ATOM     29  C   UNL A   1      46.986  29.942  27.203  1.00  0.00     0.029 A 
ATOM     30  N   UNL A   1      44.901  29.517  27.863  1.00  0.00    -0.354 N 
ATOM     31  N   UNL A   1      42.257  30.240  29.188  1.00  0.00    -0.248 NA
ATOM     32  C   UNL A   1      40.952  31.800  30.342  1.00  0.00     0.031 C 
ATOM     33  C   UNL A   1      46.506  31.038  27.930  1.00  0.00     0.029 A 
ATOM     34  C   UNL A   1      45.189  30.796  28.298  1.00  0.00     0.049 A 
ATOM     35  H   UNL A   1      44.043  29.055  27.999  1.00  0.00     0.167 HD
ATOM     36  C   UNL A   1      42.995  31.405  29.351  1.00  0.00     0.074 A 
ATOM     37  C   UNL A   1      42.122  32.342  30.036  1.00  0.00     0.031 C 
ATOM     38  C   UNL A   1      44.272  31.686  28.978  1.00  0.00     0.034 A 
BRANCH  25  39
ATOM     39  C   UNL A   1      47.276  27.110  25.975  1.00  0.00     0.023 A 
ATOM     40  C   UNL A   1      48.235  26.337  26.654  1.00  0.00     0.031 A 
ATOM     41  C   UNL A   1      47.566  27.503  24.656  1.00  0.00     0.131 A 
ATOM     42  C   UNL A   1      49.473  26.067  26.046  1.00  0.00     0.055 A 
ATOM     43  C   UNL A   1      48.760  27.152  24.025  1.00  0.00     0.041 A 
ATOM     44  F   UNL A   1      46.711  28.278  23.970  1.00  0.00    -0.206 F 
ATOM     45  C   UNL A   1      49.731  26.446  24.727  1.00  0.00     0.022 A 
BRANCH  42  46
ATOM     46  S   UNL A   1      50.813  25.385  27.065  1.00  0.00     0.124 S 
ATOM     47  O   UNL A   1      50.100  24.389  27.861  1.00  0.00    -0.237 OA
ATOM     48  O   UNL A   1      51.736  24.861  26.066  1.00  0.00    -0.237 OA
ATOM     49  O   UNL A   1      51.297  26.542  27.817  1.00  0.00    -0.744 OA
ENDBRANCH  42  46
ENDBRANCH  25  39
BRANCH  26  50
ATOM     50  C   UNL A   1      38.616  29.986  30.492  1.00  0.00     0.023 A 
ATOM     51  C   UNL A   1      37.619  30.686  29.793  1.00  0.00     0.031 A 
ATOM     52  C   UNL A   1      38.402  29.746  31.864  1.00  0.00     0.131 A 
ATOM     53  C   UNL A   1      36.486  31.162  30.473  1.00  0.00     0.055 A 
ATOM     54  C   UNL A   1      37.242  30.163  32.522  1.00  0.00     0.041 A 
ATOM     55  F   UNL A   1      39.320  29.093  32.594  1.00  0.00    -0.206 F 
ATOM     56  C   UNL A   1      36.283  30.892  31.829  1.00  0.00     0.022 A 
BRANCH  53  57
ATOM     57  S   UNL A   1      35.331  32.243  29.587  1.00  0.00     0.124 S 
ATOM     58  O   UNL A   1      36.215  33.308  29.127  1.00  0.00    -0.237 OA
ATOM     59  O   UNL A   1      34.811  31.351  28.556  1.00  0.00    -0.237 OA
ATOM     60  O   UNL A   1      34.369  32.631  30.616  1.00  0.00    -0.744 OA
ENDBRANCH  53  57
ENDBRANCH  26  50
BRANCH  38  61
ATOM     61  C   UNL A   1      44.750  33.087  29.247  1.00  0.00     0.023 A 
ATOM     62  C   UNL A   1      44.647  34.102  28.283  1.00  0.00     0.031 A 
ATOM     63  C   UNL A   1      45.333  33.399  30.488  1.00  0.00     0.131 A 
ATOM     64  C   UNL A   1      45.190  35.364  28.548  1.00  0.00     0.055 A 
ATOM     65  C   UNL A   1      45.797  34.680  30.776  1.00  0.00     0.041 A 
ATOM     66  F   UNL A   1      45.456  32.461  31.441  1.00  0.00    -0.206 F 
ATOM     67  C   UNL A   1      45.743  35.667  29.796  1.00  0.00     0.022 A 
BRANCH  64  68
ATOM     68  S   UNL A   1      45.283  36.565  27.194  1.00  0.00     0.124 S 
ATOM     69  O   UNL A   1      46.177  37.577  27.748  1.00  0.00    -0.237 OA
ATOM     70  O   UNL A   1      45.827  35.763  26.103  1.00  0.00    -0.237 OA
ATOM     71  O   UNL A   1      43.895  36.990  27.019  1.00  0.00    -0.744 OA
ENDBRANCH  64  68
ENDBRANCH  38  61
ENDBRANCH  12  13
ENDBRANCH   5   7
ENDBRANCH   4   5
ENDBRANCH   3   4
ENDBRANCH   2   3
ENDBRANCH   1   2
BRANCH   1  72
ATOM     72  C   UNL A   1      36.813  22.295  24.602  1.00  0.00     0.202 C 
BRANCH  72  73
ATOM     73  C   UNL A   1      36.347  23.256  25.704  1.00  0.00     0.261 C 
BRANCH  73  74
ATOM     74  O   UNL A   1      35.368  24.227  25.250  1.00  0.00    -0.463 OA
BRANCH  74  75
ATOM     75  C   UNL A   1      34.256  24.280  26.034  1.00  0.00     0.309 C 
ATOM     76  O   UNL A   1      34.095  23.553  26.980  1.00  0.00    -0.252 OA
BRANCH  75  77
ATOM     77  C   UNL A   1      33.273  25.372  25.675  1.00  0.00     0.111 C 
ATOM     78  C   UNL A   1      33.901  26.665  26.253  1.00  0.00     0.016 C 
ATOM     79  C   UNL A   1      31.827  25.241  26.277  1.00  0.00     0.093 C 
ATOM     80  C   UNL A   1      33.115  27.898  25.866  1.00  0.00     0.001 C 
ATOM     81  C   UNL A   1      31.035  26.498  25.851  1.00  0.00     0.014 C 
ATOM     82  C   UNL A   1      31.682  27.778  26.356  1.00  0.00     0.001 C 
BRANCH  79  83
ATOM     83  C   UNL A   1      30.747  24.122  26.177  1.00  0.00     0.228 C 
ATOM     84  O   UNL A   1      29.932  24.013  27.107  1.00  0.00    -0.274 OA
ATOM     85  N   UNL A   1      30.454  23.403  25.064  1.00  0.00    -0.325 N 
ATOM     86  H   UNL A   1      29.582  22.944  25.044  1.00  0.00     0.169 HD
BRANCH  85  87
ATOM     87  C   UNL A   1      31.265  23.256  23.958  1.00  0.00     0.054 A 
ATOM     88  C   UNL A   1      31.223  24.315  23.038  1.00  0.00     0.027 A 
ATOM     89  C   UNL A   1      32.211  22.237  23.870  1.00  0.00     0.063 A 
ATOM     90  C   UNL A   1      32.294  24.517  22.179  1.00  0.00     0.002 A 
ATOM     91  C   UNL A   1      33.306  22.481  23.017  1.00  0.00     0.016 A 
ATOM     92  C   UNL A   1      33.372  23.639  22.223  1.00  0.00     0.001 A 
BRANCH  89  93
ATOM     93  C   UNL A   1      32.088  20.874  24.538  1.00  0.00     0.256 C 
ATOM     94  O   UNL A   1      31.517  20.847  25.631  1.00  0.00    -0.269 OA
ATOM     95  N   UNL A   1      32.782  19.747  24.036  1.00  0.00    -0.334 N 
ATOM     96  C   UNL A   1      33.614  19.070  25.022  1.00  0.00     0.148 C 
ATOM     97  C   UNL A   1      32.081  18.717  23.221  1.00  0.00     0.148 C 
ATOM     98  C   UNL A   1      34.559  18.083  24.332  1.00  0.00     0.181 C 
ATOM     99  C   UNL A   1      32.999  17.641  22.638  1.00  0.00     0.181 C 
ATOM    100  O   UNL A   1      33.822  17.060  23.649  1.00  0.00    -0.378 OA
ENDBRANCH  89  93
ENDBRANCH  85  87
ENDBRANCH  79  83
ENDBRANCH  75  77
ENDBRANCH  74  75
ENDBRANCH  73  74
ENDBRANCH  72  73
ENDBRANCH   1  72
TORSDOF 20
ENDMDL
MODEL 2
REMARK VINA RESULT:     -11.6      1.681      2.079
REMARK SMILES O=C(OCCOCCOC(=O)[C@@H]1CCCC[C@H]1C(=O)Nc1ccccc1C(=O)N1CCOCC1)c1ccc(-c2c3nc(c(-c4cc(S(=O)(=O)[O-])ccc4F)c4ccc([nH]4)c(-c4cc(S(=O)(=O)[O-])ccc4F)c4nc(c(-c5cc(S(=O)(=O)[O-])ccc5F)c5ccc2[nH]5)C=C4)C=C3)cc1
REMARK SMILES IDX 6 1 5 2 4 3 3 4 2 5 1 6 35 7 36 8 97 9 37 10 96 11 38 12
REMARK SMILES IDX 39 13 40 14 90 15 41 16 95 17 89 18 91 19 42 20 94 21 88 22
REMARK SMILES IDX 87 23 43 25 75 26 55 27 74 28 56 29 59 30 73 31 92 32 57 33
REMARK SMILES IDX 58 34 72 36 93 37 60 38 44 39 45 40 53 41 46 42 52 43 54 44
REMARK SMILES IDX 51 45 47 46 48 47 49 48 50 49 76 50 77 51 85 52 78 53 84 54
REMARK SMILES IDX 86 55 83 56 79 57 80 58 81 59 82 60 61 61 62 62 70 63 63 64
REMARK SMILES IDX 69 65 71 66 68 67 64 68 65 69 66 70 67 71 7 72 8 73 9 74
REMARK SMILES IDX 10 75 11 76 12 77 13 78 17 79 14 80 16 81 15 82 18 83 19 84
REMARK SMILES IDX 20 85 21 87 22 88 26 89 23 90 25 91 24 92 27 93 28 94 29 95
REMARK SMILES IDX 30 96 34 97 31 98 33 99 32 100
REMARK H PARENT 91 24 59 35 20 86
REMARK Flexibility Score: inf
ROOT
ATOM      1  O   UNL A   1      38.291  21.975  25.048  1.00  0.00    -0.374 OA
ENDROOT
BRANCH   1   2
ATOM      2  C   UNL A   1      37.917  20.608  25.245  1.00  0.00     0.202 C 
BRANCH   2   3
ATOM      3  C   UNL A   1      39.054  19.582  25.341  1.00  0.00     0.261 C 
BRANCH   3   4
ATOM      4  O   UNL A   1      39.980  19.901  26.391  1.00  0.00    -0.460 OA
BRANCH   4   5
ATOM      5  C   UNL A   1      41.333  19.950  26.276  1.00  0.00     0.338 C 
ATOM      6  O   UNL A   1      41.950  18.936  25.962  1.00  0.00    -0.246 OA
BRANCH   5   7
ATOM      7  C   UNL A   1      42.088  21.221  26.457  1.00  0.00     0.060 A 
ATOM      8  C   UNL A   1      42.599  21.647  27.678  1.00  0.00     0.016 A 
ATOM      9  C   UNL A   1      42.309  22.025  25.333  1.00  0.00     0.016 A 
ATOM     10  C   UNL A   1      43.156  22.886  27.846  1.00  0.00     0.010 A 
ATOM     11  C   UNL A   1      42.951  23.260  25.471  1.00  0.00     0.010 A 
ATOM     12  C   UNL A   1      43.328  23.704  26.745  1.00  0.00    -0.014 A 
BRANCH  12  13
ATOM     13  C   UNL A   1      43.689  25.090  27.054  1.00  0.00     0.031 A 
ATOM     14  C   UNL A   1      45.024  25.564  26.574  1.00  0.00     0.074 A 
ATOM     15  C   UNL A   1      42.742  25.928  27.515  1.00  0.00     0.049 A 
ATOM     16  N   UNL A   1      45.619  26.703  26.776  1.00  0.00    -0.248 NA
ATOM     17  C   UNL A   1      45.791  24.621  25.739  1.00  0.00     0.031 C 
ATOM     18  C   UNL A   1      41.343  25.562  27.771  1.00  0.00     0.029 A 
ATOM     19  N   UNL A   1      42.790  27.263  27.790  1.00  0.00    -0.354 N 
ATOM     20  C   UNL A   1      46.857  26.588  26.153  1.00  0.00     0.074 A 
ATOM     21  C   UNL A   1      46.926  25.274  25.561  1.00  0.00     0.031 C 
ATOM     22  C   UNL A   1      40.662  26.660  28.134  1.00  0.00     0.029 A 
ATOM     23  C   UNL A   1      41.597  27.768  28.251  1.00  0.00     0.049 A 
ATOM     24  H   UNL A   1      43.599  27.810  27.671  1.00  0.00     0.167 HD
ATOM     25  C   UNL A   1      47.845  27.511  26.118  1.00  0.00     0.034 A 
ATOM     26  C   UNL A   1      41.329  28.980  28.766  1.00  0.00     0.034 A 
ATOM     27  C   UNL A   1      47.692  28.808  26.727  1.00  0.00     0.049 A 
ATOM     28  C   UNL A   1      42.485  29.946  28.840  1.00  0.00     0.074 A 
ATOM     29  C   UNL A   1      48.620  29.819  26.868  1.00  0.00     0.029 A 
ATOM     30  N   UNL A   1      46.506  29.264  27.302  1.00  0.00    -0.354 N 
ATOM     31  N   UNL A   1      43.715  29.794  28.396  1.00  0.00    -0.248 NA
ATOM     32  C   UNL A   1      42.228  31.230  29.490  1.00  0.00     0.031 C 
ATOM     33  C   UNL A   1      48.018  30.852  27.596  1.00  0.00     0.029 A 
ATOM     34  C   UNL A   1      46.685  30.531  27.823  1.00  0.00     0.049 A 
ATOM     35  H   UNL A   1      45.663  28.757  27.331  1.00  0.00     0.167 HD
ATOM     36  C   UNL A   1      44.374  30.982  28.685  1.00  0.00     0.074 A 
ATOM     37  C   UNL A   1      43.392  31.841  29.326  1.00  0.00     0.031 C 
ATOM     38  C   UNL A   1      45.664  31.341  28.452  1.00  0.00     0.034 A 
BRANCH  25  39
ATOM     39  C   UNL A   1      49.169  27.071  25.541  1.00  0.00     0.023 A 
ATOM     40  C   UNL A   1      50.212  26.567  26.339  1.00  0.00     0.031 A 
ATOM     41  C   UNL A   1      49.435  27.293  24.178  1.00  0.00     0.131 A 
ATOM     42  C   UNL A   1      51.494  26.396  25.788  1.00  0.00     0.055 A 
ATOM     43  C   UNL A   1      50.685  27.032  23.617  1.00  0.00     0.041 A 
ATOM     44  F   UNL A   1      48.494  27.814  23.374  1.00  0.00    -0.206 F 
ATOM     45  C   UNL A   1      51.730  26.599  24.427  1.00  0.00     0.022 A 
BRANCH  42  46
ATOM     46  S   UNL A   1      52.890  26.091  26.909  1.00  0.00     0.124 S 
ATOM     47  O   UNL A   1      52.217  26.020  28.204  1.00  0.00    -0.237 OA
ATOM     48  O   UNL A   1      53.434  24.837  26.403  1.00  0.00    -0.237 OA
ATOM     49  O   UNL A   1      53.743  27.262  26.722  1.00  0.00    -0.744 OA
ENDBRANCH  42  46
ENDBRANCH  25  39
BRANCH  26  50
ATOM     50  C   UNL A   1      39.984  29.305  29.326  1.00  0.00     0.023 A 
ATOM     51  C   UNL A   1      39.759  29.346  30.711  1.00  0.00     0.031 A 
ATOM     52  C   UNL A   1      38.877  29.524  28.480  1.00  0.00     0.131 A 
ATOM     53  C   UNL A   1      38.460  29.547  31.207  1.00  0.00     0.055 A 
ATOM     54  C   UNL A   1      37.600  29.789  28.978  1.00  0.00     0.041 A 
ATOM     55  F   UNL A   1      39.020  29.486  27.146  1.00  0.00    -0.206 F 
ATOM     56  C   UNL A   1      37.382  29.785  30.351  1.00  0.00     0.022 A 
BRANCH  53  57
ATOM     57  S   UNL A   1      38.175  29.378  32.990  1.00  0.00     0.124 S 
ATOM     58  O   UNL A   1      39.537  29.264  33.498  1.00  0.00    -0.237 OA
ATOM     59  O   UNL A   1      37.475  30.619  33.304  1.00  0.00    -0.237 OA
ATOM     60  O   UNL A   1      37.367  28.165  33.093  1.00  0.00    -0.744 OA
ENDBRANCH  53  57
ENDBRANCH  26  50
BRANCH  38  61
ATOM     61  C   UNL A   1      46.042  32.747  28.832  1.00  0.00     0.023 A 
ATOM     62  C   UNL A   1      45.937  33.812  27.925  1.00  0.00     0.031 A 
ATOM     63  C   UNL A   1      46.531  33.012  30.123  1.00  0.00     0.131 A 
ATOM     64  C   UNL A   1      46.389  35.084  28.297  1.00  0.00     0.055 A 
ATOM     65  C   UNL A   1      46.901  34.296  30.514  1.00  0.00     0.041 A 
ATOM     66  F   UNL A   1      46.653  32.025  31.025  1.00  0.00    -0.206 F 
ATOM     67  C   UNL A   1      46.847  35.338  29.593  1.00  0.00     0.022 A 
BRANCH  64  68
ATOM     68  S   UNL A   1      46.491  36.370  27.025  1.00  0.00     0.124 S 
ATOM     69  O   UNL A   1      47.897  36.752  27.094  1.00  0.00    -0.237 OA
ATOM     70  O   UNL A   1      46.084  35.650  25.822  1.00  0.00    -0.237 OA
ATOM     71  O   UNL A   1      45.547  37.385  27.490  1.00  0.00    -0.744 OA
ENDBRANCH  64  68
ENDBRANCH  38  61
ENDBRANCH  12  13
ENDBRANCH   5   7
ENDBRANCH   4   5
ENDBRANCH   3   4
ENDBRANCH   2   3
ENDBRANCH   1   2
BRANCH   1  72
ATOM     72  C   UNL A   1      37.537  22.976  25.725  1.00  0.00     0.202 C 
BRANCH  72  73
ATOM     73  C   UNL A   1      36.094  23.126  25.224  1.00  0.00     0.261 C 
BRANCH  73  74
ATOM     74  O   UNL A   1      35.497  24.407  25.552  1.00  0.00    -0.463 OA
BRANCH  74  75
ATOM     75  C   UNL A   1      34.252  24.299  26.094  1.00  0.00     0.309 C 
ATOM     76  O   UNL A   1      33.956  23.428  26.870  1.00  0.00    -0.252 OA
BRANCH  75  77
ATOM     77  C   UNL A   1      33.291  25.403  25.711  1.00  0.00     0.111 C 
ATOM     78  C   UNL A   1      33.938  26.694  26.270  1.00  0.00     0.016 C 
ATOM     79  C   UNL A   1      31.839  25.307  26.306  1.00  0.00     0.093 C 
ATOM     80  C   UNL A   1      33.177  27.934  25.857  1.00  0.00     0.001 C 
ATOM     81  C   UNL A   1      31.073  26.571  25.853  1.00  0.00     0.014 C 
ATOM     82  C   UNL A   1      31.739  27.848  26.339  1.00  0.00     0.001 C 
BRANCH  79  83
ATOM     83  C   UNL A   1      30.740  24.206  26.218  1.00  0.00     0.228 C 
ATOM     84  O   UNL A   1      29.941  24.104  27.163  1.00  0.00    -0.274 OA
ATOM     85  N   UNL A   1      30.415  23.500  25.106  1.00  0.00    -0.325 N 
ATOM     86  H   UNL A   1      29.536  23.055  25.099  1.00  0.00     0.169 HD
BRANCH  85  87
ATOM     87  C   UNL A   1      31.202  23.348  23.984  1.00  0.00     0.054 A 
ATOM     88  C   UNL A   1      31.144  24.404  23.062  1.00  0.00     0.027 A 
ATOM     89  C   UNL A   1      32.145  22.327  23.880  1.00  0.00     0.063 A 
ATOM     90  C   UNL A   1      32.197  24.601  22.180  1.00  0.00     0.002 A 
ATOM     91  C   UNL A   1      33.222  22.566  23.004  1.00  0.00     0.016 A 
ATOM     92  C   UNL A   1      33.274  23.722  22.205  1.00  0.00     0.001 A 
BRANCH  89  93
ATOM     93  C   UNL A   1      32.033  20.967  24.555  1.00  0.00     0.256 C 
ATOM     94  O   UNL A   1      31.439  20.936  25.636  1.00  0.00    -0.269 OA
ATOM     95  N   UNL A   1      32.760  19.850  24.076  1.00  0.00    -0.334 N 
ATOM     96  C   UNL A   1      33.582  19.195  25.084  1.00  0.00     0.148 C 
ATOM     97  C   UNL A   1      32.096  18.801  23.253  1.00  0.00     0.148 C 
ATOM     98  C   UNL A   1      34.561  18.222  24.422  1.00  0.00     0.181 C 
ATOM     99  C   UNL A   1      33.047  17.739  22.698  1.00  0.00     0.181 C 
ATOM    100  O   UNL A   1      33.859  17.181  23.730  1.00  0.00    -0.378 OA
ENDBRANCH  89  93
ENDBRANCH  85  87
ENDBRANCH  79  83
ENDBRANCH  75  77
ENDBRANCH  74  75
ENDBRANCH  73  74
ENDBRANCH  72  73
ENDBRANCH   1  72
TORSDOF 20
ENDMDL
MODEL 3
REMARK VINA RESULT:     -11.4      2.357      4.320
REMARK SMILES O=C(OCCOCCOC(=O)[C@@H]1CCCC[C@H]1C(=O)Nc1ccccc1C(=O)N1CCOCC1)c1ccc(-c2c3nc(c(-c4cc(S(=O)(=O)[O-])ccc4F)c4ccc([nH]4)c(-c4cc(S(=O)(=O)[O-])ccc4F)c4nc(c(-c5cc(S(=O)(=O)[O-])ccc5F)c5ccc2[nH]5)C=C4)C=C3)cc1
REMARK SMILES IDX 6 1 5 2 4 3 3 4 2 5 1 6 35 7 36 8 97 9 37 10 96 11 38 12
REMARK SMILES IDX 39 13 40 14 90 15 41 16 95 17 89 18 91 19 42 20 94 21 88 22
REMARK SMILES IDX 87 23 43 25 75 26 55 27 74 28 56 29 59 30 73 31 92 32 57 33
REMARK SMILES IDX 58 34 72 36 93 37 60 38 44 39 45 40 53 41 46 42 52 43 54 44
REMARK SMILES IDX 51 45 47 46 48 47 49 48 50 49 76 50 77 51 85 52 78 53 84 54
REMARK SMILES IDX 86 55 83 56 79 57 80 58 81 59 82 60 61 61 62 62 70 63 63 64
REMARK SMILES IDX 69 65 71 66 68 67 64 68 65 69 66 70 67 71 7 72 8 73 9 74
REMARK SMILES IDX 10 75 11 76 12 77 13 78 17 79 14 80 16 81 15 82 18 83 19 84
REMARK SMILES IDX 20 85 21 87 22 88 26 89 23 90 25 91 24 92 27 93 28 94 29 95
REMARK SMILES IDX 30 96 34 97 31 98 33 99 32 100
REMARK H PARENT 91 24 59 35 20 86
REMARK Flexibility Score: inf
ROOT
ATOM      1  O   UNL A   1      37.072  20.953  24.376  1.00  0.00    -0.374 OA
ENDROOT
BRANCH   1   2
ATOM      2  C   UNL A   1      37.965  20.739  25.474  1.00  0.00     0.202 C 
BRANCH   2   3
ATOM      3  C   UNL A   1      39.013  19.630  25.313  1.00  0.00     0.261 C 
BRANCH   3   4
ATOM      4  O   UNL A   1      40.023  19.693  26.332  1.00  0.00    -0.460 OA
BRANCH   4   5
ATOM      5  C   UNL A   1      41.175  20.412  26.272  1.00  0.00     0.338 C 
ATOM      6  O   UNL A   1      42.159  19.931  25.715  1.00  0.00    -0.246 OA
BRANCH   5   7
ATOM      7  C   UNL A   1      41.260  21.799  26.807  1.00  0.00     0.060 A 
ATOM      8  C   UNL A   1      40.650  22.895  26.206  1.00  0.00     0.016 A 
ATOM      9  C   UNL A   1      41.982  22.010  27.987  1.00  0.00     0.016 A 
ATOM     10  C   UNL A   1      40.867  24.178  26.632  1.00  0.00     0.010 A 
ATOM     11  C   UNL A   1      42.146  23.307  28.484  1.00  0.00     0.010 A 
ATOM     12  C   UNL A   1      41.623  24.393  27.769  1.00  0.00    -0.014 A 
BRANCH  12  13
ATOM     13  C   UNL A   1      42.011  25.787  27.999  1.00  0.00     0.031 A 
ATOM     14  C   UNL A   1      43.264  26.259  27.333  1.00  0.00     0.074 A 
ATOM     15  C   UNL A   1      41.129  26.629  28.568  1.00  0.00     0.049 A 
ATOM     16  N   UNL A   1      43.872  27.404  27.429  1.00  0.00    -0.248 NA
ATOM     17  C   UNL A   1      43.918  25.303  26.420  1.00  0.00     0.031 C 
ATOM     18  C   UNL A   1      39.780  26.261  29.019  1.00  0.00     0.029 A 
ATOM     19  N   UNL A   1      41.202  27.969  28.808  1.00  0.00    -0.354 N 
ATOM     20  C   UNL A   1      45.015  27.284  26.647  1.00  0.00     0.074 A 
ATOM     21  C   UNL A   1      45.014  25.958  26.077  1.00  0.00     0.031 C 
ATOM     22  C   UNL A   1      39.146  27.361  29.450  1.00  0.00     0.029 A 
ATOM     23  C   UNL A   1      40.079  28.477  29.417  1.00  0.00     0.049 A 
ATOM     24  H   UNL A   1      41.983  28.519  28.569  1.00  0.00     0.167 HD
ATOM     25  C   UNL A   1      45.982  28.211  26.459  1.00  0.00     0.034 A 
ATOM     26  C   UNL A   1      39.873  29.698  29.940  1.00  0.00     0.034 A 
ATOM     27  C   UNL A   1      45.902  29.519  27.058  1.00  0.00     0.049 A 
ATOM     28  C   UNL A   1      41.020  30.672  29.837  1.00  0.00     0.074 A 
ATOM     29  C   UNL A   1      46.832  30.538  27.053  1.00  0.00     0.029 A 
ATOM     30  N   UNL A   1      44.801  29.980  27.780  1.00  0.00    -0.354 N 
ATOM     31  N   UNL A   1      42.180  30.518  29.234  1.00  0.00    -0.248 NA
ATOM     32  C   UNL A   1      40.844  31.967  30.492  1.00  0.00     0.031 C 
ATOM     33  C   UNL A   1      46.326  31.583  27.836  1.00  0.00     0.029 A 
ATOM     34  C   UNL A   1      45.039  31.259  28.248  1.00  0.00     0.049 A 
ATOM     35  H   UNL A   1      43.974  29.470  27.934  1.00  0.00     0.167 HD
ATOM     36  C   UNL A   1      42.862  31.715  29.407  1.00  0.00     0.074 A 
ATOM     37  C   UNL A   1      41.970  32.581  30.158  1.00  0.00     0.031 C 
ATOM     38  C   UNL A   1      44.106  32.076  28.994  1.00  0.00     0.034 A 
BRANCH  25  39
ATOM     39  C   UNL A   1      47.218  27.767  25.717  1.00  0.00     0.023 A 
ATOM     40  C   UNL A   1      47.433  28.063  24.359  1.00  0.00     0.031 A 
ATOM     41  C   UNL A   1      48.134  26.910  26.354  1.00  0.00     0.131 A 
ATOM     42  C   UNL A   1      48.478  27.431  23.662  1.00  0.00     0.055 A 
ATOM     43  C   UNL A   1      49.224  26.360  25.679  1.00  0.00     0.041 A 
ATOM     44  F   UNL A   1      47.959  26.555  27.637  1.00  0.00    -0.206 F 
ATOM     45  C   UNL A   1      49.390  26.603  24.320  1.00  0.00     0.022 A 
BRANCH  42  46
ATOM     46  S   UNL A   1      48.513  27.551  21.850  1.00  0.00     0.124 S 
ATOM     47  O   UNL A   1      49.639  28.458  21.638  1.00  0.00    -0.237 OA
ATOM     48  O   UNL A   1      48.724  26.167  21.445  1.00  0.00    -0.237 OA
ATOM     49  O   UNL A   1      47.203  28.107  21.516  1.00  0.00    -0.744 OA
ENDBRANCH  42  46
ENDBRANCH  25  39
BRANCH  26  50
ATOM     50  C   UNL A   1      38.614  30.027  30.671  1.00  0.00     0.023 A 
ATOM     51  C   UNL A   1      37.595  30.781  30.068  1.00  0.00     0.031 A 
ATOM     52  C   UNL A   1      38.430  29.640  32.014  1.00  0.00     0.131 A 
ATOM     53  C   UNL A   1      36.470  31.167  30.816  1.00  0.00     0.055 A 
ATOM     54  C   UNL A   1      37.279  29.970  32.733  1.00  0.00     0.041 A 
ATOM     55  F   UNL A   1      39.371  28.928  32.654  1.00  0.00    -0.206 F 
ATOM     56  C   UNL A   1      36.298  30.753  32.139  1.00  0.00     0.022 A 
BRANCH  53  57
ATOM     57  S   UNL A   1      35.284  32.319  30.070  1.00  0.00     0.124 S 
ATOM     58  O   UNL A   1      34.379  32.575  31.184  1.00  0.00    -0.237 OA
ATOM     59  O   UNL A   1      36.146  33.428  29.674  1.00  0.00    -0.237 OA
ATOM     60  O   UNL A   1      34.713  31.551  28.965  1.00  0.00    -0.744 OA
ENDBRANCH  53  57
ENDBRANCH  26  50
BRANCH  38  61
ATOM     61  C   UNL A   1      44.521  33.491  29.292  1.00  0.00     0.023 A 
ATOM     62  C   UNL A   1      44.244  34.545  28.408  1.00  0.00     0.031 A 
ATOM     63  C   UNL A   1      45.221  33.778  30.477  1.00  0.00     0.131 A 
ATOM     64  C   UNL A   1      44.732  35.827  28.686  1.00  0.00     0.055 A 
ATOM     65  C   UNL A   1      45.631  35.071  30.788  1.00  0.00     0.041 A 
ATOM     66  F   UNL A   1      45.512  32.802  31.353  1.00  0.00    -0.206 F 
ATOM     67  C   UNL A   1      45.402  36.102  29.882  1.00  0.00     0.022 A 
BRANCH  64  68
ATOM     68  S   UNL A   1      44.592  37.101  27.405  1.00  0.00     0.124 S 
ATOM     69  O   UNL A   1      43.317  36.762  26.780  1.00  0.00    -0.237 OA
ATOM     70  O   UNL A   1      44.610  38.332  28.188  1.00  0.00    -0.237 OA
ATOM     71  O   UNL A   1      45.772  36.878  26.572  1.00  0.00    -0.744 OA
ENDBRANCH  64  68
ENDBRANCH  38  61
ENDBRANCH  12  13
ENDBRANCH   5   7
ENDBRANCH   4   5
ENDBRANCH   3   4
ENDBRANCH   2   3
ENDBRANCH   1   2
BRANCH   1  72
ATOM     72  C   UNL A   1      37.011  22.259  23.813  1.00  0.00     0.202 C 
BRANCH  72  73
ATOM     73  C   UNL A   1      35.589  22.751  23.513  1.00  0.00     0.261 C 
BRANCH  73  74
ATOM     74  O   UNL A   1      34.645  22.484  24.582  1.00  0.00    -0.463 OA
BRANCH  74  75
ATOM     75  C   UNL A   1      34.330  23.589  25.313  1.00  0.00     0.309 C 
ATOM     76  O   UNL A   1      35.087  24.074  26.113  1.00  0.00    -0.252 OA
BRANCH  75  77
ATOM     77  C   UNL A   1      32.988  24.207  24.990  1.00  0.00     0.111 C 
ATOM     78  C   UNL A   1      32.002  23.013  24.979  1.00  0.00     0.016 C 
ATOM     79  C   UNL A   1      32.865  24.932  23.601  1.00  0.00     0.093 C 
ATOM     80  C   UNL A   1      30.568  23.463  24.808  1.00  0.00     0.001 C 
ATOM     81  C   UNL A   1      31.400  25.404  23.456  1.00  0.00     0.014 C 
ATOM     82  C   UNL A   1      30.419  24.244  23.514  1.00  0.00     0.001 C 
BRANCH  79  83
ATOM     83  C   UNL A   1      33.655  26.113  22.960  1.00  0.00     0.228 C 
ATOM     84  O   UNL A   1      34.322  25.881  21.939  1.00  0.00    -0.274 OA
ATOM     85  N   UNL A   1      33.502  27.426  23.266  1.00  0.00    -0.325 N 
ATOM     86  H   UNL A   1      33.836  28.080  22.610  1.00  0.00     0.169 HD
BRANCH  85  87
ATOM     87  C   UNL A   1      32.922  27.928  24.413  1.00  0.00     0.054 A 
ATOM     88  C   UNL A   1      33.502  27.499  25.617  1.00  0.00     0.027 A 
ATOM     89  C   UNL A   1      31.975  28.949  24.370  1.00  0.00     0.063 A 
ATOM     90  C   UNL A   1      33.346  28.267  26.762  1.00  0.00     0.002 A 
ATOM     91  C   UNL A   1      31.860  29.735  25.534  1.00  0.00     0.016 A 
ATOM     92  C   UNL A   1      32.584  29.429  26.700  1.00  0.00     0.001 A 
BRANCH  89  93
ATOM     93  C   UNL A   1      31.011  29.196  23.218  1.00  0.00     0.256 C 
ATOM     94  O   UNL A   1      31.517  29.492  22.132  1.00  0.00    -0.269 OA
ATOM     95  N   UNL A   1      29.616  29.295  23.437  1.00  0.00    -0.334 N 
ATOM     96  C   UNL A   1      29.016  30.517  22.918  1.00  0.00     0.148 C 
ATOM     97  C   UNL A   1      28.710  28.155  23.130  1.00  0.00     0.148 C 
ATOM     98  C   UNL A   1      27.599  30.690  23.472  1.00  0.00     0.181 C 
ATOM     99  C   UNL A   1      27.257  28.372  23.555  1.00  0.00     0.181 C 
ATOM    100  O   UNL A   1      26.752  29.610  23.058  1.00  0.00    -0.378 OA
ENDBRANCH  89  93
ENDBRANCH  85  87
ENDBRANCH  79  83
ENDBRANCH  75  77
ENDBRANCH  74  75
ENDBRANCH  73  74
ENDBRANCH  72  73
ENDBRANCH   1  72
TORSDOF 20
ENDMDL
