MODEL 1
REMARK VINA RESULT:     -10.4      0.000      0.000
REMARK SMILES C[C@]([NH2+]Cc1nc(-c2ccsc2)no1)(C(=O)OCCOCCOC(=O)c1ccc(-c2c3nc(c(-c4cc(S(=O)(=O)[O-])ccc4F)c4ccc([nH]4)c(-c4cc(S(=O)(=O)[O-])ccc4F)c4nc(c(-c5cc(S(=O)(=O)[O-])ccc5F)c5ccc2[nH]5)C=C4)C=C3)cc1)C(F)(F)F
REMARK SMILES IDX 19 1 18 2 17 3 15 4 16 5 2 6 1 7 89 8 90 9 91 10 92 11 3 12
REMARK SMILES IDX 4 15 5 16 6 17 14 18 7 19 13 20 8 21 9 22 12 23 10 24 11 25
REMARK SMILES IDX 20 26 21 27 22 28 23 29 24 30 25 31 26 32 27 33 88 34 28 35
REMARK SMILES IDX 87 36 29 37 30 38 31 39 81 40 32 41 86 42 80 43 82 44 33 45
REMARK SMILES IDX 85 46 79 47 78 48 34 50 66 51 46 52 65 53 47 54 50 55 64 56
REMARK SMILES IDX 83 57 48 58 49 59 63 61 84 62 51 63 35 64 36 65 44 66 37 67
REMARK SMILES IDX 43 68 45 69 42 70 38 71 39 72 40 73 41 74 67 75 68 76 76 77
REMARK SMILES IDX 69 78 75 79 77 80 74 81 70 82 71 83 72 84 73 85 52 86 53 87
REMARK SMILES IDX 61 88 54 89 60 90 62 91 59 92 55 93 56 94 57 95 58 96
REMARK H PARENT 3 13 3 14 82 49 50 60
REMARK Flexibility Score: inf
ROOT
ATOM      1  C   UNL A   1      33.137  30.333  26.752  1.00  0.00     0.202 C 
ENDROOT
BRANCH   1   2
ATOM      2  C   UNL A   1      33.572  28.865  26.734  1.00  0.00     0.261 C 
BRANCH   2   3
ATOM      3  O   UNL A   1      32.824  28.084  25.784  1.00  0.00    -0.458 OA
BRANCH   3   4
ATOM      4  C   UNL A   1      31.927  27.208  26.328  1.00  0.00     0.377 C 
ATOM      5  O   UNL A   1      31.475  27.320  27.462  1.00  0.00    -0.244 OA
BRANCH   4   6
ATOM      6  C   UNL A   1      31.620  26.021  25.399  1.00  0.00     0.287 C 
ATOM      7  C   UNL A   1      32.267  26.360  24.049  1.00  0.00     0.103 C 
BRANCH   6   8
ATOM      8  C   UNL A   1      32.366  24.838  26.075  1.00  0.00     0.455 C 
ATOM      9  F   UNL A   1      33.568  25.211  26.573  1.00  0.00    -0.164 F 
ATOM     10  F   UNL A   1      31.647  24.356  27.125  1.00  0.00    -0.164 F 
ATOM     11  F   UNL A   1      32.560  23.779  25.260  1.00  0.00    -0.164 F 
ENDBRANCH   6   8
BRANCH   6  12
ATOM     12  N   UNL A   1      30.122  25.809  25.254  1.00  0.00    -0.317 N 
ATOM     13  H   UNL A   1      29.645  26.539  25.783  1.00  0.00     0.347 HD
ATOM     14  H   UNL A   1      29.926  24.872  25.603  1.00  0.00     0.347 HD
BRANCH  12  15
ATOM     15  C   UNL A   1      29.632  25.852  23.866  1.00  0.00     0.363 C 
BRANCH  15  16
ATOM     16  C   UNL A   1      28.899  27.109  23.524  1.00  0.00     0.282 A 
ATOM     17  N   UNL A   1      29.301  28.218  22.939  1.00  0.00    -0.186 NA
ATOM     18  O   UNL A   1      27.563  27.106  23.816  1.00  0.00    -0.333 OA
ATOM     19  C   UNL A   1      28.145  28.962  22.923  1.00  0.00     0.203 A 
ATOM     20  N   UNL A   1      27.066  28.345  23.425  1.00  0.00    -0.057 NA
BRANCH  19  21
ATOM     21  C   UNL A   1      28.121  30.336  22.424  1.00  0.00     0.033 A 
ATOM     22  C   UNL A   1      28.146  31.484  23.271  1.00  0.00     0.024 A 
ATOM     23  C   UNL A   1      28.082  30.684  21.089  1.00  0.00     0.077 A 
ATOM     24  C   UNL A   1      28.125  32.660  22.548  1.00  0.00     0.065 A 
ATOM     25  S   UNL A   1      28.063  32.379  20.861  1.00  0.00    -0.152 S 
ENDBRANCH  19  21
ENDBRANCH  15  16
ENDBRANCH  12  15
ENDBRANCH   6  12
ENDBRANCH   4   6
ENDBRANCH   3   4
ENDBRANCH   2   3
ENDBRANCH   1   2
BRANCH   1  26
ATOM     26  O   UNL A   1      31.749  30.593  26.945  1.00  0.00    -0.374 OA
BRANCH  26  27
ATOM     27  C   UNL A   1      31.244  31.868  26.547  1.00  0.00     0.202 C 
BRANCH  27  28
ATOM     28  C   UNL A   1      32.139  33.096  26.757  1.00  0.00     0.261 C 
BRANCH  28  29
ATOM     29  O   UNL A   1      32.259  33.476  28.139  1.00  0.00    -0.460 OA
BRANCH  29  30
ATOM     30  C   UNL A   1      33.298  34.304  28.406  1.00  0.00     0.338 C 
ATOM     31  O   UNL A   1      33.255  35.524  28.514  1.00  0.00    -0.246 OA
BRANCH  30  32
ATOM     32  C   UNL A   1      34.497  33.524  28.758  1.00  0.00     0.060 A 
ATOM     33  C   UNL A   1      34.315  32.374  29.540  1.00  0.00     0.016 A 
ATOM     34  C   UNL A   1      35.781  33.949  28.409  1.00  0.00     0.016 A 
ATOM     35  C   UNL A   1      35.418  31.677  30.025  1.00  0.00     0.010 A 
ATOM     36  C   UNL A   1      36.888  33.253  28.907  1.00  0.00     0.010 A 
ATOM     37  C   UNL A   1      36.711  32.137  29.749  1.00  0.00    -0.014 A 
BRANCH  37  38
ATOM     38  C   UNL A   1      37.863  31.568  30.492  1.00  0.00     0.031 A 
ATOM     39  C   UNL A   1      38.710  30.524  29.815  1.00  0.00     0.074 A 
ATOM     40  C   UNL A   1      38.170  31.992  31.730  1.00  0.00     0.049 A 
ATOM     41  N   UNL A   1      39.720  29.838  30.283  1.00  0.00    -0.248 NA
ATOM     42  C   UNL A   1      38.361  30.210  28.421  1.00  0.00     0.031 C 
ATOM     43  C   UNL A   1      37.460  33.040  32.463  1.00  0.00     0.029 A 
ATOM     44  N   UNL A   1      39.156  31.587  32.593  1.00  0.00    -0.354 N 
ATOM     45  C   UNL A   1      40.126  29.005  29.245  1.00  0.00     0.074 A 
ATOM     46  C   UNL A   1      39.226  29.248  28.137  1.00  0.00     0.031 C 
ATOM     47  C   UNL A   1      38.026  33.184  33.673  1.00  0.00     0.029 A 
ATOM     48  C   UNL A   1      39.110  32.213  33.816  1.00  0.00     0.049 A 
ATOM     49  H   UNL A   1      39.833  30.911  32.359  1.00  0.00     0.167 HD
ATOM     50  C   UNL A   1      41.158  28.126  29.217  1.00  0.00     0.034 A 
ATOM     51  C   UNL A   1      39.839  32.004  34.931  1.00  0.00     0.034 A 
ATOM     52  C   UNL A   1      42.036  27.888  30.337  1.00  0.00     0.049 A 
ATOM     53  C   UNL A   1      40.924  30.952  34.911  1.00  0.00     0.074 A 
ATOM     54  C   UNL A   1      43.115  27.025  30.419  1.00  0.00     0.029 A 
ATOM     55  N   UNL A   1      41.931  28.509  31.575  1.00  0.00    -0.354 N 
ATOM     56  N   UNL A   1      41.294  30.164  33.928  1.00  0.00    -0.248 NA
ATOM     57  C   UNL A   1      41.691  30.767  36.150  1.00  0.00     0.031 C 
ATOM     58  C   UNL A   1      43.615  27.070  31.725  1.00  0.00     0.029 A 
ATOM     59  C   UNL A   1      42.902  28.022  32.438  1.00  0.00     0.049 A 
ATOM     60  H   UNL A   1      41.264  29.194  31.807  1.00  0.00     0.167 HD
ATOM     61  C   UNL A   1      42.359  29.415  34.420  1.00  0.00     0.074 A 
ATOM     62  C   UNL A   1      42.576  29.851  35.785  1.00  0.00     0.031 C 
ATOM     63  C   UNL A   1      43.099  28.459  33.801  1.00  0.00     0.034 A 
BRANCH  50  64
ATOM     64  C   UNL A   1      41.341  27.318  27.954  1.00  0.00     0.023 A 
ATOM     65  C   UNL A   1      40.982  25.961  27.884  1.00  0.00     0.031 A 
ATOM     66  C   UNL A   1      41.926  27.904  26.818  1.00  0.00     0.131 A 
ATOM     67  C   UNL A   1      41.282  25.216  26.733  1.00  0.00     0.055 A 
ATOM     68  C   UNL A   1      42.148  27.178  25.646  1.00  0.00     0.041 A 
ATOM     69  F   UNL A   1      42.311  29.190  26.832  1.00  0.00    -0.206 F 
ATOM     70  C   UNL A   1      41.840  25.821  25.604  1.00  0.00     0.022 A 
BRANCH  67  71
ATOM     71  S   UNL A   1      41.075  23.415  26.786  1.00  0.00     0.124 S 
ATOM     72  O   UNL A   1      39.660  23.272  26.447  1.00  0.00    -0.237 OA
ATOM     73  O   UNL A   1      42.023  22.959  25.777  1.00  0.00    -0.237 OA
ATOM     74  O   UNL A   1      41.414  23.070  28.164  1.00  0.00    -0.744 OA
ENDBRANCH  67  71
ENDBRANCH  50  64
BRANCH  51  75
ATOM     75  C   UNL A   1      39.543  32.765  36.178  1.00  0.00     0.023 A 
ATOM     76  C   UNL A   1      38.649  32.270  37.140  1.00  0.00     0.031 A 
ATOM     77  C   UNL A   1      40.118  34.030  36.402  1.00  0.00     0.131 A 
ATOM     78  C   UNL A   1      38.324  33.051  38.260  1.00  0.00     0.055 A 
ATOM     79  C   UNL A   1      39.830  34.781  37.542  1.00  0.00     0.041 A 
ATOM     80  F   UNL A   1      40.979  34.551  35.513  1.00  0.00    -0.206 F 
ATOM     81  C   UNL A   1      38.919  34.298  38.474  1.00  0.00     0.022 A 
BRANCH  78  82
ATOM     82  S   UNL A   1      37.052  32.446  39.403  1.00  0.00     0.124 S 
ATOM     83  O   UNL A   1      35.828  32.762  38.677  1.00  0.00    -0.237 OA
ATOM     84  O   UNL A   1      37.389  31.031  39.510  1.00  0.00    -0.237 OA
ATOM     85  O   UNL A   1      37.282  33.232  40.614  1.00  0.00    -0.744 OA
ENDBRANCH  78  82
ENDBRANCH  51  75
BRANCH  63  86
ATOM     86  C   UNL A   1      44.245  27.860  34.581  1.00  0.00     0.023 A 
ATOM     87  C   UNL A   1      45.533  28.422  34.559  1.00  0.00     0.031 A 
ATOM     88  C   UNL A   1      44.039  26.705  35.356  1.00  0.00     0.131 A 
ATOM     89  C   UNL A   1      46.579  27.798  35.258  1.00  0.00     0.055 A 
ATOM     90  C   UNL A   1      45.070  26.122  36.096  1.00  0.00     0.041 A 
ATOM     91  F   UNL A   1      42.830  26.125  35.412  1.00  0.00    -0.206 F 
ATOM     92  C   UNL A   1      46.351  26.662  36.039  1.00  0.00     0.022 A 
BRANCH  89  93
ATOM     93  S   UNL A   1      48.263  28.442  35.063  1.00  0.00     0.124 S 
ATOM     94  O   UNL A   1      48.528  29.006  36.382  1.00  0.00    -0.237 OA
ATOM     95  O   UNL A   1      49.019  27.241  34.720  1.00  0.00    -0.237 OA
ATOM     96  O   UNL A   1      48.134  29.420  33.984  1.00  0.00    -0.744 OA
ENDBRANCH  89  93
ENDBRANCH  63  86
ENDBRANCH  37  38
ENDBRANCH  30  32
ENDBRANCH  29  30
ENDBRANCH  28  29
ENDBRANCH  27  28
ENDBRANCH  26  27
ENDBRANCH   1  26
TORSDOF 22
ENDMDL
MODEL 2
REMARK VINA RESULT:     -10.3      2.630      3.985
REMARK SMILES C[C@]([NH2+]Cc1nc(-c2ccsc2)no1)(C(=O)OCCOCCOC(=O)c1ccc(-c2c3nc(c(-c4cc(S(=O)(=O)[O-])ccc4F)c4ccc([nH]4)c(-c4cc(S(=O)(=O)[O-])ccc4F)c4nc(c(-c5cc(S(=O)(=O)[O-])ccc5F)c5ccc2[nH]5)C=C4)C=C3)cc1)C(F)(F)F
REMARK SMILES IDX 19 1 18 2 17 3 15 4 16 5 2 6 1 7 89 8 90 9 91 10 92 11 3 12
REMARK SMILES IDX 4 15 5 16 6 17 14 18 7 19 13 20 8 21 9 22 12 23 10 24 11 25
REMARK SMILES IDX 20 26 21 27 22 28 23 29 24 30 25 31 26 32 27 33 88 34 28 35
REMARK SMILES IDX 87 36 29 37 30 38 31 39 81 40 32 41 86 42 80 43 82 44 33 45
REMARK SMILES IDX 85 46 79 47 78 48 34 50 66 51 46 52 65 53 47 54 50 55 64 56
REMARK SMILES IDX 83 57 48 58 49 59 63 61 84 62 51 63 35 64 36 65 44 66 37 67
REMARK SMILES IDX 43 68 45 69 42 70 38 71 39 72 40 73 41 74 67 75 68 76 76 77
REMARK SMILES IDX 69 78 75 79 77 80 74 81 70 82 71 83 72 84 73 85 52 86 53 87
REMARK SMILES IDX 61 88 54 89 60 90 62 91 59 92 55 93 56 94 57 95 58 96
REMARK H PARENT 3 13 3 14 82 49 50 60
REMARK Flexibility Score: inf
ROOT
ATOM      1  C   UNL A   1      33.592  30.211  26.894  1.00  0.00     0.202 C 
ENDROOT
BRANCH   1   2
ATOM      2  C   UNL A   1      33.669  28.895  26.115  1.00  0.00     0.261 C 
BRANCH   2   3
ATOM      3  O   UNL A   1      32.450  28.606  25.406  1.00  0.00    -0.458 OA
BRANCH   3   4
ATOM      4  C   UNL A   1      32.529  28.710  24.046  1.00  0.00     0.377 C 
ATOM      5  O   UNL A   1      33.414  29.327  23.464  1.00  0.00    -0.244 OA
BRANCH   4   6
ATOM      6  C   UNL A   1      31.336  28.051  23.332  1.00  0.00     0.287 C 
ATOM      7  C   UNL A   1      30.703  27.096  24.354  1.00  0.00     0.103 C 
BRANCH   6   8
ATOM      8  C   UNL A   1      30.386  29.247  23.047  1.00  0.00     0.455 C 
ATOM      9  F   UNL A   1      30.625  29.811  21.840  1.00  0.00    -0.164 F 
ATOM     10  F   UNL A   1      29.089  28.834  23.030  1.00  0.00    -0.164 F 
ATOM     11  F   UNL A   1      30.438  30.219  23.982  1.00  0.00    -0.164 F 
ENDBRANCH   6   8
BRANCH   6  12
ATOM     12  N   UNL A   1      31.786  27.304  22.087  1.00  0.00    -0.317 N 
ATOM     13  H   UNL A   1      32.805  27.329  22.051  1.00  0.00     0.347 HD
ATOM     14  H   UNL A   1      31.347  27.771  21.294  1.00  0.00     0.347 HD
BRANCH  12  15
ATOM     15  C   UNL A   1      31.358  25.896  22.032  1.00  0.00     0.363 C 
BRANCH  15  16
ATOM     16  C   UNL A   1      32.466  24.920  22.266  1.00  0.00     0.282 A 
ATOM     17  N   UNL A   1      33.125  24.598  23.359  1.00  0.00    -0.186 NA
ATOM     18  O   UNL A   1      32.841  24.188  21.173  1.00  0.00    -0.333 OA
ATOM     19  C   UNL A   1      33.997  23.643  22.891  1.00  0.00     0.203 A 
ATOM     20  N   UNL A   1      33.867  23.347  21.590  1.00  0.00    -0.057 NA
BRANCH  19  21
ATOM     21  C   UNL A   1      35.008  23.034  23.754  1.00  0.00     0.033 A 
ATOM     22  C   UNL A   1      36.359  22.814  23.353  1.00  0.00     0.024 A 
ATOM     23  C   UNL A   1      34.781  22.613  25.049  1.00  0.00     0.077 A 
ATOM     24  C   UNL A   1      37.108  22.235  24.358  1.00  0.00     0.065 A 
ATOM     25  S   UNL A   1      36.182  21.947  25.768  1.00  0.00    -0.152 S 
ENDBRANCH  19  21
ENDBRANCH  15  16
ENDBRANCH  12  15
ENDBRANCH   6  12
ENDBRANCH   4   6
ENDBRANCH   3   4
ENDBRANCH   2   3
ENDBRANCH   1   2
BRANCH   1  26
ATOM     26  O   UNL A   1      32.309  30.599  27.379  1.00  0.00    -0.374 OA
BRANCH  26  27
ATOM     27  C   UNL A   1      31.682  31.734  26.782  1.00  0.00     0.202 C 
BRANCH  27  28
ATOM     28  C   UNL A   1      32.397  33.088  26.878  1.00  0.00     0.261 C 
BRANCH  28  29
ATOM     29  O   UNL A   1      32.219  33.731  28.151  1.00  0.00    -0.460 OA
BRANCH  29  30
ATOM     30  C   UNL A   1      33.243  34.537  28.522  1.00  0.00     0.338 C 
ATOM     31  O   UNL A   1      33.193  35.745  28.717  1.00  0.00    -0.246 OA
BRANCH  30  32
ATOM     32  C   UNL A   1      34.428  33.732  28.870  1.00  0.00     0.060 A 
ATOM     33  C   UNL A   1      34.240  32.640  29.729  1.00  0.00     0.016 A 
ATOM     34  C   UNL A   1      35.709  34.083  28.439  1.00  0.00     0.016 A 
ATOM     35  C   UNL A   1      35.338  31.929  30.208  1.00  0.00     0.010 A 
ATOM     36  C   UNL A   1      36.811  33.376  28.931  1.00  0.00     0.010 A 
ATOM     37  C   UNL A   1      36.632  32.321  29.848  1.00  0.00    -0.014 A 
BRANCH  37  38
ATOM     38  C   UNL A   1      37.796  31.752  30.574  1.00  0.00     0.031 A 
ATOM     39  C   UNL A   1      38.635  30.711  29.883  1.00  0.00     0.074 A 
ATOM     40  C   UNL A   1      38.118  32.173  31.809  1.00  0.00     0.049 A 
ATOM     41  N   UNL A   1      39.653  30.027  30.336  1.00  0.00    -0.248 NA
ATOM     42  C   UNL A   1      38.268  30.400  28.493  1.00  0.00     0.031 C 
ATOM     43  C   UNL A   1      37.416  33.218  32.553  1.00  0.00     0.029 A 
ATOM     44  N   UNL A   1      39.117  31.768  32.657  1.00  0.00    -0.354 N 
ATOM     45  C   UNL A   1      40.046  29.197  29.290  1.00  0.00     0.074 A 
ATOM     46  C   UNL A   1      39.131  29.440  28.195  1.00  0.00     0.031 C 
ATOM     47  C   UNL A   1      37.998  33.360  33.756  1.00  0.00     0.029 A 
ATOM     48  C   UNL A   1      39.086  32.391  33.882  1.00  0.00     0.049 A 
ATOM     49  H   UNL A   1      39.792  31.095  32.412  1.00  0.00     0.167 HD
ATOM     50  C   UNL A   1      41.079  28.320  29.246  1.00  0.00     0.034 A 
ATOM     51  C   UNL A   1      39.831  32.181  34.987  1.00  0.00     0.034 A 
ATOM     52  C   UNL A   1      41.973  28.081  30.353  1.00  0.00     0.049 A 
ATOM     53  C   UNL A   1      40.917  31.132  34.950  1.00  0.00     0.074 A 
ATOM     54  C   UNL A   1      43.055  27.219  30.419  1.00  0.00     0.029 A 
ATOM     55  N   UNL A   1      41.884  28.699  31.595  1.00  0.00    -0.354 N 
ATOM     56  N   UNL A   1      41.275  30.347  33.959  1.00  0.00    -0.248 NA
ATOM     57  C   UNL A   1      41.701  30.945  36.177  1.00  0.00     0.031 C 
ATOM     58  C   UNL A   1      43.572  27.262  31.718  1.00  0.00     0.029 A 
ATOM     59  C   UNL A   1      42.867  28.211  32.443  1.00  0.00     0.049 A 
ATOM     60  H   UNL A   1      41.218  29.382  31.837  1.00  0.00     0.167 HD
ATOM     61  C   UNL A   1      42.349  29.599  34.436  1.00  0.00     0.074 A 
ATOM     62  C   UNL A   1      42.583  30.032  35.799  1.00  0.00     0.031 C 
ATOM     63  C   UNL A   1      43.082  28.646  33.804  1.00  0.00     0.034 A 
BRANCH  50  64
ATOM     64  C   UNL A   1      41.247  27.515  27.979  1.00  0.00     0.023 A 
ATOM     65  C   UNL A   1      40.938  26.144  27.925  1.00  0.00     0.031 A 
ATOM     66  C   UNL A   1      41.767  28.119  26.821  1.00  0.00     0.131 A 
ATOM     67  C   UNL A   1      41.224  25.408  26.765  1.00  0.00     0.055 A 
ATOM     68  C   UNL A   1      41.973  27.398  25.643  1.00  0.00     0.041 A 
ATOM     69  F   UNL A   1      42.103  29.418  26.819  1.00  0.00    -0.206 F 
ATOM     70  C   UNL A   1      41.717  26.030  25.615  1.00  0.00     0.022 A 
BRANCH  67  71
ATOM     71  S   UNL A   1      41.088  23.600  26.829  1.00  0.00     0.124 S 
ATOM     72  O   UNL A   1      42.289  23.189  26.105  1.00  0.00    -0.237 OA
ATOM     73  O   UNL A   1      41.084  23.335  28.263  1.00  0.00    -0.237 OA
ATOM     74  O   UNL A   1      39.830  23.326  26.139  1.00  0.00    -0.744 OA
ENDBRANCH  67  71
ENDBRANCH  50  64
BRANCH  51  75
ATOM     75  C   UNL A   1      39.550  32.939  36.240  1.00  0.00     0.023 A 
ATOM     76  C   UNL A   1      38.686  32.430  37.221  1.00  0.00     0.031 A 
ATOM     77  C   UNL A   1      40.108  34.214  36.449  1.00  0.00     0.131 A 
ATOM     78  C   UNL A   1      38.373  33.207  38.348  1.00  0.00     0.055 A 
ATOM     79  C   UNL A   1      39.834  34.961  37.595  1.00  0.00     0.041 A 
ATOM     80  F   UNL A   1      40.940  34.748  35.540  1.00  0.00    -0.206 F 
ATOM     81  C   UNL A   1      38.952  34.464  38.547  1.00  0.00     0.022 A 
BRANCH  78  82
ATOM     82  S   UNL A   1      37.138  32.582  39.521  1.00  0.00     0.124 S 
ATOM     83  O   UNL A   1      37.604  31.219  39.742  1.00  0.00    -0.237 OA
ATOM     84  O   UNL A   1      37.292  33.504  40.641  1.00  0.00    -0.237 OA
ATOM     85  O   UNL A   1      35.881  32.704  38.786  1.00  0.00    -0.744 OA
ENDBRANCH  78  82
ENDBRANCH  51  75
BRANCH  63  86
ATOM     86  C   UNL A   1      44.239  28.047  34.567  1.00  0.00     0.023 A 
ATOM     87  C   UNL A   1      44.104  26.863  35.313  1.00  0.00     0.031 A 
ATOM     88  C   UNL A   1      45.496  28.677  34.546  1.00  0.00     0.131 A 
ATOM     89  C   UNL A   1      45.195  26.374  36.049  1.00  0.00     0.055 A 
ATOM     90  C   UNL A   1      46.593  28.153  35.233  1.00  0.00     0.041 A 
ATOM     91  F   UNL A   1      45.681  29.810  33.852  1.00  0.00    -0.206 F 
ATOM     92  C   UNL A   1      46.442  27.002  36.000  1.00  0.00     0.022 A 
BRANCH  89  93
ATOM     93  S   UNL A   1      44.940  24.950  37.144  1.00  0.00     0.124 S 
ATOM     94  O   UNL A   1      43.588  25.186  37.640  1.00  0.00    -0.237 OA
ATOM     95  O   UNL A   1      45.097  23.822  36.232  1.00  0.00    -0.237 OA
ATOM     96  O   UNL A   1      45.999  25.090  38.142  1.00  0.00    -0.744 OA
ENDBRANCH  89  93
ENDBRANCH  63  86
ENDBRANCH  37  38
ENDBRANCH  30  32
ENDBRANCH  29  30
ENDBRANCH  28  29
ENDBRANCH  27  28
ENDBRANCH  26  27
ENDBRANCH   1  26
TORSDOF 22
ENDMDL
MODEL 3
REMARK VINA RESULT:      -9.9      3.022      4.580
REMARK SMILES C[C@]([NH2+]Cc1nc(-c2ccsc2)no1)(C(=O)OCCOCCOC(=O)c1ccc(-c2c3nc(c(-c4cc(S(=O)(=O)[O-])ccc4F)c4ccc([nH]4)c(-c4cc(S(=O)(=O)[O-])ccc4F)c4nc(c(-c5cc(S(=O)(=O)[O-])ccc5F)c5ccc2[nH]5)C=C4)C=C3)cc1)C(F)(F)F
REMARK SMILES IDX 19 1 18 2 17 3 15 4 16 5 2 6 1 7 89 8 90 9 91 10 92 11 3 12
REMARK SMILES IDX 4 15 5 16 6 17 14 18 7 19 13 20 8 21 9 22 12 23 10 24 11 25
REMARK SMILES IDX 20 26 21 27 22 28 23 29 24 30 25 31 26 32 27 33 88 34 28 35
REMARK SMILES IDX 87 36 29 37 30 38 31 39 81 40 32 41 86 42 80 43 82 44 33 45
REMARK SMILES IDX 85 46 79 47 78 48 34 50 66 51 46 52 65 53 47 54 50 55 64 56
REMARK SMILES IDX 83 57 48 58 49 59 63 61 84 62 51 63 35 64 36 65 44 66 37 67
REMARK SMILES IDX 43 68 45 69 42 70 38 71 39 72 40 73 41 74 67 75 68 76 76 77
REMARK SMILES IDX 69 78 75 79 77 80 74 81 70 82 71 83 72 84 73 85 52 86 53 87
REMARK SMILES IDX 61 88 54 89 60 90 62 91 59 92 55 93 56 94 57 95 58 96
REMARK H PARENT 3 13 3 14 82 49 50 60
REMARK Flexibility Score: inf
ROOT
ATOM      1  C   UNL A   1      32.785  28.776  27.440  1.00  0.00     0.202 C 
ENDROOT
BRANCH   1   2
ATOM      2  C   UNL A   1      33.436  27.954  26.324  1.00  0.00     0.261 C 
BRANCH   2   3
ATOM      3  O   UNL A   1      32.747  26.713  26.085  1.00  0.00    -0.458 OA
BRANCH   3   4
ATOM      4  C   UNL A   1      31.941  26.697  24.982  1.00  0.00     0.377 C 
ATOM      5  O   UNL A   1      31.236  27.642  24.646  1.00  0.00    -0.244 OA
BRANCH   4   6
ATOM      6  C   UNL A   1      31.944  25.336  24.266  1.00  0.00     0.287 C 
ATOM      7  C   UNL A   1      30.490  25.073  23.846  1.00  0.00     0.103 C 
BRANCH   6   8
ATOM      8  C   UNL A   1      32.830  25.593  23.016  1.00  0.00     0.455 C 
ATOM      9  F   UNL A   1      33.799  26.506  23.258  1.00  0.00    -0.164 F 
ATOM     10  F   UNL A   1      33.464  24.449  22.636  1.00  0.00    -0.164 F 
ATOM     11  F   UNL A   1      32.137  25.994  21.929  1.00  0.00    -0.164 F 
ENDBRANCH   6   8
BRANCH   6  12
ATOM     12  N   UNL A   1      32.460  24.236  25.179  1.00  0.00    -0.317 N 
ATOM     13  H   UNL A   1      32.727  24.660  26.068  1.00  0.00     0.347 HD
ATOM     14  H   UNL A   1      33.244  23.800  24.694  1.00  0.00     0.347 HD
BRANCH  12  15
ATOM     15  C   UNL A   1      31.488  23.165  25.453  1.00  0.00     0.363 C 
BRANCH  15  16
ATOM     16  C   UNL A   1      31.879  21.836  24.889  1.00  0.00     0.282 A 
ATOM     17  N   UNL A   1      32.149  20.689  25.474  1.00  0.00    -0.186 NA
ATOM     18  O   UNL A   1      31.920  21.770  23.523  1.00  0.00    -0.333 OA
ATOM     19  C   UNL A   1      32.426  19.882  24.395  1.00  0.00     0.203 A 
ATOM     20  N   UNL A   1      32.295  20.470  23.199  1.00  0.00    -0.057 NA
BRANCH  19  21
ATOM     21  C   UNL A   1      32.865  18.496  24.563  1.00  0.00     0.033 A 
ATOM     22  C   UNL A   1      32.578  17.713  25.720  1.00  0.00     0.024 A 
ATOM     23  C   UNL A   1      33.591  17.787  23.629  1.00  0.00     0.077 A 
ATOM     24  C   UNL A   1      33.097  16.438  25.621  1.00  0.00     0.065 A 
ATOM     25  S   UNL A   1      33.936  16.195  24.149  1.00  0.00    -0.152 S 
ENDBRANCH  19  21
ENDBRANCH  15  16
ENDBRANCH  12  15
ENDBRANCH   6  12
ENDBRANCH   4   6
ENDBRANCH   3   4
ENDBRANCH   2   3
ENDBRANCH   1   2
BRANCH   1  26
ATOM     26  O   UNL A   1      31.592  29.483  27.110  1.00  0.00    -0.374 OA
BRANCH  26  27
ATOM     27  C   UNL A   1      31.721  30.743  26.451  1.00  0.00     0.202 C 
BRANCH  27  28
ATOM     28  C   UNL A   1      32.969  31.586  26.743  1.00  0.00     0.261 C 
BRANCH  28  29
ATOM     29  O   UNL A   1      32.765  32.549  27.792  1.00  0.00    -0.460 OA
BRANCH  29  30
ATOM     30  C   UNL A   1      33.778  33.436  27.945  1.00  0.00     0.338 C 
ATOM     31  O   UNL A   1      33.689  34.658  27.956  1.00  0.00    -0.246 OA
BRANCH  30  32
ATOM     32  C   UNL A   1      35.023  32.734  28.308  1.00  0.00     0.060 A 
ATOM     33  C   UNL A   1      34.904  31.460  28.880  1.00  0.00     0.016 A 
ATOM     34  C   UNL A   1      36.274  33.339  28.175  1.00  0.00     0.016 A 
ATOM     35  C   UNL A   1      36.031  30.808  29.374  1.00  0.00     0.010 A 
ATOM     36  C   UNL A   1      37.403  32.687  28.683  1.00  0.00     0.010 A 
ATOM     37  C   UNL A   1      37.280  31.437  29.320  1.00  0.00    -0.014 A 
BRANCH  37  38
ATOM     38  C   UNL A   1      38.415  30.873  30.093  1.00  0.00     0.031 A 
ATOM     39  C   UNL A   1      39.287  29.835  29.438  1.00  0.00     0.074 A 
ATOM     40  C   UNL A   1      38.685  31.297  31.340  1.00  0.00     0.049 A 
ATOM     41  N   UNL A   1      40.288  29.156  29.932  1.00  0.00    -0.248 NA
ATOM     42  C   UNL A   1      38.978  29.522  28.034  1.00  0.00     0.031 C 
ATOM     43  C   UNL A   1      37.950  32.339  32.054  1.00  0.00     0.029 A 
ATOM     44  N   UNL A   1      39.651  30.896  32.228  1.00  0.00    -0.354 N 
ATOM     45  C   UNL A   1      40.727  28.327  28.904  1.00  0.00     0.074 A 
ATOM     46  C   UNL A   1      39.856  28.566  27.772  1.00  0.00     0.031 C 
ATOM     47  C   UNL A   1      38.482  32.484  33.280  1.00  0.00     0.029 A 
ATOM     48  C   UNL A   1      39.568  31.520  33.451  1.00  0.00     0.049 A 
ATOM     49  H   UNL A   1      40.338  30.226  32.011  1.00  0.00     0.167 HD
ATOM     50  C   UNL A   1      41.765  27.455  28.902  1.00  0.00     0.034 A 
ATOM     51  C   UNL A   1      40.268  31.314  34.585  1.00  0.00     0.034 A 
ATOM     52  C   UNL A   1      42.615  27.220  30.045  1.00  0.00     0.049 A 
ATOM     53  C   UNL A   1      41.359  30.269  34.592  1.00  0.00     0.074 A 
ATOM     54  C   UNL A   1      43.696  26.363  30.154  1.00  0.00     0.029 A 
ATOM     55  N   UNL A   1      42.472  27.838  31.281  1.00  0.00    -0.354 N 
ATOM     56  N   UNL A   1      41.761  29.485  33.618  1.00  0.00    -0.248 NA
ATOM     57  C   UNL A   1      42.094  30.086  35.851  1.00  0.00     0.031 C 
ATOM     58  C   UNL A   1      44.161  26.410  31.474  1.00  0.00     0.029 A 
ATOM     59  C   UNL A   1      43.422  27.356  32.169  1.00  0.00     0.049 A 
ATOM     60  H   UNL A   1      41.794  28.519  31.496  1.00  0.00     0.167 HD
ATOM     61  C   UNL A   1      42.817  28.742  34.138  1.00  0.00     0.074 A 
ATOM     62  C   UNL A   1      42.994  29.177  35.509  1.00  0.00     0.031 C 
ATOM     63  C   UNL A   1      43.579  27.792  33.537  1.00  0.00     0.034 A 
BRANCH  50  64
ATOM     64  C   UNL A   1      41.988  26.650  27.644  1.00  0.00     0.023 A 
ATOM     65  C   UNL A   1      41.574  25.311  27.537  1.00  0.00     0.031 A 
ATOM     66  C   UNL A   1      42.665  27.219  26.551  1.00  0.00     0.131 A 
ATOM     67  C   UNL A   1      41.910  24.564  26.398  1.00  0.00     0.055 A 
ATOM     68  C   UNL A   1      42.924  26.494  25.386  1.00  0.00     0.041 A 
ATOM     69  F   UNL A   1      43.105  28.486  26.602  1.00  0.00    -0.206 F 
ATOM     70  C   UNL A   1      42.560  25.153  25.310  1.00  0.00     0.022 A 
BRANCH  67  71
ATOM     71  S   UNL A   1      41.621  22.773  26.418  1.00  0.00     0.124 S 
ATOM     72  O   UNL A   1      42.159  22.403  27.726  1.00  0.00    -0.237 OA
ATOM     73  O   UNL A   1      40.173  22.686  26.275  1.00  0.00    -0.237 OA
ATOM     74  O   UNL A   1      42.393  22.287  25.277  1.00  0.00    -0.744 OA
ENDBRANCH  67  71
ENDBRANCH  50  64
BRANCH  51  75
ATOM     75  C   UNL A   1      39.933  32.071  35.825  1.00  0.00     0.023 A 
ATOM     76  C   UNL A   1      38.919  31.636  36.693  1.00  0.00     0.031 A 
ATOM     77  C   UNL A   1      40.594  33.274  36.133  1.00  0.00     0.131 A 
ATOM     78  C   UNL A   1      38.568  32.419  37.805  1.00  0.00     0.055 A 
ATOM     79  C   UNL A   1      40.276  34.022  37.267  1.00  0.00     0.041 A 
ATOM     80  F   UNL A   1      41.571  33.735  35.335  1.00  0.00    -0.206 F 
ATOM     81  C   UNL A   1      39.250  33.602  38.104  1.00  0.00     0.022 A 
BRANCH  78  82
ATOM     82  S   UNL A   1      37.155  31.905  38.819  1.00  0.00     0.124 S 
ATOM     83  O   UNL A   1      36.114  32.816  38.358  1.00  0.00    -0.237 OA
ATOM     84  O   UNL A   1      37.001  30.506  38.435  1.00  0.00    -0.237 OA
ATOM     85  O   UNL A   1      37.620  32.126  40.186  1.00  0.00    -0.744 OA
ENDBRANCH  78  82
ENDBRANCH  51  75
BRANCH  63  86
ATOM     86  C   UNL A   1      44.707  27.198  34.347  1.00  0.00     0.023 A 
ATOM     87  C   UNL A   1      44.581  25.961  35.002  1.00  0.00     0.031 A 
ATOM     88  C   UNL A   1      45.927  27.888  34.464  1.00  0.00     0.131 A 
ATOM     89  C   UNL A   1      45.639  25.475  35.787  1.00  0.00     0.055 A 
ATOM     90  C   UNL A   1      46.997  27.372  35.199  1.00  0.00     0.041 A 
ATOM     91  F   UNL A   1      46.103  29.074  33.862  1.00  0.00    -0.206 F 
ATOM     92  C   UNL A   1      46.851  26.165  35.876  1.00  0.00     0.022 A 
BRANCH  89  93
ATOM     93  S   UNL A   1      45.379  23.969  36.765  1.00  0.00     0.124 S 
ATOM     94  O   UNL A   1      46.707  23.363  36.748  1.00  0.00    -0.237 OA
ATOM     95  O   UNL A   1      44.938  24.503  38.049  1.00  0.00    -0.237 OA
ATOM     96  O   UNL A   1      44.357  23.244  36.013  1.00  0.00    -0.744 OA
ENDBRANCH  89  93
ENDBRANCH  63  86
ENDBRANCH  37  38
ENDBRANCH  30  32
ENDBRANCH  29  30
ENDBRANCH  28  29
ENDBRANCH  27  28
ENDBRANCH  26  27
ENDBRANCH   1  26
TORSDOF 22
ENDMDL
