MODEL 1
REMARK VINA RESULT:     -11.5      0.000      0.000
REMARK SMILES O=C(OCCOCCOC(=O)c1ccccc1/N=C/c1coc2ccccc2c1=O)c1ccc(-c2c3nc(c(-c4cc(S(=O)(=O)[O-])ccc4F)c4ccc([nH]4)c(-c4cc(S(=O)(=O)[O-])ccc4F)c4nc(c(-c5cc(S(=O)(=O)[O-])ccc5F)c5ccc2[nH]5)C=C4)C=C3)cc1
REMARK SMILES IDX 5 1 4 2 3 3 2 4 1 5 31 6 32 7 93 8 33 9 92 10 34 11 35 12
REMARK SMILES IDX 36 13 86 14 37 15 91 16 85 17 87 18 38 19 90 20 84 21 83 22
REMARK SMILES IDX 39 24 71 25 51 26 70 27 52 28 55 29 69 30 88 31 53 32 54 33
REMARK SMILES IDX 68 35 89 36 56 37 40 38 41 39 49 40 42 41 48 42 50 43 47 44
REMARK SMILES IDX 43 45 44 46 45 47 46 48 72 49 73 50 81 51 74 52 80 53 82 54
REMARK SMILES IDX 79 55 75 56 76 57 77 58 78 59 57 60 58 61 66 62 59 63 65 64
REMARK SMILES IDX 67 65 64 66 60 67 61 68 62 69 63 70 6 71 7 72 8 73 9 74
REMARK SMILES IDX 10 75 11 76 12 77 13 78 17 79 14 80 16 81 15 82 18 83 19 84
REMARK SMILES IDX 20 85 21 86 29 87 22 88 28 89 30 90 23 91 27 92 24 93 26 94
REMARK SMILES IDX 25 95
REMARK H PARENT 87 23 55 34
REMARK Flexibility Score: inf
ROOT
ATOM      1  C   UNL A   1      38.003  20.156  24.980  1.00  0.00     0.202 C 
ENDROOT
BRANCH   1   2
ATOM      2  C   UNL A   1      38.911  19.135  25.670  1.00  0.00     0.261 C 
BRANCH   2   3
ATOM      3  O   UNL A   1      40.292  19.368  25.323  1.00  0.00    -0.460 OA
BRANCH   3   4
ATOM      4  C   UNL A   1      41.319  19.675  26.154  1.00  0.00     0.338 C 
ATOM      5  O   UNL A   1      42.004  18.763  26.615  1.00  0.00    -0.246 OA
BRANCH   4   6
ATOM      6  C   UNL A   1      41.634  21.074  26.577  1.00  0.00     0.060 A 
ATOM      7  C   UNL A   1      41.414  22.189  25.774  1.00  0.00     0.016 A 
ATOM      8  C   UNL A   1      42.086  21.291  27.888  1.00  0.00     0.016 A 
ATOM      9  C   UNL A   1      41.688  23.469  26.202  1.00  0.00     0.010 A 
ATOM     10  C   UNL A   1      42.334  22.591  28.352  1.00  0.00     0.010 A 
ATOM     11  C   UNL A   1      42.145  23.681  27.495  1.00  0.00    -0.014 A 
BRANCH  11  12
ATOM     12  C   UNL A   1      42.549  25.061  27.801  1.00  0.00     0.031 A 
ATOM     13  C   UNL A   1      43.874  25.525  27.280  1.00  0.00     0.074 A 
ATOM     14  C   UNL A   1      41.630  25.917  28.286  1.00  0.00     0.049 A 
ATOM     15  N   UNL A   1      44.446  26.690  27.394  1.00  0.00    -0.248 NA
ATOM     16  C   UNL A   1      44.646  24.544  26.496  1.00  0.00     0.031 C 
ATOM     17  C   UNL A   1      40.245  25.558  28.621  1.00  0.00     0.029 A 
ATOM     18  N   UNL A   1      41.685  27.263  28.517  1.00  0.00    -0.354 N 
ATOM     19  C   UNL A   1      45.653  26.580  26.714  1.00  0.00     0.074 A 
ATOM     20  C   UNL A   1      45.737  25.231  26.201  1.00  0.00     0.031 C 
ATOM     21  C   UNL A   1      39.579  26.667  28.980  1.00  0.00     0.029 A 
ATOM     22  C   UNL A   1      40.507  27.788  28.997  1.00  0.00     0.049 A 
ATOM     23  H   UNL A   1      42.491  27.805  28.357  1.00  0.00     0.167 HD
ATOM     24  C   UNL A   1      46.601  27.531  26.547  1.00  0.00     0.034 A 
ATOM     25  C   UNL A   1      40.239  29.031  29.446  1.00  0.00     0.034 A 
ATOM     26  C   UNL A   1      46.468  28.853  27.101  1.00  0.00     0.049 A 
ATOM     27  C   UNL A   1      41.369  30.029  29.387  1.00  0.00     0.074 A 
ATOM     28  C   UNL A   1      47.395  29.874  27.156  1.00  0.00     0.029 A 
ATOM     29  N   UNL A   1      45.306  29.334  27.702  1.00  0.00    -0.354 N 
ATOM     30  N   UNL A   1      42.574  29.881  28.879  1.00  0.00    -0.248 NA
ATOM     31  C   UNL A   1      41.116  31.349  29.968  1.00  0.00     0.031 C 
ATOM     32  C   UNL A   1      46.814  30.949  27.840  1.00  0.00     0.029 A 
ATOM     33  C   UNL A   1      45.498  30.629  28.145  1.00  0.00     0.049 A 
ATOM     34  H   UNL A   1      44.469  28.824  27.797  1.00  0.00     0.167 HD
ATOM     35  C   UNL A   1      43.221  31.095  29.073  1.00  0.00     0.074 A 
ATOM     36  C   UNL A   1      42.254  31.974  29.703  1.00  0.00     0.031 C 
ATOM     37  C   UNL A   1      44.498  31.457  28.779  1.00  0.00     0.034 A 
BRANCH  24  38
ATOM     38  C   UNL A   1      47.870  27.107  25.853  1.00  0.00     0.023 A 
ATOM     39  C   UNL A   1      48.948  26.536  26.556  1.00  0.00     0.031 A 
ATOM     40  C   UNL A   1      48.050  27.390  24.488  1.00  0.00     0.131 A 
ATOM     41  C   UNL A   1      50.180  26.343  25.909  1.00  0.00     0.055 A 
ATOM     42  C   UNL A   1      49.252  27.121  23.831  1.00  0.00     0.041 A 
ATOM     43  F   UNL A   1      47.071  27.970  23.776  1.00  0.00    -0.206 F 
ATOM     44  C   UNL A   1      50.332  26.610  24.546  1.00  0.00     0.022 A 
BRANCH  41  45
ATOM     45  S   UNL A   1      51.627  25.888  26.906  1.00  0.00     0.124 S 
ATOM     46  O   UNL A   1      52.503  27.038  26.695  1.00  0.00    -0.237 OA
ATOM     47  O   UNL A   1      51.062  25.753  28.244  1.00  0.00    -0.237 OA
ATOM     48  O   UNL A   1      52.086  24.642  26.295  1.00  0.00    -0.744 OA
ENDBRANCH  41  45
ENDBRANCH  24  38
BRANCH  25  49
ATOM     49  C   UNL A   1      38.926  29.361  30.085  1.00  0.00     0.023 A 
ATOM     50  C   UNL A   1      37.927  30.078  29.405  1.00  0.00     0.031 A 
ATOM     51  C   UNL A   1      38.686  29.040  31.437  1.00  0.00     0.131 A 
ATOM     52  C   UNL A   1      36.773  30.497  30.090  1.00  0.00     0.055 A 
ATOM     53  C   UNL A   1      37.506  29.396  32.092  1.00  0.00     0.041 A 
ATOM     54  F   UNL A   1      39.605  28.372  32.154  1.00  0.00    -0.206 F 
ATOM     55  C   UNL A   1      36.549  30.148  31.423  1.00  0.00     0.022 A 
BRANCH  52  56
ATOM     56  S   UNL A   1      35.620  31.625  29.254  1.00  0.00     0.124 S 
ATOM     57  O   UNL A   1      36.533  32.597  28.662  1.00  0.00    -0.237 OA
ATOM     58  O   UNL A   1      34.944  30.729  28.321  1.00  0.00    -0.237 OA
ATOM     59  O   UNL A   1      34.789  32.132  30.343  1.00  0.00    -0.744 OA
ENDBRANCH  52  56
ENDBRANCH  25  49
BRANCH  37  60
ATOM     60  C   UNL A   1      44.879  32.874  29.120  1.00  0.00     0.023 A 
ATOM     61  C   UNL A   1      44.741  33.913  28.185  1.00  0.00     0.031 A 
ATOM     62  C   UNL A   1      45.412  33.178  30.384  1.00  0.00     0.131 A 
ATOM     63  C   UNL A   1      45.203  35.196  28.501  1.00  0.00     0.055 A 
ATOM     64  C   UNL A   1      45.801  34.474  30.719  1.00  0.00     0.041 A 
ATOM     65  F   UNL A   1      45.564  32.218  31.311  1.00  0.00    -0.206 F 
ATOM     66  C   UNL A   1      45.714  35.487  29.769  1.00  0.00     0.022 A 
BRANCH  63  67
ATOM     67  S   UNL A   1      45.238  36.448  27.191  1.00  0.00     0.124 S 
ATOM     68  O   UNL A   1      45.926  37.554  27.849  1.00  0.00    -0.237 OA
ATOM     69  O   UNL A   1      45.983  35.771  26.134  1.00  0.00    -0.237 OA
ATOM     70  O   UNL A   1      43.825  36.679  26.901  1.00  0.00    -0.744 OA
ENDBRANCH  63  67
ENDBRANCH  37  60
ENDBRANCH  11  12
ENDBRANCH   4   6
ENDBRANCH   3   4
ENDBRANCH   2   3
ENDBRANCH   1   2
BRANCH   1  71
ATOM     71  O   UNL A   1      38.391  21.510  25.163  1.00  0.00    -0.374 OA
BRANCH  71  72
ATOM     72  C   UNL A   1      37.546  22.322  25.984  1.00  0.00     0.202 C 
BRANCH  72  73
ATOM     73  C   UNL A   1      37.453  23.676  25.303  1.00  0.00     0.261 C 
BRANCH  73  74
ATOM     74  O   UNL A   1      36.123  23.747  24.775  1.00  0.00    -0.460 OA
BRANCH  74  75
ATOM     75  C   UNL A   1      35.937  23.206  23.550  1.00  0.00     0.340 C 
ATOM     76  O   UNL A   1      36.744  23.108  22.640  1.00  0.00    -0.246 OA
BRANCH  75  77
ATOM     77  C   UNL A   1      34.589  22.629  23.513  1.00  0.00     0.085 A 
ATOM     78  C   UNL A   1      34.364  21.555  24.395  1.00  0.00     0.018 A 
ATOM     79  C   UNL A   1      33.545  23.176  22.747  1.00  0.00     0.077 A 
ATOM     80  C   UNL A   1      33.084  21.027  24.548  1.00  0.00     0.001 A 
ATOM     81  C   UNL A   1      32.277  22.588  22.888  1.00  0.00     0.029 A 
ATOM     82  C   UNL A   1      32.042  21.537  23.783  1.00  0.00     0.002 A 
BRANCH  79  83
ATOM     83  N   UNL A   1      33.548  24.437  22.129  1.00  0.00    -0.255 NA
ATOM     84  C   UNL A   1      33.649  25.577  22.731  1.00  0.00     0.127 C 
BRANCH  84  85
ATOM     85  C   UNL A   1      32.958  26.806  22.165  1.00  0.00     0.076 A 
ATOM     86  C   UNL A   1      31.612  26.716  22.141  1.00  0.00     0.209 A 
ATOM     87  C   UNL A   1      33.242  28.059  22.967  1.00  0.00     0.201 A 
ATOM     88  O   UNL A   1      30.832  26.820  23.317  1.00  0.00    -0.463 OA
ATOM     89  C   UNL A   1      32.695  27.981  24.335  1.00  0.00     0.065 A 
ATOM     90  O   UNL A   1      33.855  29.026  22.542  1.00  0.00    -0.288 OA
ATOM     91  C   UNL A   1      31.499  27.259  24.447  1.00  0.00     0.137 A 
ATOM     92  C   UNL A   1      33.466  28.296  25.453  1.00  0.00     0.016 A 
ATOM     93  C   UNL A   1      31.051  26.848  25.693  1.00  0.00     0.048 A 
ATOM     94  C   UNL A   1      33.036  27.837  26.700  1.00  0.00     0.001 A 
ATOM     95  C   UNL A   1      31.839  27.115  26.817  1.00  0.00     0.004 A 
ENDBRANCH  84  85
ENDBRANCH  79  83
ENDBRANCH  75  77
ENDBRANCH  74  75
ENDBRANCH  73  74
ENDBRANCH  72  73
ENDBRANCH  71  72
ENDBRANCH   1  71
TORSDOF 19
ENDMDL
MODEL 2
REMARK VINA RESULT:     -11.5      4.651     10.208
REMARK SMILES O=C(OCCOCCOC(=O)c1ccccc1/N=C/c1coc2ccccc2c1=O)c1ccc(-c2c3nc(c(-c4cc(S(=O)(=O)[O-])ccc4F)c4ccc([nH]4)c(-c4cc(S(=O)(=O)[O-])ccc4F)c4nc(c(-c5cc(S(=O)(=O)[O-])ccc5F)c5ccc2[nH]5)C=C4)C=C3)cc1
REMARK SMILES IDX 5 1 4 2 3 3 2 4 1 5 31 6 32 7 93 8 33 9 92 10 34 11 35 12
REMARK SMILES IDX 36 13 86 14 37 15 91 16 85 17 87 18 38 19 90 20 84 21 83 22
REMARK SMILES IDX 39 24 71 25 51 26 70 27 52 28 55 29 69 30 88 31 53 32 54 33
REMARK SMILES IDX 68 35 89 36 56 37 40 38 41 39 49 40 42 41 48 42 50 43 47 44
REMARK SMILES IDX 43 45 44 46 45 47 46 48 72 49 73 50 81 51 74 52 80 53 82 54
REMARK SMILES IDX 79 55 75 56 76 57 77 58 78 59 57 60 58 61 66 62 59 63 65 64
REMARK SMILES IDX 67 65 64 66 60 67 61 68 62 69 63 70 6 71 7 72 8 73 9 74
REMARK SMILES IDX 10 75 11 76 12 77 13 78 17 79 14 80 16 81 15 82 18 83 19 84
REMARK SMILES IDX 20 85 21 86 29 87 22 88 28 89 30 90 23 91 27 92 24 93 26 94
REMARK SMILES IDX 25 95
REMARK H PARENT 87 23 55 34
REMARK Flexibility Score: inf
ROOT
ATOM      1  C   UNL A   1      31.779  30.625  26.740  1.00  0.00     0.202 C 
ENDROOT
BRANCH   1   2
ATOM      2  C   UNL A   1      31.302  32.080  26.727  1.00  0.00     0.261 C 
BRANCH   2   3
ATOM      3  O   UNL A   1      32.427  32.983  26.727  1.00  0.00    -0.460 OA
BRANCH   3   4
ATOM      4  C   UNL A   1      33.089  33.489  27.797  1.00  0.00     0.338 C 
ATOM      5  O   UNL A   1      32.656  34.506  28.337  1.00  0.00    -0.246 OA
BRANCH   4   6
ATOM      6  C   UNL A   1      34.354  32.895  28.328  1.00  0.00     0.060 A 
ATOM      7  C   UNL A   1      34.415  31.661  28.968  1.00  0.00     0.016 A 
ATOM      8  C   UNL A   1      35.562  33.568  28.089  1.00  0.00     0.016 A 
ATOM      9  C   UNL A   1      35.600  31.125  29.422  1.00  0.00     0.010 A 
ATOM     10  C   UNL A   1      36.781  33.020  28.512  1.00  0.00     0.010 A 
ATOM     11  C   UNL A   1      36.792  31.797  29.194  1.00  0.00    -0.014 A 
BRANCH  11  12
ATOM     12  C   UNL A   1      37.975  31.219  29.848  1.00  0.00     0.031 A 
ATOM     13  C   UNL A   1      38.204  31.560  31.288  1.00  0.00     0.074 A 
ATOM     14  C   UNL A   1      38.637  30.221  29.233  1.00  0.00     0.049 A 
ATOM     15  N   UNL A   1      39.152  31.167  32.090  1.00  0.00    -0.248 NA
ATOM     16  C   UNL A   1      37.205  32.444  31.916  1.00  0.00     0.031 C 
ATOM     17  C   UNL A   1      38.320  29.704  27.896  1.00  0.00     0.029 A 
ATOM     18  N   UNL A   1      39.657  29.418  29.662  1.00  0.00    -0.354 N 
ATOM     19  C   UNL A   1      38.879  31.769  33.312  1.00  0.00     0.074 A 
ATOM     20  C   UNL A   1      37.682  32.563  33.144  1.00  0.00     0.031 C 
ATOM     21  C   UNL A   1      39.108  28.650  27.633  1.00  0.00     0.029 A 
ATOM     22  C   UNL A   1      40.046  28.479  28.733  1.00  0.00     0.049 A 
ATOM     23  H   UNL A   1      40.074  29.503  30.550  1.00  0.00     0.167 HD
ATOM     24  C   UNL A   1      39.579  31.662  34.465  1.00  0.00     0.034 A 
ATOM     25  C   UNL A   1      41.083  27.618  28.763  1.00  0.00     0.034 A 
ATOM     26  C   UNL A   1      40.777  30.870  34.565  1.00  0.00     0.049 A 
ATOM     27  C   UNL A   1      41.939  27.634  30.006  1.00  0.00     0.074 A 
ATOM     28  C   UNL A   1      41.682  30.782  35.605  1.00  0.00     0.029 A 
ATOM     29  N   UNL A   1      41.234  30.015  33.563  1.00  0.00    -0.354 N 
ATOM     30  N   UNL A   1      41.768  28.321  31.116  1.00  0.00    -0.248 NA
ATOM     31  C   UNL A   1      43.125  26.776  30.003  1.00  0.00     0.031 C 
ATOM     32  C   UNL A   1      42.712  29.920  35.209  1.00  0.00     0.029 A 
ATOM     33  C   UNL A   1      42.413  29.409  33.952  1.00  0.00     0.049 A 
ATOM     34  H   UNL A   1      40.780  29.866  32.702  1.00  0.00     0.167 HD
ATOM     35  C   UNL A   1      42.826  27.971  31.946  1.00  0.00     0.074 A 
ATOM     36  C   UNL A   1      43.598  26.978  31.223  1.00  0.00     0.031 C 
ATOM     37  C   UNL A   1      43.149  28.431  33.184  1.00  0.00     0.034 A 
BRANCH  24  38
ATOM     38  C   UNL A   1      39.117  32.513  35.620  1.00  0.00     0.023 A 
ATOM     39  C   UNL A   1      39.530  33.851  35.773  1.00  0.00     0.031 A 
ATOM     40  C   UNL A   1      38.347  31.941  36.648  1.00  0.00     0.131 A 
ATOM     41  C   UNL A   1      39.239  34.540  36.961  1.00  0.00     0.055 A 
ATOM     42  C   UNL A   1      37.994  32.659  37.792  1.00  0.00     0.041 A 
ATOM     43  F   UNL A   1      37.958  30.659  36.575  1.00  0.00    -0.206 F 
ATOM     44  C   UNL A   1      38.454  33.961  37.961  1.00  0.00     0.022 A 
BRANCH  41  45
ATOM     45  S   UNL A   1      40.032  36.147  37.253  1.00  0.00     0.124 S 
ATOM     46  O   UNL A   1      41.399  35.746  37.577  1.00  0.00    -0.237 OA
ATOM     47  O   UNL A   1      39.851  36.828  35.976  1.00  0.00    -0.237 OA
ATOM     48  O   UNL A   1      39.272  36.706  38.370  1.00  0.00    -0.744 OA
ENDBRANCH  41  45
ENDBRANCH  24  38
BRANCH  25  49
ATOM     49  C   UNL A   1      41.437  26.784  27.572  1.00  0.00     0.023 A 
ATOM     50  C   UNL A   1      41.132  25.414  27.507  1.00  0.00     0.031 A 
ATOM     51  C   UNL A   1      42.176  27.335  26.506  1.00  0.00     0.131 A 
ATOM     52  C   UNL A   1      41.615  24.636  26.438  1.00  0.00     0.055 A 
ATOM     53  C   UNL A   1      42.591  26.573  25.412  1.00  0.00     0.041 A 
ATOM     54  F   UNL A   1      42.518  28.633  26.510  1.00  0.00    -0.206 F 
ATOM     55  C   UNL A   1      42.328  25.209  25.384  1.00  0.00     0.022 A 
BRANCH  52  56
ATOM     56  S   UNL A   1      41.414  22.832  26.508  1.00  0.00     0.124 S 
ATOM     57  O   UNL A   1      41.890  22.532  27.854  1.00  0.00    -0.237 OA
ATOM     58  O   UNL A   1      39.980  22.679  26.285  1.00  0.00    -0.237 OA
ATOM     59  O   UNL A   1      42.268  22.353  25.423  1.00  0.00    -0.744 OA
ENDBRANCH  52  56
ENDBRANCH  25  49
BRANCH  37  60
ATOM     60  C   UNL A   1      44.374  27.826  33.816  1.00  0.00     0.023 A 
ATOM     61  C   UNL A   1      45.644  28.401  33.644  1.00  0.00     0.031 A 
ATOM     62  C   UNL A   1      44.271  26.646  34.571  1.00  0.00     0.131 A 
ATOM     63  C   UNL A   1      46.773  27.753  34.158  1.00  0.00     0.055 A 
ATOM     64  C   UNL A   1      45.391  26.046  35.144  1.00  0.00     0.041 A 
ATOM     65  F   UNL A   1      43.079  26.058  34.763  1.00  0.00    -0.206 F 
ATOM     66  C   UNL A   1      46.654  26.590  34.924  1.00  0.00     0.022 A 
BRANCH  63  67
ATOM     67  S   UNL A   1      48.411  28.386  33.708  1.00  0.00     0.124 S 
ATOM     68  O   UNL A   1      49.176  27.155  33.540  1.00  0.00    -0.237 OA
ATOM     69  O   UNL A   1      48.131  29.136  32.487  1.00  0.00    -0.237 OA
ATOM     70  O   UNL A   1      48.791  29.201  34.861  1.00  0.00    -0.744 OA
ENDBRANCH  63  67
ENDBRANCH  37  60
ENDBRANCH  11  12
ENDBRANCH   4   6
ENDBRANCH   3   4
ENDBRANCH   2   3
ENDBRANCH   1   2
BRANCH   1  71
ATOM     71  O   UNL A   1      32.979  30.391  26.019  1.00  0.00    -0.374 OA
BRANCH  71  72
ATOM     72  C   UNL A   1      33.413  29.033  25.903  1.00  0.00     0.202 C 
BRANCH  72  73
ATOM     73  C   UNL A   1      33.849  28.838  24.463  1.00  0.00     0.261 C 
BRANCH  73  74
ATOM     74  O   UNL A   1      33.745  27.430  24.219  1.00  0.00    -0.460 OA
BRANCH  74  75
ATOM     75  C   UNL A   1      33.079  27.065  23.100  1.00  0.00     0.340 C 
ATOM     76  O   UNL A   1      33.545  26.687  22.037  1.00  0.00    -0.246 OA
BRANCH  75  77
ATOM     77  C   UNL A   1      31.644  27.087  23.403  1.00  0.00     0.085 A 
ATOM     78  C   UNL A   1      30.878  27.997  22.650  1.00  0.00     0.018 A 
ATOM     79  C   UNL A   1      31.038  26.182  24.292  1.00  0.00     0.077 A 
ATOM     80  C   UNL A   1      29.489  28.000  22.752  1.00  0.00     0.001 A 
ATOM     81  C   UNL A   1      29.639  26.245  24.408  1.00  0.00     0.029 A 
ATOM     82  C   UNL A   1      28.870  27.130  23.643  1.00  0.00     0.002 A 
BRANCH  79  83
ATOM     83  N   UNL A   1      31.623  25.016  24.809  1.00  0.00    -0.255 NA
ATOM     84  C   UNL A   1      31.404  23.810  24.396  1.00  0.00     0.127 C 
BRANCH  84  85
ATOM     85  C   UNL A   1      31.463  22.645  25.369  1.00  0.00     0.076 A 
ATOM     86  C   UNL A   1      31.778  21.465  24.795  1.00  0.00     0.209 A 
ATOM     87  C   UNL A   1      32.510  22.835  26.448  1.00  0.00     0.201 A 
ATOM     88  O   UNL A   1      33.091  21.168  24.361  1.00  0.00    -0.463 OA
ATOM     89  C   UNL A   1      33.878  22.866  25.896  1.00  0.00     0.065 A 
ATOM     90  O   UNL A   1      32.262  22.954  27.638  1.00  0.00    -0.288 OA
ATOM     91  C   UNL A   1      34.077  22.047  24.777  1.00  0.00     0.137 A 
ATOM     92  C   UNL A   1      34.786  23.867  26.240  1.00  0.00     0.016 A 
ATOM     93  C   UNL A   1      35.202  22.215  23.985  1.00  0.00     0.048 A 
ATOM     94  C   UNL A   1      35.892  24.066  25.411  1.00  0.00     0.001 A 
ATOM     95  C   UNL A   1      36.096  23.247  24.290  1.00  0.00     0.004 A 
ENDBRANCH  84  85
ENDBRANCH  79  83
ENDBRANCH  75  77
ENDBRANCH  74  75
ENDBRANCH  73  74
ENDBRANCH  72  73
ENDBRANCH  71  72
ENDBRANCH   1  71
TORSDOF 19
ENDMDL
MODEL 3
REMARK VINA RESULT:     -11.4      1.476      7.933
REMARK SMILES O=C(OCCOCCOC(=O)c1ccccc1/N=C/c1coc2ccccc2c1=O)c1ccc(-c2c3nc(c(-c4cc(S(=O)(=O)[O-])ccc4F)c4ccc([nH]4)c(-c4cc(S(=O)(=O)[O-])ccc4F)c4nc(c(-c5cc(S(=O)(=O)[O-])ccc5F)c5ccc2[nH]5)C=C4)C=C3)cc1
REMARK SMILES IDX 5 1 4 2 3 3 2 4 1 5 31 6 32 7 93 8 33 9 92 10 34 11 35 12
REMARK SMILES IDX 36 13 86 14 37 15 91 16 85 17 87 18 38 19 90 20 84 21 83 22
REMARK SMILES IDX 39 24 71 25 51 26 70 27 52 28 55 29 69 30 88 31 53 32 54 33
REMARK SMILES IDX 68 35 89 36 56 37 40 38 41 39 49 40 42 41 48 42 50 43 47 44
REMARK SMILES IDX 43 45 44 46 45 47 46 48 72 49 73 50 81 51 74 52 80 53 82 54
REMARK SMILES IDX 79 55 75 56 76 57 77 58 78 59 57 60 58 61 66 62 59 63 65 64
REMARK SMILES IDX 67 65 64 66 60 67 61 68 62 69 63 70 6 71 7 72 8 73 9 74
REMARK SMILES IDX 10 75 11 76 12 77 13 78 17 79 14 80 16 81 15 82 18 83 19 84
REMARK SMILES IDX 20 85 21 86 29 87 22 88 28 89 30 90 23 91 27 92 24 93 26 94
REMARK SMILES IDX 25 95
REMARK H PARENT 87 23 55 34
REMARK Flexibility Score: inf
ROOT
ATOM      1  C   UNL A   1      35.558  22.340  24.705  1.00  0.00     0.202 C 
ENDROOT
BRANCH   1   2
ATOM      2  C   UNL A   1      36.140  21.116  25.417  1.00  0.00     0.261 C 
BRANCH   2   3
ATOM      3  O   UNL A   1      37.525  20.932  25.061  1.00  0.00    -0.460 OA
BRANCH   3   4
ATOM      4  C   UNL A   1      38.608  20.971  25.878  1.00  0.00     0.338 C 
ATOM      5  O   UNL A   1      39.035  19.918  26.349  1.00  0.00    -0.246 OA
BRANCH   4   6
ATOM      6  C   UNL A   1      39.284  22.244  26.274  1.00  0.00     0.060 A 
ATOM      7  C   UNL A   1      38.866  23.502  25.849  1.00  0.00     0.016 A 
ATOM      8  C   UNL A   1      40.337  22.184  27.199  1.00  0.00     0.016 A 
ATOM      9  C   UNL A   1      39.492  24.661  26.253  1.00  0.00     0.010 A 
ATOM     10  C   UNL A   1      40.962  23.356  27.649  1.00  0.00     0.010 A 
ATOM     11  C   UNL A   1      40.540  24.598  27.159  1.00  0.00    -0.014 A 
BRANCH  11  12
ATOM     12  C   UNL A   1      41.235  25.870  27.407  1.00  0.00     0.031 A 
ATOM     13  C   UNL A   1      40.540  26.880  28.266  1.00  0.00     0.074 A 
ATOM     14  C   UNL A   1      42.540  25.971  27.094  1.00  0.00     0.049 A 
ATOM     15  N   UNL A   1      40.943  28.059  28.647  1.00  0.00    -0.248 NA
ATOM     16  C   UNL A   1      39.217  26.493  28.789  1.00  0.00     0.031 C 
ATOM     17  C   UNL A   1      43.328  24.921  26.435  1.00  0.00     0.029 A 
ATOM     18  N   UNL A   1      43.452  26.959  27.343  1.00  0.00    -0.354 N 
ATOM     19  C   UNL A   1      39.919  28.564  29.439  1.00  0.00     0.074 A 
ATOM     20  C   UNL A   1      38.870  27.570  29.474  1.00  0.00     0.031 C 
ATOM     21  C   UNL A   1      44.610  25.312  26.364  1.00  0.00     0.029 A 
ATOM     22  C   UNL A   1      44.716  26.669  26.880  1.00  0.00     0.049 A 
ATOM     23  H   UNL A   1      43.227  27.797  27.807  1.00  0.00     0.167 HD
ATOM     24  C   UNL A   1      39.872  29.760  30.071  1.00  0.00     0.034 A 
ATOM     25  C   UNL A   1      45.816  27.448  26.838  1.00  0.00     0.034 A 
ATOM     26  C   UNL A   1      40.941  30.719  29.981  1.00  0.00     0.049 A 
ATOM     27  C   UNL A   1      45.683  28.837  27.415  1.00  0.00     0.074 A 
ATOM     28  C   UNL A   1      40.984  32.025  30.427  1.00  0.00     0.029 A 
ATOM     29  N   UNL A   1      42.178  30.456  29.394  1.00  0.00    -0.354 N 
ATOM     30  N   UNL A   1      44.655  29.376  28.036  1.00  0.00    -0.248 NA
ATOM     31  C   UNL A   1      46.841  29.722  27.280  1.00  0.00     0.031 C 
ATOM     32  C   UNL A   1      42.221  32.567  30.060  1.00  0.00     0.029 A 
ATOM     33  C   UNL A   1      42.983  31.578  29.451  1.00  0.00     0.049 A 
ATOM     34  H   UNL A   1      42.440  29.594  28.996  1.00  0.00     0.167 HD
ATOM     35  C   UNL A   1      45.049  30.667  28.372  1.00  0.00     0.074 A 
ATOM     36  C   UNL A   1      46.422  30.801  27.924  1.00  0.00     0.031 C 
ATOM     37  C   UNL A   1      44.346  31.659  28.978  1.00  0.00     0.034 A 
BRANCH  24  38
ATOM     38  C   UNL A   1      38.586  30.100  30.781  1.00  0.00     0.023 A 
ATOM     39  C   UNL A   1      37.550  30.812  30.147  1.00  0.00     0.031 A 
ATOM     40  C   UNL A   1      38.445  29.813  32.150  1.00  0.00     0.131 A 
ATOM     41  C   UNL A   1      36.461  31.280  30.900  1.00  0.00     0.055 A 
ATOM     42  C   UNL A   1      37.321  30.213  32.875  1.00  0.00     0.041 A 
ATOM     43  F   UNL A   1      39.418  29.172  32.817  1.00  0.00    -0.206 F 
ATOM     44  C   UNL A   1      36.329  30.965  32.254  1.00  0.00     0.022 A 
BRANCH  41  45
ATOM     45  S   UNL A   1      35.299  32.439  30.125  1.00  0.00     0.124 S 
ATOM     46  O   UNL A   1      36.189  33.527  29.728  1.00  0.00    -0.237 OA
ATOM     47  O   UNL A   1      34.735  31.646  29.038  1.00  0.00    -0.237 OA
ATOM     48  O   UNL A   1      34.369  32.766  31.204  1.00  0.00    -0.744 OA
ENDBRANCH  41  45
ENDBRANCH  24  38
BRANCH  25  49
ATOM     49  C   UNL A   1      47.062  27.000  26.140  1.00  0.00     0.023 A 
ATOM     50  C   UNL A   1      48.081  26.305  26.812  1.00  0.00     0.031 A 
ATOM     51  C   UNL A   1      47.292  27.346  24.793  1.00  0.00     0.131 A 
ATOM     52  C   UNL A   1      49.297  26.035  26.159  1.00  0.00     0.055 A 
ATOM     53  C   UNL A   1      48.473  27.012  24.128  1.00  0.00     0.041 A 
ATOM     54  F   UNL A   1      46.369  28.026  24.095  1.00  0.00    -0.206 F 
ATOM     55  C   UNL A   1      49.494  26.370  24.817  1.00  0.00     0.022 A 
BRANCH  52  56
ATOM     56  S   UNL A   1      50.678  25.358  27.124  1.00  0.00     0.124 S 
ATOM     57  O   UNL A   1      50.023  24.290  27.871  1.00  0.00    -0.237 OA
ATOM     58  O   UNL A   1      51.601  24.935  26.076  1.00  0.00    -0.237 OA
ATOM     59  O   UNL A   1      51.125  26.496  27.924  1.00  0.00    -0.744 OA
ENDBRANCH  52  56
ENDBRANCH  25  49
BRANCH  37  60
ATOM     60  C   UNL A   1      45.086  32.952  29.202  1.00  0.00     0.023 A 
ATOM     61  C   UNL A   1      45.030  33.997  28.265  1.00  0.00     0.031 A 
ATOM     62  C   UNL A   1      45.877  33.123  30.351  1.00  0.00     0.131 A 
ATOM     63  C   UNL A   1      45.814  35.141  28.457  1.00  0.00     0.055 A 
ATOM     64  C   UNL A   1      46.597  34.297  30.571  1.00  0.00     0.041 A 
ATOM     65  F   UNL A   1      45.962  32.153  31.274  1.00  0.00    -0.206 F 
ATOM     66  C   UNL A   1      46.582  35.306  29.613  1.00  0.00     0.022 A 
BRANCH  63  67
ATOM     67  S   UNL A   1      45.911  36.356  27.115  1.00  0.00     0.124 S 
ATOM     68  O   UNL A   1      44.509  36.719  26.935  1.00  0.00    -0.237 OA
ATOM     69  O   UNL A   1      46.769  37.388  27.690  1.00  0.00    -0.237 OA
ATOM     70  O   UNL A   1      46.504  35.601  26.013  1.00  0.00    -0.744 OA
ENDBRANCH  63  67
ENDBRANCH  37  60
ENDBRANCH  11  12
ENDBRANCH   4   6
ENDBRANCH   3   4
ENDBRANCH   2   3
ENDBRANCH   1   2
BRANCH   1  71
ATOM     71  O   UNL A   1      34.719  23.150  25.516  1.00  0.00    -0.374 OA
BRANCH  71  72
ATOM     72  C   UNL A   1      34.817  22.972  26.932  1.00  0.00     0.202 C 
BRANCH  72  73
ATOM     73  C   UNL A   1      33.427  22.606  27.420  1.00  0.00     0.261 C 
BRANCH  73  74
ATOM     74  O   UNL A   1      32.523  23.307  26.557  1.00  0.00    -0.460 OA
BRANCH  74  75
ATOM     75  C   UNL A   1      31.435  22.617  26.145  1.00  0.00     0.340 C 
ATOM     76  O   UNL A   1      30.326  22.587  26.653  1.00  0.00    -0.246 OA
BRANCH  75  77
ATOM     77  C   UNL A   1      31.771  21.966  24.873  1.00  0.00     0.085 A 
ATOM     78  C   UNL A   1      32.265  20.652  24.976  1.00  0.00     0.018 A 
ATOM     79  C   UNL A   1      31.508  22.552  23.624  1.00  0.00     0.077 A 
ATOM     80  C   UNL A   1      32.477  19.889  23.830  1.00  0.00     0.001 A 
ATOM     81  C   UNL A   1      31.781  21.774  22.486  1.00  0.00     0.029 A 
ATOM     82  C   UNL A   1      32.247  20.458  22.582  1.00  0.00     0.002 A 
BRANCH  79  83
ATOM     83  N   UNL A   1      30.698  23.675  23.392  1.00  0.00    -0.255 NA
ATOM     84  C   UNL A   1      31.017  24.905  23.637  1.00  0.00     0.127 C 
BRANCH  84  85
ATOM     85  C   UNL A   1      29.949  25.907  24.042  1.00  0.00     0.076 A 
ATOM     86  C   UNL A   1      29.633  25.874  25.352  1.00  0.00     0.209 A 
ATOM     87  C   UNL A   1      30.365  27.341  23.786  1.00  0.00     0.201 A 
ATOM     88  O   UNL A   1      30.496  26.393  26.346  1.00  0.00    -0.463 OA
ATOM     89  C   UNL A   1      31.517  27.743  24.615  1.00  0.00     0.065 A 
ATOM     90  O   UNL A   1      29.820  28.086  22.986  1.00  0.00    -0.288 OA
ATOM     91  C   UNL A   1      31.558  27.152  25.885  1.00  0.00     0.137 A 
ATOM     92  C   UNL A   1      32.632  28.376  24.067  1.00  0.00     0.016 A 
ATOM     93  C   UNL A   1      32.725  27.194  26.633  1.00  0.00     0.048 A 
ATOM     94  C   UNL A   1      33.818  28.373  24.803  1.00  0.00     0.001 A 
ATOM     95  C   UNL A   1      33.865  27.783  26.075  1.00  0.00     0.004 A 
ENDBRANCH  84  85
ENDBRANCH  79  83
ENDBRANCH  75  77
ENDBRANCH  74  75
ENDBRANCH  73  74
ENDBRANCH  72  73
ENDBRANCH  71  72
ENDBRANCH   1  71
TORSDOF 19
ENDMDL
