MODEL 1
REMARK VINA RESULT:     -10.5      0.000      0.000
REMARK SMILES O=C(OCCOCCOC(=O)[C@@H]1CSCN1C(=O)c1cccc(Cl)c1)c1ccc(-c2c3nc(c(-c4cc(S(=O)(=O)[O-])ccc4F)c4ccc([nH]4)c(-c4cc(S(=O)(=O)[O-])ccc4F)c4nc(c(-c5cc(S(=O)(=O)[O-])ccc5F)c5ccc2[nH]5)C=C4)C=C3)cc1
REMARK SMILES IDX 5 1 4 2 3 3 2 4 1 5 26 6 27 7 88 8 28 9 87 10 29 11 30 12
REMARK SMILES IDX 31 13 81 14 32 15 86 16 80 17 82 18 33 19 85 20 79 21 78 22
REMARK SMILES IDX 34 24 66 25 46 26 65 27 47 28 50 29 64 30 83 31 48 32 49 33
REMARK SMILES IDX 63 35 84 36 51 37 35 38 36 39 44 40 37 41 43 42 45 43 42 44
REMARK SMILES IDX 38 45 39 46 40 47 41 48 67 49 68 50 76 51 69 52 75 53 77 54
REMARK SMILES IDX 74 55 70 56 71 57 72 58 73 59 52 60 53 61 61 62 54 63 60 64
REMARK SMILES IDX 62 65 59 66 55 67 56 68 57 69 58 70 6 71 7 72 8 73 9 74
REMARK SMILES IDX 10 75 11 76 12 77 13 78 16 79 14 80 15 81 17 82 18 83 19 84
REMARK SMILES IDX 20 85 25 86 21 87 23 88 22 89 24 90
REMARK H PARENT 82 23 50 34
REMARK Flexibility Score: inf
ROOT
ATOM      1  C   UNL A   1      31.179  29.375  24.422  1.00  0.00     0.202 C 
ENDROOT
BRANCH   1   2
ATOM      2  C   UNL A   1      31.667  29.639  25.846  1.00  0.00     0.261 C 
BRANCH   2   3
ATOM      3  O   UNL A   1      32.826  30.480  25.815  1.00  0.00    -0.460 OA
BRANCH   3   4
ATOM      4  C   UNL A   1      33.277  31.234  26.848  1.00  0.00     0.338 C 
ATOM      5  O   UNL A   1      32.584  32.165  27.252  1.00  0.00    -0.246 OA
BRANCH   4   6
ATOM      6  C   UNL A   1      34.546  30.928  27.570  1.00  0.00     0.060 A 
ATOM      7  C   UNL A   1      35.493  31.878  27.954  1.00  0.00     0.016 A 
ATOM      8  C   UNL A   1      34.742  29.598  27.972  1.00  0.00     0.016 A 
ATOM      9  C   UNL A   1      36.602  31.545  28.698  1.00  0.00     0.010 A 
ATOM     10  C   UNL A   1      35.846  29.252  28.754  1.00  0.00     0.010 A 
ATOM     11  C   UNL A   1      36.765  30.239  29.127  1.00  0.00    -0.014 A 
BRANCH  11  12
ATOM     12  C   UNL A   1      37.972  29.965  29.910  1.00  0.00     0.031 A 
ATOM     13  C   UNL A   1      39.056  29.173  29.264  1.00  0.00     0.074 A 
ATOM     14  C   UNL A   1      38.123  30.587  31.094  1.00  0.00     0.049 A 
ATOM     15  N   UNL A   1      40.175  28.748  29.771  1.00  0.00    -0.248 NA
ATOM     16  C   UNL A   1      38.859  28.827  27.844  1.00  0.00     0.031 C 
ATOM     17  C   UNL A   1      37.161  31.529  31.681  1.00  0.00     0.029 A 
ATOM     18  N   UNL A   1      39.148  30.560  31.997  1.00  0.00    -0.354 N 
ATOM     19  C   UNL A   1      40.799  28.044  28.751  1.00  0.00     0.074 A 
ATOM     20  C   UNL A   1      39.944  28.112  27.588  1.00  0.00     0.031 C 
ATOM     21  C   UNL A   1      37.651  31.995  32.840  1.00  0.00     0.029 A 
ATOM     22  C   UNL A   1      38.903  31.310  33.125  1.00  0.00     0.049 A 
ATOM     23  H   UNL A   1      39.980  30.053  31.855  1.00  0.00     0.167 HD
ATOM     24  C   UNL A   1      41.976  27.383  28.815  1.00  0.00     0.034 A 
ATOM     25  C   UNL A   1      39.592  31.367  34.279  1.00  0.00     0.034 A 
ATOM     26  C   UNL A   1      42.774  27.353  30.013  1.00  0.00     0.049 A 
ATOM     27  C   UNL A   1      40.833  30.512  34.366  1.00  0.00     0.074 A 
ATOM     28  C   UNL A   1      43.951  26.672  30.253  1.00  0.00     0.029 A 
ATOM     29  N   UNL A   1      42.461  28.041  31.183  1.00  0.00    -0.354 N 
ATOM     30  N   UNL A   1      41.385  29.767  33.431  1.00  0.00    -0.248 NA
ATOM     31  C   UNL A   1      41.534  30.486  35.651  1.00  0.00     0.031 C 
ATOM     32  C   UNL A   1      44.305  26.886  31.589  1.00  0.00     0.029 A 
ATOM     33  C   UNL A   1      43.400  27.771  32.160  1.00  0.00     0.049 A 
ATOM     34  H   UNL A   1      41.683  28.633  31.297  1.00  0.00     0.167 HD
ATOM     35  C   UNL A   1      42.511  29.197  34.014  1.00  0.00     0.074 A 
ATOM     36  C   UNL A   1      42.573  29.715  35.368  1.00  0.00     0.031 C 
ATOM     37  C   UNL A   1      43.409  28.320  33.496  1.00  0.00     0.034 A 
BRANCH  24  38
ATOM     38  C   UNL A   1      42.371  26.559  27.621  1.00  0.00     0.023 A 
ATOM     39  C   UNL A   1      42.277  25.156  27.608  1.00  0.00     0.031 A 
ATOM     40  C   UNL A   1      42.920  27.196  26.493  1.00  0.00     0.131 A 
ATOM     41  C   UNL A   1      42.774  24.435  26.511  1.00  0.00     0.055 A 
ATOM     42  C   UNL A   1      43.346  26.478  25.376  1.00  0.00     0.041 A 
ATOM     43  F   UNL A   1      43.075  28.529  26.470  1.00  0.00    -0.206 F 
ATOM     44  C   UNL A   1      43.283  25.088  25.384  1.00  0.00     0.022 A 
BRANCH  41  45
ATOM     45  S   UNL A   1      42.863  22.627  26.622  1.00  0.00     0.124 S 
ATOM     46  O   UNL A   1      42.217  22.223  25.376  1.00  0.00    -0.237 OA
ATOM     47  O   UNL A   1      44.298  22.383  26.706  1.00  0.00    -0.237 OA
ATOM     48  O   UNL A   1      42.107  22.320  27.835  1.00  0.00    -0.744 OA
ENDBRANCH  41  45
ENDBRANCH  24  38
BRANCH  25  49
ATOM     49  C   UNL A   1      39.086  32.136  35.456  1.00  0.00     0.023 A 
ATOM     50  C   UNL A   1      39.511  33.450  35.708  1.00  0.00     0.031 A 
ATOM     51  C   UNL A   1      38.243  31.532  36.411  1.00  0.00     0.131 A 
ATOM     52  C   UNL A   1      39.155  34.087  36.909  1.00  0.00     0.055 A 
ATOM     53  C   UNL A   1      37.829  32.199  37.567  1.00  0.00     0.041 A 
ATOM     54  F   UNL A   1      37.811  30.272  36.243  1.00  0.00    -0.206 F 
ATOM     55  C   UNL A   1      38.305  33.476  37.832  1.00  0.00     0.022 A 
BRANCH  52  56
ATOM     56  S   UNL A   1      39.950  35.664  37.320  1.00  0.00     0.124 S 
ATOM     57  O   UNL A   1      39.653  36.463  36.136  1.00  0.00    -0.237 OA
ATOM     58  O   UNL A   1      39.252  36.045  38.543  1.00  0.00    -0.237 OA
ATOM     59  O   UNL A   1      41.356  35.302  37.491  1.00  0.00    -0.744 OA
ENDBRANCH  52  56
ENDBRANCH  25  49
BRANCH  37  60
ATOM     60  C   UNL A   1      44.542  27.917  34.399  1.00  0.00     0.023 A 
ATOM     61  C   UNL A   1      44.447  26.796  35.238  1.00  0.00     0.031 A 
ATOM     62  C   UNL A   1      45.731  28.666  34.414  1.00  0.00     0.131 A 
ATOM     63  C   UNL A   1      45.501  26.490  36.107  1.00  0.00     0.055 A 
ATOM     64  C   UNL A   1      46.806  28.313  35.227  1.00  0.00     0.041 A 
ATOM     65  F   UNL A   1      45.868  29.748  33.629  1.00  0.00    -0.206 F 
ATOM     66  C   UNL A   1      46.688  27.227  36.091  1.00  0.00     0.022 A 
BRANCH  63  67
ATOM     67  S   UNL A   1      45.258  25.175  37.330  1.00  0.00     0.124 S 
ATOM     68  O   UNL A   1      44.940  24.030  36.484  1.00  0.00    -0.237 OA
ATOM     69  O   UNL A   1      46.553  25.131  38.002  1.00  0.00    -0.237 OA
ATOM     70  O   UNL A   1      44.152  25.670  38.149  1.00  0.00    -0.744 OA
ENDBRANCH  63  67
ENDBRANCH  37  60
ENDBRANCH  11  12
ENDBRANCH   4   6
ENDBRANCH   3   4
ENDBRANCH   2   3
ENDBRANCH   1   2
BRANCH   1  71
ATOM     71  O   UNL A   1      31.364  28.033  23.985  1.00  0.00    -0.374 OA
BRANCH  71  72
ATOM     72  C   UNL A   1      32.331  27.249  24.675  1.00  0.00     0.202 C 
BRANCH  72  73
ATOM     73  C   UNL A   1      32.965  26.255  23.707  1.00  0.00     0.261 C 
BRANCH  73  74
ATOM     74  O   UNL A   1      34.030  25.546  24.368  1.00  0.00    -0.462 OA
BRANCH  74  75
ATOM     75  C   UNL A   1      33.619  24.458  25.084  1.00  0.00     0.329 C 
ATOM     76  O   UNL A   1      33.545  24.394  26.307  1.00  0.00    -0.250 OA
BRANCH  75  77
ATOM     77  C   UNL A   1      33.228  23.308  24.148  1.00  0.00     0.206 C 
ATOM     78  C   UNL A   1      31.909  22.662  24.556  1.00  0.00     0.108 C 
ATOM     79  N   UNL A   1      34.305  22.326  24.253  1.00  0.00    -0.315 N 
ATOM     80  S   UNL A   1      32.264  20.935  24.973  1.00  0.00    -0.138 SA
ATOM     81  C   UNL A   1      34.027  21.252  25.183  1.00  0.00     0.191 C 
BRANCH  79  82
ATOM     82  C   UNL A   1      35.533  22.678  23.726  1.00  0.00     0.255 C 
ATOM     83  O   UNL A   1      35.674  23.154  22.607  1.00  0.00    -0.269 OA
BRANCH  82  84
ATOM     84  C   UNL A   1      36.715  22.524  24.577  1.00  0.00     0.041 A 
ATOM     85  C   UNL A   1      37.398  21.305  24.588  1.00  0.00     0.014 A 
ATOM     86  C   UNL A   1      37.146  23.613  25.335  1.00  0.00     0.034 A 
ATOM     87  C   UNL A   1      38.517  21.163  25.401  1.00  0.00     0.002 A 
ATOM     88  C   UNL A   1      38.275  23.462  26.132  1.00  0.00     0.041 A 
ATOM     89  C   UNL A   1      38.955  22.242  26.172  1.00  0.00     0.020 A 
ATOM     90  Cl  UNL A   1      38.843  24.783  27.073  1.00  0.00    -0.084 Cl
ENDBRANCH  82  84
ENDBRANCH  79  82
ENDBRANCH  75  77
ENDBRANCH  74  75
ENDBRANCH  73  74
ENDBRANCH  72  73
ENDBRANCH  71  72
ENDBRANCH   1  71
TORSDOF 19
ENDMDL
MODEL 2
REMARK VINA RESULT:     -10.4      4.891      7.701
REMARK SMILES O=C(OCCOCCOC(=O)[C@@H]1CSCN1C(=O)c1cccc(Cl)c1)c1ccc(-c2c3nc(c(-c4cc(S(=O)(=O)[O-])ccc4F)c4ccc([nH]4)c(-c4cc(S(=O)(=O)[O-])ccc4F)c4nc(c(-c5cc(S(=O)(=O)[O-])ccc5F)c5ccc2[nH]5)C=C4)C=C3)cc1
REMARK SMILES IDX 5 1 4 2 3 3 2 4 1 5 26 6 27 7 88 8 28 9 87 10 29 11 30 12
REMARK SMILES IDX 31 13 81 14 32 15 86 16 80 17 82 18 33 19 85 20 79 21 78 22
REMARK SMILES IDX 34 24 66 25 46 26 65 27 47 28 50 29 64 30 83 31 48 32 49 33
REMARK SMILES IDX 63 35 84 36 51 37 35 38 36 39 44 40 37 41 43 42 45 43 42 44
REMARK SMILES IDX 38 45 39 46 40 47 41 48 67 49 68 50 76 51 69 52 75 53 77 54
REMARK SMILES IDX 74 55 70 56 71 57 72 58 73 59 52 60 53 61 61 62 54 63 60 64
REMARK SMILES IDX 62 65 59 66 55 67 56 68 57 69 58 70 6 71 7 72 8 73 9 74
REMARK SMILES IDX 10 75 11 76 12 77 13 78 16 79 14 80 15 81 17 82 18 83 19 84
REMARK SMILES IDX 20 85 25 86 21 87 23 88 22 89 24 90
REMARK H PARENT 82 23 50 34
REMARK Flexibility Score: inf
ROOT
ATOM      1  C   UNL A   1      36.067  21.498  24.862  1.00  0.00     0.202 C 
ENDROOT
BRANCH   1   2
ATOM      2  C   UNL A   1      37.323  20.628  24.812  1.00  0.00     0.261 C 
BRANCH   2   3
ATOM      3  O   UNL A   1      38.002  20.682  26.072  1.00  0.00    -0.460 OA
BRANCH   3   4
ATOM      4  C   UNL A   1      39.334  20.870  26.239  1.00  0.00     0.338 C 
ATOM      5  O   UNL A   1      40.091  19.910  26.113  1.00  0.00    -0.246 OA
BRANCH   4   6
ATOM      6  C   UNL A   1      39.930  22.215  26.487  1.00  0.00     0.060 A 
ATOM      7  C   UNL A   1      39.434  23.414  25.971  1.00  0.00     0.016 A 
ATOM      8  C   UNL A   1      41.006  22.277  27.384  1.00  0.00     0.016 A 
ATOM      9  C   UNL A   1      39.973  24.633  26.309  1.00  0.00     0.010 A 
ATOM     10  C   UNL A   1      41.544  23.510  27.759  1.00  0.00     0.010 A 
ATOM     11  C   UNL A   1      41.008  24.688  27.228  1.00  0.00    -0.014 A 
BRANCH  11  12
ATOM     12  C   UNL A   1      41.529  26.022  27.531  1.00  0.00     0.031 A 
ATOM     13  C   UNL A   1      42.837  26.410  26.932  1.00  0.00     0.074 A 
ATOM     14  C   UNL A   1      40.730  26.892  28.176  1.00  0.00     0.049 A 
ATOM     15  N   UNL A   1      43.529  27.497  27.108  1.00  0.00    -0.248 NA
ATOM     16  C   UNL A   1      43.441  25.447  25.993  1.00  0.00     0.031 C 
ATOM     17  C   UNL A   1      39.357  26.610  28.615  1.00  0.00     0.029 A 
ATOM     18  N   UNL A   1      40.930  28.194  28.540  1.00  0.00    -0.354 N 
ATOM     19  C   UNL A   1      44.673  27.335  26.339  1.00  0.00     0.074 A 
ATOM     20  C   UNL A   1      44.577  26.052  25.680  1.00  0.00     0.031 C 
ATOM     21  C   UNL A   1      38.839  27.712  29.178  1.00  0.00     0.029 A 
ATOM     22  C   UNL A   1      39.872  28.736  29.233  1.00  0.00     0.049 A 
ATOM     23  H   UNL A   1      41.751  28.694  28.327  1.00  0.00     0.167 HD
ATOM     24  C   UNL A   1      45.713  28.191  26.231  1.00  0.00     0.034 A 
ATOM     25  C   UNL A   1      39.793  29.906  29.894  1.00  0.00     0.034 A 
ATOM     26  C   UNL A   1      45.744  29.452  26.923  1.00  0.00     0.049 A 
ATOM     27  C   UNL A   1      41.023  30.781  29.864  1.00  0.00     0.074 A 
ATOM     28  C   UNL A   1      46.754  30.392  26.968  1.00  0.00     0.029 A 
ATOM     29  N   UNL A   1      44.701  29.945  27.704  1.00  0.00    -0.354 N 
ATOM     30  N   UNL A   1      42.151  30.592  29.209  1.00  0.00    -0.248 NA
ATOM     31  C   UNL A   1      40.986  32.007  30.663  1.00  0.00     0.031 C 
ATOM     32  C   UNL A   1      46.353  31.412  27.837  1.00  0.00     0.029 A 
ATOM     33  C   UNL A   1      45.057  31.156  28.266  1.00  0.00     0.049 A 
ATOM     34  H   UNL A   1      43.835  29.495  27.837  1.00  0.00     0.167 HD
ATOM     35  C   UNL A   1      42.950  31.689  29.507  1.00  0.00     0.074 A 
ATOM     36  C   UNL A   1      42.160  32.547  30.370  1.00  0.00     0.031 C 
ATOM     37  C   UNL A   1      44.222  31.968  29.121  1.00  0.00     0.034 A 
BRANCH  24  38
ATOM     38  C   UNL A   1      46.915  27.722  25.458  1.00  0.00     0.023 A 
ATOM     39  C   UNL A   1      47.122  28.056  24.108  1.00  0.00     0.031 A 
ATOM     40  C   UNL A   1      47.841  26.862  26.076  1.00  0.00     0.131 A 
ATOM     41  C   UNL A   1      48.199  27.490  23.407  1.00  0.00     0.055 A 
ATOM     42  C   UNL A   1      48.950  26.360  25.394  1.00  0.00     0.041 A 
ATOM     43  F   UNL A   1      47.669  26.475  27.349  1.00  0.00    -0.206 F 
ATOM     44  C   UNL A   1      49.128  26.666  24.048  1.00  0.00     0.022 A 
BRANCH  41  45
ATOM     45  S   UNL A   1      48.303  27.743  21.614  1.00  0.00     0.124 S 
ATOM     46  O   UNL A   1      49.347  28.759  21.520  1.00  0.00    -0.237 OA
ATOM     47  O   UNL A   1      48.657  26.416  21.126  1.00  0.00    -0.237 OA
ATOM     48  O   UNL A   1      46.962  28.202  21.253  1.00  0.00    -0.744 OA
ENDBRANCH  41  45
ENDBRANCH  24  38
BRANCH  25  49
ATOM     49  C   UNL A   1      38.599  30.261  30.718  1.00  0.00     0.023 A 
ATOM     50  C   UNL A   1      37.613  31.136  30.237  1.00  0.00     0.031 A 
ATOM     51  C   UNL A   1      38.473  29.809  32.048  1.00  0.00     0.131 A 
ATOM     52  C   UNL A   1      36.593  31.586  31.092  1.00  0.00     0.055 A 
ATOM     53  C   UNL A   1      37.413  30.199  32.870  1.00  0.00     0.041 A 
ATOM     54  F   UNL A   1      39.388  28.983  32.579  1.00  0.00    -0.206 F 
ATOM     55  C   UNL A   1      36.478  31.111  32.400  1.00  0.00     0.022 A 
BRANCH  52  56
ATOM     56  S   UNL A   1      35.511  32.924  30.519  1.00  0.00     0.124 S 
ATOM     57  O   UNL A   1      34.378  32.800  31.430  1.00  0.00    -0.237 OA
ATOM     58  O   UNL A   1      36.358  34.098  30.704  1.00  0.00    -0.237 OA
ATOM     59  O   UNL A   1      35.235  32.567  29.129  1.00  0.00    -0.744 OA
ENDBRANCH  52  56
ENDBRANCH  25  49
BRANCH  37  60
ATOM     60  C   UNL A   1      44.794  33.271  29.605  1.00  0.00     0.023 A 
ATOM     61  C   UNL A   1      44.622  34.461  28.879  1.00  0.00     0.031 A 
ATOM     62  C   UNL A   1      45.518  33.320  30.808  1.00  0.00     0.131 A 
ATOM     63  C   UNL A   1      45.221  35.642  29.332  1.00  0.00     0.055 A 
ATOM     64  C   UNL A   1      46.048  34.513  31.293  1.00  0.00     0.041 A 
ATOM     65  F   UNL A   1      45.710  32.208  31.537  1.00  0.00    -0.206 F 
ATOM     66  C   UNL A   1      45.914  35.680  30.546  1.00  0.00     0.022 A 
BRANCH  63  67
ATOM     67  S   UNL A   1      45.168  37.104  28.263  1.00  0.00     0.124 S 
ATOM     68  O   UNL A   1      43.888  36.933  27.583  1.00  0.00    -0.237 OA
ATOM     69  O   UNL A   1      45.236  38.198  29.227  1.00  0.00    -0.237 OA
ATOM     70  O   UNL A   1      46.349  36.950  27.416  1.00  0.00    -0.744 OA
ENDBRANCH  63  67
ENDBRANCH  37  60
ENDBRANCH  11  12
ENDBRANCH   4   6
ENDBRANCH   3   4
ENDBRANCH   2   3
ENDBRANCH   1   2
BRANCH   1  71
ATOM     71  O   UNL A   1      35.107  21.075  25.824  1.00  0.00    -0.374 OA
BRANCH  71  72
ATOM     72  C   UNL A   1      34.658  22.043  26.767  1.00  0.00     0.202 C 
BRANCH  72  73
ATOM     73  C   UNL A   1      33.242  22.483  26.409  1.00  0.00     0.261 C 
BRANCH  73  74
ATOM     74  O   UNL A   1      33.134  23.915  26.526  1.00  0.00    -0.462 OA
BRANCH  74  75
ATOM     75  C   UNL A   1      33.476  24.597  25.394  1.00  0.00     0.329 C 
ATOM     76  O   UNL A   1      34.614  24.932  25.078  1.00  0.00    -0.250 OA
BRANCH  75  77
ATOM     77  C   UNL A   1      32.238  24.876  24.533  1.00  0.00     0.206 C 
ATOM     78  C   UNL A   1      32.434  24.431  23.088  1.00  0.00     0.108 C 
ATOM     79  N   UNL A   1      32.044  26.325  24.575  1.00  0.00    -0.315 N 
ATOM     80  S   UNL A   1      32.314  25.911  22.049  1.00  0.00    -0.138 SA
ATOM     81  C   UNL A   1      32.609  27.022  23.439  1.00  0.00     0.191 C 
BRANCH  79  82
ATOM     82  C   UNL A   1      31.648  26.873  25.779  1.00  0.00     0.255 C 
ATOM     83  O   UNL A   1      30.833  26.343  26.524  1.00  0.00    -0.269 OA
BRANCH  82  84
ATOM     84  C   UNL A   1      32.279  28.124  26.206  1.00  0.00     0.041 A 
ATOM     85  C   UNL A   1      31.540  29.309  26.179  1.00  0.00     0.014 A 
ATOM     86  C   UNL A   1      33.599  28.093  26.656  1.00  0.00     0.034 A 
ATOM     87  C   UNL A   1      32.144  30.495  26.580  1.00  0.00     0.002 A 
ATOM     88  C   UNL A   1      34.187  29.283  27.068  1.00  0.00     0.041 A 
ATOM     89  C   UNL A   1      33.468  30.481  27.026  1.00  0.00     0.020 A 
ATOM     90  Cl  UNL A   1      35.808  29.285  27.639  1.00  0.00    -0.084 Cl
ENDBRANCH  82  84
ENDBRANCH  79  82
ENDBRANCH  75  77
ENDBRANCH  74  75
ENDBRANCH  73  74
ENDBRANCH  72  73
ENDBRANCH  71  72
ENDBRANCH   1  71
TORSDOF 19
ENDMDL
MODEL 3
REMARK VINA RESULT:     -10.3      5.147      8.224
REMARK SMILES O=C(OCCOCCOC(=O)[C@@H]1CSCN1C(=O)c1cccc(Cl)c1)c1ccc(-c2c3nc(c(-c4cc(S(=O)(=O)[O-])ccc4F)c4ccc([nH]4)c(-c4cc(S(=O)(=O)[O-])ccc4F)c4nc(c(-c5cc(S(=O)(=O)[O-])ccc5F)c5ccc2[nH]5)C=C4)C=C3)cc1
REMARK SMILES IDX 5 1 4 2 3 3 2 4 1 5 26 6 27 7 88 8 28 9 87 10 29 11 30 12
REMARK SMILES IDX 31 13 81 14 32 15 86 16 80 17 82 18 33 19 85 20 79 21 78 22
REMARK SMILES IDX 34 24 66 25 46 26 65 27 47 28 50 29 64 30 83 31 48 32 49 33
REMARK SMILES IDX 63 35 84 36 51 37 35 38 36 39 44 40 37 41 43 42 45 43 42 44
REMARK SMILES IDX 38 45 39 46 40 47 41 48 67 49 68 50 76 51 69 52 75 53 77 54
REMARK SMILES IDX 74 55 70 56 71 57 72 58 73 59 52 60 53 61 61 62 54 63 60 64
REMARK SMILES IDX 62 65 59 66 55 67 56 68 57 69 58 70 6 71 7 72 8 73 9 74
REMARK SMILES IDX 10 75 11 76 12 77 13 78 16 79 14 80 15 81 17 82 18 83 19 84
REMARK SMILES IDX 20 85 25 86 21 87 23 88 22 89 24 90
REMARK H PARENT 82 23 50 34
REMARK Flexibility Score: inf
ROOT
ATOM      1  C   UNL A   1      38.560  20.253  25.009  1.00  0.00     0.202 C 
ENDROOT
BRANCH   1   2
ATOM      2  C   UNL A   1      39.254  19.178  25.846  1.00  0.00     0.261 C 
BRANCH   2   3
ATOM      3  O   UNL A   1      40.675  19.319  25.736  1.00  0.00    -0.460 OA
BRANCH   3   4
ATOM      4  C   UNL A   1      41.495  19.791  26.706  1.00  0.00     0.338 C 
ATOM      5  O   UNL A   1      42.141  18.992  27.380  1.00  0.00    -0.246 OA
BRANCH   4   6
ATOM      6  C   UNL A   1      41.708  21.249  26.936  1.00  0.00     0.060 A 
ATOM      7  C   UNL A   1      42.112  21.814  28.147  1.00  0.00     0.016 A 
ATOM      8  C   UNL A   1      41.586  22.092  25.822  1.00  0.00     0.016 A 
ATOM      9  C   UNL A   1      42.379  23.158  28.273  1.00  0.00     0.010 A 
ATOM     10  C   UNL A   1      41.884  23.452  25.928  1.00  0.00     0.010 A 
ATOM     11  C   UNL A   1      42.298  23.975  27.158  1.00  0.00    -0.014 A 
BRANCH  11  12
ATOM     12  C   UNL A   1      42.593  25.392  27.377  1.00  0.00     0.031 A 
ATOM     13  C   UNL A   1      43.816  25.954  26.736  1.00  0.00     0.074 A 
ATOM     14  C   UNL A   1      41.666  26.155  27.984  1.00  0.00     0.049 A 
ATOM     15  N   UNL A   1      44.320  27.149  26.839  1.00  0.00    -0.248 NA
ATOM     16  C   UNL A   1      44.564  25.051  25.843  1.00  0.00     0.031 C 
ATOM     17  C   UNL A   1      40.361  25.677  28.461  1.00  0.00     0.029 A 
ATOM     18  N   UNL A   1      41.650  27.491  28.271  1.00  0.00    -0.354 N 
ATOM     19  C   UNL A   1      45.470  27.132  26.062  1.00  0.00     0.074 A 
ATOM     20  C   UNL A   1      45.582  25.815  25.479  1.00  0.00     0.031 C 
ATOM     21  C   UNL A   1      39.672  26.709  28.969  1.00  0.00     0.029 A 
ATOM     22  C   UNL A   1      40.522  27.891  28.949  1.00  0.00     0.049 A 
ATOM     23  H   UNL A   1      42.376  28.106  28.017  1.00  0.00     0.167 HD
ATOM     24  C   UNL A   1      46.354  28.140  25.889  1.00  0.00     0.034 A 
ATOM     25  C   UNL A   1      40.256  29.068  29.544  1.00  0.00     0.034 A 
ATOM     26  C   UNL A   1      46.180  29.427  26.509  1.00  0.00     0.049 A 
ATOM     27  C   UNL A   1      41.324  30.130  29.445  1.00  0.00     0.074 A 
ATOM     28  C   UNL A   1      47.021  30.522  26.484  1.00  0.00     0.029 A 
ATOM     29  N   UNL A   1      45.075  29.786  27.277  1.00  0.00    -0.354 N 
ATOM     30  N   UNL A   1      42.463  30.092  28.784  1.00  0.00    -0.248 NA
ATOM     31  C   UNL A   1      41.090  31.378  30.174  1.00  0.00     0.031 C 
ATOM     32  C   UNL A   1      46.463  31.511  27.300  1.00  0.00     0.029 A 
ATOM     33  C   UNL A   1      45.230  31.070  27.764  1.00  0.00     0.049 A 
ATOM     34  H   UNL A   1      44.296  29.209  27.449  1.00  0.00     0.167 HD
ATOM     35  C   UNL A   1      43.072  31.320  29.007  1.00  0.00     0.074 A 
ATOM     36  C   UNL A   1      42.156  32.086  29.832  1.00  0.00     0.031 C 
ATOM     37  C   UNL A   1      44.278  31.782  28.585  1.00  0.00     0.034 A 
BRANCH  24  38
ATOM     38  C   UNL A   1      47.611  27.831  25.125  1.00  0.00     0.023 A 
ATOM     39  C   UNL A   1      47.659  27.828  23.720  1.00  0.00     0.031 A 
ATOM     40  C   UNL A   1      48.774  27.464  25.827  1.00  0.00     0.131 A 
ATOM     41  C   UNL A   1      48.829  27.414  23.063  1.00  0.00     0.055 A 
ATOM     42  C   UNL A   1      49.956  27.123  25.169  1.00  0.00     0.041 A 
ATOM     43  F   UNL A   1      48.772  27.406  27.168  1.00  0.00    -0.206 F 
ATOM     44  C   UNL A   1      49.985  27.088  23.778  1.00  0.00     0.022 A 
BRANCH  41  45
ATOM     45  S   UNL A   1      48.787  27.187  21.264  1.00  0.00     0.124 S 
ATOM     46  O   UNL A   1      50.004  27.882  20.852  1.00  0.00    -0.237 OA
ATOM     47  O   UNL A   1      48.803  25.737  21.126  1.00  0.00    -0.237 OA
ATOM     48  O   UNL A   1      47.541  27.839  20.864  1.00  0.00    -0.744 OA
ENDBRANCH  41  45
ENDBRANCH  24  38
BRANCH  25  49
ATOM     49  C   UNL A   1      39.024  29.269  30.366  1.00  0.00     0.023 A 
ATOM     50  C   UNL A   1      38.011  30.151  29.960  1.00  0.00     0.031 A 
ATOM     51  C   UNL A   1      38.885  28.657  31.629  1.00  0.00     0.131 A 
ATOM     52  C   UNL A   1      36.949  30.451  30.830  1.00  0.00     0.055 A 
ATOM     53  C   UNL A   1      37.787  28.899  32.457  1.00  0.00     0.041 A 
ATOM     54  F   UNL A   1      39.824  27.815  32.088  1.00  0.00    -0.206 F 
ATOM     55  C   UNL A   1      36.822  29.819  32.068  1.00  0.00     0.022 A 
BRANCH  52  56
ATOM     56  S   UNL A   1      35.820  31.798  30.384  1.00  0.00     0.124 S 
ATOM     57  O   UNL A   1      36.749  32.895  30.139  1.00  0.00    -0.237 OA
ATOM     58  O   UNL A   1      35.146  31.253  29.210  1.00  0.00    -0.237 OA
ATOM     59  O   UNL A   1      34.980  31.946  31.572  1.00  0.00    -0.744 OA
ENDBRANCH  52  56
ENDBRANCH  25  49
BRANCH  37  60
ATOM     60  C   UNL A   1      44.630  33.188  28.986  1.00  0.00     0.023 A 
ATOM     61  C   UNL A   1      44.208  34.292  28.228  1.00  0.00     0.031 A 
ATOM     62  C   UNL A   1      45.395  33.421  30.140  1.00  0.00     0.131 A 
ATOM     63  C   UNL A   1      44.607  35.581  28.600  1.00  0.00     0.055 A 
ATOM     64  C   UNL A   1      45.726  34.712  30.548  1.00  0.00     0.041 A 
ATOM     65  F   UNL A   1      45.823  32.397  30.896  1.00  0.00    -0.206 F 
ATOM     66  C   UNL A   1      45.345  35.800  29.768  1.00  0.00     0.022 A 
BRANCH  63  67
ATOM     67  S   UNL A   1      44.235  36.958  27.483  1.00  0.00     0.124 S 
ATOM     68  O   UNL A   1      43.723  37.966  28.407  1.00  0.00    -0.237 OA
ATOM     69  O   UNL A   1      45.538  37.240  26.890  1.00  0.00    -0.237 OA
ATOM     70  O   UNL A   1      43.245  36.396  26.566  1.00  0.00    -0.744 OA
ENDBRANCH  63  67
ENDBRANCH  37  60
ENDBRANCH  11  12
ENDBRANCH   4   6
ENDBRANCH   3   4
ENDBRANCH   2   3
ENDBRANCH   1   2
BRANCH   1  71
ATOM     71  O   UNL A   1      38.581  21.549  25.597  1.00  0.00    -0.374 OA
BRANCH  71  72
ATOM     72  C   UNL A   1      37.354  22.270  25.631  1.00  0.00     0.202 C 
BRANCH  72  73
ATOM     73  C   UNL A   1      36.960  22.671  24.213  1.00  0.00     0.261 C 
BRANCH  73  74
ATOM     74  O   UNL A   1      35.656  22.142  23.903  1.00  0.00    -0.462 OA
BRANCH  74  75
ATOM     75  C   UNL A   1      34.637  23.038  24.051  1.00  0.00     0.329 C 
ATOM     76  O   UNL A   1      34.703  24.099  24.663  1.00  0.00    -0.250 OA
BRANCH  75  77
ATOM     77  C   UNL A   1      33.380  22.556  23.317  1.00  0.00     0.206 C 
ATOM     78  C   UNL A   1      32.759  23.657  22.463  1.00  0.00     0.108 C 
ATOM     79  N   UNL A   1      32.437  22.160  24.362  1.00  0.00    -0.315 N 
ATOM     80  S   UNL A   1      31.099  23.971  23.118  1.00  0.00    -0.138 SA
ATOM     81  C   UNL A   1      31.473  23.186  24.697  1.00  0.00     0.191 C 
BRANCH  79  82
ATOM     82  C   UNL A   1      32.751  21.035  25.100  1.00  0.00     0.255 C 
ATOM     83  O   UNL A   1      32.852  21.036  26.320  1.00  0.00    -0.269 OA
BRANCH  82  84
ATOM     84  C   UNL A   1      32.915  19.768  24.383  1.00  0.00     0.041 A 
ATOM     85  C   UNL A   1      32.166  19.530  23.229  1.00  0.00     0.014 A 
ATOM     86  C   UNL A   1      33.842  18.840  24.860  1.00  0.00     0.034 A 
ATOM     87  C   UNL A   1      32.322  18.325  22.555  1.00  0.00     0.002 A 
ATOM     88  C   UNL A   1      33.999  17.644  24.169  1.00  0.00     0.041 A 
ATOM     89  C   UNL A   1      33.239  17.382  23.025  1.00  0.00     0.020 A 
ATOM     90  Cl  UNL A   1      35.136  16.480  24.719  1.00  0.00    -0.084 Cl
ENDBRANCH  82  84
ENDBRANCH  79  82
ENDBRANCH  75  77
ENDBRANCH  74  75
ENDBRANCH  73  74
ENDBRANCH  72  73
ENDBRANCH  71  72
ENDBRANCH   1  71
TORSDOF 19
ENDMDL
