MODEL 1
REMARK VINA RESULT:     -12.2      0.000      0.000
REMARK SMILES Cc1ccn2c([C@@H]3CCCC[C@@H]3C(=O)OCCOCCOC(=O)c3ccc(-c4c5nc(c(-c6cc(S(=O)(=O)[O-])ccc6F)c6ccc([nH]6)c(-c6cc(S(=O)(=O)[O-])ccc6F)c6nc(c(-c7cc(S(=O)(=O)[O-])ccc7F)c7ccc4[nH]7)C=C6)C=C5)cc3)nnc2c1
REMARK SMILES IDX 19 1 18 2 17 3 16 4 15 5 13 6 14 7 12 8 7 9 8 10 9 11 11 12
REMARK SMILES IDX 10 13 6 14 1 15 2 16 3 17 90 18 4 19 89 20 5 21 88 22 87 23
REMARK SMILES IDX 20 24 21 25 22 26 23 27 24 28 25 29 86 30 26 31 85 32 27 33
REMARK SMILES IDX 28 34 29 35 79 36 30 37 84 38 78 39 80 40 31 41 83 42 77 43
REMARK SMILES IDX 76 44 32 46 64 47 44 48 63 49 45 50 48 51 62 52 81 53 46 54
REMARK SMILES IDX 47 55 61 57 82 58 49 59 33 60 34 61 42 62 35 63 41 64 43 65
REMARK SMILES IDX 40 66 36 67 37 68 38 69 39 70 65 71 66 72 74 73 67 74 73 75
REMARK SMILES IDX 75 76 72 77 68 78 69 79 70 80 71 81 50 82 51 83 59 84 52 85
REMARK SMILES IDX 58 86 60 87 57 88 53 89 54 90 55 91 56 92
REMARK H PARENT 80 45 48 56
REMARK Flexibility Score: inf
ROOT
ATOM      1  C   UNL A   1      33.886  29.621  26.533  1.00  0.00     0.202 C 
ENDROOT
BRANCH   1   2
ATOM      2  O   UNL A   1      33.233  28.451  27.019  1.00  0.00    -0.374 OA
BRANCH   2   3
ATOM      3  C   UNL A   1      33.102  27.368  26.108  1.00  0.00     0.202 C 
BRANCH   3   4
ATOM      4  C   UNL A   1      32.132  26.229  26.459  1.00  0.00     0.261 C 
BRANCH   4   5
ATOM      5  O   UNL A   1      32.578  24.881  26.151  1.00  0.00    -0.463 OA
BRANCH   5   6
ATOM      6  C   UNL A   1      31.586  24.010  25.816  1.00  0.00     0.309 C 
ATOM      7  O   UNL A   1      30.716  23.637  26.600  1.00  0.00    -0.252 OA
BRANCH   6   8
ATOM      8  C   UNL A   1      31.540  23.588  24.341  1.00  0.00     0.110 C 
ATOM      9  C   UNL A   1      32.804  23.088  23.614  1.00  0.00     0.072 C 
ATOM     10  C   UNL A   1      33.645  24.191  22.971  1.00  0.00     0.012 C 
ATOM     11  C   UNL A   1      32.788  24.997  22.004  1.00  0.00     0.001 C 
ATOM     12  C   UNL A   1      30.753  24.589  23.480  1.00  0.00     0.016 C 
ATOM     13  C   UNL A   1      31.612  25.619  22.745  1.00  0.00     0.001 C 
BRANCH   9  14
ATOM     14  C   UNL A   1      33.561  22.039  24.358  1.00  0.00     0.141 A 
ATOM     15  C   UNL A   1      33.867  16.601  23.522  1.00  0.00     0.044 C 
ATOM     16  C   UNL A   1      33.768  18.024  23.932  1.00  0.00    -0.046 A 
ATOM     17  C   UNL A   1      32.568  18.651  23.452  1.00  0.00     0.022 A 
ATOM     18  C   UNL A   1      34.679  18.711  24.654  1.00  0.00     0.053 A 
ATOM     19  C   UNL A   1      32.367  19.952  23.655  1.00  0.00     0.095 A 
ATOM     20  C   UNL A   1      34.494  20.112  24.840  1.00  0.00     0.161 A 
ATOM     21  N   UNL A   1      33.362  20.683  24.275  1.00  0.00    -0.286 N 
ATOM     22  N   UNL A   1      35.220  21.059  25.390  1.00  0.00    -0.130 NA
ATOM     23  N   UNL A   1      34.633  22.268  25.094  1.00  0.00    -0.134 NA
ENDBRANCH   9  14
ENDBRANCH   6   8
ENDBRANCH   5   6
ENDBRANCH   4   5
ENDBRANCH   3   4
ENDBRANCH   2   3
ENDBRANCH   1   2
BRANCH   1  24
ATOM     24  C   UNL A   1      33.722  30.917  27.349  1.00  0.00     0.261 C 
BRANCH  24  25
ATOM     25  O   UNL A   1      34.977  31.591  27.550  1.00  0.00    -0.460 OA
BRANCH  25  26
ATOM     26  C   UNL A   1      35.171  32.032  28.824  1.00  0.00     0.338 C 
ATOM     27  O   UNL A   1      34.378  32.650  29.514  1.00  0.00    -0.246 OA
BRANCH  26  28
ATOM     28  C   UNL A   1      36.363  31.330  29.332  1.00  0.00     0.060 A 
ATOM     29  C   UNL A   1      37.597  31.960  29.400  1.00  0.00     0.016 A 
ATOM     30  C   UNL A   1      36.251  29.950  29.560  1.00  0.00     0.016 A 
ATOM     31  C   UNL A   1      38.727  31.171  29.607  1.00  0.00     0.010 A 
ATOM     32  C   UNL A   1      37.397  29.160  29.674  1.00  0.00     0.010 A 
ATOM     33  C   UNL A   1      38.652  29.759  29.612  1.00  0.00    -0.014 A 
BRANCH  33  34
ATOM     34  C   UNL A   1      39.921  28.993  29.632  1.00  0.00     0.031 A 
ATOM     35  C   UNL A   1      40.394  28.650  31.004  1.00  0.00     0.074 A 
ATOM     36  C   UNL A   1      40.638  28.567  28.561  1.00  0.00     0.049 A 
ATOM     37  N   UNL A   1      41.528  28.938  31.558  1.00  0.00    -0.248 NA
ATOM     38  C   UNL A   1      39.416  28.024  31.903  1.00  0.00     0.031 C 
ATOM     39  C   UNL A   1      40.239  28.583  27.151  1.00  0.00     0.029 A 
ATOM     40  N   UNL A   1      41.867  27.945  28.516  1.00  0.00    -0.354 N 
ATOM     41  C   UNL A   1      41.469  28.396  32.838  1.00  0.00     0.074 A 
ATOM     42  C   UNL A   1      40.103  27.976  33.041  1.00  0.00     0.031 C 
ATOM     43  C   UNL A   1      41.079  27.800  26.435  1.00  0.00     0.029 A 
ATOM     44  C   UNL A   1      42.151  27.328  27.298  1.00  0.00     0.049 A 
ATOM     45  H   UNL A   1      42.491  27.937  29.278  1.00  0.00     0.167 HD
ATOM     46  C   UNL A   1      42.572  28.173  33.605  1.00  0.00     0.034 A 
ATOM     47  C   UNL A   1      43.126  26.418  27.016  1.00  0.00     0.034 A 
ATOM     48  C   UNL A   1      43.706  28.933  33.162  1.00  0.00     0.049 A 
ATOM     49  C   UNL A   1      44.163  26.447  28.070  1.00  0.00     0.074 A 
ATOM     50  C   UNL A   1      44.002  30.280  33.118  1.00  0.00     0.029 A 
ATOM     51  N   UNL A   1      44.664  28.317  32.399  1.00  0.00    -0.354 N 
ATOM     52  N   UNL A   1      45.082  27.355  28.197  1.00  0.00    -0.248 NA
ATOM     53  C   UNL A   1      43.933  25.621  29.241  1.00  0.00     0.031 C 
ATOM     54  C   UNL A   1      44.837  30.446  31.980  1.00  0.00     0.029 A 
ATOM     55  C   UNL A   1      45.064  29.189  31.411  1.00  0.00     0.049 A 
ATOM     56  H   UNL A   1      45.009  27.406  32.534  1.00  0.00     0.167 HD
ATOM     57  C   UNL A   1      45.173  27.558  29.560  1.00  0.00     0.074 A 
ATOM     58  C   UNL A   1      44.529  26.387  30.154  1.00  0.00     0.031 C 
ATOM     59  C   UNL A   1      45.509  28.777  30.079  1.00  0.00     0.034 A 
BRANCH  46  60
ATOM     60  C   UNL A   1      42.639  27.071  34.631  1.00  0.00     0.023 A 
ATOM     61  C   UNL A   1      43.442  25.927  34.442  1.00  0.00     0.031 A 
ATOM     62  C   UNL A   1      42.053  27.206  35.902  1.00  0.00     0.131 A 
ATOM     63  C   UNL A   1      43.587  24.951  35.433  1.00  0.00     0.055 A 
ATOM     64  C   UNL A   1      42.262  26.268  36.924  1.00  0.00     0.041 A 
ATOM     65  F   UNL A   1      41.298  28.274  36.203  1.00  0.00    -0.206 F 
ATOM     66  C   UNL A   1      43.022  25.127  36.690  1.00  0.00     0.022 A 
BRANCH  63  67
ATOM     67  S   UNL A   1      44.504  23.426  35.080  1.00  0.00     0.124 S 
ATOM     68  O   UNL A   1      43.458  22.563  34.545  1.00  0.00    -0.237 OA
ATOM     69  O   UNL A   1      45.497  23.892  34.114  1.00  0.00    -0.237 OA
ATOM     70  O   UNL A   1      45.045  23.044  36.381  1.00  0.00    -0.744 OA
ENDBRANCH  63  67
ENDBRANCH  46  60
BRANCH  47  71
ATOM     71  C   UNL A   1      42.983  25.195  26.183  1.00  0.00     0.023 A 
ATOM     72  C   UNL A   1      42.028  24.237  26.560  1.00  0.00     0.031 A 
ATOM     73  C   UNL A   1      43.989  24.787  25.286  1.00  0.00     0.131 A 
ATOM     74  C   UNL A   1      42.127  22.915  26.106  1.00  0.00     0.055 A 
ATOM     75  C   UNL A   1      44.072  23.469  24.813  1.00  0.00     0.041 A 
ATOM     76  F   UNL A   1      44.962  25.636  24.919  1.00  0.00    -0.206 F 
ATOM     77  C   UNL A   1      43.147  22.520  25.239  1.00  0.00     0.022 A 
BRANCH  74  78
ATOM     78  S   UNL A   1      40.993  21.657  26.749  1.00  0.00     0.124 S 
ATOM     79  O   UNL A   1      39.704  22.116  26.237  1.00  0.00    -0.237 OA
ATOM     80  O   UNL A   1      41.520  20.443  26.134  1.00  0.00    -0.237 OA
ATOM     81  O   UNL A   1      41.154  21.759  28.195  1.00  0.00    -0.744 OA
ENDBRANCH  74  78
ENDBRANCH  47  71
BRANCH  59  82
ATOM     82  C   UNL A   1      46.119  29.855  29.168  1.00  0.00     0.023 A 
ATOM     83  C   UNL A   1      45.211  30.679  28.474  1.00  0.00     0.031 A 
ATOM     84  C   UNL A   1      47.478  29.955  28.774  1.00  0.00     0.131 A 
ATOM     85  C   UNL A   1      45.619  31.436  27.366  1.00  0.00     0.055 A 
ATOM     86  C   UNL A   1      47.891  30.768  27.705  1.00  0.00     0.041 A 
ATOM     87  F   UNL A   1      48.423  29.125  29.240  1.00  0.00    -0.206 F 
ATOM     88  C   UNL A   1      46.956  31.487  26.974  1.00  0.00     0.022 A 
BRANCH  85  89
ATOM     89  S   UNL A   1      44.394  32.267  26.322  1.00  0.00     0.124 S 
ATOM     90  O   UNL A   1      43.429  31.200  26.070  1.00  0.00    -0.237 OA
ATOM     91  O   UNL A   1      43.933  33.341  27.197  1.00  0.00    -0.237 OA
ATOM     92  O   UNL A   1      45.160  32.698  25.156  1.00  0.00    -0.744 OA
ENDBRANCH  85  89
ENDBRANCH  59  82
ENDBRANCH  33  34
ENDBRANCH  26  28
ENDBRANCH  25  26
ENDBRANCH  24  25
ENDBRANCH   1  24
TORSDOF 18
ENDMDL
MODEL 2
REMARK VINA RESULT:     -12.1      1.321      2.894
REMARK SMILES Cc1ccn2c([C@@H]3CCCC[C@@H]3C(=O)OCCOCCOC(=O)c3ccc(-c4c5nc(c(-c6cc(S(=O)(=O)[O-])ccc6F)c6ccc([nH]6)c(-c6cc(S(=O)(=O)[O-])ccc6F)c6nc(c(-c7cc(S(=O)(=O)[O-])ccc7F)c7ccc4[nH]7)C=C6)C=C5)cc3)nnc2c1
REMARK SMILES IDX 19 1 18 2 17 3 16 4 15 5 13 6 14 7 12 8 7 9 8 10 9 11 11 12
REMARK SMILES IDX 10 13 6 14 1 15 2 16 3 17 90 18 4 19 89 20 5 21 88 22 87 23
REMARK SMILES IDX 20 24 21 25 22 26 23 27 24 28 25 29 86 30 26 31 85 32 27 33
REMARK SMILES IDX 28 34 29 35 79 36 30 37 84 38 78 39 80 40 31 41 83 42 77 43
REMARK SMILES IDX 76 44 32 46 64 47 44 48 63 49 45 50 48 51 62 52 81 53 46 54
REMARK SMILES IDX 47 55 61 57 82 58 49 59 33 60 34 61 42 62 35 63 41 64 43 65
REMARK SMILES IDX 40 66 36 67 37 68 38 69 39 70 65 71 66 72 74 73 67 74 73 75
REMARK SMILES IDX 75 76 72 77 68 78 69 79 70 80 71 81 50 82 51 83 59 84 52 85
REMARK SMILES IDX 58 86 60 87 57 88 53 89 54 90 55 91 56 92
REMARK H PARENT 80 45 48 56
REMARK Flexibility Score: inf
ROOT
ATOM      1  C   UNL A   1      32.482  30.046  25.987  1.00  0.00     0.202 C 
ENDROOT
BRANCH   1   2
ATOM      2  O   UNL A   1      31.952  28.731  26.140  1.00  0.00    -0.374 OA
BRANCH   2   3
ATOM      3  C   UNL A   1      32.871  27.709  26.501  1.00  0.00     0.202 C 
BRANCH   3   4
ATOM      4  C   UNL A   1      33.453  26.823  25.390  1.00  0.00     0.261 C 
BRANCH   4   5
ATOM      5  O   UNL A   1      34.185  25.643  25.819  1.00  0.00    -0.463 OA
BRANCH   5   6
ATOM      6  C   UNL A   1      33.446  24.500  25.881  1.00  0.00     0.309 C 
ATOM      7  O   UNL A   1      32.395  24.403  26.510  1.00  0.00    -0.252 OA
BRANCH   6   8
ATOM      8  C   UNL A   1      33.947  23.335  25.015  1.00  0.00     0.110 C 
ATOM      9  C   UNL A   1      33.216  22.933  23.718  1.00  0.00     0.072 C 
ATOM     10  C   UNL A   1      32.087  21.921  23.914  1.00  0.00     0.012 C 
ATOM     11  C   UNL A   1      32.624  20.673  24.603  1.00  0.00     0.001 C 
ATOM     12  C   UNL A   1      34.314  22.106  25.860  1.00  0.00     0.016 C 
ATOM     13  C   UNL A   1      33.220  21.041  25.955  1.00  0.00     0.001 C 
BRANCH   9  14
ATOM     14  C   UNL A   1      32.918  24.075  22.805  1.00  0.00     0.141 A 
ATOM     15  C   UNL A   1      29.297  28.195  23.329  1.00  0.00     0.044 C 
ATOM     16  C   UNL A   1      30.214  27.075  23.008  1.00  0.00    -0.046 A 
ATOM     17  C   UNL A   1      29.881  25.871  23.718  1.00  0.00     0.022 A 
ATOM     18  C   UNL A   1      31.270  27.124  22.168  1.00  0.00     0.053 A 
ATOM     19  C   UNL A   1      30.658  24.796  23.612  1.00  0.00     0.095 A 
ATOM     20  C   UNL A   1      32.133  25.992  22.081  1.00  0.00     0.161 A 
ATOM     21  N   UNL A   1      31.814  24.890  22.861  1.00  0.00    -0.286 N 
ATOM     22  N   UNL A   1      33.265  25.758  21.454  1.00  0.00    -0.130 NA
ATOM     23  N   UNL A   1      33.755  24.553  21.903  1.00  0.00    -0.134 NA
ENDBRANCH   9  14
ENDBRANCH   6   8
ENDBRANCH   5   6
ENDBRANCH   4   5
ENDBRANCH   3   4
ENDBRANCH   2   3
ENDBRANCH   1   2
BRANCH   1  24
ATOM     24  C   UNL A   1      33.064  30.728  27.239  1.00  0.00     0.261 C 
BRANCH  24  25
ATOM     25  O   UNL A   1      34.497  30.843  27.174  1.00  0.00    -0.460 OA
BRANCH  25  26
ATOM     26  C   UNL A   1      35.020  31.743  28.053  1.00  0.00     0.338 C 
ATOM     27  O   UNL A   1      34.478  32.747  28.483  1.00  0.00    -0.246 OA
BRANCH  26  28
ATOM     28  C   UNL A   1      36.205  31.103  28.649  1.00  0.00     0.060 A 
ATOM     29  C   UNL A   1      37.363  31.823  28.906  1.00  0.00     0.016 A 
ATOM     30  C   UNL A   1      36.192  29.704  28.769  1.00  0.00     0.016 A 
ATOM     31  C   UNL A   1      38.528  31.115  29.191  1.00  0.00     0.010 A 
ATOM     32  C   UNL A   1      37.385  29.004  28.964  1.00  0.00     0.010 A 
ATOM     33  C   UNL A   1      38.580  29.706  29.092  1.00  0.00    -0.014 A 
BRANCH  33  34
ATOM     34  C   UNL A   1      39.902  29.046  29.210  1.00  0.00     0.031 A 
ATOM     35  C   UNL A   1      40.298  28.741  30.614  1.00  0.00     0.074 A 
ATOM     36  C   UNL A   1      40.729  28.681  28.198  1.00  0.00     0.049 A 
ATOM     37  N   UNL A   1      41.361  29.120  31.250  1.00  0.00    -0.248 NA
ATOM     38  C   UNL A   1      39.310  28.037  31.442  1.00  0.00     0.031 C 
ATOM     39  C   UNL A   1      40.436  28.665  26.762  1.00  0.00     0.029 A 
ATOM     40  N   UNL A   1      42.005  28.161  28.247  1.00  0.00    -0.354 N 
ATOM     41  C   UNL A   1      41.250  28.574  32.525  1.00  0.00     0.074 A 
ATOM     42  C   UNL A   1      39.912  28.044  32.628  1.00  0.00     0.031 C 
ATOM     43  C   UNL A   1      41.388  27.954  26.114  1.00  0.00     0.029 A 
ATOM     44  C   UNL A   1      42.428  27.570  27.056  1.00  0.00     0.049 A 
ATOM     45  H   UNL A   1      42.569  28.203  29.054  1.00  0.00     0.167 HD
ATOM     46  C   UNL A   1      42.308  28.441  33.373  1.00  0.00     0.034 A 
ATOM     47  C   UNL A   1      43.492  26.744  26.853  1.00  0.00     0.034 A 
ATOM     48  C   UNL A   1      43.406  29.292  33.012  1.00  0.00     0.049 A 
ATOM     49  C   UNL A   1      44.442  26.855  27.980  1.00  0.00     0.074 A 
ATOM     50  C   UNL A   1      43.593  30.658  32.983  1.00  0.00     0.029 A 
ATOM     51  N   UNL A   1      44.465  28.756  32.325  1.00  0.00    -0.354 N 
ATOM     52  N   UNL A   1      45.272  27.835  28.170  1.00  0.00    -0.248 NA
ATOM     53  C   UNL A   1      44.194  26.012  29.135  1.00  0.00     0.031 C 
ATOM     54  C   UNL A   1      44.495  30.893  31.909  1.00  0.00     0.029 A 
ATOM     55  C   UNL A   1      44.865  29.659  31.365  1.00  0.00     0.049 A 
ATOM     56  H   UNL A   1      44.872  27.876  32.490  1.00  0.00     0.167 HD
ATOM     57  C   UNL A   1      45.245  28.044  29.536  1.00  0.00     0.074 A 
ATOM     58  C   UNL A   1      44.655  26.824  30.086  1.00  0.00     0.031 C 
ATOM     59  C   UNL A   1      45.440  29.286  30.072  1.00  0.00     0.034 A 
BRANCH  46  60
ATOM     60  C   UNL A   1      42.387  27.347  34.407  1.00  0.00     0.023 A 
ATOM     61  C   UNL A   1      43.157  26.184  34.200  1.00  0.00     0.031 A 
ATOM     62  C   UNL A   1      41.852  27.507  35.697  1.00  0.00     0.131 A 
ATOM     63  C   UNL A   1      43.317  25.214  35.194  1.00  0.00     0.055 A 
ATOM     64  C   UNL A   1      42.077  26.574  36.719  1.00  0.00     0.041 A 
ATOM     65  F   UNL A   1      41.132  28.594  36.014  1.00  0.00    -0.206 F 
ATOM     66  C   UNL A   1      42.803  25.414  36.469  1.00  0.00     0.022 A 
BRANCH  63  67
ATOM     67  S   UNL A   1      44.186  23.666  34.823  1.00  0.00     0.124 S 
ATOM     68  O   UNL A   1      44.535  23.190  36.157  1.00  0.00    -0.237 OA
ATOM     69  O   UNL A   1      43.153  22.903  34.127  1.00  0.00    -0.237 OA
ATOM     70  O   UNL A   1      45.303  24.093  33.985  1.00  0.00    -0.744 OA
ENDBRANCH  63  67
ENDBRANCH  46  60
BRANCH  47  71
ATOM     71  C   UNL A   1      43.512  25.514  26.018  1.00  0.00     0.023 A 
ATOM     72  C   UNL A   1      42.626  24.472  26.339  1.00  0.00     0.031 A 
ATOM     73  C   UNL A   1      44.604  25.199  25.185  1.00  0.00     0.131 A 
ATOM     74  C   UNL A   1      42.872  23.165  25.898  1.00  0.00     0.055 A 
ATOM     75  C   UNL A   1      44.834  23.895  24.724  1.00  0.00     0.041 A 
ATOM     76  F   UNL A   1      45.516  26.133  24.874  1.00  0.00    -0.206 F 
ATOM     77  C   UNL A   1      43.975  22.866  25.097  1.00  0.00     0.022 A 
BRANCH  74  78
ATOM     78  S   UNL A   1      41.819  21.808  26.476  1.00  0.00     0.124 S 
ATOM     79  O   UNL A   1      42.332  20.675  25.711  1.00  0.00    -0.237 OA
ATOM     80  O   UNL A   1      42.117  21.792  27.904  1.00  0.00    -0.237 OA
ATOM     81  O   UNL A   1      40.475  22.242  26.110  1.00  0.00    -0.744 OA
ENDBRANCH  74  78
ENDBRANCH  47  71
BRANCH  59  82
ATOM     82  C   UNL A   1      46.026  30.411  29.203  1.00  0.00     0.023 A 
ATOM     83  C   UNL A   1      45.111  31.147  28.424  1.00  0.00     0.031 A 
ATOM     84  C   UNL A   1      47.400  30.632  28.925  1.00  0.00     0.131 A 
ATOM     85  C   UNL A   1      45.543  31.933  27.346  1.00  0.00     0.055 A 
ATOM     86  C   UNL A   1      47.828  31.475  27.885  1.00  0.00     0.041 A 
ATOM     87  F   UNL A   1      48.373  29.893  29.479  1.00  0.00    -0.206 F 
ATOM     88  C   UNL A   1      46.899  32.103  27.069  1.00  0.00     0.022 A 
BRANCH  85  89
ATOM     89  S   UNL A   1      44.341  32.645  26.192  1.00  0.00     0.124 S 
ATOM     90  O   UNL A   1      45.185  33.023  25.062  1.00  0.00    -0.237 OA
ATOM     91  O   UNL A   1      43.444  31.515  25.959  1.00  0.00    -0.237 OA
ATOM     92  O   UNL A   1      43.760  33.760  26.933  1.00  0.00    -0.744 OA
ENDBRANCH  85  89
ENDBRANCH  59  82
ENDBRANCH  33  34
ENDBRANCH  26  28
ENDBRANCH  25  26
ENDBRANCH  24  25
ENDBRANCH   1  24
TORSDOF 18
ENDMDL
MODEL 3
REMARK VINA RESULT:     -11.9      4.680      7.939
REMARK SMILES Cc1ccn2c([C@@H]3CCCC[C@@H]3C(=O)OCCOCCOC(=O)c3ccc(-c4c5nc(c(-c6cc(S(=O)(=O)[O-])ccc6F)c6ccc([nH]6)c(-c6cc(S(=O)(=O)[O-])ccc6F)c6nc(c(-c7cc(S(=O)(=O)[O-])ccc7F)c7ccc4[nH]7)C=C6)C=C5)cc3)nnc2c1
REMARK SMILES IDX 19 1 18 2 17 3 16 4 15 5 13 6 14 7 12 8 7 9 8 10 9 11 11 12
REMARK SMILES IDX 10 13 6 14 1 15 2 16 3 17 90 18 4 19 89 20 5 21 88 22 87 23
REMARK SMILES IDX 20 24 21 25 22 26 23 27 24 28 25 29 86 30 26 31 85 32 27 33
REMARK SMILES IDX 28 34 29 35 79 36 30 37 84 38 78 39 80 40 31 41 83 42 77 43
REMARK SMILES IDX 76 44 32 46 64 47 44 48 63 49 45 50 48 51 62 52 81 53 46 54
REMARK SMILES IDX 47 55 61 57 82 58 49 59 33 60 34 61 42 62 35 63 41 64 43 65
REMARK SMILES IDX 40 66 36 67 37 68 38 69 39 70 65 71 66 72 74 73 67 74 73 75
REMARK SMILES IDX 75 76 72 77 68 78 69 79 70 80 71 81 50 82 51 83 59 84 52 85
REMARK SMILES IDX 58 86 60 87 57 88 53 89 54 90 55 91 56 92
REMARK H PARENT 80 45 48 56
REMARK Flexibility Score: inf
ROOT
ATOM      1  C   UNL A   1      34.628  34.734  29.107  1.00  0.00     0.202 C 
ENDROOT
BRANCH   1   2
ATOM      2  O   UNL A   1      35.097  34.145  30.318  1.00  0.00    -0.374 OA
BRANCH   2   3
ATOM      3  C   UNL A   1      34.191  34.126  31.413  1.00  0.00     0.202 C 
BRANCH   3   4
ATOM      4  C   UNL A   1      34.601  33.377  32.689  1.00  0.00     0.261 C 
BRANCH   4   5
ATOM      5  O   UNL A   1      36.026  33.165  32.886  1.00  0.00    -0.463 OA
BRANCH   5   6
ATOM      6  C   UNL A   1      36.689  34.210  33.453  1.00  0.00     0.309 C 
ATOM      7  O   UNL A   1      36.238  35.352  33.509  1.00  0.00    -0.252 OA
BRANCH   6   8
ATOM      8  C   UNL A   1      38.020  33.863  34.135  1.00  0.00     0.110 C 
ATOM      9  C   UNL A   1      39.186  33.239  33.341  1.00  0.00     0.072 C 
ATOM     10  C   UNL A   1      39.158  31.712  33.269  1.00  0.00     0.012 C 
ATOM     11  C   UNL A   1      39.131  31.128  34.675  1.00  0.00     0.001 C 
ATOM     12  C   UNL A   1      37.809  33.152  35.481  1.00  0.00     0.016 C 
ATOM     13  C   UNL A   1      37.900  31.626  35.421  1.00  0.00     0.001 C 
BRANCH   9  14
ATOM     14  C   UNL A   1      39.505  33.948  32.067  1.00  0.00     0.141 A 
ATOM     15  C   UNL A   1      44.374  35.204  29.817  1.00  0.00     0.044 C 
ATOM     16  C   UNL A   1      43.010  35.042  30.374  1.00  0.00    -0.046 A 
ATOM     17  C   UNL A   1      43.015  34.894  31.804  1.00  0.00     0.022 A 
ATOM     18  C   UNL A   1      41.859  35.008  29.669  1.00  0.00     0.053 A 
ATOM     19  C   UNL A   1      41.879  34.649  32.454  1.00  0.00     0.095 A 
ATOM     20  C   UNL A   1      40.644  34.703  30.350  1.00  0.00     0.161 A 
ATOM     21  N   UNL A   1      40.722  34.478  31.717  1.00  0.00    -0.286 N 
ATOM     22  N   UNL A   1      39.406  34.502  29.955  1.00  0.00    -0.130 NA
ATOM     23  N   UNL A   1      38.689  34.035  31.033  1.00  0.00    -0.134 NA
ENDBRANCH   9  14
ENDBRANCH   6   8
ENDBRANCH   5   6
ENDBRANCH   4   5
ENDBRANCH   3   4
ENDBRANCH   2   3
ENDBRANCH   1   2
BRANCH   1  24
ATOM     24  C   UNL A   1      34.180  33.784  27.982  1.00  0.00     0.261 C 
BRANCH  24  25
ATOM     25  O   UNL A   1      35.236  32.897  27.571  1.00  0.00    -0.460 OA
BRANCH  25  26
ATOM     26  C   UNL A   1      34.927  31.576  27.688  1.00  0.00     0.338 C 
ATOM     27  O   UNL A   1      34.016  30.985  27.134  1.00  0.00    -0.246 OA
BRANCH  26  28
ATOM     28  C   UNL A   1      36.090  30.931  28.322  1.00  0.00     0.060 A 
ATOM     29  C   UNL A   1      37.060  31.675  28.978  1.00  0.00     0.016 A 
ATOM     30  C   UNL A   1      36.285  29.563  28.073  1.00  0.00     0.016 A 
ATOM     31  C   UNL A   1      38.265  31.050  29.295  1.00  0.00     0.010 A 
ATOM     32  C   UNL A   1      37.529  28.975  28.312  1.00  0.00     0.010 A 
ATOM     33  C   UNL A   1      38.559  29.741  28.849  1.00  0.00    -0.014 A 
BRANCH  33  34
ATOM     34  C   UNL A   1      39.935  29.228  29.052  1.00  0.00     0.031 A 
ATOM     35  C   UNL A   1      40.263  28.936  30.477  1.00  0.00     0.074 A 
ATOM     36  C   UNL A   1      40.866  28.979  28.097  1.00  0.00     0.049 A 
ATOM     37  N   UNL A   1      41.230  29.414  31.193  1.00  0.00    -0.248 NA
ATOM     38  C   UNL A   1      39.304  28.109  31.220  1.00  0.00     0.031 C 
ATOM     39  C   UNL A   1      40.678  28.965  26.643  1.00  0.00     0.029 A 
ATOM     40  N   UNL A   1      42.185  28.601  28.230  1.00  0.00    -0.354 N 
ATOM     41  C   UNL A   1      41.092  28.829  32.448  1.00  0.00     0.074 A 
ATOM     42  C   UNL A   1      39.817  28.154  32.447  1.00  0.00     0.031 C 
ATOM     43  C   UNL A   1      41.746  28.378  26.055  1.00  0.00     0.029 A 
ATOM     44  C   UNL A   1      42.753  28.088  27.064  1.00  0.00     0.049 A 
ATOM     45  H   UNL A   1      42.683  28.686  29.075  1.00  0.00     0.167 HD
ATOM     46  C   UNL A   1      42.096  28.794  33.368  1.00  0.00     0.034 A 
ATOM     47  C   UNL A   1      43.914  27.389  26.925  1.00  0.00     0.034 A 
ATOM     48  C   UNL A   1      43.115  29.768  33.100  1.00  0.00     0.049 A 
ATOM     49  C   UNL A   1      44.764  27.577  28.119  1.00  0.00     0.074 A 
ATOM     50  C   UNL A   1      43.152  31.147  33.106  1.00  0.00     0.029 A 
ATOM     51  N   UNL A   1      44.273  29.368  32.483  1.00  0.00    -0.354 N 
ATOM     52  N   UNL A   1      45.465  28.638  28.383  1.00  0.00    -0.248 NA
ATOM     53  C   UNL A   1      44.532  26.686  29.240  1.00  0.00     0.031 C 
ATOM     54  C   UNL A   1      44.095  31.504  32.103  1.00  0.00     0.029 A 
ATOM     55  C   UNL A   1      44.637  30.331  31.569  1.00  0.00     0.049 A 
ATOM     56  H   UNL A   1      44.763  28.534  32.663  1.00  0.00     0.167 HD
ATOM     57  C   UNL A   1      45.320  28.811  29.747  1.00  0.00     0.074 A 
ATOM     58  C   UNL A   1      44.832  27.521  30.234  1.00  0.00     0.031 C 
ATOM     59  C   UNL A   1      45.338  30.053  30.314  1.00  0.00     0.034 A 
BRANCH  46  60
ATOM     60  C   UNL A   1      42.224  27.692  34.388  1.00  0.00     0.023 A 
ATOM     61  C   UNL A   1      42.994  26.536  34.140  1.00  0.00     0.031 A 
ATOM     62  C   UNL A   1      41.738  27.836  35.699  1.00  0.00     0.131 A 
ATOM     63  C   UNL A   1      43.200  25.559  35.119  1.00  0.00     0.055 A 
ATOM     64  C   UNL A   1      42.010  26.895  36.704  1.00  0.00     0.041 A 
ATOM     65  F   UNL A   1      41.023  28.914  36.054  1.00  0.00    -0.206 F 
ATOM     66  C   UNL A   1      42.734  25.743  36.415  1.00  0.00     0.022 A 
BRANCH  63  67
ATOM     67  S   UNL A   1      44.065  24.021  34.700  1.00  0.00     0.124 S 
ATOM     68  O   UNL A   1      44.749  24.387  33.465  1.00  0.00    -0.237 OA
ATOM     69  O   UNL A   1      44.923  23.833  35.869  1.00  0.00    -0.237 OA
ATOM     70  O   UNL A   1      42.986  23.046  34.568  1.00  0.00    -0.744 OA
ENDBRANCH  63  67
ENDBRANCH  46  60
BRANCH  47  71
ATOM     71  C   UNL A   1      44.128  26.188  26.074  1.00  0.00     0.023 A 
ATOM     72  C   UNL A   1      43.269  25.089  26.238  1.00  0.00     0.031 A 
ATOM     73  C   UNL A   1      45.347  25.961  25.405  1.00  0.00     0.131 A 
ATOM     74  C   UNL A   1      43.654  23.813  25.809  1.00  0.00     0.055 A 
ATOM     75  C   UNL A   1      45.719  24.686  24.954  1.00  0.00     0.041 A 
ATOM     76  F   UNL A   1      46.238  26.953  25.254  1.00  0.00    -0.206 F 
ATOM     77  C   UNL A   1      44.877  23.600  25.173  1.00  0.00     0.022 A 
BRANCH  74  78
ATOM     78  S   UNL A   1      42.610  22.382  26.194  1.00  0.00     0.124 S 
ATOM     79  O   UNL A   1      42.974  21.443  25.137  1.00  0.00    -0.237 OA
ATOM     80  O   UNL A   1      43.071  22.034  27.534  1.00  0.00    -0.237 OA
ATOM     81  O   UNL A   1      41.255  22.917  26.106  1.00  0.00    -0.744 OA
ENDBRANCH  74  78
ENDBRANCH  47  71
BRANCH  59  82
ATOM     82  C   UNL A   1      45.855  31.256  29.508  1.00  0.00     0.023 A 
ATOM     83  C   UNL A   1      44.997  31.760  28.510  1.00  0.00     0.031 A 
ATOM     84  C   UNL A   1      47.182  31.758  29.500  1.00  0.00     0.131 A 
ATOM     85  C   UNL A   1      45.481  32.593  27.491  1.00  0.00     0.055 A 
ATOM     86  C   UNL A   1      47.642  32.647  28.514  1.00  0.00     0.041 A 
ATOM     87  F   UNL A   1      48.143  31.258  30.292  1.00  0.00    -0.206 F 
ATOM     88  C   UNL A   1      46.801  33.041  27.484  1.00  0.00     0.022 A 
BRANCH  85  89
ATOM     89  S   UNL A   1      44.435  33.003  26.069  1.00  0.00     0.124 S 
ATOM     90  O   UNL A   1      43.566  34.042  26.614  1.00  0.00    -0.237 OA
ATOM     91  O   UNL A   1      45.422  33.455  25.091  1.00  0.00    -0.237 OA
ATOM     92  O   UNL A   1      43.770  31.744  25.747  1.00  0.00    -0.744 OA
ENDBRANCH  85  89
ENDBRANCH  59  82
ENDBRANCH  33  34
ENDBRANCH  26  28
ENDBRANCH  25  26
ENDBRANCH  24  25
ENDBRANCH   1  24
TORSDOF 18
ENDMDL
