MODEL 1
REMARK VINA RESULT:     -10.3      0.000      0.000
REMARK SMILES CC[C@H]1CC[C@](O)([C@H](F)C(=O)OCCOCCOC(=O)c2ccc(-c3c4nc(c(-c5cc(S(=O)(=O)[O-])ccc5F)c5ccc([nH]5)c(-c5cc(S(=O)(=O)[O-])ccc5F)c5nc(c(-c6cc(S(=O)(=O)[O-])ccc6F)c6ccc3[nH]6)C=C5)C=C4)cc2)CC1
REMARK SMILES IDX 16 1 15 2 14 3 13 4 12 5 10 6 11 7 8 8 9 9 6 10 3 11 4 12
REMARK SMILES IDX 85 13 5 14 84 15 2 16 1 17 7 18 17 20 18 21 19 22 20 23
REMARK SMILES IDX 21 24 22 25 83 26 23 27 82 28 24 29 25 30 26 31 76 32 27 33
REMARK SMILES IDX 81 34 75 35 77 36 28 37 80 38 74 39 73 40 29 42 61 43 41 44
REMARK SMILES IDX 60 45 42 46 45 47 59 48 78 49 43 50 44 51 58 53 79 54 46 55
REMARK SMILES IDX 30 56 31 57 39 58 32 59 38 60 40 61 37 62 33 63 34 64 35 65
REMARK SMILES IDX 36 66 62 67 63 68 71 69 64 70 70 71 72 72 69 73 65 74 66 75
REMARK SMILES IDX 67 76 68 77 47 78 48 79 56 80 49 81 55 82 57 83 54 84 50 85
REMARK SMILES IDX 51 86 52 87 53 88
REMARK H PARENT 7 19 77 41 45 52
REMARK Flexibility Score: inf
ROOT
ATOM      1  C   UNL A   1      31.537  29.396  25.138  1.00  0.00     0.202 C 
ENDROOT
BRANCH   1   2
ATOM      2  O   UNL A   1      30.652  29.325  24.021  1.00  0.00    -0.374 OA
BRANCH   2   3
ATOM      3  C   UNL A   1      30.583  28.087  23.312  1.00  0.00     0.202 C 
BRANCH   3   4
ATOM      4  C   UNL A   1      29.582  27.064  23.854  1.00  0.00     0.261 C 
BRANCH   4   5
ATOM      5  O   UNL A   1      30.251  25.844  24.207  1.00  0.00    -0.461 OA
BRANCH   5   6
ATOM      6  C   UNL A   1      30.812  25.799  25.450  1.00  0.00     0.343 C 
ATOM      7  O   UNL A   1      30.189  25.875  26.503  1.00  0.00    -0.249 OA
BRANCH   6   8
ATOM      8  C   UNL A   1      32.314  25.580  25.360  1.00  0.00     0.307 C 
ATOM      9  F   UNL A   1      32.992  26.164  26.396  1.00  0.00    -0.232 F 
BRANCH   8  10
ATOM     10  C   UNL A   1      32.700  24.089  25.260  1.00  0.00     0.107 C 
ATOM     11  C   UNL A   1      35.536  23.678  24.250  1.00  0.00    -0.011 C 
ATOM     12  C   UNL A   1      35.231  24.150  25.679  1.00  0.00     0.006 C 
ATOM     13  C   UNL A   1      34.404  24.076  23.295  1.00  0.00     0.006 C 
ATOM     14  C   UNL A   1      33.869  23.695  26.183  1.00  0.00     0.039 C 
ATOM     15  C   UNL A   1      32.999  23.728  23.787  1.00  0.00     0.039 C 
BRANCH  11  16
ATOM     16  C   UNL A   1      35.981  22.198  24.176  1.00  0.00    -0.000 C 
ATOM     17  C   UNL A   1      36.751  21.610  25.347  1.00  0.00     0.004 C 
ENDBRANCH  11  16
BRANCH  10  18
ATOM     18  O   UNL A   1      31.548  23.310  25.634  1.00  0.00    -0.386 OA
ATOM     19  H   UNL A   1      31.271  22.762  24.883  1.00  0.00     0.211 HD
ENDBRANCH  10  18
ENDBRANCH   8  10
ENDBRANCH   6   8
ENDBRANCH   5   6
ENDBRANCH   4   5
ENDBRANCH   3   4
ENDBRANCH   2   3
ENDBRANCH   1   2
BRANCH   1  20
ATOM     20  C   UNL A   1      31.660  30.749  25.851  1.00  0.00     0.261 C 
BRANCH  20  21
ATOM     21  O   UNL A   1      32.410  30.678  27.076  1.00  0.00    -0.460 OA
BRANCH  21  22
ATOM     22  C   UNL A   1      33.162  31.774  27.337  1.00  0.00     0.338 C 
ATOM     23  O   UNL A   1      32.785  32.938  27.345  1.00  0.00    -0.246 OA
BRANCH  22  24
ATOM     24  C   UNL A   1      34.509  31.379  27.789  1.00  0.00     0.060 A 
ATOM     25  C   UNL A   1      34.713  30.031  28.111  1.00  0.00     0.016 A 
ATOM     26  C   UNL A   1      35.518  32.321  28.001  1.00  0.00     0.016 A 
ATOM     27  C   UNL A   1      35.909  29.628  28.700  1.00  0.00     0.010 A 
ATOM     28  C   UNL A   1      36.716  31.914  28.602  1.00  0.00     0.010 A 
ATOM     29  C   UNL A   1      36.900  30.574  28.991  1.00  0.00    -0.014 A 
BRANCH  29  30
ATOM     30  C   UNL A   1      38.045  30.187  29.851  1.00  0.00     0.031 A 
ATOM     31  C   UNL A   1      39.060  29.213  29.314  1.00  0.00     0.074 A 
ATOM     32  C   UNL A   1      38.203  30.723  31.075  1.00  0.00     0.049 A 
ATOM     33  N   UNL A   1      40.123  28.715  29.889  1.00  0.00    -0.248 NA
ATOM     34  C   UNL A   1      38.838  28.736  27.940  1.00  0.00     0.031 C 
ATOM     35  C   UNL A   1      37.314  31.713  31.681  1.00  0.00     0.029 A 
ATOM     36  N   UNL A   1      39.168  30.510  32.026  1.00  0.00    -0.354 N 
ATOM     37  C   UNL A   1      40.698  27.861  28.952  1.00  0.00     0.074 A 
ATOM     38  C   UNL A   1      39.841  27.884  27.785  1.00  0.00     0.031 C 
ATOM     39  C   UNL A   1      37.772  32.015  32.909  1.00  0.00     0.029 A 
ATOM     40  C   UNL A   1      38.963  31.215  33.188  1.00  0.00     0.049 A 
ATOM     41  H   UNL A   1      39.935  29.908  31.889  1.00  0.00     0.167 HD
ATOM     42  C   UNL A   1      41.838  27.134  29.052  1.00  0.00     0.034 A 
ATOM     43  C   UNL A   1      39.647  31.199  34.350  1.00  0.00     0.034 A 
ATOM     44  C   UNL A   1      42.675  27.115  30.228  1.00  0.00     0.049 A 
ATOM     45  C   UNL A   1      40.867  30.317  34.471  1.00  0.00     0.074 A 
ATOM     46  C   UNL A   1      43.858  26.427  30.434  1.00  0.00     0.029 A 
ATOM     47  N   UNL A   1      42.410  27.805  31.404  1.00  0.00    -0.354 N 
ATOM     48  N   UNL A   1      41.404  29.521  33.575  1.00  0.00    -0.248 NA
ATOM     49  C   UNL A   1      41.574  30.337  35.758  1.00  0.00     0.031 C 
ATOM     50  C   UNL A   1      44.269  26.644  31.754  1.00  0.00     0.029 A 
ATOM     51  C   UNL A   1      43.387  27.531  32.350  1.00  0.00     0.049 A 
ATOM     52  H   UNL A   1      41.640  28.402  31.547  1.00  0.00     0.167 HD
ATOM     53  C   UNL A   1      42.533  28.974  34.182  1.00  0.00     0.074 A 
ATOM     54  C   UNL A   1      42.601  29.537  35.514  1.00  0.00     0.031 C 
ATOM     55  C   UNL A   1      43.436  28.092  33.680  1.00  0.00     0.034 A 
BRANCH  42  56
ATOM     56  C   UNL A   1      42.205  26.259  27.879  1.00  0.00     0.023 A 
ATOM     57  C   UNL A   1      41.716  24.947  27.749  1.00  0.00     0.031 A 
ATOM     58  C   UNL A   1      43.091  26.731  26.894  1.00  0.00     0.131 A 
ATOM     59  C   UNL A   1      42.170  24.132  26.700  1.00  0.00     0.055 A 
ATOM     60  C   UNL A   1      43.477  25.941  25.810  1.00  0.00     0.041 A 
ATOM     61  F   UNL A   1      43.609  27.966  26.977  1.00  0.00    -0.206 F 
ATOM     62  C   UNL A   1      43.029  24.627  25.717  1.00  0.00     0.022 A 
BRANCH  59  63
ATOM     63  S   UNL A   1      41.735  22.370  26.720  1.00  0.00     0.124 S 
ATOM     64  O   UNL A   1      42.601  21.864  27.784  1.00  0.00    -0.237 OA
ATOM     65  O   UNL A   1      40.307  22.400  27.018  1.00  0.00    -0.237 OA
ATOM     66  O   UNL A   1      42.083  21.916  25.376  1.00  0.00    -0.744 OA
ENDBRANCH  59  63
ENDBRANCH  42  56
BRANCH  43  67
ATOM     67  C   UNL A   1      39.180  32.010  35.512  1.00  0.00     0.023 A 
ATOM     68  C   UNL A   1      38.492  31.418  36.582  1.00  0.00     0.031 A 
ATOM     69  C   UNL A   1      39.370  33.402  35.538  1.00  0.00     0.131 A 
ATOM     70  C   UNL A   1      37.980  32.222  37.614  1.00  0.00     0.055 A 
ATOM     71  C   UNL A   1      38.903  34.191  36.591  1.00  0.00     0.041 A 
ATOM     72  F   UNL A   1      40.021  34.019  34.539  1.00  0.00    -0.206 F 
ATOM     73  C   UNL A   1      38.191  33.602  37.631  1.00  0.00     0.022 A 
BRANCH  70  74
ATOM     74  S   UNL A   1      36.961  31.445  38.897  1.00  0.00     0.124 S 
ATOM     75  O   UNL A   1      37.813  31.577  40.073  1.00  0.00    -0.237 OA
ATOM     76  O   UNL A   1      35.761  32.275  38.876  1.00  0.00    -0.237 OA
ATOM     77  O   UNL A   1      36.780  30.080  38.407  1.00  0.00    -0.744 OA
ENDBRANCH  70  74
ENDBRANCH  43  67
BRANCH  55  78
ATOM     78  C   UNL A   1      44.603  27.726  34.565  1.00  0.00     0.023 A 
ATOM     79  C   UNL A   1      44.593  26.570  35.366  1.00  0.00     0.031 A 
ATOM     80  C   UNL A   1      45.739  28.554  34.612  1.00  0.00     0.131 A 
ATOM     81  C   UNL A   1      45.675  26.304  36.220  1.00  0.00     0.055 A 
ATOM     82  C   UNL A   1      46.836  28.254  35.420  1.00  0.00     0.041 A 
ATOM     83  F   UNL A   1      45.801  29.671  33.870  1.00  0.00    -0.206 F 
ATOM     84  C   UNL A   1      46.802  27.129  36.240  1.00  0.00     0.022 A 
BRANCH  81  85
ATOM     85  S   UNL A   1      45.553  24.908  37.374  1.00  0.00     0.124 S 
ATOM     86  O   UNL A   1      44.526  24.084  36.745  1.00  0.00    -0.237 OA
ATOM     87  O   UNL A   1      46.907  24.366  37.352  1.00  0.00    -0.237 OA
ATOM     88  O   UNL A   1      45.158  25.538  38.633  1.00  0.00    -0.744 OA
ENDBRANCH  81  85
ENDBRANCH  55  78
ENDBRANCH  29  30
ENDBRANCH  22  24
ENDBRANCH  21  22
ENDBRANCH  20  21
ENDBRANCH   1  20
TORSDOF 20
ENDMDL
MODEL 2
REMARK VINA RESULT:     -10.3      5.888     10.009
REMARK SMILES CC[C@H]1CC[C@](O)([C@H](F)C(=O)OCCOCCOC(=O)c2ccc(-c3c4nc(c(-c5cc(S(=O)(=O)[O-])ccc5F)c5ccc([nH]5)c(-c5cc(S(=O)(=O)[O-])ccc5F)c5nc(c(-c6cc(S(=O)(=O)[O-])ccc6F)c6ccc3[nH]6)C=C5)C=C4)cc2)CC1
REMARK SMILES IDX 16 1 15 2 14 3 13 4 12 5 10 6 11 7 8 8 9 9 6 10 3 11 4 12
REMARK SMILES IDX 85 13 5 14 84 15 2 16 1 17 7 18 17 20 18 21 19 22 20 23
REMARK SMILES IDX 21 24 22 25 83 26 23 27 82 28 24 29 25 30 26 31 76 32 27 33
REMARK SMILES IDX 81 34 75 35 77 36 28 37 80 38 74 39 73 40 29 42 61 43 41 44
REMARK SMILES IDX 60 45 42 46 45 47 59 48 78 49 43 50 44 51 58 53 79 54 46 55
REMARK SMILES IDX 30 56 31 57 39 58 32 59 38 60 40 61 37 62 33 63 34 64 35 65
REMARK SMILES IDX 36 66 62 67 63 68 71 69 64 70 70 71 72 72 69 73 65 74 66 75
REMARK SMILES IDX 67 76 68 77 47 78 48 79 56 80 49 81 55 82 57 83 54 84 50 85
REMARK SMILES IDX 51 86 52 87 53 88
REMARK H PARENT 7 19 77 41 45 52
REMARK Flexibility Score: inf
ROOT
ATOM      1  C   UNL A   1      41.384  19.434  25.775  1.00  0.00     0.202 C 
ENDROOT
BRANCH   1   2
ATOM      2  O   UNL A   1      41.907  18.106  25.815  1.00  0.00    -0.374 OA
BRANCH   2   3
ATOM      3  C   UNL A   1      43.045  17.870  26.646  1.00  0.00     0.202 C 
BRANCH   3   4
ATOM      4  C   UNL A   1      44.379  18.395  26.112  1.00  0.00     0.261 C 
BRANCH   4   5
ATOM      5  O   UNL A   1      44.297  18.628  24.698  1.00  0.00    -0.461 OA
BRANCH   5   6
ATOM      6  C   UNL A   1      45.419  19.124  24.099  1.00  0.00     0.343 C 
ATOM      7  O   UNL A   1      45.998  18.602  23.154  1.00  0.00    -0.249 OA
BRANCH   6   8
ATOM      8  C   UNL A   1      45.823  20.452  24.722  1.00  0.00     0.307 C 
ATOM      9  F   UNL A   1      47.173  20.669  24.661  1.00  0.00    -0.232 F 
BRANCH   8  10
ATOM     10  C   UNL A   1      45.073  21.655  24.113  1.00  0.00     0.107 C 
ATOM     11  C   UNL A   1      44.987  24.049  25.983  1.00  0.00    -0.011 C 
ATOM     12  C   UNL A   1      46.255  23.649  25.215  1.00  0.00     0.006 C 
ATOM     13  C   UNL A   1      44.086  22.829  26.215  1.00  0.00     0.006 C 
ATOM     14  C   UNL A   1      45.962  22.899  23.923  1.00  0.00     0.039 C 
ATOM     15  C   UNL A   1      43.828  21.979  24.970  1.00  0.00     0.039 C 
BRANCH  11  16
ATOM     16  C   UNL A   1      44.282  25.295  25.396  1.00  0.00    -0.000 C 
ATOM     17  C   UNL A   1      42.768  25.282  25.268  1.00  0.00     0.004 C 
ENDBRANCH  11  16
BRANCH  10  18
ATOM     18  O   UNL A   1      44.574  21.257  22.823  1.00  0.00    -0.386 OA
ATOM     19  H   UNL A   1      44.353  22.046  22.304  1.00  0.00     0.211 HD
ENDBRANCH  10  18
ENDBRANCH   8  10
ENDBRANCH   6   8
ENDBRANCH   5   6
ENDBRANCH   4   5
ENDBRANCH   3   4
ENDBRANCH   2   3
ENDBRANCH   1   2
BRANCH   1  20
ATOM     20  C   UNL A   1      40.777  19.988  27.070  1.00  0.00     0.261 C 
BRANCH  20  21
ATOM     21  O   UNL A   1      41.094  21.372  27.298  1.00  0.00    -0.460 OA
BRANCH  21  22
ATOM     22  C   UNL A   1      40.154  22.242  26.859  1.00  0.00     0.338 C 
ATOM     23  O   UNL A   1      39.214  21.994  26.117  1.00  0.00    -0.246 OA
BRANCH  22  24
ATOM     24  C   UNL A   1      40.303  23.544  27.534  1.00  0.00     0.060 A 
ATOM     25  C   UNL A   1      39.413  24.565  27.172  1.00  0.00     0.016 A 
ATOM     26  C   UNL A   1      41.355  23.799  28.416  1.00  0.00     0.016 A 
ATOM     27  C   UNL A   1      39.607  25.860  27.648  1.00  0.00     0.010 A 
ATOM     28  C   UNL A   1      41.552  25.104  28.886  1.00  0.00     0.010 A 
ATOM     29  C   UNL A   1      40.703  26.147  28.471  1.00  0.00    -0.014 A 
BRANCH  29  30
ATOM     30  C   UNL A   1      41.050  27.562  28.752  1.00  0.00     0.031 A 
ATOM     31  C   UNL A   1      42.493  27.984  28.673  1.00  0.00     0.074 A 
ATOM     32  C   UNL A   1      40.094  28.465  29.034  1.00  0.00     0.049 A 
ATOM     33  N   UNL A   1      43.033  29.154  28.898  1.00  0.00    -0.248 NA
ATOM     34  C   UNL A   1      43.456  26.940  28.289  1.00  0.00     0.031 C 
ATOM     35  C   UNL A   1      38.661  28.185  29.090  1.00  0.00     0.029 A 
ATOM     36  N   UNL A   1      40.187  29.803  29.326  1.00  0.00    -0.354 N 
ATOM     37  C   UNL A   1      44.398  28.989  28.689  1.00  0.00     0.074 A 
ATOM     38  C   UNL A   1      44.605  27.595  28.354  1.00  0.00     0.031 C 
ATOM     39  C   UNL A   1      38.007  29.316  29.407  1.00  0.00     0.029 A 
ATOM     40  C   UNL A   1      38.977  30.391  29.611  1.00  0.00     0.049 A 
ATOM     41  H   UNL A   1      41.040  30.294  29.332  1.00  0.00     0.167 HD
ATOM     42  C   UNL A   1      45.386  29.915  28.760  1.00  0.00     0.034 A 
ATOM     43  C   UNL A   1      38.691  31.646  30.012  1.00  0.00     0.034 A 
ATOM     44  C   UNL A   1      45.164  31.299  29.106  1.00  0.00     0.049 A 
ATOM     45  C   UNL A   1      39.817  32.640  30.168  1.00  0.00     0.074 A 
ATOM     46  C   UNL A   1      46.088  32.325  29.194  1.00  0.00     0.029 A 
ATOM     47  N   UNL A   1      43.931  31.847  29.435  1.00  0.00    -0.354 N 
ATOM     48  N   UNL A   1      41.103  32.474  29.960  1.00  0.00    -0.248 NA
ATOM     49  C   UNL A   1      39.449  33.993  30.607  1.00  0.00     0.031 C 
ATOM     50  C   UNL A   1      45.427  33.474  29.643  1.00  0.00     0.029 A 
ATOM     51  C   UNL A   1      44.077  33.188  29.761  1.00  0.00     0.049 A 
ATOM     52  H   UNL A   1      43.078  31.357  29.438  1.00  0.00     0.167 HD
ATOM     53  C   UNL A   1      41.691  33.713  30.209  1.00  0.00     0.074 A 
ATOM     54  C   UNL A   1      40.619  34.614  30.575  1.00  0.00     0.031 C 
ATOM     55  C   UNL A   1      42.998  34.074  30.134  1.00  0.00     0.034 A 
BRANCH  42  56
ATOM     56  C   UNL A   1      46.798  29.441  28.516  1.00  0.00     0.023 A 
ATOM     57  C   UNL A   1      47.251  29.086  27.233  1.00  0.00     0.031 A 
ATOM     58  C   UNL A   1      47.695  29.304  29.591  1.00  0.00     0.131 A 
ATOM     59  C   UNL A   1      48.537  28.547  27.069  1.00  0.00     0.055 A 
ATOM     60  C   UNL A   1      48.998  28.840  29.409  1.00  0.00     0.041 A 
ATOM     61  F   UNL A   1      47.311  29.604  30.842  1.00  0.00    -0.206 F 
ATOM     62  C   UNL A   1      49.422  28.444  28.144  1.00  0.00     0.022 A 
BRANCH  59  63
ATOM     63  S   UNL A   1      48.986  27.848  25.456  1.00  0.00     0.124 S 
ATOM     64  O   UNL A   1      49.138  26.431  25.780  1.00  0.00    -0.237 OA
ATOM     65  O   UNL A   1      47.835  28.195  24.630  1.00  0.00    -0.237 OA
ATOM     66  O   UNL A   1      50.229  28.538  25.117  1.00  0.00    -0.744 OA
ENDBRANCH  59  63
ENDBRANCH  42  56
BRANCH  43  67
ATOM     67  C   UNL A   1      37.288  32.032  30.336  1.00  0.00     0.023 A 
ATOM     68  C   UNL A   1      36.382  32.396  29.328  1.00  0.00     0.031 A 
ATOM     69  C   UNL A   1      36.850  32.096  31.671  1.00  0.00     0.131 A 
ATOM     70  C   UNL A   1      35.097  32.848  29.673  1.00  0.00     0.055 A 
ATOM     71  C   UNL A   1      35.556  32.498  32.006  1.00  0.00     0.041 A 
ATOM     72  F   UNL A   1      37.677  31.759  32.674  1.00  0.00    -0.206 F 
ATOM     73  C   UNL A   1      34.675  32.890  31.003  1.00  0.00     0.022 A 
BRANCH  70  74
ATOM     74  S   UNL A   1      34.009  33.459  28.357  1.00  0.00     0.124 S 
ATOM     75  O   UNL A   1      34.930  34.257  27.556  1.00  0.00    -0.237 OA
ATOM     76  O   UNL A   1      33.541  32.217  27.750  1.00  0.00    -0.237 OA
ATOM     77  O   UNL A   1      32.992  34.217  29.081  1.00  0.00    -0.744 OA
ENDBRANCH  70  74
ENDBRANCH  43  67
BRANCH  55  78
ATOM     78  C   UNL A   1      43.328  35.522  30.407  1.00  0.00     0.023 A 
ATOM     79  C   UNL A   1      43.296  36.494  29.391  1.00  0.00     0.031 A 
ATOM     80  C   UNL A   1      43.688  35.930  31.703  1.00  0.00     0.131 A 
ATOM     81  C   UNL A   1      43.672  37.816  29.679  1.00  0.00     0.055 A 
ATOM     82  C   UNL A   1      44.004  37.258  31.995  1.00  0.00     0.041 A 
ATOM     83  F   UNL A   1      43.736  35.043  32.710  1.00  0.00    -0.206 F 
ATOM     84  C   UNL A   1      44.009  38.207  30.977  1.00  0.00     0.022 A 
BRANCH  81  85
ATOM     85  S   UNL A   1      43.798  39.004  28.313  1.00  0.00     0.124 S 
ATOM     86  O   UNL A   1      44.035  38.128  27.170  1.00  0.00    -0.237 OA
ATOM     87  O   UNL A   1      42.497  39.664  28.352  1.00  0.00    -0.237 OA
ATOM     88  O   UNL A   1      44.931  39.845  28.694  1.00  0.00    -0.744 OA
ENDBRANCH  81  85
ENDBRANCH  55  78
ENDBRANCH  29  30
ENDBRANCH  22  24
ENDBRANCH  21  22
ENDBRANCH  20  21
ENDBRANCH   1  20
TORSDOF 20
ENDMDL
MODEL 3
REMARK VINA RESULT:     -10.3      1.518      7.830
REMARK SMILES CC[C@H]1CC[C@](O)([C@H](F)C(=O)OCCOCCOC(=O)c2ccc(-c3c4nc(c(-c5cc(S(=O)(=O)[O-])ccc5F)c5ccc([nH]5)c(-c5cc(S(=O)(=O)[O-])ccc5F)c5nc(c(-c6cc(S(=O)(=O)[O-])ccc6F)c6ccc3[nH]6)C=C5)C=C4)cc2)CC1
REMARK SMILES IDX 16 1 15 2 14 3 13 4 12 5 10 6 11 7 8 8 9 9 6 10 3 11 4 12
REMARK SMILES IDX 85 13 5 14 84 15 2 16 1 17 7 18 17 20 18 21 19 22 20 23
REMARK SMILES IDX 21 24 22 25 83 26 23 27 82 28 24 29 25 30 26 31 76 32 27 33
REMARK SMILES IDX 81 34 75 35 77 36 28 37 80 38 74 39 73 40 29 42 61 43 41 44
REMARK SMILES IDX 60 45 42 46 45 47 59 48 78 49 43 50 44 51 58 53 79 54 46 55
REMARK SMILES IDX 30 56 31 57 39 58 32 59 38 60 40 61 37 62 33 63 34 64 35 65
REMARK SMILES IDX 36 66 62 67 63 68 71 69 64 70 70 71 72 72 69 73 65 74 66 75
REMARK SMILES IDX 67 76 68 77 47 78 48 79 56 80 49 81 55 82 57 83 54 84 50 85
REMARK SMILES IDX 51 86 52 87 53 88
REMARK H PARENT 7 19 77 41 45 52
REMARK Flexibility Score: inf
ROOT
ATOM      1  C   UNL A   1      32.155  29.534  25.503  1.00  0.00     0.202 C 
ENDROOT
BRANCH   1   2
ATOM      2  O   UNL A   1      31.781  29.323  24.142  1.00  0.00    -0.374 OA
BRANCH   2   3
ATOM      3  C   UNL A   1      30.656  28.479  23.892  1.00  0.00     0.202 C 
BRANCH   3   4
ATOM      4  C   UNL A   1      30.971  26.998  23.665  1.00  0.00     0.261 C 
BRANCH   4   5
ATOM      5  O   UNL A   1      30.008  26.171  24.335  1.00  0.00    -0.461 OA
BRANCH   5   6
ATOM      6  C   UNL A   1      30.333  25.763  25.596  1.00  0.00     0.343 C 
ATOM      7  O   UNL A   1      29.528  25.577  26.501  1.00  0.00    -0.249 OA
BRANCH   6   8
ATOM      8  C   UNL A   1      31.827  25.506  25.715  1.00  0.00     0.307 C 
ATOM      9  F   UNL A   1      32.444  26.390  26.559  1.00  0.00    -0.232 F 
BRANCH   8  10
ATOM     10  C   UNL A   1      32.157  24.060  26.141  1.00  0.00     0.107 C 
ATOM     11  C   UNL A   1      34.055  22.676  24.214  1.00  0.00    -0.011 C 
ATOM     12  C   UNL A   1      34.528  23.745  25.210  1.00  0.00     0.006 C 
ATOM     13  C   UNL A   1      32.577  22.880  23.861  1.00  0.00     0.006 C 
ATOM     14  C   UNL A   1      33.650  23.838  26.450  1.00  0.00     0.039 C 
ATOM     15  C   UNL A   1      31.653  23.073  25.064  1.00  0.00     0.039 C 
BRANCH  11  16
ATOM     16  C   UNL A   1      34.449  21.237  24.626  1.00  0.00    -0.000 C 
ATOM     17  C   UNL A   1      35.794  21.015  25.298  1.00  0.00     0.004 C 
ENDBRANCH  11  16
BRANCH  10  18
ATOM     18  O   UNL A   1      31.403  23.768  27.332  1.00  0.00    -0.386 OA
ATOM     19  H   UNL A   1      31.603  22.866  27.628  1.00  0.00     0.211 HD
ENDBRANCH  10  18
ENDBRANCH   8  10
ENDBRANCH   6   8
ENDBRANCH   5   6
ENDBRANCH   4   5
ENDBRANCH   3   4
ENDBRANCH   2   3
ENDBRANCH   1   2
BRANCH   1  20
ATOM     20  C   UNL A   1      31.836  30.905  26.113  1.00  0.00     0.261 C 
BRANCH  20  21
ATOM     21  O   UNL A   1      32.370  31.074  27.438  1.00  0.00    -0.460 OA
BRANCH  21  22
ATOM     22  C   UNL A   1      33.246  32.099  27.563  1.00  0.00     0.338 C 
ATOM     23  O   UNL A   1      32.987  33.294  27.535  1.00  0.00    -0.246 OA
BRANCH  22  24
ATOM     24  C   UNL A   1      34.585  31.592  27.915  1.00  0.00     0.060 A 
ATOM     25  C   UNL A   1      34.715  30.217  28.148  1.00  0.00     0.016 A 
ATOM     26  C   UNL A   1      35.666  32.452  28.122  1.00  0.00     0.016 A 
ATOM     27  C   UNL A   1      35.911  29.703  28.644  1.00  0.00     0.010 A 
ATOM     28  C   UNL A   1      36.864  31.934  28.630  1.00  0.00     0.010 A 
ATOM     29  C   UNL A   1      36.977  30.564  28.931  1.00  0.00    -0.014 A 
BRANCH  29  30
ATOM     30  C   UNL A   1      38.138  30.053  29.701  1.00  0.00     0.031 A 
ATOM     31  C   UNL A   1      38.354  30.551  31.105  1.00  0.00     0.074 A 
ATOM     32  C   UNL A   1      38.964  29.130  29.175  1.00  0.00     0.049 A 
ATOM     33  N   UNL A   1      39.306  30.265  31.954  1.00  0.00    -0.248 NA
ATOM     34  C   UNL A   1      37.358  31.506  31.616  1.00  0.00     0.031 C 
ATOM     35  C   UNL A   1      38.827  28.536  27.847  1.00  0.00     0.029 A 
ATOM     36  N   UNL A   1      40.083  28.531  29.697  1.00  0.00    -0.354 N 
ATOM     37  C   UNL A   1      39.030  31.006  33.099  1.00  0.00     0.074 A 
ATOM     38  C   UNL A   1      37.840  31.782  32.819  1.00  0.00     0.031 C 
ATOM     39  C   UNL A   1      39.830  27.662  27.654  1.00  0.00     0.029 A 
ATOM     40  C   UNL A   1      40.699  27.662  28.829  1.00  0.00     0.049 A 
ATOM     41  H   UNL A   1      40.412  28.708  30.608  1.00  0.00     0.167 HD
ATOM     42  C   UNL A   1      39.701  31.029  34.277  1.00  0.00     0.034 A 
ATOM     43  C   UNL A   1      41.845  26.963  28.962  1.00  0.00     0.034 A 
ATOM     44  C   UNL A   1      40.893  30.258  34.537  1.00  0.00     0.049 A 
ATOM     45  C   UNL A   1      42.624  27.070  30.251  1.00  0.00     0.074 A 
ATOM     46  C   UNL A   1      41.644  30.194  35.697  1.00  0.00     0.029 A 
ATOM     47  N   UNL A   1      41.516  29.424  33.616  1.00  0.00    -0.354 N 
ATOM     48  N   UNL A   1      42.348  27.768  31.329  1.00  0.00    -0.248 NA
ATOM     49  C   UNL A   1      43.864  26.289  30.342  1.00  0.00     0.031 C 
ATOM     50  C   UNL A   1      42.757  29.380  35.457  1.00  0.00     0.029 A 
ATOM     51  C   UNL A   1      42.661  28.871  34.171  1.00  0.00     0.049 A 
ATOM     52  H   UNL A   1      41.193  29.251  32.703  1.00  0.00     0.167 HD
ATOM     53  C   UNL A   1      43.364  27.480  32.238  1.00  0.00     0.074 A 
ATOM     54  C   UNL A   1      44.251  26.541  31.584  1.00  0.00     0.031 C 
ATOM     55  C   UNL A   1      43.543  27.943  33.503  1.00  0.00     0.034 A 
BRANCH  42  56
ATOM     56  C   UNL A   1      39.190  31.965  35.346  1.00  0.00     0.023 A 
ATOM     57  C   UNL A   1      39.629  33.297  35.439  1.00  0.00     0.031 A 
ATOM     58  C   UNL A   1      38.276  31.506  36.311  1.00  0.00     0.131 A 
ATOM     59  C   UNL A   1      39.211  34.099  36.512  1.00  0.00     0.055 A 
ATOM     60  C   UNL A   1      37.803  32.332  37.331  1.00  0.00     0.041 A 
ATOM     61  F   UNL A   1      37.838  30.237  36.287  1.00  0.00    -0.206 F 
ATOM     62  C   UNL A   1      38.282  33.634  37.446  1.00  0.00     0.022 A 
BRANCH  59  63
ATOM     63  S   UNL A   1      40.007  35.711  36.754  1.00  0.00     0.124 S 
ATOM     64  O   UNL A   1      39.359  36.181  37.976  1.00  0.00    -0.237 OA
ATOM     65  O   UNL A   1      41.416  35.353  36.875  1.00  0.00    -0.237 OA
ATOM     66  O   UNL A   1      39.653  36.454  35.546  1.00  0.00    -0.744 OA
ENDBRANCH  59  63
ENDBRANCH  42  56
BRANCH  43  67
ATOM     67  C   UNL A   1      42.356  26.132  27.834  1.00  0.00     0.023 A 
ATOM     68  C   UNL A   1      41.920  24.810  27.649  1.00  0.00     0.031 A 
ATOM     69  C   UNL A   1      43.333  26.634  26.957  1.00  0.00     0.131 A 
ATOM     70  C   UNL A   1      42.492  24.021  26.637  1.00  0.00     0.055 A 
ATOM     71  C   UNL A   1      43.862  25.862  25.921  1.00  0.00     0.041 A 
ATOM     72  F   UNL A   1      43.785  27.891  27.091  1.00  0.00    -0.206 F 
ATOM     73  C   UNL A   1      43.451  24.542  25.765  1.00  0.00     0.022 A 
BRANCH  70  74
ATOM     74  S   UNL A   1      42.020  22.274  26.527  1.00  0.00     0.124 S 
ATOM     75  O   UNL A   1      42.796  21.829  25.375  1.00  0.00    -0.237 OA
ATOM     76  O   UNL A   1      42.447  21.762  27.826  1.00  0.00    -0.237 OA
ATOM     77  O   UNL A   1      40.574  22.324  26.325  1.00  0.00    -0.744 OA
ENDBRANCH  70  74
ENDBRANCH  43  67
BRANCH  55  78
ATOM     78  C   UNL A   1      44.719  27.397  34.274  1.00  0.00     0.023 A 
ATOM     79  C   UNL A   1      44.613  26.245  35.074  1.00  0.00     0.031 A 
ATOM     80  C   UNL A   1      45.965  28.047  34.214  1.00  0.00     0.131 A 
ATOM     81  C   UNL A   1      45.718  25.810  35.823  1.00  0.00     0.055 A 
ATOM     82  C   UNL A   1      47.075  27.577  34.916  1.00  0.00     0.041 A 
ATOM     83  F   UNL A   1      46.123  29.152  33.468  1.00  0.00    -0.206 F 
ATOM     84  C   UNL A   1      46.952  26.459  35.736  1.00  0.00     0.022 A 
BRANCH  81  85
ATOM     85  S   UNL A   1      45.498  24.434  36.984  1.00  0.00     0.124 S 
ATOM     86  O   UNL A   1      46.746  24.470  37.738  1.00  0.00    -0.237 OA
ATOM     87  O   UNL A   1      44.299  24.831  37.716  1.00  0.00    -0.237 OA
ATOM     88  O   UNL A   1      45.334  23.272  36.112  1.00  0.00    -0.744 OA
ENDBRANCH  81  85
ENDBRANCH  55  78
ENDBRANCH  29  30
ENDBRANCH  22  24
ENDBRANCH  21  22
ENDBRANCH  20  21
ENDBRANCH   1  20
TORSDOF 20
ENDMDL
