MODEL 1
REMARK VINA RESULT:     -11.2      0.000      0.000
REMARK SMILES COc1cccc(C[N@@H+]2C[C@H](C(=O)OCCOCCOC(=O)c3ccc(-c4c5nc(c(-c6cc(S(=O)(=O)[O-])ccc6F)c6ccc([nH]6)c(-c6cc(S(=O)(=O)[O-])ccc6F)c6nc(c(-c7cc(S(=O)(=O)[O-])ccc7F)c7ccc4[nH]7)C=C6)C=C5)cc3)C3(CC[NH+](C)CC3)C2)c1
REMARK SMILES IDX 17 1 16 2 15 3 14 4 12 5 13 6 11 7 9 8 10 9 93 10 86 12
REMARK SMILES IDX 87 13 92 14 88 15 91 16 89 17 90 18 8 20 7 21 3 22 4 23
REMARK SMILES IDX 94 24 5 25 6 26 2 27 1 28 18 29 19 30 20 31 21 32 22 33
REMARK SMILES IDX 23 34 24 35 85 36 25 37 84 38 26 39 27 40 28 41 78 42 29 43
REMARK SMILES IDX 83 44 77 45 79 46 30 47 82 48 76 49 75 50 31 52 63 53 43 54
REMARK SMILES IDX 62 55 44 56 47 57 61 58 80 59 45 60 46 61 60 63 81 64 48 65
REMARK SMILES IDX 32 66 33 67 41 68 34 69 40 70 42 71 39 72 35 73 36 74 37 75
REMARK SMILES IDX 38 76 64 77 65 78 73 79 66 80 72 81 74 82 71 83 67 84 68 85
REMARK SMILES IDX 69 86 70 87 49 88 50 89 58 90 51 91 57 92 59 93 56 94 52 95
REMARK SMILES IDX 53 96 54 97 55 98
REMARK H PARENT 9 11 89 19 79 51 47 62
REMARK Flexibility Score: inf
ROOT
ATOM      1  O   UNL A   1      32.007  29.797  27.428  1.00  0.00    -0.374 OA
ENDROOT
BRANCH   1   2
ATOM      2  C   UNL A   1      32.454  28.457  27.247  1.00  0.00     0.202 C 
BRANCH   2   3
ATOM      3  C   UNL A   1      33.784  28.258  26.519  1.00  0.00     0.261 C 
BRANCH   3   4
ATOM      4  O   UNL A   1      33.885  26.991  25.844  1.00  0.00    -0.463 OA
BRANCH   4   5
ATOM      5  C   UNL A   1      33.750  27.025  24.489  1.00  0.00     0.315 C 
ATOM      6  O   UNL A   1      33.982  28.002  23.786  1.00  0.00    -0.252 OA
BRANCH   5   7
ATOM      7  C   UNL A   1      33.268  25.711  23.910  1.00  0.00     0.166 C 
ATOM      8  N   UNL A   1      32.953  23.410  24.185  1.00  0.00    -0.330 N 
ATOM      9  C   UNL A   1      33.735  24.517  24.722  1.00  0.00     0.278 C 
ATOM     10  C   UNL A   1      31.641  23.929  23.783  1.00  0.00     0.271 C 
ATOM     11  H   UNL A   1      33.426  23.053  23.357  1.00  0.00     0.348 HD
ATOM     12  C   UNL A   1      31.743  25.485  23.743  1.00  0.00     0.049 C 
ATOM     13  C   UNL A   1      31.240  26.018  22.387  1.00  0.00     0.075 C 
ATOM     14  C   UNL A   1      30.844  26.076  24.860  1.00  0.00     0.075 C 
ATOM     15  C   UNL A   1      31.096  27.541  22.371  1.00  0.00     0.262 C 
ATOM     16  C   UNL A   1      30.586  27.586  24.752  1.00  0.00     0.262 C 
ATOM     17  N   UNL A   1      30.217  28.061  23.418  1.00  0.00    -0.337 N 
ATOM     18  C   UNL A   1      28.803  27.850  23.130  1.00  0.00     0.332 C 
ATOM     19  H   UNL A   1      30.358  29.071  23.420  1.00  0.00     0.347 HD
BRANCH   8  20
ATOM     20  C   UNL A   1      32.933  22.184  25.000  1.00  0.00     0.299 C 
BRANCH  20  21
ATOM     21  C   UNL A   1      32.645  20.901  24.248  1.00  0.00     0.010 A 
ATOM     22  C   UNL A   1      32.875  18.494  24.030  1.00  0.00     0.119 A 
ATOM     23  C   UNL A   1      32.524  18.564  22.690  1.00  0.00     0.046 A 
ATOM     24  C   UNL A   1      32.964  19.651  24.805  1.00  0.00     0.056 A 
ATOM     25  C   UNL A   1      32.154  19.790  22.158  1.00  0.00     0.004 A 
ATOM     26  C   UNL A   1      32.153  20.939  22.939  1.00  0.00     0.010 A 
BRANCH  22  27
ATOM     27  O   UNL A   1      33.222  17.273  24.536  1.00  0.00    -0.497 OA
ATOM     28  C   UNL A   1      32.519  17.026  25.753  1.00  0.00     0.278 C 
ENDBRANCH  22  27
ENDBRANCH  20  21
ENDBRANCH   8  20
ENDBRANCH   5   7
ENDBRANCH   4   5
ENDBRANCH   3   4
ENDBRANCH   2   3
ENDBRANCH   1   2
BRANCH   1  29
ATOM     29  C   UNL A   1      31.931  30.629  26.275  1.00  0.00     0.202 C 
BRANCH  29  30
ATOM     30  C   UNL A   1      31.863  32.148  26.490  1.00  0.00     0.261 C 
BRANCH  30  31
ATOM     31  O   UNL A   1      32.286  32.582  27.795  1.00  0.00    -0.460 OA
BRANCH  31  32
ATOM     32  C   UNL A   1      33.358  33.415  27.795  1.00  0.00     0.338 C 
ATOM     33  O   UNL A   1      33.350  34.628  27.627  1.00  0.00    -0.246 OA
BRANCH  32  34
ATOM     34  C   UNL A   1      34.577  32.673  28.161  1.00  0.00     0.060 A 
ATOM     35  C   UNL A   1      34.467  31.336  28.558  1.00  0.00     0.016 A 
ATOM     36  C   UNL A   1      35.810  33.320  28.200  1.00  0.00     0.016 A 
ATOM     37  C   UNL A   1      35.596  30.648  29.016  1.00  0.00     0.010 A 
ATOM     38  C   UNL A   1      36.947  32.615  28.615  1.00  0.00     0.010 A 
ATOM     39  C   UNL A   1      36.842  31.288  29.070  1.00  0.00    -0.014 A 
BRANCH  39  40
ATOM     40  C   UNL A   1      37.987  30.657  29.786  1.00  0.00     0.031 A 
ATOM     41  C   UNL A   1      38.214  31.021  31.233  1.00  0.00     0.074 A 
ATOM     42  C   UNL A   1      38.802  29.769  29.184  1.00  0.00     0.049 A 
ATOM     43  N   UNL A   1      39.185  30.677  32.039  1.00  0.00    -0.248 NA
ATOM     44  C   UNL A   1      37.220  31.919  31.843  1.00  0.00     0.031 C 
ATOM     45  C   UNL A   1      38.681  29.311  27.800  1.00  0.00     0.029 A 
ATOM     46  N   UNL A   1      39.899  29.093  29.664  1.00  0.00    -0.354 N 
ATOM     47  C   UNL A   1      38.933  31.338  33.238  1.00  0.00     0.074 A 
ATOM     48  C   UNL A   1      37.751  32.146  33.032  1.00  0.00     0.031 C 
ATOM     49  C   UNL A   1      39.660  28.423  27.546  1.00  0.00     0.029 A 
ATOM     50  C   UNL A   1      40.503  28.280  28.732  1.00  0.00     0.049 A 
ATOM     51  H   UNL A   1      40.222  29.183  30.589  1.00  0.00     0.167 HD
ATOM     52  C   UNL A   1      39.608  31.264  34.412  1.00  0.00     0.034 A 
ATOM     53  C   UNL A   1      41.617  27.523  28.819  1.00  0.00     0.034 A 
ATOM     54  C   UNL A   1      40.766  30.430  34.618  1.00  0.00     0.049 A 
ATOM     55  C   UNL A   1      42.381  27.487  30.123  1.00  0.00     0.074 A 
ATOM     56  C   UNL A   1      41.502  30.250  35.775  1.00  0.00     0.029 A 
ATOM     57  N   UNL A   1      41.357  29.637  33.644  1.00  0.00    -0.354 N 
ATOM     58  N   UNL A   1      42.126  28.113  31.250  1.00  0.00    -0.248 NA
ATOM     59  C   UNL A   1      43.580  26.638  30.169  1.00  0.00     0.031 C 
ATOM     60  C   UNL A   1      42.577  29.404  35.484  1.00  0.00     0.029 A 
ATOM     61  C   UNL A   1      42.465  28.990  34.166  1.00  0.00     0.049 A 
ATOM     62  H   UNL A   1      41.034  29.546  32.718  1.00  0.00     0.167 HD
ATOM     63  C   UNL A   1      43.115  27.705  32.145  1.00  0.00     0.074 A 
ATOM     64  C   UNL A   1      43.961  26.773  31.430  1.00  0.00     0.031 C 
ATOM     65  C   UNL A   1      43.304  28.065  33.440  1.00  0.00     0.034 A 
BRANCH  52  66
ATOM     66  C   UNL A   1      39.126  32.141  35.543  1.00  0.00     0.023 A 
ATOM     67  C   UNL A   1      39.564  33.470  35.691  1.00  0.00     0.031 A 
ATOM     68  C   UNL A   1      38.251  31.626  36.515  1.00  0.00     0.131 A 
ATOM     69  C   UNL A   1      39.195  34.206  36.827  1.00  0.00     0.055 A 
ATOM     70  C   UNL A   1      37.816  32.394  37.597  1.00  0.00     0.041 A 
ATOM     71  F   UNL A   1      37.816  30.358  36.440  1.00  0.00    -0.206 F 
ATOM     72  C   UNL A   1      38.303  33.686  37.768  1.00  0.00     0.022 A 
BRANCH  69  73
ATOM     73  S   UNL A   1      40.022  35.790  37.139  1.00  0.00     0.124 S 
ATOM     74  O   UNL A   1      39.392  36.207  38.389  1.00  0.00    -0.237 OA
ATOM     75  O   UNL A   1      41.424  35.401  37.228  1.00  0.00    -0.237 OA
ATOM     76  O   UNL A   1      39.670  36.596  35.972  1.00  0.00    -0.744 OA
ENDBRANCH  69  73
ENDBRANCH  52  66
BRANCH  53  77
ATOM     77  C   UNL A   1      42.114  26.759  27.635  1.00  0.00     0.023 A 
ATOM     78  C   UNL A   1      41.826  25.394  27.475  1.00  0.00     0.031 A 
ATOM     79  C   UNL A   1      42.937  27.374  26.676  1.00  0.00     0.131 A 
ATOM     80  C   UNL A   1      42.395  24.678  26.408  1.00  0.00     0.055 A 
ATOM     81  C   UNL A   1      43.457  26.671  25.588  1.00  0.00     0.041 A 
ATOM     82  F   UNL A   1      43.248  28.676  26.783  1.00  0.00    -0.206 F 
ATOM     83  C   UNL A   1      43.197  25.311  25.456  1.00  0.00     0.022 A 
BRANCH  80  84
ATOM     84  S   UNL A   1      42.140  22.882  26.329  1.00  0.00     0.124 S 
ATOM     85  O   UNL A   1      42.657  22.569  25.002  1.00  0.00    -0.237 OA
ATOM     86  O   UNL A   1      42.938  22.414  27.457  1.00  0.00    -0.237 OA
ATOM     87  O   UNL A   1      40.695  22.737  26.487  1.00  0.00    -0.744 OA
ENDBRANCH  80  84
ENDBRANCH  53  77
BRANCH  65  88
ATOM     88  C   UNL A   1      44.442  27.406  34.183  1.00  0.00     0.023 A 
ATOM     89  C   UNL A   1      44.253  26.243  34.950  1.00  0.00     0.031 A 
ATOM     90  C   UNL A   1      45.737  27.951  34.117  1.00  0.00     0.131 A 
ATOM     91  C   UNL A   1      45.331  25.694  35.662  1.00  0.00     0.055 A 
ATOM     92  C   UNL A   1      46.817  27.366  34.778  1.00  0.00     0.041 A 
ATOM     93  F   UNL A   1      45.974  29.062  33.399  1.00  0.00    -0.206 F 
ATOM     94  C   UNL A   1      46.615  26.238  35.567  1.00  0.00     0.022 A 
BRANCH  91  95
ATOM     95  S   UNL A   1      45.017  24.306  36.787  1.00  0.00     0.124 S 
ATOM     96  O   UNL A   1      43.921  24.820  37.604  1.00  0.00    -0.237 OA
ATOM     97  O   UNL A   1      44.673  23.228  35.866  1.00  0.00    -0.237 OA
ATOM     98  O   UNL A   1      46.288  24.139  37.490  1.00  0.00    -0.744 OA
ENDBRANCH  91  95
ENDBRANCH  65  88
ENDBRANCH  39  40
ENDBRANCH  32  34
ENDBRANCH  31  32
ENDBRANCH  30  31
ENDBRANCH  29  30
ENDBRANCH   1  29
TORSDOF 20
ENDMDL
MODEL 2
REMARK VINA RESULT:     -10.6      1.706      2.059
REMARK SMILES COc1cccc(C[N@@H+]2C[C@H](C(=O)OCCOCCOC(=O)c3ccc(-c4c5nc(c(-c6cc(S(=O)(=O)[O-])ccc6F)c6ccc([nH]6)c(-c6cc(S(=O)(=O)[O-])ccc6F)c6nc(c(-c7cc(S(=O)(=O)[O-])ccc7F)c7ccc4[nH]7)C=C6)C=C5)cc3)C3(CC[NH+](C)CC3)C2)c1
REMARK SMILES IDX 17 1 16 2 15 3 14 4 12 5 13 6 11 7 9 8 10 9 93 10 86 12
REMARK SMILES IDX 87 13 92 14 88 15 91 16 89 17 90 18 8 20 7 21 3 22 4 23
REMARK SMILES IDX 94 24 5 25 6 26 2 27 1 28 18 29 19 30 20 31 21 32 22 33
REMARK SMILES IDX 23 34 24 35 85 36 25 37 84 38 26 39 27 40 28 41 78 42 29 43
REMARK SMILES IDX 83 44 77 45 79 46 30 47 82 48 76 49 75 50 31 52 63 53 43 54
REMARK SMILES IDX 62 55 44 56 47 57 61 58 80 59 45 60 46 61 60 63 81 64 48 65
REMARK SMILES IDX 32 66 33 67 41 68 34 69 40 70 42 71 39 72 35 73 36 74 37 75
REMARK SMILES IDX 38 76 64 77 65 78 73 79 66 80 72 81 74 82 71 83 67 84 68 85
REMARK SMILES IDX 69 86 70 87 49 88 50 89 58 90 51 91 57 92 59 93 56 94 52 95
REMARK SMILES IDX 53 96 54 97 55 98
REMARK H PARENT 9 11 89 19 79 51 47 62
REMARK Flexibility Score: inf
ROOT
ATOM      1  O   UNL A   1      32.766  29.958  27.741  1.00  0.00    -0.374 OA
ENDROOT
BRANCH   1   2
ATOM      2  C   UNL A   1      33.010  28.655  27.222  1.00  0.00     0.202 C 
BRANCH   2   3
ATOM      3  C   UNL A   1      34.008  28.538  26.070  1.00  0.00     0.261 C 
BRANCH   3   4
ATOM      4  O   UNL A   1      33.820  27.361  25.264  1.00  0.00    -0.463 OA
BRANCH   4   5
ATOM      5  C   UNL A   1      33.767  27.562  23.917  1.00  0.00     0.315 C 
ATOM      6  O   UNL A   1      33.973  28.634  23.361  1.00  0.00    -0.252 OA
BRANCH   5   7
ATOM      7  C   UNL A   1      33.415  26.307  23.146  1.00  0.00     0.166 C 
ATOM      8  N   UNL A   1      33.513  23.976  22.983  1.00  0.00    -0.330 N 
ATOM      9  C   UNL A   1      34.184  25.094  23.635  1.00  0.00     0.278 C 
ATOM     10  C   UNL A   1      32.090  24.308  22.855  1.00  0.00     0.271 C 
ATOM     11  H   UNL A   1      33.905  23.867  22.048  1.00  0.00     0.348 HD
ATOM     12  C   UNL A   1      31.938  25.838  23.120  1.00  0.00     0.049 C 
ATOM     13  C   UNL A   1      31.155  26.503  21.971  1.00  0.00     0.075 C 
ATOM     14  C   UNL A   1      31.139  26.042  24.434  1.00  0.00     0.075 C 
ATOM     15  C   UNL A   1      30.772  27.951  22.282  1.00  0.00     0.262 C 
ATOM     16  C   UNL A   1      30.633  27.473  24.667  1.00  0.00     0.262 C 
ATOM     17  N   UNL A   1      29.993  28.103  23.512  1.00  0.00    -0.337 N 
ATOM     18  C   UNL A   1      28.603  27.691  23.358  1.00  0.00     0.332 C 
ATOM     19  H   UNL A   1      29.971  29.105  23.701  1.00  0.00     0.347 HD
BRANCH   8  20
ATOM     20  C   UNL A   1      33.812  22.642  23.528  1.00  0.00     0.299 C 
BRANCH  20  21
ATOM     21  C   UNL A   1      33.637  22.490  25.024  1.00  0.00     0.010 A 
ATOM     22  C   UNL A   1      32.301  22.797  27.028  1.00  0.00     0.119 A 
ATOM     23  C   UNL A   1      33.425  22.637  27.824  1.00  0.00     0.046 A 
ATOM     24  C   UNL A   1      32.400  22.752  25.637  1.00  0.00     0.056 A 
ATOM     25  C   UNL A   1      34.633  22.321  27.221  1.00  0.00     0.004 A 
ATOM     26  C   UNL A   1      34.731  22.185  25.841  1.00  0.00     0.010 A 
BRANCH  22  27
ATOM     27  O   UNL A   1      31.119  23.095  27.645  1.00  0.00    -0.497 OA
ATOM     28  C   UNL A   1      30.084  23.256  26.677  1.00  0.00     0.278 C 
ENDBRANCH  22  27
ENDBRANCH  20  21
ENDBRANCH   8  20
ENDBRANCH   5   7
ENDBRANCH   4   5
ENDBRANCH   3   4
ENDBRANCH   2   3
ENDBRANCH   1   2
BRANCH   1  29
ATOM     29  C   UNL A   1      32.681  31.034  26.812  1.00  0.00     0.202 C 
BRANCH  29  30
ATOM     30  C   UNL A   1      32.561  32.458  27.374  1.00  0.00     0.261 C 
BRANCH  30  31
ATOM     31  O   UNL A   1      33.551  32.791  28.363  1.00  0.00    -0.460 OA
BRANCH  31  32
ATOM     32  C   UNL A   1      34.636  33.449  27.881  1.00  0.00     0.338 C 
ATOM     33  O   UNL A   1      34.653  34.548  27.342  1.00  0.00    -0.246 OA
BRANCH  32  34
ATOM     34  C   UNL A   1      35.865  32.705  28.207  1.00  0.00     0.060 A 
ATOM     35  C   UNL A   1      35.871  31.312  28.087  1.00  0.00     0.016 A 
ATOM     36  C   UNL A   1      36.976  33.373  28.719  1.00  0.00     0.016 A 
ATOM     37  C   UNL A   1      36.990  30.580  28.498  1.00  0.00     0.010 A 
ATOM     38  C   UNL A   1      38.112  32.641  29.087  1.00  0.00     0.010 A 
ATOM     39  C   UNL A   1      38.112  31.235  29.024  1.00  0.00    -0.014 A 
BRANCH  39  40
ATOM     40  C   UNL A   1      39.196  30.463  29.694  1.00  0.00     0.031 A 
ATOM     41  C   UNL A   1      39.561  30.827  31.113  1.00  0.00     0.074 A 
ATOM     42  C   UNL A   1      39.836  29.450  29.078  1.00  0.00     0.049 A 
ATOM     43  N   UNL A   1      40.519  30.365  31.874  1.00  0.00    -0.248 NA
ATOM     44  C   UNL A   1      38.746  31.875  31.747  1.00  0.00     0.031 C 
ATOM     45  C   UNL A   1      39.566  28.978  27.720  1.00  0.00     0.029 A 
ATOM     46  N   UNL A   1      40.851  28.633  29.518  1.00  0.00    -0.354 N 
ATOM     47  C   UNL A   1      40.439  31.087  33.062  1.00  0.00     0.074 A 
ATOM     48  C   UNL A   1      39.376  32.054  32.896  1.00  0.00     0.031 C 
ATOM     49  C   UNL A   1      40.389  27.951  27.442  1.00  0.00     0.029 A 
ATOM     50  C   UNL A   1      41.274  27.717  28.582  1.00  0.00     0.049 A 
ATOM     51  H   UNL A   1      41.239  28.700  30.419  1.00  0.00     0.167 HD
ATOM     52  C   UNL A   1      41.167  30.945  34.198  1.00  0.00     0.034 A 
ATOM     53  C   UNL A   1      42.270  26.809  28.631  1.00  0.00     0.034 A 
ATOM     54  C   UNL A   1      42.203  29.958  34.366  1.00  0.00     0.049 A 
ATOM     55  C   UNL A   1      43.099  26.695  29.891  1.00  0.00     0.074 A 
ATOM     56  C   UNL A   1      42.975  29.702  35.485  1.00  0.00     0.029 A 
ATOM     57  N   UNL A   1      42.613  29.061  33.388  1.00  0.00    -0.354 N 
ATOM     58  N   UNL A   1      43.007  27.380  31.008  1.00  0.00    -0.248 NA
ATOM     59  C   UNL A   1      44.164  25.682  29.897  1.00  0.00     0.031 C 
ATOM     60  C   UNL A   1      43.897  28.700  35.162  1.00  0.00     0.029 A 
ATOM     61  C   UNL A   1      43.646  28.273  33.868  1.00  0.00     0.049 A 
ATOM     62  H   UNL A   1      42.225  28.995  32.485  1.00  0.00     0.167 HD
ATOM     63  C   UNL A   1      43.979  26.856  31.858  1.00  0.00     0.074 A 
ATOM     64  C   UNL A   1      44.637  25.792  31.129  1.00  0.00     0.031 C 
ATOM     65  C   UNL A   1      44.297  27.218  33.128  1.00  0.00     0.034 A 
BRANCH  52  66
ATOM     66  C   UNL A   1      40.887  31.913  35.323  1.00  0.00     0.023 A 
ATOM     67  C   UNL A   1      41.695  33.041  35.551  1.00  0.00     0.031 A 
ATOM     68  C   UNL A   1      39.821  31.677  36.210  1.00  0.00     0.131 A 
ATOM     69  C   UNL A   1      41.479  33.839  36.685  1.00  0.00     0.055 A 
ATOM     70  C   UNL A   1      39.557  32.527  37.286  1.00  0.00     0.041 A 
ATOM     71  F   UNL A   1      39.029  30.605  36.057  1.00  0.00    -0.206 F 
ATOM     72  C   UNL A   1      40.399  33.606  37.539  1.00  0.00     0.022 A 
BRANCH  69  73
ATOM     73  S   UNL A   1      42.721  35.090  37.114  1.00  0.00     0.124 S 
ATOM     74  O   UNL A   1      42.067  35.783  38.222  1.00  0.00    -0.237 OA
ATOM     75  O   UNL A   1      43.879  34.276  37.463  1.00  0.00    -0.237 OA
ATOM     76  O   UNL A   1      42.855  35.875  35.889  1.00  0.00    -0.744 OA
ENDBRANCH  69  73
ENDBRANCH  52  66
BRANCH  53  77
ATOM     77  C   UNL A   1      42.578  25.950  27.448  1.00  0.00     0.023 A 
ATOM     78  C   UNL A   1      42.119  24.625  27.369  1.00  0.00     0.031 A 
ATOM     79  C   UNL A   1      43.391  26.427  26.405  1.00  0.00     0.131 A 
ATOM     80  C   UNL A   1      42.513  23.810  26.295  1.00  0.00     0.055 A 
ATOM     81  C   UNL A   1      43.737  25.629  25.313  1.00  0.00     0.041 A 
ATOM     82  F   UNL A   1      43.862  27.685  26.433  1.00  0.00    -0.206 F 
ATOM     83  C   UNL A   1      43.307  24.308  25.260  1.00  0.00     0.022 A 
BRANCH  80  84
ATOM     84  S   UNL A   1      42.041  22.057  26.312  1.00  0.00     0.124 S 
ATOM     85  O   UNL A   1      42.798  21.536  25.180  1.00  0.00    -0.237 OA
ATOM     86  O   UNL A   1      42.490  21.636  27.634  1.00  0.00    -0.237 OA
ATOM     87  O   UNL A   1      40.592  22.093  26.131  1.00  0.00    -0.744 OA
ENDBRANCH  80  84
ENDBRANCH  53  77
BRANCH  65  88
ATOM     88  C   UNL A   1      45.371  26.419  33.827  1.00  0.00     0.023 A 
ATOM     89  C   UNL A   1      45.061  25.370  34.710  1.00  0.00     0.031 A 
ATOM     90  C   UNL A   1      46.728  26.713  33.602  1.00  0.00     0.131 A 
ATOM     91  C   UNL A   1      46.092  24.687  35.374  1.00  0.00     0.055 A 
ATOM     92  C   UNL A   1      47.751  25.991  34.218  1.00  0.00     0.041 A 
ATOM     93  F   UNL A   1      47.082  27.706  32.769  1.00  0.00    -0.206 F 
ATOM     94  C   UNL A   1      47.435  24.980  35.120  1.00  0.00     0.022 A 
BRANCH  91  95
ATOM     95  S   UNL A   1      45.655  23.466  36.642  1.00  0.00     0.124 S 
ATOM     96  O   UNL A   1      44.757  24.231  37.502  1.00  0.00    -0.237 OA
ATOM     97  O   UNL A   1      45.035  22.406  35.855  1.00  0.00    -0.237 OA
ATOM     98  O   UNL A   1      46.942  23.119  37.242  1.00  0.00    -0.744 OA
ENDBRANCH  91  95
ENDBRANCH  65  88
ENDBRANCH  39  40
ENDBRANCH  32  34
ENDBRANCH  31  32
ENDBRANCH  30  31
ENDBRANCH  29  30
ENDBRANCH   1  29
TORSDOF 20
ENDMDL
MODEL 3
REMARK VINA RESULT:     -10.5      2.393      4.513
REMARK SMILES COc1cccc(C[N@@H+]2C[C@H](C(=O)OCCOCCOC(=O)c3ccc(-c4c5nc(c(-c6cc(S(=O)(=O)[O-])ccc6F)c6ccc([nH]6)c(-c6cc(S(=O)(=O)[O-])ccc6F)c6nc(c(-c7cc(S(=O)(=O)[O-])ccc7F)c7ccc4[nH]7)C=C6)C=C5)cc3)C3(CC[NH+](C)CC3)C2)c1
REMARK SMILES IDX 17 1 16 2 15 3 14 4 12 5 13 6 11 7 9 8 10 9 93 10 86 12
REMARK SMILES IDX 87 13 92 14 88 15 91 16 89 17 90 18 8 20 7 21 3 22 4 23
REMARK SMILES IDX 94 24 5 25 6 26 2 27 1 28 18 29 19 30 20 31 21 32 22 33
REMARK SMILES IDX 23 34 24 35 85 36 25 37 84 38 26 39 27 40 28 41 78 42 29 43
REMARK SMILES IDX 83 44 77 45 79 46 30 47 82 48 76 49 75 50 31 52 63 53 43 54
REMARK SMILES IDX 62 55 44 56 47 57 61 58 80 59 45 60 46 61 60 63 81 64 48 65
REMARK SMILES IDX 32 66 33 67 41 68 34 69 40 70 42 71 39 72 35 73 36 74 37 75
REMARK SMILES IDX 38 76 64 77 65 78 73 79 66 80 72 81 74 82 71 83 67 84 68 85
REMARK SMILES IDX 69 86 70 87 49 88 50 89 58 90 51 91 57 92 59 93 56 94 52 95
REMARK SMILES IDX 53 96 54 97 55 98
REMARK H PARENT 9 11 89 19 79 51 47 62
REMARK Flexibility Score: inf
ROOT
ATOM      1  O   UNL A   1      31.355  29.754  26.695  1.00  0.00    -0.374 OA
ENDROOT
BRANCH   1   2
ATOM      2  C   UNL A   1      31.793  28.734  27.588  1.00  0.00     0.202 C 
BRANCH   2   3
ATOM      3  C   UNL A   1      31.887  27.313  27.033  1.00  0.00     0.261 C 
BRANCH   3   4
ATOM      4  O   UNL A   1      30.737  26.919  26.264  1.00  0.00    -0.463 OA
BRANCH   4   5
ATOM      5  C   UNL A   1      30.985  26.130  25.181  1.00  0.00     0.315 C 
ATOM      6  O   UNL A   1      31.758  25.180  25.170  1.00  0.00    -0.252 OA
BRANCH   5   7
ATOM      7  C   UNL A   1      30.202  26.547  23.954  1.00  0.00     0.166 C 
ATOM      8  N   UNL A   1      28.415  27.754  23.047  1.00  0.00    -0.330 N 
ATOM      9  C   UNL A   1      28.868  27.180  24.308  1.00  0.00     0.278 C 
ATOM     10  C   UNL A   1      29.595  28.195  22.294  1.00  0.00     0.271 C 
ATOM     11  H   UNL A   1      27.945  27.025  22.512  1.00  0.00     0.348 HD
ATOM     12  C   UNL A   1      30.847  27.548  22.962  1.00  0.00     0.049 C 
ATOM     13  C   UNL A   1      31.701  26.822  21.904  1.00  0.00     0.075 C 
ATOM     14  C   UNL A   1      31.713  28.669  23.596  1.00  0.00     0.075 C 
ATOM     15  C   UNL A   1      33.055  26.368  22.451  1.00  0.00     0.262 C 
ATOM     16  C   UNL A   1      33.127  28.237  24.011  1.00  0.00     0.262 C 
ATOM     17  N   UNL A   1      33.857  27.455  23.013  1.00  0.00    -0.337 N 
ATOM     18  C   UNL A   1      34.469  28.297  21.992  1.00  0.00     0.332 C 
ATOM     19  H   UNL A   1      34.628  27.002  23.505  1.00  0.00     0.347 HD
BRANCH   8  20
ATOM     20  C   UNL A   1      27.317  28.729  23.143  1.00  0.00     0.299 C 
BRANCH  20  21
ATOM     21  C   UNL A   1      27.694  30.171  22.871  1.00  0.00     0.010 A 
ATOM     22  C   UNL A   1      28.328  31.922  21.313  1.00  0.00     0.119 A 
ATOM     23  C   UNL A   1      28.812  32.698  22.355  1.00  0.00     0.046 A 
ATOM     24  C   UNL A   1      27.795  30.655  21.556  1.00  0.00     0.056 A 
ATOM     25  C   UNL A   1      28.659  32.244  23.657  1.00  0.00     0.004 A 
ATOM     26  C   UNL A   1      28.051  31.023  23.922  1.00  0.00     0.010 A 
BRANCH  22  27
ATOM     27  O   UNL A   1      28.477  32.396  20.041  1.00  0.00    -0.497 OA
ATOM     28  C   UNL A   1      27.486  31.831  19.185  1.00  0.00     0.278 C 
ENDBRANCH  22  27
ENDBRANCH  20  21
ENDBRANCH   8  20
ENDBRANCH   5   7
ENDBRANCH   4   5
ENDBRANCH   3   4
ENDBRANCH   2   3
ENDBRANCH   1   2
BRANCH   1  29
ATOM     29  C   UNL A   1      32.251  30.827  26.428  1.00  0.00     0.202 C 
BRANCH  29  30
ATOM     30  C   UNL A   1      31.850  32.231  26.903  1.00  0.00     0.261 C 
BRANCH  30  31
ATOM     31  O   UNL A   1      32.555  32.686  28.072  1.00  0.00    -0.460 OA
BRANCH  31  32
ATOM     32  C   UNL A   1      33.650  33.445  27.815  1.00  0.00     0.338 C 
ATOM     33  O   UNL A   1      33.669  34.613  27.445  1.00  0.00    -0.246 OA
BRANCH  32  34
ATOM     34  C   UNL A   1      34.874  32.705  28.165  1.00  0.00     0.060 A 
ATOM     35  C   UNL A   1      34.785  31.340  28.457  1.00  0.00     0.016 A 
ATOM     36  C   UNL A   1      36.088  33.375  28.296  1.00  0.00     0.016 A 
ATOM     37  C   UNL A   1      35.914  30.644  28.900  1.00  0.00     0.010 A 
ATOM     38  C   UNL A   1      37.228  32.665  28.696  1.00  0.00     0.010 A 
ATOM     39  C   UNL A   1      37.142  31.306  29.046  1.00  0.00    -0.014 A 
BRANCH  39  40
ATOM     40  C   UNL A   1      38.278  30.648  29.752  1.00  0.00     0.031 A 
ATOM     41  C   UNL A   1      38.517  30.995  31.201  1.00  0.00     0.074 A 
ATOM     42  C   UNL A   1      39.074  29.750  29.139  1.00  0.00     0.049 A 
ATOM     43  N   UNL A   1      39.484  30.626  32.000  1.00  0.00    -0.248 NA
ATOM     44  C   UNL A   1      37.542  31.905  31.823  1.00  0.00     0.031 C 
ATOM     45  C   UNL A   1      38.939  29.306  27.752  1.00  0.00     0.029 A 
ATOM     46  N   UNL A   1      40.160  29.050  29.608  1.00  0.00    -0.354 N 
ATOM     47  C   UNL A   1      39.249  31.282  33.206  1.00  0.00     0.074 A 
ATOM     48  C   UNL A   1      38.082  32.113  33.012  1.00  0.00     0.031 C 
ATOM     49  C   UNL A   1      39.901  28.403  27.487  1.00  0.00     0.029 A 
ATOM     50  C   UNL A   1      40.746  28.234  28.667  1.00  0.00     0.049 A 
ATOM     51  H   UNL A   1      40.488  29.126  30.533  1.00  0.00     0.167 HD
ATOM     52  C   UNL A   1      39.927  31.185  34.377  1.00  0.00     0.034 A 
ATOM     53  C   UNL A   1      41.846  27.457  28.743  1.00  0.00     0.034 A 
ATOM     54  C   UNL A   1      41.071  30.329  34.570  1.00  0.00     0.049 A 
ATOM     55  C   UNL A   1      42.614  27.395  30.044  1.00  0.00     0.074 A 
ATOM     56  C   UNL A   1      41.808  30.125  35.723  1.00  0.00     0.029 A 
ATOM     57  N   UNL A   1      41.643  29.533  33.587  1.00  0.00    -0.354 N 
ATOM     58  N   UNL A   1      42.375  28.016  31.177  1.00  0.00    -0.248 NA
ATOM     59  C   UNL A   1      43.798  26.524  30.078  1.00  0.00     0.031 C 
ATOM     60  C   UNL A   1      42.866  29.262  35.420  1.00  0.00     0.029 A 
ATOM     61  C   UNL A   1      42.741  28.861  34.099  1.00  0.00     0.049 A 
ATOM     62  H   UNL A   1      41.316  29.456  32.661  1.00  0.00     0.167 HD
ATOM     63  C   UNL A   1      43.360  27.582  32.064  1.00  0.00     0.074 A 
ATOM     64  C   UNL A   1      44.186  26.641  31.338  1.00  0.00     0.031 C 
ATOM     65  C   UNL A   1      43.561  27.928  33.362  1.00  0.00     0.034 A 
BRANCH  52  66
ATOM     66  C   UNL A   1      39.467  32.061  35.517  1.00  0.00     0.023 A 
ATOM     67  C   UNL A   1      39.920  33.385  35.667  1.00  0.00     0.031 A 
ATOM     68  C   UNL A   1      38.596  31.550  36.495  1.00  0.00     0.131 A 
ATOM     69  C   UNL A   1      39.570  34.118  36.810  1.00  0.00     0.055 A 
ATOM     70  C   UNL A   1      38.180  32.317  37.586  1.00  0.00     0.041 A 
ATOM     71  F   UNL A   1      38.148  30.287  36.418  1.00  0.00    -0.206 F 
ATOM     72  C   UNL A   1      38.682  33.603  37.758  1.00  0.00     0.022 A 
BRANCH  69  73
ATOM     73  S   UNL A   1      40.416  35.692  37.122  1.00  0.00     0.124 S 
ATOM     74  O   UNL A   1      41.794  35.358  36.771  1.00  0.00    -0.237 OA
ATOM     75  O   UNL A   1      39.728  36.604  36.215  1.00  0.00    -0.237 OA
ATOM     76  O   UNL A   1      40.183  35.931  38.544  1.00  0.00    -0.744 OA
ENDBRANCH  69  73
ENDBRANCH  52  66
BRANCH  53  77
ATOM     77  C   UNL A   1      42.324  26.693  27.551  1.00  0.00     0.023 A 
ATOM     78  C   UNL A   1      42.004  25.337  27.376  1.00  0.00     0.031 A 
ATOM     79  C   UNL A   1      43.161  27.299  26.597  1.00  0.00     0.131 A 
ATOM     80  C   UNL A   1      42.555  24.620  26.302  1.00  0.00     0.055 A 
ATOM     81  C   UNL A   1      43.664  26.596  25.501  1.00  0.00     0.041 A 
ATOM     82  F   UNL A   1      43.502  28.593  26.718  1.00  0.00    -0.206 F 
ATOM     83  C   UNL A   1      43.371  25.244  25.356  1.00  0.00     0.022 A 
BRANCH  80  84
ATOM     84  S   UNL A   1      42.259  22.831  26.203  1.00  0.00     0.124 S 
ATOM     85  O   UNL A   1      43.045  22.339  27.328  1.00  0.00    -0.237 OA
ATOM     86  O   UNL A   1      40.809  22.757  26.350  1.00  0.00    -0.237 OA
ATOM     87  O   UNL A   1      42.767  22.475  24.881  1.00  0.00    -0.744 OA
ENDBRANCH  80  84
ENDBRANCH  53  77
BRANCH  65  88
ATOM     88  C   UNL A   1      44.689  27.242  34.095  1.00  0.00     0.023 A 
ATOM     89  C   UNL A   1      44.542  25.959  34.650  1.00  0.00     0.031 A 
ATOM     90  C   UNL A   1      45.933  27.883  34.234  1.00  0.00     0.131 A 
ATOM     91  C   UNL A   1      45.604  25.381  35.364  1.00  0.00     0.055 A 
ATOM     92  C   UNL A   1      47.004  27.279  34.892  1.00  0.00     0.041 A 
ATOM     93  F   UNL A   1      46.129  29.111  33.723  1.00  0.00    -0.206 F 
ATOM     94  C   UNL A   1      46.839  26.026  35.473  1.00  0.00     0.022 A 
BRANCH  91  95
ATOM     95  S   UNL A   1      45.323  23.809  36.225  1.00  0.00     0.124 S 
ATOM     96  O   UNL A   1      46.359  22.958  35.648  1.00  0.00    -0.237 OA
ATOM     97  O   UNL A   1      45.510  24.181  37.624  1.00  0.00    -0.237 OA
ATOM     98  O   UNL A   1      43.954  23.455  35.856  1.00  0.00    -0.744 OA
ENDBRANCH  91  95
ENDBRANCH  65  88
ENDBRANCH  39  40
ENDBRANCH  32  34
ENDBRANCH  31  32
ENDBRANCH  30  31
ENDBRANCH  29  30
ENDBRANCH   1  29
TORSDOF 20
ENDMDL
