MODEL 1
REMARK VINA RESULT:     -10.0      0.000      0.000
REMARK SMILES COc1ccc(C2=NN(C(=O)CCC(=O)OCCOCCOC(=O)c3ccc(-c4c5nc(c(-c6cc(S(=O)(=O)[O-])ccc6F)c6ccc([nH]6)c(-c6cc(S(=O)(=O)[O-])ccc6F)c6nc(c(-c7cc(S(=O)(=O)[O-])ccc7F)c7ccc4[nH]7)C=C6)C=C5)cc3)[C@@H](c3ccc(Cl)cc3Cl)C2)cc1
REMARK SMILES IDX 18 1 17 2 16 3 14 4 15 5 13 6 12 7 10 8 11 9 9 10 7 11 8 12
REMARK SMILES IDX 97 13 88 14 6 15 3 16 4 17 99 18 5 19 98 20 2 21 1 22 89 23
REMARK SMILES IDX 90 24 95 25 91 26 94 27 96 28 92 29 93 30 19 31 20 32 21 33
REMARK SMILES IDX 22 34 23 35 24 36 25 37 26 38 87 39 27 40 86 41 28 42 29 43
REMARK SMILES IDX 30 44 80 45 31 46 85 47 79 48 81 49 32 50 84 51 78 52 77 53
REMARK SMILES IDX 33 55 65 56 45 57 64 58 46 59 49 60 63 61 82 62 47 63 48 64
REMARK SMILES IDX 62 66 83 67 50 68 34 69 35 70 43 71 36 72 42 73 44 74 41 75
REMARK SMILES IDX 37 76 38 77 39 78 40 79 66 80 67 81 75 82 68 83 74 84 76 85
REMARK SMILES IDX 73 86 69 87 70 88 71 89 72 90 51 91 52 92 60 93 53 94 59 95
REMARK SMILES IDX 61 96 58 97 54 98 55 99 56 100 57 101
REMARK H PARENT 81 54 49 65
REMARK Flexibility Score: inf
ROOT
ATOM      1  C   UNL A   1      37.029  30.494  28.587  1.00  0.00     0.202 C 
ENDROOT
BRANCH   1   2
ATOM      2  C   UNL A   1      37.867  29.825  29.698  1.00  0.00     0.261 C 
BRANCH   2   3
ATOM      3  O   UNL A   1      38.477  28.672  29.148  1.00  0.00    -0.463 OA
BRANCH   3   4
ATOM      4  C   UNL A   1      39.081  27.763  29.884  1.00  0.00     0.306 C 
ATOM      5  O   UNL A   1      39.229  27.821  31.124  1.00  0.00    -0.252 OA
BRANCH   4   6
ATOM      6  C   UNL A   1      39.324  26.546  29.057  1.00  0.00     0.132 C 
BRANCH   6   7
ATOM      7  C   UNL A   1      39.912  26.688  27.647  1.00  0.00     0.114 C 
BRANCH   7   8
ATOM      8  C   UNL A   1      40.392  25.598  26.625  1.00  0.00     0.243 C 
ATOM      9  O   UNL A   1      40.782  26.054  25.536  1.00  0.00    -0.273 OA
BRANCH   8  10
ATOM     10  N   UNL A   1      40.161  24.230  26.845  1.00  0.00    -0.225 N 
ATOM     11  C   UNL A   1      38.420  23.047  26.252  1.00  0.00     0.071 C 
ATOM     12  N   UNL A   1      38.758  24.139  26.836  1.00  0.00    -0.174 NA
ATOM     13  C   UNL A   1      39.441  21.993  26.010  1.00  0.00     0.091 C 
ATOM     14  C   UNL A   1      40.746  22.726  26.321  1.00  0.00     0.149 C 
BRANCH  11  15
ATOM     15  C   UNL A   1      37.083  22.789  25.762  1.00  0.00    -0.002 A 
ATOM     16  C   UNL A   1      34.490  21.901  25.607  1.00  0.00     0.118 A 
ATOM     17  C   UNL A   1      35.532  21.038  25.282  1.00  0.00     0.047 A 
ATOM     18  C   UNL A   1      34.753  23.223  25.968  1.00  0.00     0.047 A 
ATOM     19  C   UNL A   1      36.842  21.493  25.317  1.00  0.00     0.014 A 
ATOM     20  C   UNL A   1      36.060  23.678  26.056  1.00  0.00     0.014 A 
BRANCH  16  21
ATOM     21  O   UNL A   1      33.188  21.506  25.692  1.00  0.00    -0.497 OA
ATOM     22  C   UNL A   1      32.560  21.285  24.429  1.00  0.00     0.278 C 
ENDBRANCH  16  21
ENDBRANCH  11  15
BRANCH  14  23
ATOM     23  C   UNL A   1      42.202  21.775  26.121  1.00  0.00    -0.004 A 
ATOM     24  C   UNL A   1      43.298  22.647  25.821  1.00  0.00     0.009 A 
ATOM     25  C   UNL A   1      42.642  20.382  26.025  1.00  0.00     0.047 A 
ATOM     26  C   UNL A   1      44.585  22.241  25.390  1.00  0.00     0.021 A 
ATOM     27  C   UNL A   1      43.926  20.000  25.523  1.00  0.00     0.041 A 
ATOM     28  Cl  UNL A   1      42.028  18.820  26.484  1.00  0.00    -0.084 Cl
ATOM     29  C   UNL A   1      44.884  20.915  25.205  1.00  0.00     0.042 A 
ATOM     30  Cl  UNL A   1      46.408  20.384  24.625  1.00  0.00    -0.084 Cl
ENDBRANCH  14  23
ENDBRANCH   8  10
ENDBRANCH   7   8
ENDBRANCH   6   7
ENDBRANCH   4   6
ENDBRANCH   3   4
ENDBRANCH   2   3
ENDBRANCH   1   2
BRANCH   1  31
ATOM     31  O   UNL A   1      35.594  30.563  28.789  1.00  0.00    -0.374 OA
BRANCH  31  32
ATOM     32  C   UNL A   1      34.923  31.697  29.346  1.00  0.00     0.202 C 
BRANCH  32  33
ATOM     33  C   UNL A   1      35.485  33.275  29.163  1.00  0.00     0.261 C 
BRANCH  33  34
ATOM     34  O   UNL A   1      36.444  33.969  30.202  1.00  0.00    -0.460 OA
BRANCH  34  35
ATOM     35  C   UNL A   1      37.512  33.612  31.022  1.00  0.00     0.338 C 
ATOM     36  O   UNL A   1      37.388  33.171  32.165  1.00  0.00    -0.246 OA
BRANCH  35  37
ATOM     37  C   UNL A   1      38.973  33.831  30.502  1.00  0.00     0.060 A 
ATOM     38  C   UNL A   1      40.174  33.547  31.175  1.00  0.00     0.016 A 
ATOM     39  C   UNL A   1      39.144  34.567  29.316  1.00  0.00     0.016 A 
ATOM     40  C   UNL A   1      41.470  33.842  30.611  1.00  0.00     0.010 A 
ATOM     41  C   UNL A   1      40.426  34.923  28.784  1.00  0.00     0.010 A 
ATOM     42  C   UNL A   1      41.628  34.542  29.398  1.00  0.00    -0.014 A 
BRANCH  42  43
ATOM     43  C   UNL A   1      42.999  34.884  28.804  1.00  0.00     0.031 A 
ATOM     44  C   UNL A   1      43.875  33.810  28.178  1.00  0.00     0.074 A 
ATOM     45  C   UNL A   1      43.473  36.157  28.757  1.00  0.00     0.049 A 
ATOM     46  N   UNL A   1      45.100  33.904  27.708  1.00  0.00    -0.248 NA
ATOM     47  C   UNL A   1      43.320  32.454  28.104  1.00  0.00     0.031 C 
ATOM     48  C   UNL A   1      42.768  37.321  29.282  1.00  0.00     0.029 A 
ATOM     49  N   UNL A   1      44.592  36.718  28.154  1.00  0.00    -0.354 N 
ATOM     50  C   UNL A   1      45.503  32.603  27.405  1.00  0.00     0.074 A 
ATOM     51  C   UNL A   1      44.344  31.761  27.625  1.00  0.00     0.031 C 
ATOM     52  C   UNL A   1      43.346  38.441  28.811  1.00  0.00     0.029 A 
ATOM     53  C   UNL A   1      44.550  38.104  28.055  1.00  0.00     0.049 A 
ATOM     54  H   UNL A   1      45.348  36.181  27.825  1.00  0.00     0.167 HD
ATOM     55  C   UNL A   1      46.743  32.146  27.078  1.00  0.00     0.034 A 
ATOM     56  C   UNL A   1      45.371  38.983  27.420  1.00  0.00     0.034 A 
ATOM     57  C   UNL A   1      47.891  33.002  26.875  1.00  0.00     0.049 A 
ATOM     58  C   UNL A   1      46.699  38.456  26.902  1.00  0.00     0.074 A 
ATOM     59  C   UNL A   1      49.231  32.665  26.750  1.00  0.00     0.029 A 
ATOM     60  N   UNL A   1      47.824  34.381  26.739  1.00  0.00    -0.354 N 
ATOM     61  N   UNL A   1      47.109  37.213  26.794  1.00  0.00    -0.248 NA
ATOM     62  C   UNL A   1      47.705  39.452  26.494  1.00  0.00     0.031 C 
ATOM     63  C   UNL A   1      49.973  33.845  26.582  1.00  0.00     0.029 A 
ATOM     64  C   UNL A   1      49.090  34.909  26.533  1.00  0.00     0.049 A 
ATOM     65  H   UNL A   1      46.995  34.911  26.783  1.00  0.00     0.167 HD
ATOM     66  C   UNL A   1      48.437  37.289  26.377  1.00  0.00     0.074 A 
ATOM     67  C   UNL A   1      48.719  38.685  26.124  1.00  0.00     0.031 C 
ATOM     68  C   UNL A   1      49.365  36.303  26.290  1.00  0.00     0.034 A 
BRANCH  55  69
ATOM     69  C   UNL A   1      46.947  30.647  27.128  1.00  0.00     0.023 A 
ATOM     70  C   UNL A   1      46.595  29.795  26.069  1.00  0.00     0.031 A 
ATOM     71  C   UNL A   1      47.398  30.053  28.325  1.00  0.00     0.131 A 
ATOM     72  C   UNL A   1      46.601  28.402  26.264  1.00  0.00     0.055 A 
ATOM     73  C   UNL A   1      47.486  28.669  28.482  1.00  0.00     0.041 A 
ATOM     74  F   UNL A   1      47.732  30.813  29.380  1.00  0.00    -0.206 F 
ATOM     75  C   UNL A   1      47.063  27.833  27.455  1.00  0.00     0.022 A 
BRANCH  72  76
ATOM     76  S   UNL A   1      45.824  27.345  25.009  1.00  0.00     0.124 S 
ATOM     77  O   UNL A   1      46.568  27.723  23.811  1.00  0.00    -0.237 OA
ATOM     78  O   UNL A   1      46.081  26.003  25.522  1.00  0.00    -0.237 OA
ATOM     79  O   UNL A   1      44.425  27.762  25.026  1.00  0.00    -0.744 OA
ENDBRANCH  72  76
ENDBRANCH  55  69
BRANCH  56  80
ATOM     80  C   UNL A   1      45.045  40.451  27.230  1.00  0.00     0.023 A 
ATOM     81  C   UNL A   1      44.543  40.917  25.992  1.00  0.00     0.031 A 
ATOM     82  C   UNL A   1      45.294  41.430  28.207  1.00  0.00     0.131 A 
ATOM     83  C   UNL A   1      44.344  42.292  25.760  1.00  0.00     0.055 A 
ATOM     84  C   UNL A   1      44.996  42.784  28.009  1.00  0.00     0.041 A 
ATOM     85  F   UNL A   1      45.864  41.102  29.376  1.00  0.00    -0.206 F 
ATOM     86  C   UNL A   1      44.531  43.226  26.776  1.00  0.00     0.022 A 
BRANCH  83  87
ATOM     87  S   UNL A   1      44.003  42.865  24.068  1.00  0.00     0.124 S 
ATOM     88  O   UNL A   1      44.287  44.291  24.173  1.00  0.00    -0.237 OA
ATOM     89  O   UNL A   1      44.950  42.077  23.287  1.00  0.00    -0.237 OA
ATOM     90  O   UNL A   1      42.594  42.524  23.871  1.00  0.00    -0.744 OA
ENDBRANCH  83  87
ENDBRANCH  56  80
BRANCH  68  91
ATOM     91  C   UNL A   1      50.779  36.718  25.957  1.00  0.00     0.023 A 
ATOM     92  C   UNL A   1      51.690  37.066  26.972  1.00  0.00     0.031 A 
ATOM     93  C   UNL A   1      51.224  36.765  24.626  1.00  0.00     0.131 A 
ATOM     94  C   UNL A   1      52.982  37.499  26.640  1.00  0.00     0.055 A 
ATOM     95  C   UNL A   1      52.528  37.149  24.304  1.00  0.00     0.041 A 
ATOM     96  F   UNL A   1      50.400  36.440  23.618  1.00  0.00    -0.206 F 
ATOM     97  C   UNL A   1      53.411  37.529  25.312  1.00  0.00     0.022 A 
BRANCH  94  98
ATOM     98  S   UNL A   1      54.072  38.091  27.965  1.00  0.00     0.124 S 
ATOM     99  O   UNL A   1      53.153  38.864  28.794  1.00  0.00    -0.237 OA
ATOM    100  O   UNL A   1      54.562  36.845  28.547  1.00  0.00    -0.237 OA
ATOM    101  O   UNL A   1      55.078  38.878  27.255  1.00  0.00    -0.744 OA
ENDBRANCH  94  98
ENDBRANCH  68  91
ENDBRANCH  42  43
ENDBRANCH  35  37
ENDBRANCH  34  35
ENDBRANCH  33  34
ENDBRANCH  32  33
ENDBRANCH  31  32
ENDBRANCH   1  31
TORSDOF 23
ENDMDL
MODEL 2
REMARK VINA RESULT:     -10.0      7.038     11.867
REMARK SMILES COc1ccc(C2=NN(C(=O)CCC(=O)OCCOCCOC(=O)c3ccc(-c4c5nc(c(-c6cc(S(=O)(=O)[O-])ccc6F)c6ccc([nH]6)c(-c6cc(S(=O)(=O)[O-])ccc6F)c6nc(c(-c7cc(S(=O)(=O)[O-])ccc7F)c7ccc4[nH]7)C=C6)C=C5)cc3)[C@@H](c3ccc(Cl)cc3Cl)C2)cc1
REMARK SMILES IDX 18 1 17 2 16 3 14 4 15 5 13 6 12 7 10 8 11 9 9 10 7 11 8 12
REMARK SMILES IDX 97 13 88 14 6 15 3 16 4 17 99 18 5 19 98 20 2 21 1 22 89 23
REMARK SMILES IDX 90 24 95 25 91 26 94 27 96 28 92 29 93 30 19 31 20 32 21 33
REMARK SMILES IDX 22 34 23 35 24 36 25 37 26 38 87 39 27 40 86 41 28 42 29 43
REMARK SMILES IDX 30 44 80 45 31 46 85 47 79 48 81 49 32 50 84 51 78 52 77 53
REMARK SMILES IDX 33 55 65 56 45 57 64 58 46 59 49 60 63 61 82 62 47 63 48 64
REMARK SMILES IDX 62 66 83 67 50 68 34 69 35 70 43 71 36 72 42 73 44 74 41 75
REMARK SMILES IDX 37 76 38 77 39 78 40 79 66 80 67 81 75 82 68 83 74 84 76 85
REMARK SMILES IDX 73 86 69 87 70 88 71 89 72 90 51 91 52 92 60 93 53 94 59 95
REMARK SMILES IDX 61 96 58 97 54 98 55 99 56 100 57 101
REMARK H PARENT 81 54 49 65
REMARK Flexibility Score: inf
ROOT
ATOM      1  C   UNL A   1      35.682  23.016  23.071  1.00  0.00     0.202 C 
ENDROOT
BRANCH   1   2
ATOM      2  C   UNL A   1      34.299  23.373  23.657  1.00  0.00     0.261 C 
BRANCH   2   3
ATOM      3  O   UNL A   1      33.998  24.704  23.278  1.00  0.00    -0.463 OA
BRANCH   3   4
ATOM      4  C   UNL A   1      33.134  24.998  22.329  1.00  0.00     0.306 C 
ATOM      5  O   UNL A   1      33.186  24.582  21.151  1.00  0.00    -0.252 OA
BRANCH   4   6
ATOM      6  C   UNL A   1      31.955  25.681  22.935  1.00  0.00     0.132 C 
BRANCH   6   7
ATOM      7  C   UNL A   1      31.433  25.227  24.304  1.00  0.00     0.114 C 
BRANCH   7   8
ATOM      8  C   UNL A   1      31.379  25.981  25.679  1.00  0.00     0.243 C 
ATOM      9  O   UNL A   1      31.427  25.237  26.674  1.00  0.00    -0.273 OA
BRANCH   8  10
ATOM     10  N   UNL A   1      31.056  27.346  25.758  1.00  0.00    -0.225 N 
ATOM     11  C   UNL A   1      32.371  29.013  26.283  1.00  0.00     0.071 C 
ATOM     12  N   UNL A   1      32.001  27.845  26.670  1.00  0.00    -0.174 NA
ATOM     13  C   UNL A   1      31.583  29.729  25.246  1.00  0.00     0.091 C 
ATOM     14  C   UNL A   1      30.651  28.633  24.728  1.00  0.00     0.149 C 
BRANCH  11  15
ATOM     15  C   UNL A   1      33.561  29.672  26.775  1.00  0.00    -0.002 A 
ATOM     16  C   UNL A   1      35.435  30.744  28.471  1.00  0.00     0.118 A 
ATOM     17  C   UNL A   1      34.313  31.491  28.127  1.00  0.00     0.047 A 
ATOM     18  C   UNL A   1      35.634  29.475  27.926  1.00  0.00     0.047 A 
ATOM     19  C   UNL A   1      33.384  30.972  27.237  1.00  0.00     0.014 A 
ATOM     20  C   UNL A   1      34.688  28.922  27.075  1.00  0.00     0.014 A 
BRANCH  16  21
ATOM     21  O   UNL A   1      36.341  31.140  29.410  1.00  0.00    -0.497 OA
ATOM     22  C   UNL A   1      37.601  31.541  28.874  1.00  0.00     0.278 C 
ENDBRANCH  16  21
ENDBRANCH  11  15
BRANCH  14  23
ATOM     23  C   UNL A   1      29.561  29.122  23.449  1.00  0.00    -0.004 A 
ATOM     24  C   UNL A   1      30.298  29.830  22.445  1.00  0.00     0.009 A 
ATOM     25  C   UNL A   1      28.132  29.166  23.133  1.00  0.00     0.047 A 
ATOM     26  C   UNL A   1      29.738  30.557  21.366  1.00  0.00     0.021 A 
ATOM     27  C   UNL A   1      27.590  29.964  22.076  1.00  0.00     0.041 A 
ATOM     28  Cl  UNL A   1      26.685  28.361  23.668  1.00  0.00    -0.084 Cl
ATOM     29  C   UNL A   1      28.379  30.655  21.207  1.00  0.00     0.042 A 
ATOM     30  Cl  UNL A   1      27.660  31.577  19.952  1.00  0.00    -0.084 Cl
ENDBRANCH  14  23
ENDBRANCH   8  10
ENDBRANCH   7   8
ENDBRANCH   6   7
ENDBRANCH   4   6
ENDBRANCH   3   4
ENDBRANCH   2   3
ENDBRANCH   1   2
BRANCH   1  31
ATOM     31  O   UNL A   1      36.844  23.304  23.891  1.00  0.00    -0.374 OA
BRANCH  31  32
ATOM     32  C   UNL A   1      37.153  22.612  25.104  1.00  0.00     0.202 C 
BRANCH  32  33
ATOM     33  C   UNL A   1      37.780  21.048  25.133  1.00  0.00     0.261 C 
BRANCH  33  34
ATOM     34  O   UNL A   1      38.947  20.608  26.095  1.00  0.00    -0.460 OA
BRANCH  34  35
ATOM     35  C   UNL A   1      40.279  20.215  25.992  1.00  0.00     0.338 C 
ATOM     36  O   UNL A   1      40.643  19.088  25.655  1.00  0.00    -0.246 OA
BRANCH  35  37
ATOM     37  C   UNL A   1      41.402  21.235  26.379  1.00  0.00     0.060 A 
ATOM     38  C   UNL A   1      42.793  21.039  26.331  1.00  0.00     0.016 A 
ATOM     39  C   UNL A   1      41.016  22.421  27.029  1.00  0.00     0.016 A 
ATOM     40  C   UNL A   1      43.737  22.042  26.765  1.00  0.00     0.010 A 
ATOM     41  C   UNL A   1      41.948  23.390  27.525  1.00  0.00     0.010 A 
ATOM     42  C   UNL A   1      43.335  23.246  27.377  1.00  0.00    -0.014 A 
BRANCH  42  43
ATOM     43  C   UNL A   1      44.329  24.306  27.866  1.00  0.00     0.031 A 
ATOM     44  C   UNL A   1      44.625  24.483  29.346  1.00  0.00     0.074 A 
ATOM     45  C   UNL A   1      45.030  25.094  27.008  1.00  0.00     0.049 A 
ATOM     46  N   UNL A   1      45.369  25.387  29.944  1.00  0.00    -0.248 NA
ATOM     47  C   UNL A   1      43.975  23.550  30.273  1.00  0.00     0.031 C 
ATOM     48  C   UNL A   1      44.903  25.054  25.556  1.00  0.00     0.029 A 
ATOM     49  N   UNL A   1      46.065  26.001  27.203  1.00  0.00    -0.354 N 
ATOM     50  C   UNL A   1      45.173  25.211  31.315  1.00  0.00     0.074 A 
ATOM     51  C   UNL A   1      44.342  24.032  31.454  1.00  0.00     0.031 C 
ATOM     52  C   UNL A   1      45.932  25.718  24.999  1.00  0.00     0.029 A 
ATOM     53  C   UNL A   1      46.736  26.358  26.039  1.00  0.00     0.049 A 
ATOM     54  H   UNL A   1      46.303  26.358  28.089  1.00  0.00     0.167 HD
ATOM     55  C   UNL A   1      45.560  26.013  32.345  1.00  0.00     0.034 A 
ATOM     56  C   UNL A   1      47.863  27.092  25.842  1.00  0.00     0.034 A 
ATOM     57  C   UNL A   1      46.380  27.194  32.184  1.00  0.00     0.049 A 
ATOM     58  C   UNL A   1      48.408  27.874  27.027  1.00  0.00     0.074 A 
ATOM     59  C   UNL A   1      46.667  28.199  33.096  1.00  0.00     0.029 A 
ATOM     60  N   UNL A   1      47.074  27.512  31.025  1.00  0.00    -0.354 N 
ATOM     61  N   UNL A   1      48.067  27.799  28.293  1.00  0.00    -0.248 NA
ATOM     62  C   UNL A   1      49.432  28.895  26.746  1.00  0.00     0.031 C 
ATOM     63  C   UNL A   1      47.498  29.143  32.472  1.00  0.00     0.029 A 
ATOM     64  C   UNL A   1      47.784  28.691  31.196  1.00  0.00     0.049 A 
ATOM     65  H   UNL A   1      47.063  26.978  30.198  1.00  0.00     0.167 HD
ATOM     66  C   UNL A   1      48.783  28.808  28.936  1.00  0.00     0.074 A 
ATOM     67  C   UNL A   1      49.669  29.387  27.952  1.00  0.00     0.031 C 
ATOM     68  C   UNL A   1      48.659  29.269  30.206  1.00  0.00     0.034 A 
BRANCH  55  69
ATOM     69  C   UNL A   1      44.922  25.741  33.691  1.00  0.00     0.023 A 
ATOM     70  C   UNL A   1      43.710  26.327  34.090  1.00  0.00     0.031 A 
ATOM     71  C   UNL A   1      45.619  24.964  34.638  1.00  0.00     0.131 A 
ATOM     72  C   UNL A   1      43.289  26.212  35.427  1.00  0.00     0.055 A 
ATOM     73  C   UNL A   1      45.149  24.780  35.940  1.00  0.00     0.041 A 
ATOM     74  F   UNL A   1      46.793  24.392  34.323  1.00  0.00    -0.206 F 
ATOM     75  C   UNL A   1      43.988  25.427  36.348  1.00  0.00     0.022 A 
BRANCH  72  76
ATOM     76  S   UNL A   1      41.914  27.250  35.997  1.00  0.00     0.124 S 
ATOM     77  O   UNL A   1      41.133  26.294  36.779  1.00  0.00    -0.237 OA
ATOM     78  O   UNL A   1      42.596  28.290  36.760  1.00  0.00    -0.237 OA
ATOM     79  O   UNL A   1      41.282  27.698  34.759  1.00  0.00    -0.744 OA
ENDBRANCH  72  76
ENDBRANCH  55  69
BRANCH  56  80
ATOM     80  C   UNL A   1      48.579  27.194  24.511  1.00  0.00     0.023 A 
ATOM     81  C   UNL A   1      49.942  26.833  24.404  1.00  0.00     0.031 A 
ATOM     82  C   UNL A   1      47.983  27.719  23.351  1.00  0.00     0.131 A 
ATOM     83  C   UNL A   1      50.654  27.030  23.204  1.00  0.00     0.055 A 
ATOM     84  C   UNL A   1      48.665  27.815  22.131  1.00  0.00     0.041 A 
ATOM     85  F   UNL A   1      46.725  28.183  23.378  1.00  0.00    -0.206 F 
ATOM     86  C   UNL A   1      50.012  27.483  22.055  1.00  0.00     0.022 A 
BRANCH  83  87
ATOM     87  S   UNL A   1      52.464  26.850  23.207  1.00  0.00     0.124 S 
ATOM     88  O   UNL A   1      52.902  28.233  23.067  1.00  0.00    -0.237 OA
ATOM     89  O   UNL A   1      52.701  26.228  24.506  1.00  0.00    -0.237 OA
ATOM     90  O   UNL A   1      52.723  25.994  22.049  1.00  0.00    -0.744 OA
ENDBRANCH  83  87
ENDBRANCH  56  80
BRANCH  68  91
ATOM     91  C   UNL A   1      49.468  30.490  30.575  1.00  0.00     0.023 A 
ATOM     92  C   UNL A   1      50.744  30.364  31.157  1.00  0.00     0.031 A 
ATOM     93  C   UNL A   1      48.971  31.783  30.346  1.00  0.00     0.131 A 
ATOM     94  C   UNL A   1      51.457  31.508  31.542  1.00  0.00     0.055 A 
ATOM     95  C   UNL A   1      49.708  32.920  30.686  1.00  0.00     0.041 A 
ATOM     96  F   UNL A   1      47.763  31.962  29.792  1.00  0.00    -0.206 F 
ATOM     97  C   UNL A   1      50.953  32.787  31.297  1.00  0.00     0.022 A 
BRANCH  94  98
ATOM     98  S   UNL A   1      53.025  31.302  32.433  1.00  0.00     0.124 S 
ATOM     99  O   UNL A   1      53.347  32.675  32.807  1.00  0.00    -0.237 OA
ATOM    100  O   UNL A   1      52.647  30.414  33.529  1.00  0.00    -0.237 OA
ATOM    101  O   UNL A   1      53.911  30.707  31.435  1.00  0.00    -0.744 OA
ENDBRANCH  94  98
ENDBRANCH  68  91
ENDBRANCH  42  43
ENDBRANCH  35  37
ENDBRANCH  34  35
ENDBRANCH  33  34
ENDBRANCH  32  33
ENDBRANCH  31  32
ENDBRANCH   1  31
TORSDOF 23
ENDMDL
MODEL 3
REMARK VINA RESULT:      -9.7      4.754      7.875
REMARK SMILES COc1ccc(C2=NN(C(=O)CCC(=O)OCCOCCOC(=O)c3ccc(-c4c5nc(c(-c6cc(S(=O)(=O)[O-])ccc6F)c6ccc([nH]6)c(-c6cc(S(=O)(=O)[O-])ccc6F)c6nc(c(-c7cc(S(=O)(=O)[O-])ccc7F)c7ccc4[nH]7)C=C6)C=C5)cc3)[C@@H](c3ccc(Cl)cc3Cl)C2)cc1
REMARK SMILES IDX 18 1 17 2 16 3 14 4 15 5 13 6 12 7 10 8 11 9 9 10 7 11 8 12
REMARK SMILES IDX 97 13 88 14 6 15 3 16 4 17 99 18 5 19 98 20 2 21 1 22 89 23
REMARK SMILES IDX 90 24 95 25 91 26 94 27 96 28 92 29 93 30 19 31 20 32 21 33
REMARK SMILES IDX 22 34 23 35 24 36 25 37 26 38 87 39 27 40 86 41 28 42 29 43
REMARK SMILES IDX 30 44 80 45 31 46 85 47 79 48 81 49 32 50 84 51 78 52 77 53
REMARK SMILES IDX 33 55 65 56 45 57 64 58 46 59 49 60 63 61 82 62 47 63 48 64
REMARK SMILES IDX 62 66 83 67 50 68 34 69 35 70 43 71 36 72 42 73 44 74 41 75
REMARK SMILES IDX 37 76 38 77 39 78 40 79 66 80 67 81 75 82 68 83 74 84 76 85
REMARK SMILES IDX 73 86 69 87 70 88 71 89 72 90 51 91 52 92 60 93 53 94 59 95
REMARK SMILES IDX 61 96 58 97 54 98 55 99 56 100 57 101
REMARK H PARENT 81 54 49 65
REMARK Flexibility Score: inf
ROOT
ATOM      1  C   UNL A   1      39.220  27.313  28.669  1.00  0.00     0.202 C 
ENDROOT
BRANCH   1   2
ATOM      2  C   UNL A   1      39.442  25.802  28.891  1.00  0.00     0.261 C 
BRANCH   2   3
ATOM      3  O   UNL A   1      40.097  25.287  27.746  1.00  0.00    -0.463 OA
BRANCH   3   4
ATOM      4  C   UNL A   1      39.777  24.132  27.199  1.00  0.00     0.306 C 
ATOM      5  O   UNL A   1      40.131  23.011  27.623  1.00  0.00    -0.252 OA
BRANCH   4   6
ATOM      6  C   UNL A   1      38.724  24.355  26.166  1.00  0.00     0.132 C 
BRANCH   6   7
ATOM      7  C   UNL A   1      37.362  23.664  26.306  1.00  0.00     0.114 C 
BRANCH   7   8
ATOM      8  C   UNL A   1      36.823  22.330  25.681  1.00  0.00     0.243 C 
ATOM      9  O   UNL A   1      37.661  21.414  25.625  1.00  0.00    -0.273 OA
BRANCH   8  10
ATOM     10  N   UNL A   1      35.581  22.274  25.024  1.00  0.00    -0.225 N 
ATOM     11  C   UNL A   1      34.319  20.522  24.678  1.00  0.00     0.071 C 
ATOM     12  N   UNL A   1      35.525  20.948  24.562  1.00  0.00    -0.174 NA
ATOM     13  C   UNL A   1      33.216  21.489  24.925  1.00  0.00     0.091 C 
ATOM     14  C   UNL A   1      33.977  22.772  25.263  1.00  0.00     0.149 C 
BRANCH  11  15
ATOM     15  C   UNL A   1      33.963  19.121  24.625  1.00  0.00    -0.002 A 
ATOM     16  C   UNL A   1      33.709  16.470  25.292  1.00  0.00     0.118 A 
ATOM     17  C   UNL A   1      34.881  16.917  24.691  1.00  0.00     0.047 A 
ATOM     18  C   UNL A   1      32.649  17.349  25.516  1.00  0.00     0.047 A 
ATOM     19  C   UNL A   1      35.000  18.247  24.313  1.00  0.00     0.014 A 
ATOM     20  C   UNL A   1      32.772  18.692  25.190  1.00  0.00     0.014 A 
BRANCH  16  21
ATOM     21  O   UNL A   1      33.550  15.207  25.780  1.00  0.00    -0.497 OA
ATOM     22  C   UNL A   1      32.189  14.817  25.961  1.00  0.00     0.278 C 
ENDBRANCH  16  21
ENDBRANCH  11  15
BRANCH  14  23
ATOM     23  C   UNL A   1      32.975  24.157  25.639  1.00  0.00    -0.004 A 
ATOM     24  C   UNL A   1      33.700  25.358  25.348  1.00  0.00     0.009 A 
ATOM     25  C   UNL A   1      31.701  24.494  26.277  1.00  0.00     0.047 A 
ATOM     26  C   UNL A   1      33.308  26.670  25.711  1.00  0.00     0.021 A 
ATOM     27  C   UNL A   1      31.362  25.820  26.693  1.00  0.00     0.041 A 
ATOM     28  Cl  UNL A   1      30.215  23.675  26.663  1.00  0.00    -0.084 Cl
ATOM     29  C   UNL A   1      32.155  26.894  26.419  1.00  0.00     0.042 A 
ATOM     30  Cl  UNL A   1      31.676  28.459  26.934  1.00  0.00    -0.084 Cl
ENDBRANCH  14  23
ENDBRANCH   8  10
ENDBRANCH   7   8
ENDBRANCH   6   7
ENDBRANCH   4   6
ENDBRANCH   3   4
ENDBRANCH   2   3
ENDBRANCH   1   2
BRANCH   1  31
ATOM     31  O   UNL A   1      38.752  28.089  29.802  1.00  0.00    -0.374 OA
BRANCH  31  32
ATOM     32  C   UNL A   1      37.930  29.254  29.683  1.00  0.00     0.202 C 
BRANCH  32  33
ATOM     33  C   UNL A   1      37.018  29.865  30.962  1.00  0.00     0.261 C 
BRANCH  33  34
ATOM     34  O   UNL A   1      37.578  30.920  31.989  1.00  0.00    -0.460 OA
BRANCH  34  35
ATOM     35  C   UNL A   1      38.596  31.869  32.044  1.00  0.00     0.338 C 
ATOM     36  O   UNL A   1      38.461  33.003  32.505  1.00  0.00    -0.246 OA
BRANCH  35  37
ATOM     37  C   UNL A   1      39.995  31.515  31.434  1.00  0.00     0.060 A 
ATOM     38  C   UNL A   1      40.485  31.850  30.160  1.00  0.00     0.016 A 
ATOM     39  C   UNL A   1      40.804  30.601  32.134  1.00  0.00     0.016 A 
ATOM     40  C   UNL A   1      41.780  31.421  29.687  1.00  0.00     0.010 A 
ATOM     41  C   UNL A   1      42.058  30.116  31.640  1.00  0.00     0.010 A 
ATOM     42  C   UNL A   1      42.600  30.538  30.417  1.00  0.00    -0.014 A 
BRANCH  42  43
ATOM     43  C   UNL A   1      43.964  30.055  29.912  1.00  0.00     0.031 A 
ATOM     44  C   UNL A   1      44.121  28.695  29.251  1.00  0.00     0.074 A 
ATOM     45  C   UNL A   1      45.079  30.830  29.977  1.00  0.00     0.049 A 
ATOM     46  N   UNL A   1      45.215  28.087  28.845  1.00  0.00    -0.248 NA
ATOM     47  C   UNL A   1      42.902  27.903  29.055  1.00  0.00     0.031 C 
ATOM     48  C   UNL A   1      45.122  32.170  30.552  1.00  0.00     0.029 A 
ATOM     49  N   UNL A   1      46.362  30.671  29.467  1.00  0.00    -0.354 N 
ATOM     50  C   UNL A   1      44.830  26.800  28.467  1.00  0.00     0.074 A 
ATOM     51  C   UNL A   1      43.385  26.765  28.574  1.00  0.00     0.031 C 
ATOM     52  C   UNL A   1      46.268  32.774  30.189  1.00  0.00     0.029 A 
ATOM     53  C   UNL A   1      47.123  31.834  29.466  1.00  0.00     0.049 A 
ATOM     54  H   UNL A   1      46.702  29.809  29.135  1.00  0.00     0.167 HD
ATOM     55  C   UNL A   1      45.612  25.728  28.165  1.00  0.00     0.034 A 
ATOM     56  C   UNL A   1      48.343  32.107  28.933  1.00  0.00     0.034 A 
ATOM     57  C   UNL A   1      47.055  25.781  28.076  1.00  0.00     0.049 A 
ATOM     58  C   UNL A   1      49.173  30.933  28.439  1.00  0.00     0.074 A 
ATOM     59  C   UNL A   1      47.971  24.743  27.988  1.00  0.00     0.029 A 
ATOM     60  N   UNL A   1      47.794  26.954  28.036  1.00  0.00    -0.354 N 
ATOM     61  N   UNL A   1      48.812  29.683  28.262  1.00  0.00    -0.248 NA
ATOM     62  C   UNL A   1      50.595  31.188  28.150  1.00  0.00     0.031 C 
ATOM     63  C   UNL A   1      49.262  25.291  27.938  1.00  0.00     0.029 A 
ATOM     64  C   UNL A   1      49.147  26.670  27.925  1.00  0.00     0.049 A 
ATOM     65  H   UNL A   1      47.412  27.861  28.080  1.00  0.00     0.167 HD
ATOM     66  C   UNL A   1      49.975  29.000  27.911  1.00  0.00     0.074 A 
ATOM     67  C   UNL A   1      51.018  29.992  27.772  1.00  0.00     0.031 C 
ATOM     68  C   UNL A   1      50.183  27.664  27.796  1.00  0.00     0.034 A 
BRANCH  55  69
ATOM     69  C   UNL A   1      44.924  24.380  28.117  1.00  0.00     0.023 A 
ATOM     70  C   UNL A   1      44.711  23.676  26.921  1.00  0.00     0.031 A 
ATOM     71  C   UNL A   1      44.363  23.851  29.298  1.00  0.00     0.131 A 
ATOM     72  C   UNL A   1      43.874  22.547  26.917  1.00  0.00     0.055 A 
ATOM     73  C   UNL A   1      43.606  22.678  29.301  1.00  0.00     0.041 A 
ATOM     74  F   UNL A   1      44.516  24.487  30.470  1.00  0.00    -0.206 F 
ATOM     75  C   UNL A   1      43.337  22.031  28.101  1.00  0.00     0.022 A 
BRANCH  72  76
ATOM     76  S   UNL A   1      43.343  21.862  25.322  1.00  0.00     0.124 S 
ATOM     77  O   UNL A   1      44.445  20.953  25.016  1.00  0.00    -0.237 OA
ATOM     78  O   UNL A   1      42.071  21.231  25.655  1.00  0.00    -0.237 OA
ATOM     79  O   UNL A   1      43.251  23.035  24.457  1.00  0.00    -0.744 OA
ENDBRANCH  72  76
ENDBRANCH  55  69
BRANCH  56  80
ATOM     80  C   UNL A   1      48.925  33.503  28.834  1.00  0.00     0.023 A 
ATOM     81  C   UNL A   1      48.848  34.224  27.620  1.00  0.00     0.031 A 
ATOM     82  C   UNL A   1      49.633  34.121  29.880  1.00  0.00     0.131 A 
ATOM     83  C   UNL A   1      49.483  35.473  27.476  1.00  0.00     0.055 A 
ATOM     84  C   UNL A   1      50.173  35.408  29.766  1.00  0.00     0.041 A 
ATOM     85  F   UNL A   1      49.847  33.476  31.036  1.00  0.00    -0.206 F 
ATOM     86  C   UNL A   1      50.112  36.088  28.555  1.00  0.00     0.022 A 
BRANCH  83  87
ATOM     87  S   UNL A   1      49.625  36.209  25.818  1.00  0.00     0.124 S 
ATOM     88  O   UNL A   1      48.745  35.351  25.035  1.00  0.00    -0.237 OA
ATOM     89  O   UNL A   1      49.155  37.570  26.053  1.00  0.00    -0.237 OA
ATOM     90  O   UNL A   1      51.050  36.085  25.511  1.00  0.00    -0.744 OA
ENDBRANCH  83  87
ENDBRANCH  56  80
BRANCH  68  91
ATOM     91  C   UNL A   1      51.602  27.208  27.557  1.00  0.00     0.023 A 
ATOM     92  C   UNL A   1      52.118  27.100  26.251  1.00  0.00     0.031 A 
ATOM     93  C   UNL A   1      52.448  26.881  28.629  1.00  0.00     0.131 A 
ATOM     94  C   UNL A   1      53.421  26.623  26.046  1.00  0.00     0.055 A 
ATOM     95  C   UNL A   1      53.761  26.454  28.421  1.00  0.00     0.041 A 
ATOM     96  F   UNL A   1      52.011  26.968  29.895  1.00  0.00    -0.206 F 
ATOM     97  C   UNL A   1      54.251  26.313  27.125  1.00  0.00     0.022 A 
BRANCH  94  98
ATOM     98  S   UNL A   1      53.992  26.347  24.346  1.00  0.00     0.124 S 
ATOM     99  O   UNL A   1      53.230  25.164  23.956  1.00  0.00    -0.237 OA
ATOM    100  O   UNL A   1      53.619  27.593  23.684  1.00  0.00    -0.237 OA
ATOM    101  O   UNL A   1      55.430  26.135  24.497  1.00  0.00    -0.744 OA
ENDBRANCH  94  98
ENDBRANCH  68  91
ENDBRANCH  42  43
ENDBRANCH  35  37
ENDBRANCH  34  35
ENDBRANCH  33  34
ENDBRANCH  32  33
ENDBRANCH  31  32
ENDBRANCH   1  31
TORSDOF 23
ENDMDL
