MODEL 1
REMARK VINA RESULT:      -8.3      0.000      0.000
REMARK SMILES CC[C@H](C)[NH2+]CCc1ccc(C(=O)OCCOCCOC(=O)c2ccc(-c3c4nc(c(-c5cc(S(=O)(=O)[O-])ccc5F)c5ccc([nH]5)c(-c5cc(S(=O)(=O)[O-])ccc5F)c5nc(c(-c6cc(S(=O)(=O)[O-])ccc6F)c6ccc3[nH]6)C=C5)C=C4)cc2)cc1
REMARK SMILES IDX 16 1 15 2 14 3 12 4 13 5 11 6 8 7 9 8 87 9 10 10 86 11 7 12
REMARK SMILES IDX 6 13 5 14 3 17 4 18 2 19 1 20 17 21 18 22 19 23 20 24 21 25
REMARK SMILES IDX 22 26 23 27 24 28 85 29 25 30 84 31 26 32 27 33 28 34 78 35
REMARK SMILES IDX 29 36 83 37 77 38 79 39 30 40 82 41 76 42 75 43 31 45 63 46
REMARK SMILES IDX 43 47 62 48 44 49 47 50 61 51 80 52 45 53 46 54 60 56 81 57
REMARK SMILES IDX 48 58 32 59 33 60 41 61 34 62 40 63 42 64 39 65 35 66 36 67
REMARK SMILES IDX 37 68 38 69 64 70 65 71 73 72 66 73 72 74 74 75 71 76 67 77
REMARK SMILES IDX 68 78 69 79 70 80 49 81 50 82 58 83 51 84 57 85 59 86 56 87
REMARK SMILES IDX 52 88 53 89 54 90 55 91
REMARK H PARENT 5 15 5 16 79 44 47 55
REMARK Flexibility Score: inf
ROOT
ATOM      1  C   UNL A   1      45.809  21.754  25.673  1.00  0.00     0.202 C 
ENDROOT
BRANCH   1   2
ATOM      2  C   UNL A   1      46.119  22.824  24.622  1.00  0.00     0.261 C 
BRANCH   2   3
ATOM      3  O   UNL A   1      45.565  24.103  24.967  1.00  0.00    -0.460 OA
BRANCH   3   4
ATOM      4  C   UNL A   1      46.392  25.152  24.733  1.00  0.00     0.338 C 
ATOM      5  O   UNL A   1      47.435  25.132  24.096  1.00  0.00    -0.246 OA
BRANCH   4   6
ATOM      6  C   UNL A   1      45.809  26.412  25.250  1.00  0.00     0.060 A 
ATOM      7  C   UNL A   1      44.856  28.817  26.359  1.00  0.00    -0.042 A 
ATOM      8  C   UNL A   1      46.225  28.525  26.363  1.00  0.00     0.005 A 
ATOM      9  C   UNL A   1      43.970  27.885  25.786  1.00  0.00     0.005 A 
ATOM     10  C   UNL A   1      46.697  27.337  25.809  1.00  0.00     0.016 A 
ATOM     11  C   UNL A   1      44.442  26.693  25.222  1.00  0.00     0.016 A 
BRANCH   7  12
ATOM     12  C   UNL A   1      44.315  30.068  27.017  1.00  0.00     0.097 C 
BRANCH  12  13
ATOM     13  C   UNL A   1      45.234  31.307  27.034  1.00  0.00     0.265 C 
BRANCH  13  14
ATOM     14  N   UNL A   1      45.269  32.154  25.840  1.00  0.00    -0.344 N 
ATOM     15  H   UNL A   1      46.177  32.028  25.393  1.00  0.00     0.346 HD
ATOM     16  H   UNL A   1      44.478  31.856  25.267  1.00  0.00     0.346 HD
BRANCH  14  17
ATOM     17  C   UNL A   1      45.074  33.588  26.069  1.00  0.00     0.178 C 
ATOM     18  C   UNL A   1      46.456  34.248  25.994  1.00  0.00     0.075 C 
BRANCH  17  19
ATOM     19  C   UNL A   1      44.090  34.280  25.104  1.00  0.00     0.061 C 
ATOM     20  C   UNL A   1      42.948  35.053  25.754  1.00  0.00     0.010 C 
ENDBRANCH  17  19
ENDBRANCH  14  17
ENDBRANCH  13  14
ENDBRANCH  12  13
ENDBRANCH   7  12
ENDBRANCH   4   6
ENDBRANCH   3   4
ENDBRANCH   2   3
ENDBRANCH   1   2
BRANCH   1  21
ATOM     21  O   UNL A   1      46.262  20.431  25.392  1.00  0.00    -0.374 OA
BRANCH  21  22
ATOM     22  C   UNL A   1      45.368  19.582  24.670  1.00  0.00     0.202 C 
BRANCH  22  23
ATOM     23  C   UNL A   1      44.128  19.085  25.427  1.00  0.00     0.261 C 
BRANCH  23  24
ATOM     24  O   UNL A   1      42.944  19.822  25.070  1.00  0.00    -0.460 OA
BRANCH  24  25
ATOM     25  C   UNL A   1      42.022  19.935  26.057  1.00  0.00     0.338 C 
ATOM     26  O   UNL A   1      41.341  19.036  26.531  1.00  0.00    -0.246 OA
BRANCH  25  27
ATOM     27  C   UNL A   1      42.082  21.287  26.645  1.00  0.00     0.060 A 
ATOM     28  C   UNL A   1      42.175  22.375  25.766  1.00  0.00     0.016 A 
ATOM     29  C   UNL A   1      42.099  21.491  28.026  1.00  0.00     0.016 A 
ATOM     30  C   UNL A   1      42.331  23.667  26.264  1.00  0.00     0.010 A 
ATOM     31  C   UNL A   1      42.263  22.788  28.525  1.00  0.00     0.010 A 
ATOM     32  C   UNL A   1      42.413  23.879  27.647  1.00  0.00    -0.014 A 
BRANCH  32  33
ATOM     33  C   UNL A   1      42.799  25.217  28.164  1.00  0.00     0.031 A 
ATOM     34  C   UNL A   1      44.233  25.459  28.553  1.00  0.00     0.074 A 
ATOM     35  C   UNL A   1      41.895  26.207  28.258  1.00  0.00     0.049 A 
ATOM     36  N   UNL A   1      44.785  26.526  29.070  1.00  0.00    -0.248 NA
ATOM     37  C   UNL A   1      45.165  24.344  28.332  1.00  0.00     0.031 C 
ATOM     38  C   UNL A   1      40.489  26.105  27.866  1.00  0.00     0.029 A 
ATOM     39  N   UNL A   1      42.023  27.494  28.718  1.00  0.00    -0.354 N 
ATOM     40  C   UNL A   1      46.129  26.211  29.242  1.00  0.00     0.074 A 
ATOM     41  C   UNL A   1      46.296  24.839  28.810  1.00  0.00     0.031 C 
ATOM     42  C   UNL A   1      39.883  27.280  28.111  1.00  0.00     0.029 A 
ATOM     43  C   UNL A   1      40.843  28.202  28.715  1.00  0.00     0.049 A 
ATOM     44  H   UNL A   1      42.878  27.875  29.023  1.00  0.00     0.167 HD
ATOM     45  C   UNL A   1      47.132  26.997  29.706  1.00  0.00     0.034 A 
ATOM     46  C   UNL A   1      40.565  29.440  29.172  1.00  0.00     0.034 A 
ATOM     47  C   UNL A   1      46.946  28.361  30.142  1.00  0.00     0.049 A 
ATOM     48  C   UNL A   1      41.678  30.265  29.774  1.00  0.00     0.074 A 
ATOM     49  C   UNL A   1      47.892  29.252  30.615  1.00  0.00     0.029 A 
ATOM     50  N   UNL A   1      45.727  29.027  30.173  1.00  0.00    -0.354 N 
ATOM     51  N   UNL A   1      42.948  29.959  29.923  1.00  0.00    -0.248 NA
ATOM     52  C   UNL A   1      41.322  31.604  30.262  1.00  0.00     0.031 C 
ATOM     53  C   UNL A   1      47.237  30.425  31.004  1.00  0.00     0.029 A 
ATOM     54  C   UNL A   1      45.893  30.302  30.693  1.00  0.00     0.049 A 
ATOM     55  H   UNL A   1      44.870  28.650  29.869  1.00  0.00     0.167 HD
ATOM     56  C   UNL A   1      43.545  31.082  30.493  1.00  0.00     0.074 A 
ATOM     57  C   UNL A   1      42.500  32.073  30.646  1.00  0.00     0.031 C 
ATOM     58  C   UNL A   1      44.840  31.279  30.854  1.00  0.00     0.034 A 
BRANCH  45  59
ATOM     59  C   UNL A   1      48.505  26.378  29.818  1.00  0.00     0.023 A 
ATOM     60  C   UNL A   1      48.895  25.634  30.946  1.00  0.00     0.031 A 
ATOM     61  C   UNL A   1      49.449  26.557  28.791  1.00  0.00     0.131 A 
ATOM     62  C   UNL A   1      50.212  25.162  31.052  1.00  0.00     0.055 A 
ATOM     63  C   UNL A   1      50.732  26.014  28.866  1.00  0.00     0.041 A 
ATOM     64  F   UNL A   1      49.143  27.277  27.699  1.00  0.00    -0.206 F 
ATOM     65  C   UNL A   1      51.126  25.324  30.009  1.00  0.00     0.022 A 
BRANCH  62  66
ATOM     66  S   UNL A   1      50.758  24.460  32.634  1.00  0.00     0.124 S 
ATOM     67  O   UNL A   1      49.612  24.745  33.493  1.00  0.00    -0.237 OA
ATOM     68  O   UNL A   1      50.973  23.058  32.300  1.00  0.00    -0.237 OA
ATOM     69  O   UNL A   1      51.966  25.221  32.948  1.00  0.00    -0.744 OA
ENDBRANCH  62  66
ENDBRANCH  45  59
BRANCH  46  70
ATOM     70  C   UNL A   1      39.171  29.968  29.127  1.00  0.00     0.023 A 
ATOM     71  C   UNL A   1      38.525  30.418  30.289  1.00  0.00     0.031 A 
ATOM     72  C   UNL A   1      38.441  29.972  27.924  1.00  0.00     0.131 A 
ATOM     73  C   UNL A   1      37.178  30.809  30.234  1.00  0.00     0.055 A 
ATOM     74  C   UNL A   1      37.118  30.415  27.864  1.00  0.00     0.041 A 
ATOM     75  F   UNL A   1      39.007  29.548  26.783  1.00  0.00    -0.206 F 
ATOM     76  C   UNL A   1      36.475  30.825  29.027  1.00  0.00     0.022 A 
BRANCH  73  77
ATOM     77  S   UNL A   1      36.326  31.211  31.784  1.00  0.00     0.124 S 
ATOM     78  O   UNL A   1      35.046  31.714  31.298  1.00  0.00    -0.237 OA
ATOM     79  O   UNL A   1      36.294  29.916  32.456  1.00  0.00    -0.237 OA
ATOM     80  O   UNL A   1      37.196  32.210  32.402  1.00  0.00    -0.744 OA
ENDBRANCH  73  77
ENDBRANCH  46  70
BRANCH  58  81
ATOM     81  C   UNL A   1      45.203  32.638  31.405  1.00  0.00     0.023 A 
ATOM     82  C   UNL A   1      45.579  33.702  30.567  1.00  0.00     0.031 A 
ATOM     83  C   UNL A   1      45.180  32.868  32.793  1.00  0.00     0.131 A 
ATOM     84  C   UNL A   1      45.973  34.928  31.126  1.00  0.00     0.055 A 
ATOM     85  C   UNL A   1      45.510  34.108  33.339  1.00  0.00     0.041 A 
ATOM     86  F   UNL A   1      44.832  31.887  33.641  1.00  0.00    -0.206 F 
ATOM     87  C   UNL A   1      45.922  35.144  32.506  1.00  0.00     0.022 A 
BRANCH  84  88
ATOM     88  S   UNL A   1      46.645  36.210  30.033  1.00  0.00     0.124 S 
ATOM     89  O   UNL A   1      46.726  37.360  30.928  1.00  0.00    -0.237 OA
ATOM     90  O   UNL A   1      47.919  35.632  29.620  1.00  0.00    -0.237 OA
ATOM     91  O   UNL A   1      45.642  36.318  28.974  1.00  0.00    -0.744 OA
ENDBRANCH  84  88
ENDBRANCH  58  81
ENDBRANCH  32  33
ENDBRANCH  25  27
ENDBRANCH  24  25
ENDBRANCH  23  24
ENDBRANCH  22  23
ENDBRANCH  21  22
ENDBRANCH   1  21
TORSDOF 22
ENDMDL
MODEL 2
REMARK VINA RESULT:      -8.1      1.377      7.732
REMARK SMILES CC[C@H](C)[NH2+]CCc1ccc(C(=O)OCCOCCOC(=O)c2ccc(-c3c4nc(c(-c5cc(S(=O)(=O)[O-])ccc5F)c5ccc([nH]5)c(-c5cc(S(=O)(=O)[O-])ccc5F)c5nc(c(-c6cc(S(=O)(=O)[O-])ccc6F)c6ccc3[nH]6)C=C5)C=C4)cc2)cc1
REMARK SMILES IDX 16 1 15 2 14 3 12 4 13 5 11 6 8 7 9 8 87 9 10 10 86 11 7 12
REMARK SMILES IDX 6 13 5 14 3 17 4 18 2 19 1 20 17 21 18 22 19 23 20 24 21 25
REMARK SMILES IDX 22 26 23 27 24 28 85 29 25 30 84 31 26 32 27 33 28 34 78 35
REMARK SMILES IDX 29 36 83 37 77 38 79 39 30 40 82 41 76 42 75 43 31 45 63 46
REMARK SMILES IDX 43 47 62 48 44 49 47 50 61 51 80 52 45 53 46 54 60 56 81 57
REMARK SMILES IDX 48 58 32 59 33 60 41 61 34 62 40 63 42 64 39 65 35 66 36 67
REMARK SMILES IDX 37 68 38 69 64 70 65 71 73 72 66 73 72 74 74 75 71 76 67 77
REMARK SMILES IDX 68 78 69 79 70 80 49 81 50 82 58 83 51 84 57 85 59 86 56 87
REMARK SMILES IDX 52 88 53 89 54 90 55 91
REMARK H PARENT 5 15 5 16 79 44 47 55
REMARK Flexibility Score: inf
ROOT
ATOM      1  C   UNL A   1      45.851  22.158  25.704  1.00  0.00     0.202 C 
ENDROOT
BRANCH   1   2
ATOM      2  C   UNL A   1      45.891  22.925  24.378  1.00  0.00     0.261 C 
BRANCH   2   3
ATOM      3  O   UNL A   1      45.427  24.277  24.517  1.00  0.00    -0.460 OA
BRANCH   3   4
ATOM      4  C   UNL A   1      46.400  25.174  24.809  1.00  0.00     0.338 C 
ATOM      5  O   UNL A   1      47.600  25.038  24.620  1.00  0.00    -0.246 OA
BRANCH   4   6
ATOM      6  C   UNL A   1      45.819  26.448  25.290  1.00  0.00     0.060 A 
ATOM      7  C   UNL A   1      44.870  28.888  26.327  1.00  0.00    -0.042 A 
ATOM      8  C   UNL A   1      46.241  28.607  26.311  1.00  0.00     0.005 A 
ATOM      9  C   UNL A   1      43.979  27.927  25.812  1.00  0.00     0.005 A 
ATOM     10  C   UNL A   1      46.711  27.402  25.792  1.00  0.00     0.016 A 
ATOM     11  C   UNL A   1      44.448  26.718  25.284  1.00  0.00     0.016 A 
BRANCH   7  12
ATOM     12  C   UNL A   1      44.334  30.159  26.949  1.00  0.00     0.097 C 
BRANCH  12  13
ATOM     13  C   UNL A   1      45.261  31.392  26.940  1.00  0.00     0.265 C 
BRANCH  13  14
ATOM     14  N   UNL A   1      45.288  32.223  25.734  1.00  0.00    -0.344 N 
ATOM     15  H   UNL A   1      46.264  32.356  25.468  1.00  0.00     0.346 HD
ATOM     16  H   UNL A   1      44.733  31.721  25.041  1.00  0.00     0.346 HD
BRANCH  14  17
ATOM     17  C   UNL A   1      44.670  33.545  25.857  1.00  0.00     0.178 C 
ATOM     18  C   UNL A   1      43.722  33.713  24.663  1.00  0.00     0.075 C 
BRANCH  17  19
ATOM     19  C   UNL A   1      43.923  33.801  27.181  1.00  0.00     0.061 C 
ATOM     20  C   UNL A   1      44.232  35.120  27.880  1.00  0.00     0.010 C 
ENDBRANCH  17  19
ENDBRANCH  14  17
ENDBRANCH  13  14
ENDBRANCH  12  13
ENDBRANCH   7  12
ENDBRANCH   4   6
ENDBRANCH   3   4
ENDBRANCH   2   3
ENDBRANCH   1   2
BRANCH   1  21
ATOM     21  O   UNL A   1      46.012  20.742  25.628  1.00  0.00    -0.374 OA
BRANCH  21  22
ATOM     22  C   UNL A   1      45.137  20.040  24.743  1.00  0.00     0.202 C 
BRANCH  22  23
ATOM     23  C   UNL A   1      43.913  19.364  25.378  1.00  0.00     0.261 C 
BRANCH  23  24
ATOM     24  O   UNL A   1      42.694  20.080  25.099  1.00  0.00    -0.460 OA
BRANCH  24  25
ATOM     25  C   UNL A   1      41.862  20.227  26.158  1.00  0.00     0.338 C 
ATOM     26  O   UNL A   1      41.155  19.363  26.661  1.00  0.00    -0.246 OA
BRANCH  25  27
ATOM     27  C   UNL A   1      42.067  21.551  26.776  1.00  0.00     0.060 A 
ATOM     28  C   UNL A   1      42.260  22.644  25.919  1.00  0.00     0.016 A 
ATOM     29  C   UNL A   1      42.120  21.720  28.161  1.00  0.00     0.016 A 
ATOM     30  C   UNL A   1      42.553  23.901  26.445  1.00  0.00     0.010 A 
ATOM     31  C   UNL A   1      42.422  22.981  28.686  1.00  0.00     0.010 A 
ATOM     32  C   UNL A   1      42.672  24.071  27.830  1.00  0.00    -0.014 A 
BRANCH  32  33
ATOM     33  C   UNL A   1      43.199  25.350  28.372  1.00  0.00     0.031 A 
ATOM     34  C   UNL A   1      42.240  26.483  28.621  1.00  0.00     0.074 A 
ATOM     35  C   UNL A   1      44.504  25.491  28.662  1.00  0.00     0.049 A 
ATOM     36  N   UNL A   1      42.481  27.698  29.042  1.00  0.00    -0.248 NA
ATOM     37  C   UNL A   1      40.821  26.205  28.355  1.00  0.00     0.031 C 
ATOM     38  C   UNL A   1      45.520  24.448  28.508  1.00  0.00     0.029 A 
ATOM     39  N   UNL A   1      45.202  26.570  29.145  1.00  0.00    -0.354 N 
ATOM     40  C   UNL A   1      41.244  28.334  29.088  1.00  0.00     0.074 A 
ATOM     41  C   UNL A   1      40.264  27.380  28.612  1.00  0.00     0.031 C 
ATOM     42  C   UNL A   1      46.712  24.944  28.882  1.00  0.00     0.029 A 
ATOM     43  C   UNL A   1      46.555  26.347  29.260  1.00  0.00     0.049 A 
ATOM     44  H   UNL A   1      44.775  27.424  29.385  1.00  0.00     0.167 HD
ATOM     45  C   UNL A   1      40.952  29.594  29.497  1.00  0.00     0.034 A 
ATOM     46  C   UNL A   1      47.552  27.186  29.605  1.00  0.00     0.034 A 
ATOM     47  C   UNL A   1      41.943  30.536  29.959  1.00  0.00     0.049 A 
ATOM     48  C   UNL A   1      47.217  28.614  29.966  1.00  0.00     0.074 A 
ATOM     49  C   UNL A   1      41.757  31.830  30.412  1.00  0.00     0.029 A 
ATOM     50  N   UNL A   1      43.310  30.292  30.013  1.00  0.00    -0.354 N 
ATOM     51  N   UNL A   1      46.042  29.201  30.014  1.00  0.00    -0.248 NA
ATOM     52  C   UNL A   1      48.340  29.489  30.328  1.00  0.00     0.031 C 
ATOM     53  C   UNL A   1      43.013  32.393  30.664  1.00  0.00     0.029 A 
ATOM     54  C   UNL A   1      43.980  31.424  30.454  1.00  0.00     0.049 A 
ATOM     55  H   UNL A   1      43.740  29.439  29.774  1.00  0.00     0.167 HD
ATOM     56  C   UNL A   1      46.286  30.506  30.442  1.00  0.00     0.074 A 
ATOM     57  C   UNL A   1      47.715  30.611  30.652  1.00  0.00     0.031 C 
ATOM     58  C   UNL A   1      45.409  31.522  30.647  1.00  0.00     0.034 A 
BRANCH  45  59
ATOM     59  C   UNL A   1      39.511  30.037  29.408  1.00  0.00     0.023 A 
ATOM     60  C   UNL A   1      38.794  30.466  30.540  1.00  0.00     0.031 A 
ATOM     61  C   UNL A   1      38.834  30.004  28.176  1.00  0.00     0.131 A 
ATOM     62  C   UNL A   1      37.430  30.774  30.429  1.00  0.00     0.055 A 
ATOM     63  C   UNL A   1      37.498  30.390  28.058  1.00  0.00     0.041 A 
ATOM     64  F   UNL A   1      39.457  29.580  27.064  1.00  0.00    -0.206 F 
ATOM     65  C   UNL A   1      36.783  30.763  29.192  1.00  0.00     0.022 A 
BRANCH  62  66
ATOM     66  S   UNL A   1      36.476  31.046  31.948  1.00  0.00     0.124 S 
ATOM     67  O   UNL A   1      37.352  31.951  32.688  1.00  0.00    -0.237 OA
ATOM     68  O   UNL A   1      35.238  31.626  31.444  1.00  0.00    -0.237 OA
ATOM     69  O   UNL A   1      36.352  29.706  32.520  1.00  0.00    -0.744 OA
ENDBRANCH  62  66
ENDBRANCH  45  59
BRANCH  46  70
ATOM     70  C   UNL A   1      48.971  26.724  29.582  1.00  0.00     0.023 A 
ATOM     71  C   UNL A   1      49.514  25.991  30.650  1.00  0.00     0.031 A 
ATOM     72  C   UNL A   1      49.823  27.064  28.516  1.00  0.00     0.131 A 
ATOM     73  C   UNL A   1      50.880  25.663  30.649  1.00  0.00     0.055 A 
ATOM     74  C   UNL A   1      51.166  26.687  28.493  1.00  0.00     0.041 A 
ATOM     75  F   UNL A   1      49.357  27.768  27.472  1.00  0.00    -0.206 F 
ATOM     76  C   UNL A   1      51.705  25.992  29.571  1.00  0.00     0.022 A 
BRANCH  73  77
ATOM     77  S   UNL A   1      51.584  24.876  32.123  1.00  0.00     0.124 S 
ATOM     78  O   UNL A   1      50.983  25.662  33.195  1.00  0.00    -0.237 OA
ATOM     79  O   UNL A   1      51.109  23.503  31.990  1.00  0.00    -0.237 OA
ATOM     80  O   UNL A   1      53.025  25.055  31.949  1.00  0.00    -0.744 OA
ENDBRANCH  73  77
ENDBRANCH  46  70
BRANCH  58  81
ATOM     81  C   UNL A   1      45.972  32.823  31.170  1.00  0.00     0.023 A 
ATOM     82  C   UNL A   1      45.892  33.172  32.529  1.00  0.00     0.031 A 
ATOM     83  C   UNL A   1      46.590  33.731  30.291  1.00  0.00     0.131 A 
ATOM     84  C   UNL A   1      46.370  34.421  32.960  1.00  0.00     0.055 A 
ATOM     85  C   UNL A   1      47.120  34.942  30.736  1.00  0.00     0.041 A 
ATOM     86  F   UNL A   1      46.691  33.452  28.981  1.00  0.00    -0.206 F 
ATOM     87  C   UNL A   1      47.000  35.299  32.075  1.00  0.00     0.022 A 
BRANCH  84  88
ATOM     88  S   UNL A   1      46.070  34.924  34.677  1.00  0.00     0.124 S 
ATOM     89  O   UNL A   1      44.614  35.022  34.715  1.00  0.00    -0.237 OA
ATOM     90  O   UNL A   1      46.654  33.820  35.432  1.00  0.00    -0.237 OA
ATOM     91  O   UNL A   1      46.780  36.196  34.791  1.00  0.00    -0.744 OA
ENDBRANCH  84  88
ENDBRANCH  58  81
ENDBRANCH  32  33
ENDBRANCH  25  27
ENDBRANCH  24  25
ENDBRANCH  23  24
ENDBRANCH  22  23
ENDBRANCH  21  22
ENDBRANCH   1  21
TORSDOF 22
ENDMDL
MODEL 3
REMARK VINA RESULT:      -7.8      2.672      4.175
REMARK SMILES CC[C@H](C)[NH2+]CCc1ccc(C(=O)OCCOCCOC(=O)c2ccc(-c3c4nc(c(-c5cc(S(=O)(=O)[O-])ccc5F)c5ccc([nH]5)c(-c5cc(S(=O)(=O)[O-])ccc5F)c5nc(c(-c6cc(S(=O)(=O)[O-])ccc6F)c6ccc3[nH]6)C=C5)C=C4)cc2)cc1
REMARK SMILES IDX 16 1 15 2 14 3 12 4 13 5 11 6 8 7 9 8 87 9 10 10 86 11 7 12
REMARK SMILES IDX 6 13 5 14 3 17 4 18 2 19 1 20 17 21 18 22 19 23 20 24 21 25
REMARK SMILES IDX 22 26 23 27 24 28 85 29 25 30 84 31 26 32 27 33 28 34 78 35
REMARK SMILES IDX 29 36 83 37 77 38 79 39 30 40 82 41 76 42 75 43 31 45 63 46
REMARK SMILES IDX 43 47 62 48 44 49 47 50 61 51 80 52 45 53 46 54 60 56 81 57
REMARK SMILES IDX 48 58 32 59 33 60 41 61 34 62 40 63 42 64 39 65 35 66 36 67
REMARK SMILES IDX 37 68 38 69 64 70 65 71 73 72 66 73 72 74 74 75 71 76 67 77
REMARK SMILES IDX 68 78 69 79 70 80 49 81 50 82 58 83 51 84 57 85 59 86 56 87
REMARK SMILES IDX 52 88 53 89 54 90 55 91
REMARK H PARENT 5 15 5 16 79 44 47 55
REMARK Flexibility Score: inf
ROOT
ATOM      1  C   UNL A   1      45.791  19.454  25.265  1.00  0.00     0.202 C 
ENDROOT
BRANCH   1   2
ATOM      2  C   UNL A   1      46.033  20.880  24.760  1.00  0.00     0.261 C 
BRANCH   2   3
ATOM      3  O   UNL A   1      46.381  21.782  25.822  1.00  0.00    -0.460 OA
BRANCH   3   4
ATOM      4  C   UNL A   1      45.778  22.994  25.746  1.00  0.00     0.338 C 
ATOM      5  O   UNL A   1      45.386  23.553  24.732  1.00  0.00    -0.246 OA
BRANCH   4   6
ATOM      6  C   UNL A   1      45.522  23.543  27.097  1.00  0.00     0.060 A 
ATOM      7  C   UNL A   1      45.231  24.598  29.691  1.00  0.00    -0.042 A 
ATOM      8  C   UNL A   1      46.374  24.878  28.933  1.00  0.00     0.005 A 
ATOM      9  C   UNL A   1      44.232  23.781  29.127  1.00  0.00     0.005 A 
ATOM     10  C   UNL A   1      46.515  24.362  27.646  1.00  0.00     0.016 A 
ATOM     11  C   UNL A   1      44.367  23.265  27.832  1.00  0.00     0.016 A 
BRANCH   7  12
ATOM     12  C   UNL A   1      45.089  25.091  31.115  1.00  0.00     0.097 C 
BRANCH  12  13
ATOM     13  C   UNL A   1      44.443  26.477  31.317  1.00  0.00     0.265 C 
BRANCH  13  14
ATOM     14  N   UNL A   1      44.870  27.273  32.469  1.00  0.00    -0.344 N 
ATOM     15  H   UNL A   1      44.041  27.498  33.019  1.00  0.00     0.346 HD
ATOM     16  H   UNL A   1      45.554  26.699  32.963  1.00  0.00     0.346 HD
BRANCH  14  17
ATOM     17  C   UNL A   1      45.557  28.529  32.157  1.00  0.00     0.178 C 
ATOM     18  C   UNL A   1      44.653  29.670  32.637  1.00  0.00     0.075 C 
BRANCH  17  19
ATOM     19  C   UNL A   1      46.971  28.671  32.756  1.00  0.00     0.061 C 
ATOM     20  C   UNL A   1      47.264  27.823  33.989  1.00  0.00     0.010 C 
ENDBRANCH  17  19
ENDBRANCH  14  17
ENDBRANCH  13  14
ENDBRANCH  12  13
ENDBRANCH   7  12
ENDBRANCH   4   6
ENDBRANCH   3   4
ENDBRANCH   2   3
ENDBRANCH   1   2
BRANCH   1  21
ATOM     21  O   UNL A   1      44.448  19.115  25.608  1.00  0.00    -0.374 OA
BRANCH  21  22
ATOM     22  C   UNL A   1      43.418  19.959  25.090  1.00  0.00     0.202 C 
BRANCH  22  23
ATOM     23  C   UNL A   1      42.518  20.658  26.119  1.00  0.00     0.261 C 
BRANCH  23  24
ATOM     24  O   UNL A   1      42.019  21.919  25.635  1.00  0.00    -0.460 OA
BRANCH  24  25
ATOM     25  C   UNL A   1      40.772  22.240  26.054  1.00  0.00     0.338 C 
ATOM     26  O   UNL A   1      39.807  21.491  26.127  1.00  0.00    -0.246 OA
BRANCH  25  27
ATOM     27  C   UNL A   1      40.768  23.604  26.617  1.00  0.00     0.060 A 
ATOM     28  C   UNL A   1      40.847  24.677  25.718  1.00  0.00     0.016 A 
ATOM     29  C   UNL A   1      40.739  23.835  27.993  1.00  0.00     0.016 A 
ATOM     30  C   UNL A   1      40.944  25.983  26.195  1.00  0.00     0.010 A 
ATOM     31  C   UNL A   1      40.845  25.146  28.470  1.00  0.00     0.010 A 
ATOM     32  C   UNL A   1      40.980  26.224  27.574  1.00  0.00    -0.014 A 
BRANCH  32  33
ATOM     33  C   UNL A   1      41.305  27.585  28.074  1.00  0.00     0.031 A 
ATOM     34  C   UNL A   1      42.746  28.016  28.124  1.00  0.00     0.074 A 
ATOM     35  C   UNL A   1      40.331  28.432  28.451  1.00  0.00     0.049 A 
ATOM     36  N   UNL A   1      43.265  29.132  28.566  1.00  0.00    -0.248 NA
ATOM     37  C   UNL A   1      43.732  27.054  27.609  1.00  0.00     0.031 C 
ATOM     38  C   UNL A   1      38.897  28.144  28.403  1.00  0.00     0.029 A 
ATOM     39  N   UNL A   1      40.400  29.707  28.955  1.00  0.00    -0.354 N 
ATOM     40  C   UNL A   1      44.639  29.008  28.387  1.00  0.00     0.074 A 
ATOM     41  C   UNL A   1      44.872  27.689  27.835  1.00  0.00     0.031 C 
ATOM     42  C   UNL A   1      38.224  29.210  28.866  1.00  0.00     0.029 A 
ATOM     43  C   UNL A   1      39.174  30.238  29.284  1.00  0.00     0.049 A 
ATOM     44  H   UNL A   1      41.247  30.195  29.071  1.00  0.00     0.167 HD
ATOM     45  C   UNL A   1      45.615  29.912  28.651  1.00  0.00     0.034 A 
ATOM     46  C   UNL A   1      38.860  31.407  29.878  1.00  0.00     0.034 A 
ATOM     47  C   UNL A   1      45.366  31.219  29.211  1.00  0.00     0.049 A 
ATOM     48  C   UNL A   1      39.970  32.361  30.252  1.00  0.00     0.074 A 
ATOM     49  C   UNL A   1      46.277  32.219  29.504  1.00  0.00     0.029 A 
ATOM     50  N   UNL A   1      44.117  31.702  29.580  1.00  0.00    -0.354 N 
ATOM     51  N   UNL A   1      41.266  32.235  30.070  1.00  0.00    -0.248 NA
ATOM     52  C   UNL A   1      39.575  33.618  30.902  1.00  0.00     0.031 C 
ATOM     53  C   UNL A   1      45.591  33.272  30.119  1.00  0.00     0.029 A 
ATOM     54  C   UNL A   1      44.239  32.969  30.132  1.00  0.00     0.049 A 
ATOM     55  H   UNL A   1      43.268  31.217  29.465  1.00  0.00     0.167 HD
ATOM     56  C   UNL A   1      41.834  33.412  30.556  1.00  0.00     0.074 A 
ATOM     57  C   UNL A   1      40.739  34.237  31.023  1.00  0.00     0.031 C 
ATOM     58  C   UNL A   1      43.141  33.779  30.608  1.00  0.00     0.034 A 
BRANCH  45  59
ATOM     59  C   UNL A   1      47.042  29.492  28.387  1.00  0.00     0.023 A 
ATOM     60  C   UNL A   1      47.808  28.815  29.352  1.00  0.00     0.031 A 
ATOM     61  C   UNL A   1      47.655  29.798  27.158  1.00  0.00     0.131 A 
ATOM     62  C   UNL A   1      49.159  28.532  29.101  1.00  0.00     0.055 A 
ATOM     63  C   UNL A   1      48.975  29.440  26.885  1.00  0.00     0.041 A 
ATOM     64  F   UNL A   1      46.982  30.464  26.206  1.00  0.00    -0.206 F 
ATOM     65  C   UNL A   1      49.741  28.817  27.865  1.00  0.00     0.022 A 
BRANCH  62  66
ATOM     66  S   UNL A   1      50.185  27.920  30.466  1.00  0.00     0.124 S 
ATOM     67  O   UNL A   1      51.422  27.570  29.771  1.00  0.00    -0.237 OA
ATOM     68  O   UNL A   1      50.256  29.076  31.351  1.00  0.00    -0.237 OA
ATOM     69  O   UNL A   1      49.427  26.782  30.983  1.00  0.00    -0.744 OA
ENDBRANCH  62  66
ENDBRANCH  45  59
BRANCH  46  70
ATOM     70  C   UNL A   1      37.441  31.731  30.206  1.00  0.00     0.023 A 
ATOM     71  C   UNL A   1      36.598  32.343  29.264  1.00  0.00     0.031 A 
ATOM     72  C   UNL A   1      36.925  31.488  31.492  1.00  0.00     0.131 A 
ATOM     73  C   UNL A   1      35.301  32.733  29.635  1.00  0.00     0.055 A 
ATOM     74  C   UNL A   1      35.616  31.826  31.839  1.00  0.00     0.041 A 
ATOM     75  F   UNL A   1      37.688  30.910  32.433  1.00  0.00    -0.206 F 
ATOM     76  C   UNL A   1      34.800  32.465  30.911  1.00  0.00     0.022 A 
BRANCH  73  77
ATOM     77  S   UNL A   1      34.307  33.681  28.451  1.00  0.00     0.124 S 
ATOM     78  O   UNL A   1      33.876  34.813  29.264  1.00  0.00    -0.237 OA
ATOM     79  O   UNL A   1      35.282  33.975  27.406  1.00  0.00    -0.237 OA
ATOM     80  O   UNL A   1      33.250  32.747  28.069  1.00  0.00    -0.744 OA
ENDBRANCH  73  77
ENDBRANCH  46  70
BRANCH  58  81
ATOM     81  C   UNL A   1      43.449  35.156  31.148  1.00  0.00     0.023 A 
ATOM     82  C   UNL A   1      43.542  36.279  30.307  1.00  0.00     0.031 A 
ATOM     83  C   UNL A   1      43.662  35.344  32.526  1.00  0.00     0.131 A 
ATOM     84  C   UNL A   1      43.896  37.527  30.844  1.00  0.00     0.055 A 
ATOM     85  C   UNL A   1      43.950  36.599  33.062  1.00  0.00     0.041 A 
ATOM     86  F   UNL A   1      43.590  34.307  33.376  1.00  0.00    -0.206 F 
ATOM     87  C   UNL A   1      44.081  37.698  32.218  1.00  0.00     0.022 A 
BRANCH  84  88
ATOM     88  S   UNL A   1      44.205  38.908  29.709  1.00  0.00     0.124 S 
ATOM     89  O   UNL A   1      43.478  39.998  30.353  1.00  0.00    -0.237 OA
ATOM     90  O   UNL A   1      45.660  39.011  29.732  1.00  0.00    -0.237 OA
ATOM     91  O   UNL A   1      43.637  38.446  28.444  1.00  0.00    -0.744 OA
ENDBRANCH  84  88
ENDBRANCH  58  81
ENDBRANCH  32  33
ENDBRANCH  25  27
ENDBRANCH  24  25
ENDBRANCH  23  24
ENDBRANCH  22  23
ENDBRANCH  21  22
ENDBRANCH   1  21
TORSDOF 22
ENDMDL
