MODEL 1
REMARK VINA RESULT:     -11.4      0.000      0.000
REMARK SMILES O=C(OCCOCCOC(=O)c1cc(-n2cccc2)ccc1O)c1ccc(-c2c3nc(c(-c4cc(S(=O)(=O)[O-])ccc4F)c4ccc([nH]4)c(-c4cc(S(=O)(=O)[O-])ccc4F)c4nc(c(-c5cc(S(=O)(=O)[O-])ccc5F)c5ccc2[nH]5)C=C4)C=C3)cc1
REMARK SMILES IDX 5 1 4 2 3 3 2 4 1 5 24 6 25 7 86 8 26 9 85 10 27 11 28 12
REMARK SMILES IDX 29 13 79 14 30 15 84 16 78 17 80 18 31 19 83 20 77 21 76 22
REMARK SMILES IDX 32 24 64 25 44 26 63 27 45 28 48 29 62 30 81 31 46 32 47 33
REMARK SMILES IDX 61 35 82 36 49 37 33 38 34 39 42 40 35 41 41 42 43 43 40 44
REMARK SMILES IDX 36 45 37 46 38 47 39 48 65 49 66 50 74 51 67 52 73 53 75 54
REMARK SMILES IDX 72 55 68 56 69 57 70 58 71 59 50 60 51 61 59 62 52 63 58 64
REMARK SMILES IDX 60 65 57 66 53 67 54 68 55 69 56 70 6 71 7 72 8 73 9 74
REMARK SMILES IDX 10 75 11 76 12 77 13 78 22 79 14 80 21 81 20 82 23 83 15 85
REMARK SMILES IDX 16 86 19 87 17 88 18 89
REMARK H PARENT 80 23 48 34 23 84
REMARK Flexibility Score: inf
ROOT
ATOM      1  C   UNL A   1      32.836  29.216  26.935  1.00  0.00     0.202 C 
ENDROOT
BRANCH   1   2
ATOM      2  C   UNL A   1      33.961  30.255  26.936  1.00  0.00     0.261 C 
BRANCH   2   3
ATOM      3  O   UNL A   1      35.213  29.694  27.360  1.00  0.00    -0.460 OA
BRANCH   3   4
ATOM      4  C   UNL A   1      36.261  30.401  27.858  1.00  0.00     0.338 C 
ATOM      5  O   UNL A   1      36.129  31.577  28.181  1.00  0.00    -0.246 OA
BRANCH   4   6
ATOM      6  C   UNL A   1      37.496  29.684  28.213  1.00  0.00     0.060 A 
ATOM      7  C   UNL A   1      38.666  29.738  27.455  1.00  0.00     0.016 A 
ATOM      8  C   UNL A   1      37.433  28.889  29.365  1.00  0.00     0.016 A 
ATOM      9  C   UNL A   1      39.664  28.813  27.681  1.00  0.00     0.010 A 
ATOM     10  C   UNL A   1      38.478  28.034  29.668  1.00  0.00     0.010 A 
ATOM     11  C   UNL A   1      39.566  27.971  28.793  1.00  0.00    -0.014 A 
BRANCH  11  12
ATOM     12  C   UNL A   1      40.814  27.309  29.197  1.00  0.00     0.031 A 
ATOM     13  C   UNL A   1      41.047  26.104  28.230  1.00  0.00     0.074 A 
ATOM     14  C   UNL A   1      41.434  27.817  30.311  1.00  0.00     0.049 A 
ATOM     15  N   UNL A   1      41.545  24.926  28.444  1.00  0.00    -0.248 NA
ATOM     16  C   UNL A   1      40.488  26.176  26.837  1.00  0.00     0.031 C 
ATOM     17  C   UNL A   1      40.994  29.010  31.084  1.00  0.00     0.029 A 
ATOM     18  N   UNL A   1      42.551  27.453  31.030  1.00  0.00    -0.354 N 
ATOM     19  C   UNL A   1      41.654  24.286  27.182  1.00  0.00     0.074 A 
ATOM     20  C   UNL A   1      40.786  24.992  26.301  1.00  0.00     0.031 C 
ATOM     21  C   UNL A   1      41.768  29.206  32.182  1.00  0.00     0.029 A 
ATOM     22  C   UNL A   1      42.806  28.194  32.230  1.00  0.00     0.049 A 
ATOM     23  H   UNL A   1      43.142  26.724  30.736  1.00  0.00     0.167 HD
ATOM     24  C   UNL A   1      42.643  23.390  26.884  1.00  0.00     0.034 A 
ATOM     25  C   UNL A   1      43.764  27.959  33.190  1.00  0.00     0.034 A 
ATOM     26  C   UNL A   1      43.440  23.189  28.050  1.00  0.00     0.049 A 
ATOM     27  C   UNL A   1      44.588  26.906  32.574  1.00  0.00     0.074 A 
ATOM     28  C   UNL A   1      43.191  22.600  29.259  1.00  0.00     0.029 A 
ATOM     29  N   UNL A   1      44.569  23.973  28.153  1.00  0.00    -0.354 N 
ATOM     30  N   UNL A   1      45.408  27.090  31.584  1.00  0.00    -0.248 NA
ATOM     31  C   UNL A   1      44.398  25.519  33.019  1.00  0.00     0.031 C 
ATOM     32  C   UNL A   1      43.829  23.479  30.157  1.00  0.00     0.029 A 
ATOM     33  C   UNL A   1      44.662  24.366  29.460  1.00  0.00     0.049 A 
ATOM     34  H   UNL A   1      45.190  24.206  27.425  1.00  0.00     0.167 HD
ATOM     35  C   UNL A   1      45.571  25.819  31.096  1.00  0.00     0.074 A 
ATOM     36  C   UNL A   1      45.235  24.918  32.180  1.00  0.00     0.031 C 
ATOM     37  C   UNL A   1      45.394  25.577  29.769  1.00  0.00     0.034 A 
BRANCH  24  38
ATOM     38  C   UNL A   1      43.248  22.918  25.577  1.00  0.00     0.023 A 
ATOM     39  C   UNL A   1      43.351  21.510  25.455  1.00  0.00     0.031 A 
ATOM     40  C   UNL A   1      44.057  23.671  24.716  1.00  0.00     0.131 A 
ATOM     41  C   UNL A   1      44.409  20.922  24.758  1.00  0.00     0.055 A 
ATOM     42  C   UNL A   1      45.035  23.066  23.911  1.00  0.00     0.041 A 
ATOM     43  F   UNL A   1      44.001  25.007  24.674  1.00  0.00    -0.206 F 
ATOM     44  C   UNL A   1      45.261  21.693  23.980  1.00  0.00     0.022 A 
BRANCH  41  45
ATOM     45  S   UNL A   1      44.796  19.190  25.146  1.00  0.00     0.124 S 
ATOM     46  O   UNL A   1      43.711  18.848  26.058  1.00  0.00    -0.237 OA
ATOM     47  O   UNL A   1      44.745  18.562  23.829  1.00  0.00    -0.237 OA
ATOM     48  O   UNL A   1      46.124  19.269  25.746  1.00  0.00    -0.744 OA
ENDBRANCH  41  45
ENDBRANCH  24  38
BRANCH  25  49
ATOM     49  C   UNL A   1      44.178  28.349  34.617  1.00  0.00     0.023 A 
ATOM     50  C   UNL A   1      44.245  27.533  35.762  1.00  0.00     0.031 A 
ATOM     51  C   UNL A   1      44.639  29.692  34.840  1.00  0.00     0.131 A 
ATOM     52  C   UNL A   1      44.833  28.036  36.971  1.00  0.00     0.055 A 
ATOM     53  C   UNL A   1      45.312  30.136  35.977  1.00  0.00     0.041 A 
ATOM     54  F   UNL A   1      44.450  30.674  33.950  1.00  0.00    -0.206 F 
ATOM     55  C   UNL A   1      45.431  29.297  37.050  1.00  0.00     0.022 A 
BRANCH  52  56
ATOM     56  S   UNL A   1      44.841  27.080  38.525  1.00  0.00     0.124 S 
ATOM     57  O   UNL A   1      43.469  26.587  38.583  1.00  0.00    -0.237 OA
ATOM     58  O   UNL A   1      45.877  26.080  38.289  1.00  0.00    -0.237 OA
ATOM     59  O   UNL A   1      45.179  28.084  39.534  1.00  0.00    -0.744 OA
ENDBRANCH  52  56
ENDBRANCH  25  49
BRANCH  37  60
ATOM     60  C   UNL A   1      45.617  26.781  28.849  1.00  0.00     0.023 A 
ATOM     61  C   UNL A   1      44.531  27.579  28.437  1.00  0.00     0.031 A 
ATOM     62  C   UNL A   1      46.860  27.114  28.278  1.00  0.00     0.131 A 
ATOM     63  C   UNL A   1      44.700  28.610  27.488  1.00  0.00     0.055 A 
ATOM     64  C   UNL A   1      47.032  28.130  27.326  1.00  0.00     0.041 A 
ATOM     65  F   UNL A   1      47.964  26.459  28.625  1.00  0.00    -0.206 F 
ATOM     66  C   UNL A   1      45.945  28.885  26.922  1.00  0.00     0.022 A 
BRANCH  63  67
ATOM     67  S   UNL A   1      43.272  29.623  27.008  1.00  0.00     0.124 S 
ATOM     68  O   UNL A   1      42.467  28.695  26.224  1.00  0.00    -0.237 OA
ATOM     69  O   UNL A   1      42.717  30.019  28.299  1.00  0.00    -0.237 OA
ATOM     70  O   UNL A   1      43.869  30.718  26.241  1.00  0.00    -0.744 OA
ENDBRANCH  63  67
ENDBRANCH  37  60
ENDBRANCH  11  12
ENDBRANCH   4   6
ENDBRANCH   3   4
ENDBRANCH   2   3
ENDBRANCH   1   2
BRANCH   1  71
ATOM     71  O   UNL A   1      31.908  29.209  25.857  1.00  0.00    -0.374 OA
BRANCH  71  72
ATOM     72  C   UNL A   1      32.443  29.230  24.525  1.00  0.00     0.202 C 
BRANCH  72  73
ATOM     73  C   UNL A   1      33.439  28.137  24.106  1.00  0.00     0.261 C 
BRANCH  73  74
ATOM     74  O   UNL A   1      32.795  26.871  23.860  1.00  0.00    -0.460 OA
BRANCH  74  75
ATOM     75  C   UNL A   1      33.315  26.139  22.836  1.00  0.00     0.342 C 
ATOM     76  O   UNL A   1      33.971  26.542  21.903  1.00  0.00    -0.246 OA
BRANCH  75  77
ATOM     77  C   UNL A   1      33.196  24.700  23.157  1.00  0.00     0.103 A 
ATOM     78  C   UNL A   1      34.353  24.019  23.571  1.00  0.00     0.046 A 
ATOM     79  C   UNL A   1      32.001  24.006  22.989  1.00  0.00     0.130 A 
ATOM     80  C   UNL A   1      34.307  22.640  23.778  1.00  0.00     0.046 A 
ATOM     81  C   UNL A   1      31.969  22.620  23.170  1.00  0.00     0.049 A 
ATOM     82  C   UNL A   1      33.129  21.929  23.538  1.00  0.00     0.030 A 
BRANCH  79  83
ATOM     83  O   UNL A   1      30.869  24.672  22.619  1.00  0.00    -0.507 OA
ATOM     84  H   UNL A   1      30.439  24.456  21.815  1.00  0.00     0.293 HD
ENDBRANCH  79  83
BRANCH  80  85
ATOM     85  N   UNL A   1      35.461  21.964  24.227  1.00  0.00    -0.324 N 
ATOM     86  C   UNL A   1      35.480  20.792  24.949  1.00  0.00     0.091 A 
ATOM     87  C   UNL A   1      36.762  22.372  24.031  1.00  0.00     0.091 A 
ATOM     88  C   UNL A   1      36.792  20.448  25.192  1.00  0.00     0.020 A 
ATOM     89  C   UNL A   1      37.603  21.470  24.648  1.00  0.00     0.020 A 
ENDBRANCH  80  85
ENDBRANCH  75  77
ENDBRANCH  74  75
ENDBRANCH  73  74
ENDBRANCH  72  73
ENDBRANCH  71  72
ENDBRANCH   1  71
TORSDOF 19
ENDMDL
MODEL 2
REMARK VINA RESULT:     -11.2      4.852     11.025
REMARK SMILES O=C(OCCOCCOC(=O)c1cc(-n2cccc2)ccc1O)c1ccc(-c2c3nc(c(-c4cc(S(=O)(=O)[O-])ccc4F)c4ccc([nH]4)c(-c4cc(S(=O)(=O)[O-])ccc4F)c4nc(c(-c5cc(S(=O)(=O)[O-])ccc5F)c5ccc2[nH]5)C=C4)C=C3)cc1
REMARK SMILES IDX 5 1 4 2 3 3 2 4 1 5 24 6 25 7 86 8 26 9 85 10 27 11 28 12
REMARK SMILES IDX 29 13 79 14 30 15 84 16 78 17 80 18 31 19 83 20 77 21 76 22
REMARK SMILES IDX 32 24 64 25 44 26 63 27 45 28 48 29 62 30 81 31 46 32 47 33
REMARK SMILES IDX 61 35 82 36 49 37 33 38 34 39 42 40 35 41 41 42 43 43 40 44
REMARK SMILES IDX 36 45 37 46 38 47 39 48 65 49 66 50 74 51 67 52 73 53 75 54
REMARK SMILES IDX 72 55 68 56 69 57 70 58 71 59 50 60 51 61 59 62 52 63 58 64
REMARK SMILES IDX 60 65 57 66 53 67 54 68 55 69 56 70 6 71 7 72 8 73 9 74
REMARK SMILES IDX 10 75 11 76 12 77 13 78 22 79 14 80 21 81 20 82 23 83 15 85
REMARK SMILES IDX 16 86 19 87 17 88 18 89
REMARK H PARENT 80 23 48 34 23 84
REMARK Flexibility Score: inf
ROOT
ATOM      1  C   UNL A   1      41.417  21.082  27.232  1.00  0.00     0.202 C 
ENDROOT
BRANCH   1   2
ATOM      2  C   UNL A   1      40.145  21.933  27.164  1.00  0.00     0.261 C 
BRANCH   2   3
ATOM      3  O   UNL A   1      40.412  23.323  27.397  1.00  0.00    -0.460 OA
BRANCH   3   4
ATOM      4  C   UNL A   1      39.621  24.353  26.994  1.00  0.00     0.338 C 
ATOM      5  O   UNL A   1      38.645  24.153  26.279  1.00  0.00    -0.246 OA
BRANCH   4   6
ATOM      6  C   UNL A   1      39.818  25.679  27.602  1.00  0.00     0.060 A 
ATOM      7  C   UNL A   1      39.577  25.956  28.948  1.00  0.00     0.016 A 
ATOM      8  C   UNL A   1      40.238  26.694  26.733  1.00  0.00     0.016 A 
ATOM      9  C   UNL A   1      39.491  27.267  29.366  1.00  0.00     0.010 A 
ATOM     10  C   UNL A   1      40.265  28.007  27.171  1.00  0.00     0.010 A 
ATOM     11  C   UNL A   1      39.844  28.285  28.475  1.00  0.00    -0.014 A 
BRANCH  11  12
ATOM     12  C   UNL A   1      40.114  29.595  29.084  1.00  0.00     0.031 A 
ATOM     13  C   UNL A   1      38.740  30.297  29.328  1.00  0.00     0.074 A 
ATOM     14  C   UNL A   1      41.436  29.929  29.237  1.00  0.00     0.049 A 
ATOM     15  N   UNL A   1      38.395  31.545  29.242  1.00  0.00    -0.248 NA
ATOM     16  C   UNL A   1      37.521  29.446  29.549  1.00  0.00     0.031 C 
ATOM     17  C   UNL A   1      42.597  29.057  28.911  1.00  0.00     0.029 A 
ATOM     18  N   UNL A   1      42.089  31.053  29.690  1.00  0.00    -0.354 N 
ATOM     19  C   UNL A   1      37.059  31.639  29.711  1.00  0.00     0.074 A 
ATOM     20  C   UNL A   1      36.521  30.323  29.651  1.00  0.00     0.031 C 
ATOM     21  C   UNL A   1      43.776  29.707  29.093  1.00  0.00     0.029 A 
ATOM     22  C   UNL A   1      43.518  31.048  29.582  1.00  0.00     0.049 A 
ATOM     23  H   UNL A   1      41.601  31.819  30.069  1.00  0.00     0.167 HD
ATOM     24  C   UNL A   1      36.575  32.741  30.360  1.00  0.00     0.034 A 
ATOM     25  C   UNL A   1      44.397  32.077  29.835  1.00  0.00     0.034 A 
ATOM     26  C   UNL A   1      37.598  33.734  30.397  1.00  0.00     0.049 A 
ATOM     27  C   UNL A   1      43.530  33.098  30.448  1.00  0.00     0.074 A 
ATOM     28  C   UNL A   1      38.193  34.495  29.430  1.00  0.00     0.029 A 
ATOM     29  N   UNL A   1      38.380  33.755  31.533  1.00  0.00    -0.354 N 
ATOM     30  N   UNL A   1      43.032  33.027  31.644  1.00  0.00    -0.248 NA
ATOM     31  C   UNL A   1      43.093  34.231  29.621  1.00  0.00     0.031 C 
ATOM     32  C   UNL A   1      39.546  34.475  29.822  1.00  0.00     0.029 A 
ATOM     33  C   UNL A   1      39.667  33.973  31.125  1.00  0.00     0.049 A 
ATOM     34  H   UNL A   1      38.070  33.637  32.461  1.00  0.00     0.167 HD
ATOM     35  C   UNL A   1      41.991  33.916  31.584  1.00  0.00     0.074 A 
ATOM     36  C   UNL A   1      42.294  34.829  30.500  1.00  0.00     0.031 C 
ATOM     37  C   UNL A   1      40.749  33.532  31.982  1.00  0.00     0.034 A 
BRANCH  24  38
ATOM     38  C   UNL A   1      35.413  32.949  31.313  1.00  0.00     0.023 A 
ATOM     39  C   UNL A   1      34.516  33.974  30.925  1.00  0.00     0.031 A 
ATOM     40  C   UNL A   1      35.363  32.564  32.658  1.00  0.00     0.131 A 
ATOM     41  C   UNL A   1      33.862  34.760  31.877  1.00  0.00     0.055 A 
ATOM     42  C   UNL A   1      34.598  33.273  33.598  1.00  0.00     0.041 A 
ATOM     43  F   UNL A   1      36.101  31.557  33.139  1.00  0.00    -0.206 F 
ATOM     44  C   UNL A   1      33.897  34.418  33.222  1.00  0.00     0.022 A 
BRANCH  41  45
ATOM     45  S   UNL A   1      33.236  36.375  31.331  1.00  0.00     0.124 S 
ATOM     46  O   UNL A   1      33.492  36.315  29.897  1.00  0.00    -0.237 OA
ATOM     47  O   UNL A   1      31.833  36.311  31.733  1.00  0.00    -0.237 OA
ATOM     48  O   UNL A   1      34.054  37.323  32.080  1.00  0.00    -0.744 OA
ENDBRANCH  41  45
ENDBRANCH  24  38
BRANCH  25  49
ATOM     49  C   UNL A   1      45.857  32.508  29.633  1.00  0.00     0.023 A 
ATOM     50  C   UNL A   1      46.893  32.564  30.585  1.00  0.00     0.031 A 
ATOM     51  C   UNL A   1      46.283  32.832  28.299  1.00  0.00     0.131 A 
ATOM     52  C   UNL A   1      48.242  32.819  30.167  1.00  0.00     0.055 A 
ATOM     53  C   UNL A   1      47.607  32.963  27.885  1.00  0.00     0.041 A 
ATOM     54  F   UNL A   1      45.418  33.053  27.302  1.00  0.00    -0.206 F 
ATOM     55  C   UNL A   1      48.604  32.937  28.822  1.00  0.00     0.022 A 
BRANCH  52  56
ATOM     56  S   UNL A   1      49.610  33.026  31.354  1.00  0.00     0.124 S 
ATOM     57  O   UNL A   1      50.377  34.107  30.745  1.00  0.00    -0.237 OA
ATOM     58  O   UNL A   1      48.920  33.345  32.599  1.00  0.00    -0.237 OA
ATOM     59  O   UNL A   1      50.269  31.719  31.338  1.00  0.00    -0.744 OA
ENDBRANCH  52  56
ENDBRANCH  25  49
BRANCH  37  60
ATOM     60  C   UNL A   1      40.713  32.386  32.999  1.00  0.00     0.023 A 
ATOM     61  C   UNL A   1      40.629  31.047  32.565  1.00  0.00     0.031 A 
ATOM     62  C   UNL A   1      40.659  32.573  34.392  1.00  0.00     0.131 A 
ATOM     63  C   UNL A   1      40.464  29.990  33.487  1.00  0.00     0.055 A 
ATOM     64  C   UNL A   1      40.483  31.528  35.312  1.00  0.00     0.041 A 
ATOM     65  F   UNL A   1      40.773  33.789  34.919  1.00  0.00    -0.206 F 
ATOM     66  C   UNL A   1      40.381  30.224  34.859  1.00  0.00     0.022 A 
BRANCH  63  67
ATOM     67  S   UNL A   1      40.383  28.282  32.879  1.00  0.00     0.124 S 
ATOM     68  O   UNL A   1      39.068  28.225  32.252  1.00  0.00    -0.237 OA
ATOM     69  O   UNL A   1      41.527  28.213  31.974  1.00  0.00    -0.237 OA
ATOM     70  O   UNL A   1      40.519  27.477  34.094  1.00  0.00    -0.744 OA
ENDBRANCH  63  67
ENDBRANCH  37  60
ENDBRANCH  11  12
ENDBRANCH   4   6
ENDBRANCH   3   4
ENDBRANCH   2   3
ENDBRANCH   1   2
BRANCH   1  71
ATOM     71  O   UNL A   1      41.627  20.080  26.245  1.00  0.00    -0.374 OA
BRANCH  71  72
ATOM     72  C   UNL A   1      42.833  19.306  26.335  1.00  0.00     0.202 C 
BRANCH  72  73
ATOM     73  C   UNL A   1      43.691  19.118  25.074  1.00  0.00     0.261 C 
BRANCH  73  74
ATOM     74  O   UNL A   1      44.205  20.366  24.567  1.00  0.00    -0.460 OA
BRANCH  74  75
ATOM     75  C   UNL A   1      45.255  20.891  25.256  1.00  0.00     0.342 C 
ATOM     76  O   UNL A   1      46.316  20.362  25.494  1.00  0.00    -0.246 OA
BRANCH  75  77
ATOM     77  C   UNL A   1      45.029  22.339  25.459  1.00  0.00     0.103 A 
ATOM     78  C   UNL A   1      44.838  22.798  26.772  1.00  0.00     0.046 A 
ATOM     79  C   UNL A   1      44.931  23.224  24.388  1.00  0.00     0.130 A 
ATOM     80  C   UNL A   1      44.513  24.137  26.995  1.00  0.00     0.046 A 
ATOM     81  C   UNL A   1      44.576  24.557  24.617  1.00  0.00     0.049 A 
ATOM     82  C   UNL A   1      44.340  25.011  25.919  1.00  0.00     0.030 A 
BRANCH  79  83
ATOM     83  O   UNL A   1      45.149  22.785  23.114  1.00  0.00    -0.507 OA
ATOM     84  H   UNL A   1      45.796  22.128  22.950  1.00  0.00     0.293 HD
ENDBRANCH  79  83
BRANCH  80  85
ATOM     85  N   UNL A   1      44.356  24.604  28.317  1.00  0.00    -0.324 N 
ATOM     86  C   UNL A   1      45.226  24.382  29.360  1.00  0.00     0.091 A 
ATOM     87  C   UNL A   1      43.297  25.349  28.789  1.00  0.00     0.091 A 
ATOM     88  C   UNL A   1      44.728  25.003  30.487  1.00  0.00     0.020 A 
ATOM     89  C   UNL A   1      43.486  25.578  30.135  1.00  0.00     0.020 A 
ENDBRANCH  80  85
ENDBRANCH  75  77
ENDBRANCH  74  75
ENDBRANCH  73  74
ENDBRANCH  72  73
ENDBRANCH  71  72
ENDBRANCH   1  71
TORSDOF 19
ENDMDL
MODEL 3
REMARK VINA RESULT:     -10.9      5.120     11.228
REMARK SMILES O=C(OCCOCCOC(=O)c1cc(-n2cccc2)ccc1O)c1ccc(-c2c3nc(c(-c4cc(S(=O)(=O)[O-])ccc4F)c4ccc([nH]4)c(-c4cc(S(=O)(=O)[O-])ccc4F)c4nc(c(-c5cc(S(=O)(=O)[O-])ccc5F)c5ccc2[nH]5)C=C4)C=C3)cc1
REMARK SMILES IDX 5 1 4 2 3 3 2 4 1 5 24 6 25 7 86 8 26 9 85 10 27 11 28 12
REMARK SMILES IDX 29 13 79 14 30 15 84 16 78 17 80 18 31 19 83 20 77 21 76 22
REMARK SMILES IDX 32 24 64 25 44 26 63 27 45 28 48 29 62 30 81 31 46 32 47 33
REMARK SMILES IDX 61 35 82 36 49 37 33 38 34 39 42 40 35 41 41 42 43 43 40 44
REMARK SMILES IDX 36 45 37 46 38 47 39 48 65 49 66 50 74 51 67 52 73 53 75 54
REMARK SMILES IDX 72 55 68 56 69 57 70 58 71 59 50 60 51 61 59 62 52 63 58 64
REMARK SMILES IDX 60 65 57 66 53 67 54 68 55 69 56 70 6 71 7 72 8 73 9 74
REMARK SMILES IDX 10 75 11 76 12 77 13 78 22 79 14 80 21 81 20 82 23 83 15 85
REMARK SMILES IDX 16 86 19 87 17 88 18 89
REMARK H PARENT 80 23 48 34 23 84
REMARK Flexibility Score: inf
ROOT
ATOM      1  C   UNL A   1      42.854  25.073  26.623  1.00  0.00     0.202 C 
ENDROOT
BRANCH   1   2
ATOM      2  C   UNL A   1      41.912  24.046  25.987  1.00  0.00     0.261 C 
BRANCH   2   3
ATOM      3  O   UNL A   1      40.836  23.684  26.864  1.00  0.00    -0.460 OA
BRANCH   3   4
ATOM      4  C   UNL A   1      39.731  24.438  27.104  1.00  0.00     0.338 C 
ATOM      5  O   UNL A   1      38.608  23.951  27.026  1.00  0.00    -0.246 OA
BRANCH   4   6
ATOM      6  C   UNL A   1      39.902  25.786  27.672  1.00  0.00     0.060 A 
ATOM      7  C   UNL A   1      39.945  26.048  29.041  1.00  0.00     0.016 A 
ATOM      8  C   UNL A   1      39.985  26.834  26.745  1.00  0.00     0.016 A 
ATOM      9  C   UNL A   1      39.801  27.344  29.488  1.00  0.00     0.010 A 
ATOM     10  C   UNL A   1      39.954  28.145  27.187  1.00  0.00     0.010 A 
ATOM     11  C   UNL A   1      39.814  28.386  28.556  1.00  0.00    -0.014 A 
BRANCH  11  12
ATOM     12  C   UNL A   1      40.056  29.726  29.109  1.00  0.00     0.031 A 
ATOM     13  C   UNL A   1      38.668  30.396  29.358  1.00  0.00     0.074 A 
ATOM     14  C   UNL A   1      41.371  30.106  29.217  1.00  0.00     0.049 A 
ATOM     15  N   UNL A   1      38.283  31.628  29.233  1.00  0.00    -0.248 NA
ATOM     16  C   UNL A   1      37.481  29.519  29.641  1.00  0.00     0.031 C 
ATOM     17  C   UNL A   1      42.551  29.257  28.897  1.00  0.00     0.029 A 
ATOM     18  N   UNL A   1      41.999  31.266  29.611  1.00  0.00    -0.354 N 
ATOM     19  C   UNL A   1      36.956  31.702  29.729  1.00  0.00     0.074 A 
ATOM     20  C   UNL A   1      36.457  30.368  29.732  1.00  0.00     0.031 C 
ATOM     21  C   UNL A   1      43.712  29.948  29.026  1.00  0.00     0.029 A 
ATOM     22  C   UNL A   1      43.425  31.299  29.469  1.00  0.00     0.049 A 
ATOM     23  H   UNL A   1      41.497  32.031  29.972  1.00  0.00     0.167 HD
ATOM     24  C   UNL A   1      36.452  32.813  30.347  1.00  0.00     0.034 A 
ATOM     25  C   UNL A   1      44.277  32.363  29.662  1.00  0.00     0.034 A 
ATOM     26  C   UNL A   1      37.445  33.836  30.322  1.00  0.00     0.049 A 
ATOM     27  C   UNL A   1      43.394  33.381  30.256  1.00  0.00     0.074 A 
ATOM     28  C   UNL A   1      37.994  34.577  29.312  1.00  0.00     0.029 A 
ATOM     29  N   UNL A   1      38.251  33.925  31.437  1.00  0.00    -0.354 N 
ATOM     30  N   UNL A   1      42.925  33.341  31.465  1.00  0.00    -0.248 NA
ATOM     31  C   UNL A   1      42.903  34.467  29.397  1.00  0.00     0.031 C 
ATOM     32  C   UNL A   1      39.356  34.612  29.672  1.00  0.00     0.029 A 
ATOM     33  C   UNL A   1      39.521  34.165  30.991  1.00  0.00     0.049 A 
ATOM     34  H   UNL A   1      37.966  33.834  32.376  1.00  0.00     0.167 HD
ATOM     35  C   UNL A   1      41.856  34.196  31.396  1.00  0.00     0.074 A 
ATOM     36  C   UNL A   1      42.106  35.075  30.271  1.00  0.00     0.031 C 
ATOM     37  C   UNL A   1      40.635  33.791  31.838  1.00  0.00     0.034 A 
BRANCH  24  38
ATOM     38  C   UNL A   1      35.307  33.023  31.318  1.00  0.00     0.023 A 
ATOM     39  C   UNL A   1      34.403  34.047  30.943  1.00  0.00     0.031 A 
ATOM     40  C   UNL A   1      35.279  32.641  32.666  1.00  0.00     0.131 A 
ATOM     41  C   UNL A   1      33.765  34.835  31.904  1.00  0.00     0.055 A 
ATOM     42  C   UNL A   1      34.529  33.353  33.616  1.00  0.00     0.041 A 
ATOM     43  F   UNL A   1      36.025  31.635  33.136  1.00  0.00    -0.206 F 
ATOM     44  C   UNL A   1      33.822  34.496  33.249  1.00  0.00     0.022 A 
BRANCH  41  45
ATOM     45  S   UNL A   1      33.129  36.448  31.364  1.00  0.00     0.124 S 
ATOM     46  O   UNL A   1      34.032  37.361  32.054  1.00  0.00    -0.237 OA
ATOM     47  O   UNL A   1      33.284  36.369  29.915  1.00  0.00    -0.237 OA
ATOM     48  O   UNL A   1      31.750  36.443  31.843  1.00  0.00    -0.744 OA
ENDBRANCH  41  45
ENDBRANCH  24  38
BRANCH  25  49
ATOM     49  C   UNL A   1      45.718  32.830  29.409  1.00  0.00     0.023 A 
ATOM     50  C   UNL A   1      46.390  32.968  28.180  1.00  0.00     0.031 A 
ATOM     51  C   UNL A   1      46.492  33.264  30.540  1.00  0.00     0.131 A 
ATOM     52  C   UNL A   1      47.680  33.595  28.131  1.00  0.00     0.055 A 
ATOM     53  C   UNL A   1      47.689  33.975  30.473  1.00  0.00     0.041 A 
ATOM     54  F   UNL A   1      46.126  33.010  31.802  1.00  0.00    -0.206 F 
ATOM     55  C   UNL A   1      48.285  34.163  29.256  1.00  0.00     0.022 A 
BRANCH  52  56
ATOM     56  S   UNL A   1      48.659  33.698  26.596  1.00  0.00     0.124 S 
ATOM     57  O   UNL A   1      49.709  34.640  26.970  1.00  0.00    -0.237 OA
ATOM     58  O   UNL A   1      49.078  32.317  26.380  1.00  0.00    -0.237 OA
ATOM     59  O   UNL A   1      47.696  34.205  25.617  1.00  0.00    -0.744 OA
ENDBRANCH  52  56
ENDBRANCH  25  49
BRANCH  37  60
ATOM     60  C   UNL A   1      40.658  32.684  32.898  1.00  0.00     0.023 A 
ATOM     61  C   UNL A   1      40.588  31.329  32.520  1.00  0.00     0.031 A 
ATOM     62  C   UNL A   1      40.646  32.925  34.284  1.00  0.00     0.131 A 
ATOM     63  C   UNL A   1      40.476  30.305  33.486  1.00  0.00     0.055 A 
ATOM     64  C   UNL A   1      40.523  31.913  35.249  1.00  0.00     0.041 A 
ATOM     65  F   UNL A   1      40.751  34.162  34.761  1.00  0.00    -0.206 F 
ATOM     66  C   UNL A   1      40.434  30.591  34.850  1.00  0.00     0.022 A 
BRANCH  63  67
ATOM     67  S   UNL A   1      40.412  28.573  32.946  1.00  0.00     0.124 S 
ATOM     68  O   UNL A   1      39.094  28.476  32.331  1.00  0.00    -0.237 OA
ATOM     69  O   UNL A   1      41.551  28.482  32.038  1.00  0.00    -0.237 OA
ATOM     70  O   UNL A   1      40.565  27.819  34.192  1.00  0.00    -0.744 OA
ENDBRANCH  63  67
ENDBRANCH  37  60
ENDBRANCH  11  12
ENDBRANCH   4   6
ENDBRANCH   3   4
ENDBRANCH   2   3
ENDBRANCH   1   2
BRANCH   1  71
ATOM     71  O   UNL A   1      43.302  24.862  27.956  1.00  0.00    -0.374 OA
BRANCH  71  72
ATOM     72  C   UNL A   1      44.226  25.815  28.502  1.00  0.00     0.202 C 
BRANCH  72  73
ATOM     73  C   UNL A   1      45.614  25.332  28.951  1.00  0.00     0.261 C 
BRANCH  73  74
ATOM     74  O   UNL A   1      45.958  24.048  28.391  1.00  0.00    -0.460 OA
BRANCH  74  75
ATOM     75  C   UNL A   1      46.742  24.085  27.278  1.00  0.00     0.342 C 
ATOM     76  O   UNL A   1      47.911  24.386  27.213  1.00  0.00    -0.246 OA
BRANCH  75  77
ATOM     77  C   UNL A   1      46.027  23.437  26.157  1.00  0.00     0.103 A 
ATOM     78  C   UNL A   1      45.234  22.313  26.444  1.00  0.00     0.046 A 
ATOM     79  C   UNL A   1      46.181  23.864  24.841  1.00  0.00     0.130 A 
ATOM     80  C   UNL A   1      44.632  21.608  25.401  1.00  0.00     0.046 A 
ATOM     81  C   UNL A   1      45.599  23.136  23.799  1.00  0.00     0.049 A 
ATOM     82  C   UNL A   1      44.846  21.989  24.074  1.00  0.00     0.030 A 
BRANCH  79  83
ATOM     83  O   UNL A   1      46.925  24.975  24.565  1.00  0.00    -0.507 OA
ATOM     84  H   UNL A   1      46.937  25.328  23.698  1.00  0.00     0.293 HD
ENDBRANCH  79  83
BRANCH  80  85
ATOM     85  N   UNL A   1      43.807  20.501  25.694  1.00  0.00    -0.324 N 
ATOM     86  C   UNL A   1      42.604  20.545  26.360  1.00  0.00     0.091 A 
ATOM     87  C   UNL A   1      44.077  19.188  25.374  1.00  0.00     0.091 A 
ATOM     88  C   UNL A   1      42.102  19.264  26.444  1.00  0.00     0.020 A 
ATOM     89  C   UNL A   1      43.054  18.400  25.857  1.00  0.00     0.020 A 
ENDBRANCH  80  85
ENDBRANCH  75  77
ENDBRANCH  74  75
ENDBRANCH  73  74
ENDBRANCH  72  73
ENDBRANCH  71  72
ENDBRANCH   1  71
TORSDOF 19
ENDMDL
