MODEL 1
REMARK VINA RESULT:      -9.8      0.000      0.000
REMARK SMILES CS(=O)(=O)c1ccc(C2=NN(c3ccc(C(=O)OCCOCCOC(=O)c4ccc(-c5c6nc(c(-c7cc(S(=O)(=O)[O-])ccc7F)c7ccc([nH]7)c(-c7cc(S(=O)(=O)[O-])ccc7F)c7nc(c(-c8cc(S(=O)(=O)[O-])ccc8F)c8ccc5[nH]8)C=C7)C=C6)cc4)cc3)[C@H](c3ccccc3)C2)cc1
REMARK SMILES IDX 21 1 20 2 19 3 18 4 16 5 17 6 15 7 12 8 13 9 91 10 14 11
REMARK SMILES IDX 90 12 11 13 9 14 10 15 99 16 92 17 8 18 5 19 6 20 101 21
REMARK SMILES IDX 7 22 100 23 2 24 1 25 3 26 4 27 93 28 94 29 98 30 95 31
REMARK SMILES IDX 97 32 96 33 22 34 23 35 24 36 25 37 26 38 27 39 28 40 89 41
REMARK SMILES IDX 29 42 88 43 30 44 31 45 32 46 82 47 33 48 87 49 81 50 83 51
REMARK SMILES IDX 34 52 86 53 80 54 79 55 35 57 67 58 47 59 66 60 48 61 51 62
REMARK SMILES IDX 65 63 84 64 49 65 50 66 64 68 85 69 52 70 36 71 37 72 45 73
REMARK SMILES IDX 38 74 44 75 46 76 43 77 39 78 40 79 41 80 42 81 68 82 69 83
REMARK SMILES IDX 77 84 70 85 76 86 78 87 75 88 71 89 72 90 73 91 74 92 53 93
REMARK SMILES IDX 54 94 62 95 55 96 61 97 63 98 60 99 56 100 57 101 58 102
REMARK SMILES IDX 59 103
REMARK H PARENT 83 56 51 67
REMARK Flexibility Score: inf
ROOT
ATOM      1  O   UNL A   1      43.294  19.974  26.153  1.00  0.00    -0.374 OA
ENDROOT
BRANCH   1   2
ATOM      2  C   UNL A   1      44.195  19.802  25.058  1.00  0.00     0.202 C 
BRANCH   2   3
ATOM      3  C   UNL A   1      44.783  21.085  24.465  1.00  0.00     0.261 C 
BRANCH   3   4
ATOM      4  O   UNL A   1      44.631  22.183  25.379  1.00  0.00    -0.460 OA
BRANCH   4   5
ATOM      5  C   UNL A   1      45.674  23.042  25.440  1.00  0.00     0.338 C 
ATOM      6  O   UNL A   1      46.380  23.403  24.509  1.00  0.00    -0.246 OA
BRANCH   5   7
ATOM      7  C   UNL A   1      45.815  23.594  26.811  1.00  0.00     0.060 A 
ATOM      8  C   UNL A   1      45.829  24.771  29.358  1.00  0.00     0.060 A 
ATOM      9  C   UNL A   1      44.837  23.848  29.016  1.00  0.00     0.029 A 
ATOM     10  C   UNL A   1      46.882  24.998  28.460  1.00  0.00     0.029 A 
ATOM     11  C   UNL A   1      44.824  23.268  27.748  1.00  0.00     0.018 A 
ATOM     12  C   UNL A   1      46.876  24.424  27.187  1.00  0.00     0.018 A 
BRANCH   8  13
ATOM     13  N   UNL A   1      45.687  25.601  30.473  1.00  0.00    -0.257 N 
ATOM     14  C   UNL A   1      44.573  27.050  31.562  1.00  0.00     0.071 C 
ATOM     15  N   UNL A   1      44.455  25.914  30.946  1.00  0.00    -0.176 NA
ATOM     16  C   UNL A   1      45.906  27.735  31.424  1.00  0.00     0.091 C 
ATOM     17  C   UNL A   1      46.699  26.649  30.688  1.00  0.00     0.144 C 
BRANCH  14  18
ATOM     18  C   UNL A   1      43.484  27.637  32.368  1.00  0.00    -0.002 A 
ATOM     19  C   UNL A   1      41.531  28.885  33.918  1.00  0.00     0.067 A 
ATOM     20  C   UNL A   1      42.815  28.701  34.439  1.00  0.00     0.021 A 
ATOM     21  C   UNL A   1      41.211  28.435  32.632  1.00  0.00     0.021 A 
ATOM     22  C   UNL A   1      43.788  28.070  33.663  1.00  0.00     0.011 A 
ATOM     23  C   UNL A   1      42.195  27.813  31.853  1.00  0.00     0.011 A 
BRANCH  19  24
ATOM     24  S   UNL A   1      40.324  29.723  34.922  1.00  0.00     0.175 S 
ATOM     25  C   UNL A   1      40.740  31.442  34.867  1.00  0.00     0.163 C 
ATOM     26  O   UNL A   1      40.523  29.256  36.280  1.00  0.00    -0.224 OA
ATOM     27  O   UNL A   1      39.041  29.582  34.260  1.00  0.00    -0.224 OA
ENDBRANCH  19  24
ENDBRANCH  14  18
BRANCH  17  28
ATOM     28  C   UNL A   1      47.928  26.068  31.372  1.00  0.00    -0.023 A 
ATOM     29  C   UNL A   1      49.239  26.270  30.921  1.00  0.00     0.006 A 
ATOM     30  C   UNL A   1      47.750  25.365  32.583  1.00  0.00     0.006 A 
ATOM     31  C   UNL A   1      50.330  25.793  31.657  1.00  0.00     0.000 A 
ATOM     32  C   UNL A   1      48.839  24.927  33.337  1.00  0.00     0.000 A 
ATOM     33  C   UNL A   1      50.131  25.137  32.870  1.00  0.00     0.000 A 
ENDBRANCH  17  28
ENDBRANCH   8  13
ENDBRANCH   5   7
ENDBRANCH   4   5
ENDBRANCH   3   4
ENDBRANCH   2   3
ENDBRANCH   1   2
BRANCH   1  34
ATOM     34  C   UNL A   1      42.074  19.232  26.118  1.00  0.00     0.202 C 
BRANCH  34  35
ATOM     35  C   UNL A   1      40.791  19.993  26.469  1.00  0.00     0.261 C 
BRANCH  35  36
ATOM     36  O   UNL A   1      41.013  21.407  26.611  1.00  0.00    -0.460 OA
BRANCH  36  37
ATOM     37  C   UNL A   1      39.901  22.169  26.474  1.00  0.00     0.338 C 
ATOM     38  O   UNL A   1      38.812  21.806  26.049  1.00  0.00    -0.246 OA
BRANCH  37  39
ATOM     39  C   UNL A   1      40.112  23.494  27.088  1.00  0.00     0.060 A 
ATOM     40  C   UNL A   1      39.354  24.561  26.591  1.00  0.00     0.016 A 
ATOM     41  C   UNL A   1      41.073  23.708  28.079  1.00  0.00     0.016 A 
ATOM     42  C   UNL A   1      39.587  25.856  27.047  1.00  0.00     0.010 A 
ATOM     43  C   UNL A   1      41.310  25.012  28.531  1.00  0.00     0.010 A 
ATOM     44  C   UNL A   1      40.591  26.096  27.993  1.00  0.00    -0.014 A 
BRANCH  44  45
ATOM     45  C   UNL A   1      40.981  27.494  28.305  1.00  0.00     0.031 A 
ATOM     46  C   UNL A   1      42.414  27.912  28.120  1.00  0.00     0.074 A 
ATOM     47  C   UNL A   1      40.061  28.390  28.711  1.00  0.00     0.049 A 
ATOM     48  N   UNL A   1      42.981  29.068  28.349  1.00  0.00    -0.248 NA
ATOM     49  C   UNL A   1      43.332  26.882  27.609  1.00  0.00     0.031 C 
ATOM     50  C   UNL A   1      38.636  28.113  28.884  1.00  0.00     0.029 A 
ATOM     51  N   UNL A   1      40.191  29.712  29.053  1.00  0.00    -0.354 N 
ATOM     52  C   UNL A   1      44.320  28.909  28.012  1.00  0.00     0.074 A 
ATOM     53  C   UNL A   1      44.487  27.530  27.603  1.00  0.00     0.031 C 
ATOM     54  C   UNL A   1      38.024  29.232  29.307  1.00  0.00     0.029 A 
ATOM     55  C   UNL A   1      39.017  30.293  29.471  1.00  0.00     0.049 A 
ATOM     56  H   UNL A   1      41.045  30.200  29.003  1.00  0.00     0.167 HD
ATOM     57  C   UNL A   1      45.316  29.829  28.033  1.00  0.00     0.034 A 
ATOM     58  C   UNL A   1      38.776  31.529  29.952  1.00  0.00     0.034 A 
ATOM     59  C   UNL A   1      45.136  31.197  28.456  1.00  0.00     0.049 A 
ATOM     60  C   UNL A   1      39.919  32.511  30.051  1.00  0.00     0.074 A 
ATOM     61  C   UNL A   1      46.072  32.216  28.501  1.00  0.00     0.029 A 
ATOM     62  N   UNL A   1      43.943  31.735  28.922  1.00  0.00    -0.354 N 
ATOM     63  N   UNL A   1      41.180  32.351  29.719  1.00  0.00    -0.248 NA
ATOM     64  C   UNL A   1      39.603  33.843  30.583  1.00  0.00     0.031 C 
ATOM     65  C   UNL A   1      45.466  33.346  29.063  1.00  0.00     0.029 A 
ATOM     66  C   UNL A   1      44.129  33.059  29.292  1.00  0.00     0.049 A 
ATOM     67  H   UNL A   1      43.090  31.248  28.982  1.00  0.00     0.167 HD
ATOM     68  C   UNL A   1      41.798  33.574  29.974  1.00  0.00     0.074 A 
ATOM     69  C   UNL A   1      40.770  34.462  30.473  1.00  0.00     0.031 C 
ATOM     70  C   UNL A   1      43.098  33.931  29.804  1.00  0.00     0.034 A 
BRANCH  57  71
ATOM     71  C   UNL A   1      46.697  29.364  27.636  1.00  0.00     0.023 A 
ATOM     72  C   UNL A   1      46.986  28.923  26.332  1.00  0.00     0.031 A 
ATOM     73  C   UNL A   1      47.735  29.334  28.584  1.00  0.00     0.131 A 
ATOM     74  C   UNL A   1      48.255  28.407  26.032  1.00  0.00     0.055 A 
ATOM     75  C   UNL A   1      49.019  28.892  28.259  1.00  0.00     0.041 A 
ATOM     76  F   UNL A   1      47.515  29.721  29.851  1.00  0.00    -0.206 F 
ATOM     77  C   UNL A   1      49.281  28.411  26.980  1.00  0.00     0.022 A 
BRANCH  74  78
ATOM     78  S   UNL A   1      48.507  27.599  24.427  1.00  0.00     0.124 S 
ATOM     79  O   UNL A   1      48.336  26.190  24.775  1.00  0.00    -0.237 OA
ATOM     80  O   UNL A   1      47.454  28.188  23.608  1.00  0.00    -0.237 OA
ATOM     81  O   UNL A   1      49.871  27.981  24.061  1.00  0.00    -0.744 OA
ENDBRANCH  74  78
ENDBRANCH  57  71
BRANCH  58  82
ATOM     82  C   UNL A   1      37.411  31.905  30.421  1.00  0.00     0.023 A 
ATOM     83  C   UNL A   1      36.472  32.476  29.549  1.00  0.00     0.031 A 
ATOM     84  C   UNL A   1      37.047  31.748  31.771  1.00  0.00     0.131 A 
ATOM     85  C   UNL A   1      35.233  32.913  30.043  1.00  0.00     0.055 A 
ATOM     86  C   UNL A   1      35.793  32.135  32.247  1.00  0.00     0.041 A 
ATOM     87  F   UNL A   1      37.908  31.209  32.649  1.00  0.00    -0.206 F 
ATOM     88  C   UNL A   1      34.882  32.734  31.384  1.00  0.00     0.022 A 
BRANCH  85  89
ATOM     89  S   UNL A   1      34.113  33.800  28.925  1.00  0.00     0.124 S 
ATOM     90  O   UNL A   1      35.032  34.702  28.240  1.00  0.00    -0.237 OA
ATOM     91  O   UNL A   1      33.565  32.712  28.122  1.00  0.00    -0.237 OA
ATOM     92  O   UNL A   1      33.166  34.442  29.832  1.00  0.00    -0.744 OA
ENDBRANCH  85  89
ENDBRANCH  58  82
BRANCH  70  93
ATOM     93  C   UNL A   1      43.464  35.361  30.124  1.00  0.00     0.023 A 
ATOM     94  C   UNL A   1      43.314  36.394  29.182  1.00  0.00     0.031 A 
ATOM     95  C   UNL A   1      43.982  35.692  31.389  1.00  0.00     0.131 A 
ATOM     96  C   UNL A   1      43.730  37.697  29.499  1.00  0.00     0.055 A 
ATOM     97  C   UNL A   1      44.337  37.001  31.720  1.00  0.00     0.041 A 
ATOM     98  F   UNL A   1      44.149  34.747  32.328  1.00  0.00    -0.206 F 
ATOM     99  C   UNL A   1      44.224  38.010  30.768  1.00  0.00     0.022 A 
BRANCH  96 100
ATOM    100  S   UNL A   1      43.704  38.962  28.199  1.00  0.00     0.124 S 
ATOM    101  O   UNL A   1      42.903  38.316  27.163  1.00  0.00    -0.237 OA
ATOM    102  O   UNL A   1      43.078  40.093  28.876  1.00  0.00    -0.237 OA
ATOM    103  O   UNL A   1      45.116  39.143  27.868  1.00  0.00    -0.744 OA
ENDBRANCH  96 100
ENDBRANCH  70  93
ENDBRANCH  44  45
ENDBRANCH  37  39
ENDBRANCH  36  37
ENDBRANCH  35  36
ENDBRANCH  34  35
ENDBRANCH   1  34
TORSDOF 21
ENDMDL
MODEL 2
REMARK VINA RESULT:      -9.7      5.741     13.675
REMARK SMILES CS(=O)(=O)c1ccc(C2=NN(c3ccc(C(=O)OCCOCCOC(=O)c4ccc(-c5c6nc(c(-c7cc(S(=O)(=O)[O-])ccc7F)c7ccc([nH]7)c(-c7cc(S(=O)(=O)[O-])ccc7F)c7nc(c(-c8cc(S(=O)(=O)[O-])ccc8F)c8ccc5[nH]8)C=C7)C=C6)cc4)cc3)[C@H](c3ccccc3)C2)cc1
REMARK SMILES IDX 21 1 20 2 19 3 18 4 16 5 17 6 15 7 12 8 13 9 91 10 14 11
REMARK SMILES IDX 90 12 11 13 9 14 10 15 99 16 92 17 8 18 5 19 6 20 101 21
REMARK SMILES IDX 7 22 100 23 2 24 1 25 3 26 4 27 93 28 94 29 98 30 95 31
REMARK SMILES IDX 97 32 96 33 22 34 23 35 24 36 25 37 26 38 27 39 28 40 89 41
REMARK SMILES IDX 29 42 88 43 30 44 31 45 32 46 82 47 33 48 87 49 81 50 83 51
REMARK SMILES IDX 34 52 86 53 80 54 79 55 35 57 67 58 47 59 66 60 48 61 51 62
REMARK SMILES IDX 65 63 84 64 49 65 50 66 64 68 85 69 52 70 36 71 37 72 45 73
REMARK SMILES IDX 38 74 44 75 46 76 43 77 39 78 40 79 41 80 42 81 68 82 69 83
REMARK SMILES IDX 77 84 70 85 76 86 78 87 75 88 71 89 72 90 73 91 74 92 53 93
REMARK SMILES IDX 54 94 62 95 55 96 61 97 63 98 60 99 56 100 57 101 58 102
REMARK SMILES IDX 59 103
REMARK H PARENT 83 56 51 67
REMARK Flexibility Score: inf
ROOT
ATOM      1  O   UNL A   1      34.784  34.558  28.377  1.00  0.00    -0.374 OA
ENDROOT
BRANCH   1   2
ATOM      2  C   UNL A   1      35.427  33.282  28.361  1.00  0.00     0.202 C 
BRANCH   2   3
ATOM      3  C   UNL A   1      34.600  32.108  28.893  1.00  0.00     0.261 C 
BRANCH   3   4
ATOM      4  O   UNL A   1      34.451  31.094  27.887  1.00  0.00    -0.460 OA
BRANCH   4   5
ATOM      5  C   UNL A   1      33.222  31.001  27.329  1.00  0.00     0.338 C 
ATOM      6  O   UNL A   1      32.437  31.918  27.131  1.00  0.00    -0.246 OA
BRANCH   5   7
ATOM      7  C   UNL A   1      32.959  29.611  26.877  1.00  0.00     0.060 A 
ATOM      8  C   UNL A   1      32.420  27.095  25.760  1.00  0.00     0.060 A 
ATOM      9  C   UNL A   1      33.538  27.822  25.345  1.00  0.00     0.029 A 
ATOM     10  C   UNL A   1      31.652  27.582  26.827  1.00  0.00     0.029 A 
ATOM     11  C   UNL A   1      33.803  29.077  25.894  1.00  0.00     0.018 A 
ATOM     12  C   UNL A   1      31.908  28.838  27.381  1.00  0.00     0.018 A 
BRANCH   8  13
ATOM     13  N   UNL A   1      31.948  26.011  25.015  1.00  0.00    -0.257 N 
ATOM     14  C   UNL A   1      32.220  24.046  24.246  1.00  0.00     0.071 C 
ATOM     15  N   UNL A   1      32.315  24.744  25.335  1.00  0.00    -0.176 NA
ATOM     16  C   UNL A   1      31.931  24.825  22.991  1.00  0.00     0.091 C 
ATOM     17  C   UNL A   1      31.685  26.218  23.581  1.00  0.00     0.144 C 
BRANCH  14  18
ATOM     18  C   UNL A   1      32.364  22.577  24.225  1.00  0.00    -0.002 A 
ATOM     19  C   UNL A   1      32.716  19.817  24.030  1.00  0.00     0.067 A 
ATOM     20  C   UNL A   1      32.078  20.509  22.996  1.00  0.00     0.021 A 
ATOM     21  C   UNL A   1      33.165  20.493  25.169  1.00  0.00     0.021 A 
ATOM     22  C   UNL A   1      31.898  21.889  23.099  1.00  0.00     0.011 A 
ATOM     23  C   UNL A   1      32.992  21.881  25.263  1.00  0.00     0.011 A 
BRANCH  19  24
ATOM     24  S   UNL A   1      32.958  18.063  23.850  1.00  0.00     0.175 S 
ATOM     25  C   UNL A   1      34.615  17.735  24.378  1.00  0.00     0.163 C 
ATOM     26  O   UNL A   1      32.874  17.780  22.430  1.00  0.00    -0.224 OA
ATOM     27  O   UNL A   1      32.079  17.409  24.800  1.00  0.00    -0.224 OA
ENDBRANCH  19  24
ENDBRANCH  14  18
BRANCH  17  28
ATOM     28  C   UNL A   1      30.318  26.855  23.379  1.00  0.00    -0.023 A 
ATOM     29  C   UNL A   1      29.126  26.317  23.884  1.00  0.00     0.006 A 
ATOM     30  C   UNL A   1      30.252  28.106  22.730  1.00  0.00     0.006 A 
ATOM     31  C   UNL A   1      27.917  27.009  23.750  1.00  0.00     0.000 A 
ATOM     32  C   UNL A   1      29.054  28.814  22.633  1.00  0.00     0.000 A 
ATOM     33  C   UNL A   1      27.883  28.261  23.140  1.00  0.00     0.000 A 
ENDBRANCH  17  28
ENDBRANCH   8  13
ENDBRANCH   5   7
ENDBRANCH   4   5
ENDBRANCH   3   4
ENDBRANCH   2   3
ENDBRANCH   1   2
BRANCH   1  34
ATOM     34  C   UNL A   1      33.412  34.591  28.772  1.00  0.00     0.202 C 
BRANCH  34  35
ATOM     35  C   UNL A   1      33.088  35.303  30.091  1.00  0.00     0.261 C 
BRANCH  35  36
ATOM     36  O   UNL A   1      33.519  34.553  31.239  1.00  0.00    -0.460 OA
BRANCH  36  37
ATOM     37  C   UNL A   1      34.196  35.277  32.163  1.00  0.00     0.338 C 
ATOM     38  O   UNL A   1      33.845  36.339  32.662  1.00  0.00    -0.246 OA
BRANCH  37  39
ATOM     39  C   UNL A   1      35.365  34.520  32.648  1.00  0.00     0.060 A 
ATOM     40  C   UNL A   1      36.632  34.971  32.256  1.00  0.00     0.016 A 
ATOM     41  C   UNL A   1      35.232  33.359  33.413  1.00  0.00     0.016 A 
ATOM     42  C   UNL A   1      37.768  34.236  32.584  1.00  0.00     0.010 A 
ATOM     43  C   UNL A   1      36.376  32.618  33.736  1.00  0.00     0.010 A 
ATOM     44  C   UNL A   1      37.645  33.036  33.294  1.00  0.00    -0.014 A 
BRANCH  44  45
ATOM     45  C   UNL A   1      38.829  32.153  33.445  1.00  0.00     0.031 A 
ATOM     46  C   UNL A   1      39.704  32.306  34.659  1.00  0.00     0.074 A 
ATOM     47  C   UNL A   1      39.098  31.201  32.532  1.00  0.00     0.049 A 
ATOM     48  N   UNL A   1      40.795  31.663  34.986  1.00  0.00    -0.248 NA
ATOM     49  C   UNL A   1      39.293  33.329  35.634  1.00  0.00     0.031 C 
ATOM     50  C   UNL A   1      38.297  30.928  31.340  1.00  0.00     0.029 A 
ATOM     51  N   UNL A   1      40.121  30.289  32.467  1.00  0.00    -0.354 N 
ATOM     52  C   UNL A   1      41.203  32.199  36.203  1.00  0.00     0.074 A 
ATOM     53  C   UNL A   1      40.263  33.250  36.532  1.00  0.00     0.031 C 
ATOM     54  C   UNL A   1      38.865  29.919  30.656  1.00  0.00     0.029 A 
ATOM     55  C   UNL A   1      40.087  29.500  31.341  1.00  0.00     0.049 A 
ATOM     56  H   UNL A   1      40.815  30.206  33.162  1.00  0.00     0.167 HD
ATOM     57  C   UNL A   1      42.257  31.842  36.977  1.00  0.00     0.034 A 
ATOM     58  C   UNL A   1      40.955  28.566  30.901  1.00  0.00     0.034 A 
ATOM     59  C   UNL A   1      43.193  30.800  36.628  1.00  0.00     0.049 A 
ATOM     60  C   UNL A   1      42.171  28.246  31.737  1.00  0.00     0.074 A 
ATOM     61  C   UNL A   1      44.286  30.346  37.346  1.00  0.00     0.029 A 
ATOM     62  N   UNL A   1      43.156  30.058  35.454  1.00  0.00    -0.354 N 
ATOM     63  N   UNL A   1      42.540  28.754  32.891  1.00  0.00    -0.248 NA
ATOM     64  C   UNL A   1      43.085  27.223  31.212  1.00  0.00     0.031 C 
ATOM     65  C   UNL A   1      44.951  29.385  36.576  1.00  0.00     0.029 A 
ATOM     66  C   UNL A   1      44.227  29.178  35.411  1.00  0.00     0.049 A 
ATOM     67  H   UNL A   1      42.470  30.145  34.754  1.00  0.00     0.167 HD
ATOM     68  C   UNL A   1      43.711  28.086  33.243  1.00  0.00     0.074 A 
ATOM     69  C   UNL A   1      43.978  27.133  32.187  1.00  0.00     0.031 C 
ATOM     70  C   UNL A   1      44.492  28.243  34.343  1.00  0.00     0.034 A 
BRANCH  57  71
ATOM     71  C   UNL A   1      42.478  32.624  38.250  1.00  0.00     0.023 A 
ATOM     72  C   UNL A   1      41.905  32.232  39.472  1.00  0.00     0.031 A 
ATOM     73  C   UNL A   1      43.253  33.799  38.234  1.00  0.00     0.131 A 
ATOM     74  C   UNL A   1      42.054  33.041  40.609  1.00  0.00     0.055 A 
ATOM     75  C   UNL A   1      43.463  34.559  39.387  1.00  0.00     0.041 A 
ATOM     76  F   UNL A   1      43.807  34.237  37.093  1.00  0.00    -0.206 F 
ATOM     77  C   UNL A   1      42.850  34.189  40.580  1.00  0.00     0.022 A 
BRANCH  74  78
ATOM     78  S   UNL A   1      41.080  32.650  42.088  1.00  0.00     0.124 S 
ATOM     79  O   UNL A   1      40.625  33.975  42.501  1.00  0.00    -0.237 OA
ATOM     80  O   UNL A   1      40.055  31.756  41.564  1.00  0.00    -0.237 OA
ATOM     81  O   UNL A   1      42.053  32.027  42.985  1.00  0.00    -0.744 OA
ENDBRANCH  74  78
ENDBRANCH  57  71
BRANCH  58  82
ATOM     82  C   UNL A   1      40.738  27.891  29.589  1.00  0.00     0.023 A 
ATOM     83  C   UNL A   1      41.546  28.180  28.479  1.00  0.00     0.031 A 
ATOM     84  C   UNL A   1      39.676  26.985  29.414  1.00  0.00     0.131 A 
ATOM     85  C   UNL A   1      41.252  27.606  27.231  1.00  0.00     0.055 A 
ATOM     86  C   UNL A   1      39.421  26.376  28.184  1.00  0.00     0.041 A 
ATOM     87  F   UNL A   1      38.871  26.675  30.442  1.00  0.00    -0.206 F 
ATOM     88  C   UNL A   1      40.204  26.695  27.080  1.00  0.00     0.022 A 
BRANCH  85  89
ATOM     89  S   UNL A   1      42.211  28.133  25.784  1.00  0.00     0.124 S 
ATOM     90  O   UNL A   1      41.964  27.039  24.851  1.00  0.00    -0.237 OA
ATOM     91  O   UNL A   1      41.585  29.409  25.457  1.00  0.00    -0.237 OA
ATOM     92  O   UNL A   1      43.576  28.222  26.296  1.00  0.00    -0.744 OA
ENDBRANCH  85  89
ENDBRANCH  58  82
BRANCH  70  93
ATOM     93  C   UNL A   1      45.686  27.327  34.474  1.00  0.00     0.023 A 
ATOM     94  C   UNL A   1      45.590  26.063  35.084  1.00  0.00     0.031 A 
ATOM     95  C   UNL A   1      46.943  27.731  33.990  1.00  0.00     0.131 A 
ATOM     96  C   UNL A   1      46.739  25.274  35.244  1.00  0.00     0.055 A 
ATOM     97  C   UNL A   1      48.071  26.916  34.096  1.00  0.00     0.041 A 
ATOM     98  F   UNL A   1      47.096  28.928  33.400  1.00  0.00    -0.206 F 
ATOM     99  C   UNL A   1      47.976  25.685  34.739  1.00  0.00     0.022 A 
BRANCH  96 100
ATOM    100  S   UNL A   1      46.618  23.740  36.206  1.00  0.00     0.124 S 
ATOM    101  O   UNL A   1      46.356  24.245  37.550  1.00  0.00    -0.237 OA
ATOM    102  O   UNL A   1      45.508  23.051  35.556  1.00  0.00    -0.237 OA
ATOM    103  O   UNL A   1      47.926  23.116  36.022  1.00  0.00    -0.744 OA
ENDBRANCH  96 100
ENDBRANCH  70  93
ENDBRANCH  44  45
ENDBRANCH  37  39
ENDBRANCH  36  37
ENDBRANCH  35  36
ENDBRANCH  34  35
ENDBRANCH   1  34
TORSDOF 21
ENDMDL
MODEL 3
REMARK VINA RESULT:      -9.4      5.388      9.679
REMARK SMILES CS(=O)(=O)c1ccc(C2=NN(c3ccc(C(=O)OCCOCCOC(=O)c4ccc(-c5c6nc(c(-c7cc(S(=O)(=O)[O-])ccc7F)c7ccc([nH]7)c(-c7cc(S(=O)(=O)[O-])ccc7F)c7nc(c(-c8cc(S(=O)(=O)[O-])ccc8F)c8ccc5[nH]8)C=C7)C=C6)cc4)cc3)[C@H](c3ccccc3)C2)cc1
REMARK SMILES IDX 21 1 20 2 19 3 18 4 16 5 17 6 15 7 12 8 13 9 91 10 14 11
REMARK SMILES IDX 90 12 11 13 9 14 10 15 99 16 92 17 8 18 5 19 6 20 101 21
REMARK SMILES IDX 7 22 100 23 2 24 1 25 3 26 4 27 93 28 94 29 98 30 95 31
REMARK SMILES IDX 97 32 96 33 22 34 23 35 24 36 25 37 26 38 27 39 28 40 89 41
REMARK SMILES IDX 29 42 88 43 30 44 31 45 32 46 82 47 33 48 87 49 81 50 83 51
REMARK SMILES IDX 34 52 86 53 80 54 79 55 35 57 67 58 47 59 66 60 48 61 51 62
REMARK SMILES IDX 65 63 84 64 49 65 50 66 64 68 85 69 52 70 36 71 37 72 45 73
REMARK SMILES IDX 38 74 44 75 46 76 43 77 39 78 40 79 41 80 42 81 68 82 69 83
REMARK SMILES IDX 77 84 70 85 76 86 78 87 75 88 71 89 72 90 73 91 74 92 53 93
REMARK SMILES IDX 54 94 62 95 55 96 61 97 63 98 60 99 56 100 57 101 58 102
REMARK SMILES IDX 59 103
REMARK H PARENT 83 56 51 67
REMARK Flexibility Score: inf
ROOT
ATOM      1  O   UNL A   1      42.469  23.193  26.325  1.00  0.00    -0.374 OA
ENDROOT
BRANCH   1   2
ATOM      2  C   UNL A   1      41.541  22.115  26.190  1.00  0.00     0.202 C 
BRANCH   2   3
ATOM      3  C   UNL A   1      40.297  22.186  27.079  1.00  0.00     0.261 C 
BRANCH   3   4
ATOM      4  O   UNL A   1      39.190  22.754  26.362  1.00  0.00    -0.460 OA
BRANCH   4   5
ATOM      5  C   UNL A   1      38.493  21.893  25.585  1.00  0.00     0.338 C 
ATOM      6  O   UNL A   1      38.773  20.725  25.354  1.00  0.00    -0.246 OA
BRANCH   5   7
ATOM      7  C   UNL A   1      37.242  22.526  25.098  1.00  0.00     0.060 A 
ATOM      8  C   UNL A   1      34.740  23.574  24.382  1.00  0.00     0.060 A 
ATOM      9  C   UNL A   1      35.280  23.844  25.641  1.00  0.00     0.029 A 
ATOM     10  C   UNL A   1      35.521  22.885  23.443  1.00  0.00     0.029 A 
ATOM     11  C   UNL A   1      36.520  23.318  26.002  1.00  0.00     0.018 A 
ATOM     12  C   UNL A   1      36.763  22.352  23.796  1.00  0.00     0.018 A 
BRANCH   8  13
ATOM     13  N   UNL A   1      33.387  23.801  24.113  1.00  0.00    -0.257 N 
ATOM     14  C   UNL A   1      31.688  25.080  24.163  1.00  0.00     0.071 C 
ATOM     15  N   UNL A   1      32.942  25.051  23.832  1.00  0.00    -0.176 NA
ATOM     16  C   UNL A   1      31.173  23.864  24.885  1.00  0.00     0.091 C 
ATOM     17  C   UNL A   1      32.395  22.944  24.782  1.00  0.00     0.144 C 
BRANCH  14  18
ATOM     18  C   UNL A   1      30.804  26.219  23.843  1.00  0.00    -0.002 A 
ATOM     19  C   UNL A   1      29.196  28.363  23.073  1.00  0.00     0.067 A 
ATOM     20  C   UNL A   1      30.575  28.413  22.844  1.00  0.00     0.021 A 
ATOM     21  C   UNL A   1      28.618  27.254  23.700  1.00  0.00     0.021 A 
ATOM     22  C   UNL A   1      31.377  27.341  23.235  1.00  0.00     0.011 A 
ATOM     23  C   UNL A   1      29.427  26.175  24.082  1.00  0.00     0.011 A 
BRANCH  19  24
ATOM     24  S   UNL A   1      28.199  29.733  22.531  1.00  0.00     0.175 S 
ATOM     25  C   UNL A   1      28.736  31.138  23.465  1.00  0.00     0.163 C 
ATOM     26  O   UNL A   1      26.836  29.430  22.920  1.00  0.00    -0.224 OA
ATOM     27  O   UNL A   1      28.546  29.996  21.147  1.00  0.00    -0.224 OA
ENDBRANCH  19  24
ENDBRANCH  14  18
BRANCH  17  28
ATOM     28  C   UNL A   1      32.243  21.626  24.038  1.00  0.00    -0.023 A 
ATOM     29  C   UNL A   1      32.008  21.533  22.659  1.00  0.00     0.006 A 
ATOM     30  C   UNL A   1      32.444  20.426  24.753  1.00  0.00     0.006 A 
ATOM     31  C   UNL A   1      31.984  20.287  22.021  1.00  0.00     0.000 A 
ATOM     32  C   UNL A   1      32.461  19.189  24.110  1.00  0.00     0.000 A 
ATOM     33  C   UNL A   1      32.224  19.120  22.741  1.00  0.00     0.000 A 
ENDBRANCH  17  28
ENDBRANCH   8  13
ENDBRANCH   5   7
ENDBRANCH   4   5
ENDBRANCH   3   4
ENDBRANCH   2   3
ENDBRANCH   1   2
BRANCH   1  34
ATOM     34  C   UNL A   1      42.526  23.848  27.593  1.00  0.00     0.202 C 
BRANCH  34  35
ATOM     35  C   UNL A   1      42.113  25.324  27.630  1.00  0.00     0.261 C 
BRANCH  35  36
ATOM     36  O   UNL A   1      42.089  25.918  26.320  1.00  0.00    -0.460 OA
BRANCH  36  37
ATOM     37  C   UNL A   1      43.275  26.430  25.912  1.00  0.00     0.338 C 
ATOM     38  O   UNL A   1      44.040  25.943  25.090  1.00  0.00    -0.246 OA
BRANCH  37  39
ATOM     39  C   UNL A   1      43.463  27.785  26.465  1.00  0.00     0.060 A 
ATOM     40  C   UNL A   1      44.492  27.963  27.398  1.00  0.00     0.016 A 
ATOM     41  C   UNL A   1      42.616  28.846  26.133  1.00  0.00     0.016 A 
ATOM     42  C   UNL A   1      44.648  29.188  28.042  1.00  0.00     0.010 A 
ATOM     43  C   UNL A   1      42.770  30.075  26.787  1.00  0.00     0.010 A 
ATOM     44  C   UNL A   1      43.765  30.241  27.768  1.00  0.00    -0.014 A 
BRANCH  44  45
ATOM     45  C   UNL A   1      43.800  31.460  28.614  1.00  0.00     0.031 A 
ATOM     46  C   UNL A   1      44.791  32.546  28.290  1.00  0.00     0.074 A 
ATOM     47  C   UNL A   1      42.935  31.616  29.633  1.00  0.00     0.049 A 
ATOM     48  N   UNL A   1      45.012  33.681  28.901  1.00  0.00    -0.248 NA
ATOM     49  C   UNL A   1      45.650  32.314  27.118  1.00  0.00     0.031 C 
ATOM     50  C   UNL A   1      41.902  30.654  30.013  1.00  0.00     0.029 A 
ATOM     51  N   UNL A   1      42.789  32.641  30.534  1.00  0.00    -0.354 N 
ATOM     52  C   UNL A   1      46.035  34.302  28.192  1.00  0.00     0.074 A 
ATOM     53  C   UNL A   1      46.417  33.395  27.129  1.00  0.00     0.031 C 
ATOM     54  C   UNL A   1      41.232  31.133  31.077  1.00  0.00     0.029 A 
ATOM     55  C   UNL A   1      41.811  32.415  31.474  1.00  0.00     0.049 A 
ATOM     56  H   UNL A   1      43.332  33.462  30.509  1.00  0.00     0.167 HD
ATOM     57  C   UNL A   1      46.595  35.518  28.401  1.00  0.00     0.034 A 
ATOM     58  C   UNL A   1      41.444  33.146  32.545  1.00  0.00     0.034 A 
ATOM     59  C   UNL A   1      46.212  36.405  29.473  1.00  0.00     0.049 A 
ATOM     60  C   UNL A   1      42.143  34.458  32.812  1.00  0.00     0.074 A 
ATOM     61  C   UNL A   1      46.702  37.666  29.767  1.00  0.00     0.029 A 
ATOM     62  N   UNL A   1      45.254  36.120  30.438  1.00  0.00    -0.354 N 
ATOM     63  N   UNL A   1      43.102  35.039  32.127  1.00  0.00    -0.248 NA
ATOM     64  C   UNL A   1      41.707  35.214  33.992  1.00  0.00     0.031 C 
ATOM     65  C   UNL A   1      46.097  38.110  30.948  1.00  0.00     0.029 A 
ATOM     66  C   UNL A   1      45.166  37.163  31.348  1.00  0.00     0.049 A 
ATOM     67  H   UNL A   1      44.715  35.297  30.471  1.00  0.00     0.167 HD
ATOM     68  C   UNL A   1      43.357  36.244  32.778  1.00  0.00     0.074 A 
ATOM     69  C   UNL A   1      42.444  36.310  33.899  1.00  0.00     0.031 C 
ATOM     70  C   UNL A   1      44.262  37.211  32.473  1.00  0.00     0.034 A 
BRANCH  57  71
ATOM     71  C   UNL A   1      47.719  35.931  27.480  1.00  0.00     0.023 A 
ATOM     72  C   UNL A   1      49.047  35.523  27.701  1.00  0.00     0.031 A 
ATOM     73  C   UNL A   1      47.463  36.768  26.380  1.00  0.00     0.131 A 
ATOM     74  C   UNL A   1      50.075  36.010  26.880  1.00  0.00     0.055 A 
ATOM     75  C   UNL A   1      48.481  37.186  25.519  1.00  0.00     0.041 A 
ATOM     76  F   UNL A   1      46.220  37.209  26.131  1.00  0.00    -0.206 F 
ATOM     77  C   UNL A   1      49.798  36.819  25.775  1.00  0.00     0.022 A 
BRANCH  74  78
ATOM     78  S   UNL A   1      51.795  35.685  27.357  1.00  0.00     0.124 S 
ATOM     79  O   UNL A   1      52.375  37.025  27.299  1.00  0.00    -0.237 OA
ATOM     80  O   UNL A   1      51.650  35.108  28.688  1.00  0.00    -0.237 OA
ATOM     81  O   UNL A   1      52.270  34.765  26.325  1.00  0.00    -0.744 OA
ENDBRANCH  74  78
ENDBRANCH  57  71
BRANCH  58  82
ATOM     82  C   UNL A   1      40.392  32.645  33.478  1.00  0.00     0.023 A 
ATOM     83  C   UNL A   1      39.075  33.124  33.415  1.00  0.00     0.031 A 
ATOM     84  C   UNL A   1      40.710  31.717  34.486  1.00  0.00     0.131 A 
ATOM     85  C   UNL A   1      38.134  32.709  34.372  1.00  0.00     0.055 A 
ATOM     86  C   UNL A   1      39.758  31.267  35.402  1.00  0.00     0.041 A 
ATOM     87  F   UNL A   1      41.956  31.229  34.592  1.00  0.00    -0.206 F 
ATOM     88  C   UNL A   1      38.463  31.774  35.356  1.00  0.00     0.022 A 
BRANCH  85  89
ATOM     89  S   UNL A   1      36.490  33.476  34.364  1.00  0.00     0.124 S 
ATOM     90  O   UNL A   1      36.128  33.415  35.776  1.00  0.00    -0.237 OA
ATOM     91  O   UNL A   1      36.779  34.804  33.833  1.00  0.00    -0.237 OA
ATOM     92  O   UNL A   1      35.714  32.608  33.482  1.00  0.00    -0.744 OA
ENDBRANCH  85  89
ENDBRANCH  58  82
BRANCH  70  93
ATOM     93  C   UNL A   1      44.271  38.443  33.346  1.00  0.00     0.023 A 
ATOM     94  C   UNL A   1      43.504  39.579  33.034  1.00  0.00     0.031 A 
ATOM     95  C   UNL A   1      45.069  38.483  34.503  1.00  0.00     0.131 A 
ATOM     96  C   UNL A   1      43.595  40.727  33.837  1.00  0.00     0.055 A 
ATOM     97  C   UNL A   1      45.108  39.605  35.333  1.00  0.00     0.041 A 
ATOM     98  F   UNL A   1      45.823  37.428  34.850  1.00  0.00    -0.206 F 
ATOM     99  C   UNL A   1      44.378  40.741  34.994  1.00  0.00     0.022 A 
BRANCH  96 100
ATOM    100  S   UNL A   1      42.746  42.238  33.300  1.00  0.00     0.124 S 
ATOM    101  O   UNL A   1      43.736  42.844  32.416  1.00  0.00    -0.237 OA
ATOM    102  O   UNL A   1      41.549  41.711  32.652  1.00  0.00    -0.237 OA
ATOM    103  O   UNL A   1      42.506  42.959  34.549  1.00  0.00    -0.744 OA
ENDBRANCH  96 100
ENDBRANCH  70  93
ENDBRANCH  44  45
ENDBRANCH  37  39
ENDBRANCH  36  37
ENDBRANCH  35  36
ENDBRANCH  34  35
ENDBRANCH   1  34
TORSDOF 21
ENDMDL
