MODEL 1
REMARK VINA RESULT:     -11.5      0.000      0.000
REMARK SMILES CCc1cc(OC(F)(F)F)cc2c1O[C@@H](C(F)(F)F)C(C(=O)OCCOCCOC(=O)c1ccc(-c3c4nc(c(-c5cc(S(=O)(=O)[O-])ccc5F)c5ccc([nH]5)c(-c5cc(S(=O)(=O)[O-])ccc5F)c5nc(c(-c6cc(S(=O)(=O)[O-])ccc6F)c6ccc3[nH]6)C=C5)C=C4)cc1)=C2
REMARK SMILES IDX 27 1 26 2 25 3 24 4 23 5 21 6 22 7 20 8 3 9 4 10 13 11 5 12
REMARK SMILES IDX 12 13 14 14 11 15 95 16 15 17 2 18 1 19 6 20 7 21 8 22 9 23
REMARK SMILES IDX 10 24 16 25 17 26 18 27 19 28 28 29 29 30 30 31 31 32 32 33
REMARK SMILES IDX 33 34 94 35 34 36 93 37 35 38 36 39 37 40 87 41 38 42 92 43
REMARK SMILES IDX 86 44 88 45 39 46 91 47 85 48 84 49 40 51 72 52 52 53 71 54
REMARK SMILES IDX 53 55 56 56 70 57 89 58 54 59 55 60 69 62 90 63 57 64 41 65
REMARK SMILES IDX 42 66 50 67 43 68 49 69 51 70 48 71 44 72 45 73 46 74 47 75
REMARK SMILES IDX 73 76 74 77 82 78 75 79 81 80 83 81 80 82 76 83 77 84 78 85
REMARK SMILES IDX 79 86 58 87 59 88 67 89 60 90 66 91 68 92 65 93 61 94 62 95
REMARK SMILES IDX 63 96 64 97
REMARK H PARENT 88 50 56 61
REMARK Flexibility Score: inf
ROOT
ATOM      1  C   UNL A   1      31.548  29.828  25.251  1.00  0.00     0.202 C 
ENDROOT
BRANCH   1   2
ATOM      2  O   UNL A   1      30.946  28.537  25.272  1.00  0.00    -0.374 OA
BRANCH   2   3
ATOM      3  C   UNL A   1      30.479  27.985  24.043  1.00  0.00     0.202 C 
BRANCH   3   4
ATOM      4  C   UNL A   1      29.660  26.691  24.109  1.00  0.00     0.261 C 
BRANCH   4   5
ATOM      5  O   UNL A   1      30.496  25.532  24.254  1.00  0.00    -0.460 OA
BRANCH   5   6
ATOM      6  C   UNL A   1      30.672  25.122  25.530  1.00  0.00     0.338 C 
ATOM      7  O   UNL A   1      30.026  25.471  26.508  1.00  0.00    -0.246 OA
BRANCH   6   8
ATOM      8  C   UNL A   1      31.691  24.065  25.606  1.00  0.00     0.087 C 
ATOM      9  C   UNL A   1      34.834  21.478  24.680  1.00  0.00    -0.002 A 
ATOM     10  C   UNL A   1      34.571  20.094  24.619  1.00  0.00     0.054 A 
ATOM     11  C   UNL A   1      33.778  22.329  25.031  1.00  0.00     0.131 A 
ATOM     12  C   UNL A   1      33.292  19.580  24.858  1.00  0.00     0.130 A 
ATOM     13  C   UNL A   1      32.479  21.832  25.248  1.00  0.00     0.021 A 
ATOM     14  O   UNL A   1      34.030  23.673  25.081  1.00  0.00    -0.475 OA
ATOM     15  C   UNL A   1      32.250  20.456  25.178  1.00  0.00     0.058 A 
ATOM     16  C   UNL A   1      31.367  22.779  25.386  1.00  0.00     0.027 C 
ATOM     17  C   UNL A   1      33.120  24.447  25.893  1.00  0.00     0.316 C 
BRANCH   9  18
ATOM     18  C   UNL A   1      36.253  21.925  24.381  1.00  0.00     0.036 C 
ATOM     19  C   UNL A   1      37.419  21.115  24.940  1.00  0.00     0.009 C 
ENDBRANCH   9  18
BRANCH  12  20
ATOM     20  O   UNL A   1      32.932  18.264  24.792  1.00  0.00    -0.406 OA
BRANCH  20  21
ATOM     21  C   UNL A   1      33.404  17.507  23.690  1.00  0.00     0.573 C 
ATOM     22  F   UNL A   1      32.921  17.984  22.521  1.00  0.00    -0.132 F 
ATOM     23  F   UNL A   1      34.754  17.505  23.646  1.00  0.00    -0.132 F 
ATOM     24  F   UNL A   1      32.990  16.229  23.824  1.00  0.00    -0.132 F 
ENDBRANCH  20  21
ENDBRANCH  12  20
BRANCH  17  25
ATOM     25  C   UNL A   1      33.541  25.924  25.797  1.00  0.00     0.430 C 
ATOM     26  F   UNL A   1      34.877  26.072  25.953  1.00  0.00    -0.167 F 
ATOM     27  F   UNL A   1      33.261  26.400  24.551  1.00  0.00    -0.167 F 
ATOM     28  F   UNL A   1      32.901  26.725  26.670  1.00  0.00    -0.167 F 
ENDBRANCH  17  25
ENDBRANCH   6   8
ENDBRANCH   5   6
ENDBRANCH   4   5
ENDBRANCH   3   4
ENDBRANCH   2   3
ENDBRANCH   1   2
BRANCH   1  29
ATOM     29  C   UNL A   1      32.118  30.401  26.555  1.00  0.00     0.261 C 
BRANCH  29  30
ATOM     30  O   UNL A   1      33.544  30.571  26.525  1.00  0.00    -0.460 OA
BRANCH  30  31
ATOM     31  C   UNL A   1      34.012  31.505  27.391  1.00  0.00     0.338 C 
ATOM     32  O   UNL A   1      33.400  32.470  27.828  1.00  0.00    -0.246 OA
BRANCH  31  33
ATOM     33  C   UNL A   1      35.328  31.100  27.911  1.00  0.00     0.060 A 
ATOM     34  C   UNL A   1      35.491  29.763  28.294  1.00  0.00     0.016 A 
ATOM     35  C   UNL A   1      36.357  32.024  28.098  1.00  0.00     0.016 A 
ATOM     36  C   UNL A   1      36.670  29.352  28.909  1.00  0.00     0.010 A 
ATOM     37  C   UNL A   1      37.538  31.611  28.725  1.00  0.00     0.010 A 
ATOM     38  C   UNL A   1      37.685  30.283  29.165  1.00  0.00    -0.014 A 
BRANCH  38  39
ATOM     39  C   UNL A   1      38.829  29.894  30.026  1.00  0.00     0.031 A 
ATOM     40  C   UNL A   1      38.926  30.473  31.411  1.00  0.00     0.074 A 
ATOM     41  C   UNL A   1      39.743  29.008  29.593  1.00  0.00     0.049 A 
ATOM     42  N   UNL A   1      39.849  30.300  32.321  1.00  0.00    -0.248 NA
ATOM     43  C   UNL A   1      37.836  31.370  31.822  1.00  0.00     0.031 C 
ATOM     44  C   UNL A   1      39.723  28.345  28.289  1.00  0.00     0.029 A 
ATOM     45  N   UNL A   1      40.868  28.511  30.203  1.00  0.00    -0.354 N 
ATOM     46  C   UNL A   1      39.456  31.070  33.412  1.00  0.00     0.074 A 
ATOM     47  C   UNL A   1      38.232  31.742  33.030  1.00  0.00     0.031 C 
ATOM     48  C   UNL A   1      40.788  27.533  28.197  1.00  0.00     0.029 A 
ATOM     49  C   UNL A   1      41.588  27.646  29.414  1.00  0.00     0.049 A 
ATOM     50  H   UNL A   1      41.133  28.753  31.121  1.00  0.00     0.167 HD
ATOM     51  C   UNL A   1      40.054  31.195  34.621  1.00  0.00     0.034 A 
ATOM     52  C   UNL A   1      42.770  27.037  29.641  1.00  0.00     0.034 A 
ATOM     53  C   UNL A   1      41.281  30.523  34.981  1.00  0.00     0.049 A 
ATOM     54  C   UNL A   1      43.462  27.257  30.966  1.00  0.00     0.074 A 
ATOM     55  C   UNL A   1      41.972  30.573  36.178  1.00  0.00     0.029 A 
ATOM     56  N   UNL A   1      42.006  29.687  34.140  1.00  0.00    -0.354 N 
ATOM     57  N   UNL A   1      43.078  27.986  31.989  1.00  0.00    -0.248 NA
ATOM     58  C   UNL A   1      44.739  26.561  31.168  1.00  0.00     0.031 C 
ATOM     59  C   UNL A   1      43.151  29.832  36.037  1.00  0.00     0.029 A 
ATOM     60  C   UNL A   1      43.152  29.243  34.783  1.00  0.00     0.049 A 
ATOM     61  H   UNL A   1      41.745  29.446  33.223  1.00  0.00     0.167 HD
ATOM     62  C   UNL A   1      44.050  27.801  32.972  1.00  0.00     0.074 A 
ATOM     63  C   UNL A   1      45.026  26.885  32.421  1.00  0.00     0.031 C 
ATOM     64  C   UNL A   1      44.123  28.332  34.220  1.00  0.00     0.034 A 
BRANCH  51  65
ATOM     65  C   UNL A   1      39.417  32.132  35.620  1.00  0.00     0.023 A 
ATOM     66  C   UNL A   1      39.804  33.479  35.727  1.00  0.00     0.031 A 
ATOM     67  C   UNL A   1      38.422  31.664  36.498  1.00  0.00     0.131 A 
ATOM     68  C   UNL A   1      39.253  34.289  36.733  1.00  0.00     0.055 A 
ATOM     69  C   UNL A   1      37.818  32.497  37.441  1.00  0.00     0.041 A 
ATOM     70  F   UNL A   1      38.028  30.380  36.461  1.00  0.00    -0.206 F 
ATOM     71  C   UNL A   1      38.244  33.815  37.572  1.00  0.00     0.022 A 
BRANCH  68  72
ATOM     72  S   UNL A   1      39.978  35.927  37.022  1.00  0.00     0.124 S 
ATOM     73  O   UNL A   1      41.365  35.585  37.332  1.00  0.00    -0.237 OA
ATOM     74  O   UNL A   1      39.755  36.601  35.749  1.00  0.00    -0.237 OA
ATOM     75  O   UNL A   1      39.207  36.449  38.149  1.00  0.00    -0.744 OA
ENDBRANCH  68  72
ENDBRANCH  51  65
BRANCH  52  76
ATOM     76  C   UNL A   1      43.397  26.187  28.587  1.00  0.00     0.023 A 
ATOM     77  C   UNL A   1      44.368  26.706  27.716  1.00  0.00     0.031 A 
ATOM     78  C   UNL A   1      42.987  24.855  28.397  1.00  0.00     0.131 A 
ATOM     79  C   UNL A   1      44.857  25.916  26.664  1.00  0.00     0.055 A 
ATOM     80  C   UNL A   1      43.521  24.055  27.385  1.00  0.00     0.041 A 
ATOM     81  F   UNL A   1      42.061  24.308  29.200  1.00  0.00    -0.206 F 
ATOM     82  C   UNL A   1      44.452  24.591  26.501  1.00  0.00     0.022 A 
BRANCH  79  83
ATOM     83  S   UNL A   1      45.962  26.683  25.445  1.00  0.00     0.124 S 
ATOM     84  O   UNL A   1      46.247  25.562  24.558  1.00  0.00    -0.237 OA
ATOM     85  O   UNL A   1      45.118  27.739  24.897  1.00  0.00    -0.237 OA
ATOM     86  O   UNL A   1      47.089  27.145  26.253  1.00  0.00    -0.744 OA
ENDBRANCH  79  83
ENDBRANCH  52  76
BRANCH  64  87
ATOM     87  C   UNL A   1      45.269  27.881  35.096  1.00  0.00     0.023 A 
ATOM     88  C   UNL A   1      45.170  26.759  35.936  1.00  0.00     0.031 A 
ATOM     89  C   UNL A   1      46.479  28.599  35.096  1.00  0.00     0.131 A 
ATOM     90  C   UNL A   1      46.234  26.426  36.787  1.00  0.00     0.055 A 
ATOM     91  C   UNL A   1      47.560  28.223  35.894  1.00  0.00     0.041 A 
ATOM     92  F   UNL A   1      46.632  29.681  34.315  1.00  0.00    -0.206 F 
ATOM     93  C   UNL A   1      47.436  27.139  36.758  1.00  0.00     0.022 A 
BRANCH  90  94
ATOM     94  S   UNL A   1      45.992  25.111  38.014  1.00  0.00     0.124 S 
ATOM     95  O   UNL A   1      45.600  25.869  39.197  1.00  0.00    -0.237 OA
ATOM     96  O   UNL A   1      44.946  24.301  37.399  1.00  0.00    -0.237 OA
ATOM     97  O   UNL A   1      47.304  24.470  38.093  1.00  0.00    -0.744 OA
ENDBRANCH  90  94
ENDBRANCH  64  87
ENDBRANCH  38  39
ENDBRANCH  31  33
ENDBRANCH  30  31
ENDBRANCH  29  30
ENDBRANCH   1  29
TORSDOF 21
ENDMDL
MODEL 2
REMARK VINA RESULT:     -11.3      2.613      7.882
REMARK SMILES CCc1cc(OC(F)(F)F)cc2c1O[C@@H](C(F)(F)F)C(C(=O)OCCOCCOC(=O)c1ccc(-c3c4nc(c(-c5cc(S(=O)(=O)[O-])ccc5F)c5ccc([nH]5)c(-c5cc(S(=O)(=O)[O-])ccc5F)c5nc(c(-c6cc(S(=O)(=O)[O-])ccc6F)c6ccc3[nH]6)C=C5)C=C4)cc1)=C2
REMARK SMILES IDX 27 1 26 2 25 3 24 4 23 5 21 6 22 7 20 8 3 9 4 10 13 11 5 12
REMARK SMILES IDX 12 13 14 14 11 15 95 16 15 17 2 18 1 19 6 20 7 21 8 22 9 23
REMARK SMILES IDX 10 24 16 25 17 26 18 27 19 28 28 29 29 30 30 31 31 32 32 33
REMARK SMILES IDX 33 34 94 35 34 36 93 37 35 38 36 39 37 40 87 41 38 42 92 43
REMARK SMILES IDX 86 44 88 45 39 46 91 47 85 48 84 49 40 51 72 52 52 53 71 54
REMARK SMILES IDX 53 55 56 56 70 57 89 58 54 59 55 60 69 62 90 63 57 64 41 65
REMARK SMILES IDX 42 66 50 67 43 68 49 69 51 70 48 71 44 72 45 73 46 74 47 75
REMARK SMILES IDX 73 76 74 77 82 78 75 79 81 80 83 81 80 82 76 83 77 84 78 85
REMARK SMILES IDX 79 86 58 87 59 88 67 89 60 90 66 91 68 92 65 93 61 94 62 95
REMARK SMILES IDX 63 96 64 97
REMARK H PARENT 88 50 56 61
REMARK Flexibility Score: inf
ROOT
ATOM      1  C   UNL A   1      31.200  32.166  26.509  1.00  0.00     0.202 C 
ENDROOT
BRANCH   1   2
ATOM      2  O   UNL A   1      31.702  30.842  26.664  1.00  0.00    -0.374 OA
BRANCH   2   3
ATOM      3  C   UNL A   1      32.327  30.216  25.545  1.00  0.00     0.202 C 
BRANCH   3   4
ATOM      4  C   UNL A   1      31.567  29.085  24.846  1.00  0.00     0.261 C 
BRANCH   4   5
ATOM      5  O   UNL A   1      32.382  27.914  24.675  1.00  0.00    -0.460 OA
BRANCH   5   6
ATOM      6  C   UNL A   1      32.195  26.957  25.611  1.00  0.00     0.338 C 
ATOM      7  O   UNL A   1      31.597  27.076  26.672  1.00  0.00    -0.246 OA
BRANCH   6   8
ATOM      8  C   UNL A   1      32.701  25.659  25.144  1.00  0.00     0.087 C 
ATOM      9  C   UNL A   1      33.239  21.560  24.562  1.00  0.00    -0.002 A 
ATOM     10  C   UNL A   1      34.462  20.980  24.956  1.00  0.00     0.054 A 
ATOM     11  C   UNL A   1      33.089  22.943  24.727  1.00  0.00     0.131 A 
ATOM     12  C   UNL A   1      35.483  21.742  25.532  1.00  0.00     0.130 A 
ATOM     13  C   UNL A   1      34.096  23.721  25.331  1.00  0.00     0.021 A 
ATOM     14  O   UNL A   1      31.900  23.507  24.354  1.00  0.00    -0.475 OA
ATOM     15  C   UNL A   1      35.295  23.116  25.712  1.00  0.00     0.058 A 
ATOM     16  C   UNL A   1      33.803  25.113  25.687  1.00  0.00     0.027 C 
ATOM     17  C   UNL A   1      31.943  24.922  24.071  1.00  0.00     0.316 C 
BRANCH   9  18
ATOM     18  C   UNL A   1      32.194  20.633  23.968  1.00  0.00     0.036 C 
ATOM     19  C   UNL A   1      32.523  19.153  23.805  1.00  0.00     0.009 C 
ENDBRANCH   9  18
BRANCH  12  20
ATOM     20  O   UNL A   1      36.686  21.267  25.973  1.00  0.00    -0.406 OA
BRANCH  20  21
ATOM     21  C   UNL A   1      37.574  20.725  25.009  1.00  0.00     0.573 C 
ATOM     22  F   UNL A   1      38.855  20.775  25.435  1.00  0.00    -0.132 F 
ATOM     23  F   UNL A   1      37.250  19.446  24.718  1.00  0.00    -0.132 F 
ATOM     24  F   UNL A   1      37.482  21.447  23.871  1.00  0.00    -0.132 F 
ENDBRANCH  20  21
ENDBRANCH  12  20
BRANCH  17  25
ATOM     25  C   UNL A   1      30.518  25.374  23.706  1.00  0.00     0.430 C 
ATOM     26  F   UNL A   1      30.530  26.483  22.931  1.00  0.00    -0.167 F 
ATOM     27  F   UNL A   1      29.909  24.409  22.961  1.00  0.00    -0.167 F 
ATOM     28  F   UNL A   1      29.731  25.590  24.777  1.00  0.00    -0.167 F 
ENDBRANCH  17  25
ENDBRANCH   6   8
ENDBRANCH   5   6
ENDBRANCH   4   5
ENDBRANCH   3   4
ENDBRANCH   2   3
ENDBRANCH   1   2
BRANCH   1  29
ATOM     29  C   UNL A   1      32.134  33.349  26.794  1.00  0.00     0.261 C 
BRANCH  29  30
ATOM     30  O   UNL A   1      32.246  33.661  28.192  1.00  0.00    -0.460 OA
BRANCH  30  31
ATOM     31  C   UNL A   1      33.266  34.502  28.495  1.00  0.00     0.338 C 
ATOM     32  O   UNL A   1      33.205  35.720  28.595  1.00  0.00    -0.246 OA
BRANCH  31  33
ATOM     33  C   UNL A   1      34.457  33.733  28.893  1.00  0.00     0.060 A 
ATOM     34  C   UNL A   1      34.256  32.571  29.650  1.00  0.00     0.016 A 
ATOM     35  C   UNL A   1      35.747  34.179  28.604  1.00  0.00     0.016 A 
ATOM     36  C   UNL A   1      35.347  31.875  30.161  1.00  0.00     0.010 A 
ATOM     37  C   UNL A   1      36.842  33.482  29.127  1.00  0.00     0.010 A 
ATOM     38  C   UNL A   1      36.645  32.348  29.936  1.00  0.00    -0.014 A 
BRANCH  38  39
ATOM     39  C   UNL A   1      37.780  31.742  30.676  1.00  0.00     0.031 A 
ATOM     40  C   UNL A   1      38.608  30.685  29.997  1.00  0.00     0.074 A 
ATOM     41  C   UNL A   1      38.089  32.156  31.917  1.00  0.00     0.049 A 
ATOM     42  N   UNL A   1      39.621  29.999  30.459  1.00  0.00    -0.248 NA
ATOM     43  C   UNL A   1      38.240  30.357  28.612  1.00  0.00     0.031 C 
ATOM     44  C   UNL A   1      37.388  33.207  32.654  1.00  0.00     0.029 A 
ATOM     45  N   UNL A   1      39.075  31.744  32.779  1.00  0.00    -0.354 N 
ATOM     46  C   UNL A   1      40.010  29.154  29.424  1.00  0.00     0.074 A 
ATOM     47  C   UNL A   1      39.095  29.386  28.327  1.00  0.00     0.031 C 
ATOM     48  C   UNL A   1      37.964  33.353  33.859  1.00  0.00     0.029 A 
ATOM     49  C   UNL A   1      39.046  32.381  33.996  1.00  0.00     0.049 A 
ATOM     50  H   UNL A   1      39.740  31.056  32.545  1.00  0.00     0.167 HD
ATOM     51  C   UNL A   1      41.041  28.274  29.391  1.00  0.00     0.034 A 
ATOM     52  C   UNL A   1      39.792  32.183  35.103  1.00  0.00     0.034 A 
ATOM     53  C   UNL A   1      41.938  28.049  30.499  1.00  0.00     0.049 A 
ATOM     54  C   UNL A   1      40.883  31.138  35.071  1.00  0.00     0.074 A 
ATOM     55  C   UNL A   1      43.018  27.188  30.573  1.00  0.00     0.029 A 
ATOM     56  N   UNL A   1      41.852  28.682  31.734  1.00  0.00    -0.354 N 
ATOM     57  N   UNL A   1      41.242  30.347  34.084  1.00  0.00    -0.248 NA
ATOM     58  C   UNL A   1      41.675  30.971  36.295  1.00  0.00     0.031 C 
ATOM     59  C   UNL A   1      43.537  27.242  31.872  1.00  0.00     0.029 A 
ATOM     60  C   UNL A   1      42.840  28.206  32.583  1.00  0.00     0.049 A 
ATOM     61  H   UNL A   1      41.188  29.368  31.970  1.00  0.00     0.167 HD
ATOM     62  C   UNL A   1      42.330  29.617  34.561  1.00  0.00     0.074 A 
ATOM     63  C   UNL A   1      42.571  30.072  35.914  1.00  0.00     0.031 C 
ATOM     64  C   UNL A   1      43.068  28.665  33.935  1.00  0.00     0.034 A 
BRANCH  51  65
ATOM     65  C   UNL A   1      41.216  27.455  28.133  1.00  0.00     0.023 A 
ATOM     66  C   UNL A   1      40.838  26.103  28.068  1.00  0.00     0.031 A 
ATOM     67  C   UNL A   1      41.796  28.031  26.988  1.00  0.00     0.131 A 
ATOM     68  C   UNL A   1      41.107  25.355  26.910  1.00  0.00     0.055 A 
ATOM     69  C   UNL A   1      41.984  27.303  25.811  1.00  0.00     0.041 A 
ATOM     70  F   UNL A   1      42.201  29.311  26.997  1.00  0.00    -0.206 F 
ATOM     71  C   UNL A   1      41.652  25.952  25.773  1.00  0.00     0.022 A 
BRANCH  68  72
ATOM     72  S   UNL A   1      40.867  23.558  26.963  1.00  0.00     0.124 S 
ATOM     73  O   UNL A   1      41.341  23.237  28.309  1.00  0.00    -0.237 OA
ATOM     74  O   UNL A   1      39.432  23.423  26.742  1.00  0.00    -0.237 OA
ATOM     75  O   UNL A   1      41.715  23.066  25.879  1.00  0.00    -0.744 OA
ENDBRANCH  68  72
ENDBRANCH  51  65
BRANCH  52  76
ATOM     76  C   UNL A   1      39.522  32.961  36.346  1.00  0.00     0.023 A 
ATOM     77  C   UNL A   1      38.704  32.445  37.365  1.00  0.00     0.031 A 
ATOM     78  C   UNL A   1      40.029  34.263  36.507  1.00  0.00     0.131 A 
ATOM     79  C   UNL A   1      38.377  33.245  38.471  1.00  0.00     0.055 A 
ATOM     80  C   UNL A   1      39.749  35.032  37.637  1.00  0.00     0.041 A 
ATOM     81  F   UNL A   1      40.815  34.807  35.564  1.00  0.00    -0.206 F 
ATOM     82  C   UNL A   1      38.904  34.528  38.622  1.00  0.00     0.022 A 
BRANCH  79  83
ATOM     83  S   UNL A   1      37.165  32.616  39.666  1.00  0.00     0.124 S 
ATOM     84  O   UNL A   1      35.932  32.659  38.889  1.00  0.00    -0.237 OA
ATOM     85  O   UNL A   1      37.694  31.288  39.960  1.00  0.00    -0.237 OA
ATOM     86  O   UNL A   1      37.246  33.574  40.766  1.00  0.00    -0.744 OA
ENDBRANCH  79  83
ENDBRANCH  52  76
BRANCH  64  87
ATOM     87  C   UNL A   1      44.248  28.099  34.689  1.00  0.00     0.023 A 
ATOM     88  C   UNL A   1      44.139  26.956  35.500  1.00  0.00     0.031 A 
ATOM     89  C   UNL A   1      45.505  28.727  34.602  1.00  0.00     0.131 A 
ATOM     90  C   UNL A   1      45.246  26.516  36.242  1.00  0.00     0.055 A 
ATOM     91  C   UNL A   1      46.620  28.244  35.288  1.00  0.00     0.041 A 
ATOM     92  F   UNL A   1      45.670  29.824  33.845  1.00  0.00    -0.206 F 
ATOM     93  C   UNL A   1      46.491  27.141  36.126  1.00  0.00     0.022 A 
BRANCH  90  94
ATOM     94  S   UNL A   1      45.013  25.177  37.444  1.00  0.00     0.124 S 
ATOM     95  O   UNL A   1      44.287  24.186  36.656  1.00  0.00    -0.237 OA
ATOM     96  O   UNL A   1      46.387  24.831  37.795  1.00  0.00    -0.237 OA
ATOM     97  O   UNL A   1      44.240  25.806  38.514  1.00  0.00    -0.744 OA
ENDBRANCH  90  94
ENDBRANCH  64  87
ENDBRANCH  38  39
ENDBRANCH  31  33
ENDBRANCH  30  31
ENDBRANCH  29  30
ENDBRANCH   1  29
TORSDOF 21
ENDMDL
MODEL 3
REMARK VINA RESULT:     -11.2      2.480      3.201
REMARK SMILES CCc1cc(OC(F)(F)F)cc2c1O[C@@H](C(F)(F)F)C(C(=O)OCCOCCOC(=O)c1ccc(-c3c4nc(c(-c5cc(S(=O)(=O)[O-])ccc5F)c5ccc([nH]5)c(-c5cc(S(=O)(=O)[O-])ccc5F)c5nc(c(-c6cc(S(=O)(=O)[O-])ccc6F)c6ccc3[nH]6)C=C5)C=C4)cc1)=C2
REMARK SMILES IDX 27 1 26 2 25 3 24 4 23 5 21 6 22 7 20 8 3 9 4 10 13 11 5 12
REMARK SMILES IDX 12 13 14 14 11 15 95 16 15 17 2 18 1 19 6 20 7 21 8 22 9 23
REMARK SMILES IDX 10 24 16 25 17 26 18 27 19 28 28 29 29 30 30 31 31 32 32 33
REMARK SMILES IDX 33 34 94 35 34 36 93 37 35 38 36 39 37 40 87 41 38 42 92 43
REMARK SMILES IDX 86 44 88 45 39 46 91 47 85 48 84 49 40 51 72 52 52 53 71 54
REMARK SMILES IDX 53 55 56 56 70 57 89 58 54 59 55 60 69 62 90 63 57 64 41 65
REMARK SMILES IDX 42 66 50 67 43 68 49 69 51 70 48 71 44 72 45 73 46 74 47 75
REMARK SMILES IDX 73 76 74 77 82 78 75 79 81 80 83 81 80 82 76 83 77 84 78 85
REMARK SMILES IDX 79 86 58 87 59 88 67 89 60 90 66 91 68 92 65 93 61 94 62 95
REMARK SMILES IDX 63 96 64 97
REMARK H PARENT 88 50 56 61
REMARK Flexibility Score: inf
ROOT
ATOM      1  C   UNL A   1      31.425  31.995  26.843  1.00  0.00     0.202 C 
ENDROOT
BRANCH   1   2
ATOM      2  O   UNL A   1      32.048  30.720  26.973  1.00  0.00    -0.374 OA
BRANCH   2   3
ATOM      3  C   UNL A   1      32.572  30.097  25.802  1.00  0.00     0.202 C 
BRANCH   3   4
ATOM      4  C   UNL A   1      31.679  29.090  25.071  1.00  0.00     0.261 C 
BRANCH   4   5
ATOM      5  O   UNL A   1      32.364  27.855  24.806  1.00  0.00    -0.460 OA
BRANCH   5   6
ATOM      6  C   UNL A   1      32.093  26.862  25.683  1.00  0.00     0.338 C 
ATOM      7  O   UNL A   1      31.407  26.943  26.692  1.00  0.00    -0.246 OA
BRANCH   6   8
ATOM      8  C   UNL A   1      32.631  25.580  25.207  1.00  0.00     0.087 C 
ATOM      9  C   UNL A   1      33.276  21.499  24.606  1.00  0.00    -0.002 A 
ATOM     10  C   UNL A   1      34.518  20.951  24.987  1.00  0.00     0.054 A 
ATOM     11  C   UNL A   1      33.090  22.878  24.777  1.00  0.00     0.131 A 
ATOM     12  C   UNL A   1      35.523  21.739  25.558  1.00  0.00     0.130 A 
ATOM     13  C   UNL A   1      34.080  23.681  25.375  1.00  0.00     0.021 A 
ATOM     14  O   UNL A   1      31.882  23.409  24.416  1.00  0.00    -0.475 OA
ATOM     15  C   UNL A   1      35.298  23.107  25.744  1.00  0.00     0.058 A 
ATOM     16  C   UNL A   1      33.752  25.063  25.739  1.00  0.00     0.027 C 
ATOM     17  C   UNL A   1      31.884  24.827  24.137  1.00  0.00     0.316 C 
BRANCH   9  18
ATOM     18  C   UNL A   1      32.252  20.547  24.017  1.00  0.00     0.036 C 
ATOM     19  C   UNL A   1      32.623  19.078  23.837  1.00  0.00     0.009 C 
ENDBRANCH   9  18
BRANCH  12  20
ATOM     20  O   UNL A   1      36.742  21.296  25.988  1.00  0.00    -0.406 OA
BRANCH  20  21
ATOM     21  C   UNL A   1      37.636  20.783  25.015  1.00  0.00     0.573 C 
ATOM     22  F   UNL A   1      37.545  21.467  23.852  1.00  0.00    -0.132 F 
ATOM     23  F   UNL A   1      38.911  20.825  25.458  1.00  0.00    -0.132 F 
ATOM     24  F   UNL A   1      37.323  19.493  24.767  1.00  0.00    -0.132 F 
ENDBRANCH  20  21
ENDBRANCH  12  20
BRANCH  17  25
ATOM     25  C   UNL A   1      30.445  25.241  23.786  1.00  0.00     0.430 C 
ATOM     26  F   UNL A   1      30.420  26.354  23.018  1.00  0.00    -0.167 F 
ATOM     27  F   UNL A   1      29.858  24.264  23.038  1.00  0.00    -0.167 F 
ATOM     28  F   UNL A   1      29.659  25.427  24.864  1.00  0.00    -0.167 F 
ENDBRANCH  17  25
ENDBRANCH   6   8
ENDBRANCH   5   6
ENDBRANCH   4   5
ENDBRANCH   3   4
ENDBRANCH   2   3
ENDBRANCH   1   2
BRANCH   1  29
ATOM     29  C   UNL A   1      32.295  33.256  26.924  1.00  0.00     0.261 C 
BRANCH  29  30
ATOM     30  O   UNL A   1      32.342  33.830  28.239  1.00  0.00    -0.460 OA
BRANCH  30  31
ATOM     31  C   UNL A   1      33.448  34.576  28.482  1.00  0.00     0.338 C 
ATOM     32  O   UNL A   1      33.497  35.792  28.610  1.00  0.00    -0.246 OA
BRANCH  31  33
ATOM     33  C   UNL A   1      34.597  33.702  28.775  1.00  0.00     0.060 A 
ATOM     34  C   UNL A   1      34.349  32.524  29.490  1.00  0.00     0.016 A 
ATOM     35  C   UNL A   1      35.899  34.065  28.430  1.00  0.00     0.016 A 
ATOM     36  C   UNL A   1      35.410  31.724  29.905  1.00  0.00     0.010 A 
ATOM     37  C   UNL A   1      36.965  33.265  28.856  1.00  0.00     0.010 A 
ATOM     38  C   UNL A   1      36.727  32.111  29.625  1.00  0.00    -0.014 A 
BRANCH  38  39
ATOM     39  C   UNL A   1      37.850  31.386  30.269  1.00  0.00     0.031 A 
ATOM     40  C   UNL A   1      38.157  31.659  31.717  1.00  0.00     0.074 A 
ATOM     41  C   UNL A   1      38.558  30.471  29.584  1.00  0.00     0.049 A 
ATOM     42  N   UNL A   1      39.105  31.168  32.472  1.00  0.00    -0.248 NA
ATOM     43  C   UNL A   1      37.275  32.617  32.401  1.00  0.00     0.031 C 
ATOM     44  C   UNL A   1      38.319  30.090  28.192  1.00  0.00     0.029 A 
ATOM     45  N   UNL A   1      39.624  29.695  29.966  1.00  0.00    -0.354 N 
ATOM     46  C   UNL A   1      38.939  31.760  33.721  1.00  0.00     0.074 A 
ATOM     47  C   UNL A   1      37.825  32.677  33.605  1.00  0.00     0.031 C 
ATOM     48  C   UNL A   1      39.216  29.155  27.836  1.00  0.00     0.029 A 
ATOM     49  C   UNL A   1      40.118  28.901  28.958  1.00  0.00     0.049 A 
ATOM     50  H   UNL A   1      39.999  29.707  30.876  1.00  0.00     0.167 HD
ATOM     51  C   UNL A   1      39.645  31.550  34.859  1.00  0.00     0.034 A 
ATOM     52  C   UNL A   1      41.189  28.082  28.938  1.00  0.00     0.034 A 
ATOM     53  C   UNL A   1      40.760  30.638  34.952  1.00  0.00     0.049 A 
ATOM     54  C   UNL A   1      42.013  27.926  30.195  1.00  0.00     0.074 A 
ATOM     55  C   UNL A   1      41.542  30.342  36.054  1.00  0.00     0.029 A 
ATOM     56  N   UNL A   1      41.260  29.881  33.899  1.00  0.00    -0.354 N 
ATOM     57  N   UNL A   1      41.844  28.490  31.370  1.00  0.00    -0.248 NA
ATOM     58  C   UNL A   1      43.160  27.014  30.125  1.00  0.00     0.031 C 
ATOM     59  C   UNL A   1      42.559  29.469  35.652  1.00  0.00     0.029 A 
ATOM     60  C   UNL A   1      42.357  29.145  34.319  1.00  0.00     0.049 A 
ATOM     61  H   UNL A   1      40.888  29.869  32.988  1.00  0.00     0.167 HD
ATOM     62  C   UNL A   1      42.843  27.967  32.189  1.00  0.00     0.074 A 
ATOM     63  C   UNL A   1      43.599  27.036  31.376  1.00  0.00     0.031 C 
ATOM     64  C   UNL A   1      43.107  28.223  33.496  1.00  0.00     0.034 A 
BRANCH  51  65
ATOM     65  C   UNL A   1      39.262  32.360  36.075  1.00  0.00     0.023 A 
ATOM     66  C   UNL A   1      39.856  33.602  36.358  1.00  0.00     0.031 A 
ATOM     67  C   UNL A   1      38.304  31.870  36.981  1.00  0.00     0.131 A 
ATOM     68  C   UNL A   1      39.540  34.276  37.549  1.00  0.00     0.055 A 
ATOM     69  C   UNL A   1      37.932  32.584  38.121  1.00  0.00     0.041 A 
ATOM     70  F   UNL A   1      37.720  30.677  36.778  1.00  0.00    -0.206 F 
ATOM     71  C   UNL A   1      38.563  33.789  38.418  1.00  0.00     0.022 A 
BRANCH  68  72
ATOM     72  S   UNL A   1      40.529  35.723  38.016  1.00  0.00     0.124 S 
ATOM     73  O   UNL A   1      41.848  35.356  37.504  1.00  0.00    -0.237 OA
ATOM     74  O   UNL A   1      39.851  36.808  37.316  1.00  0.00    -0.237 OA
ATOM     75  O   UNL A   1      40.422  35.756  39.473  1.00  0.00    -0.744 OA
ENDBRANCH  68  72
ENDBRANCH  51  65
BRANCH  52  76
ATOM     76  C   UNL A   1      41.573  27.369  27.685  1.00  0.00     0.023 A 
ATOM     77  C   UNL A   1      41.460  25.974  27.577  1.00  0.00     0.031 A 
ATOM     78  C   UNL A   1      42.120  28.071  26.595  1.00  0.00     0.131 A 
ATOM     79  C   UNL A   1      41.934  25.320  26.429  1.00  0.00     0.055 A 
ATOM     80  C   UNL A   1      42.535  27.421  25.431  1.00  0.00     0.041 A 
ATOM     81  F   UNL A   1      42.253  29.406  26.644  1.00  0.00    -0.206 F 
ATOM     82  C   UNL A   1      42.457  26.035  25.350  1.00  0.00     0.022 A 
BRANCH  79  83
ATOM     83  S   UNL A   1      41.948  23.506  26.408  1.00  0.00     0.124 S 
ATOM     84  O   UNL A   1      42.685  23.202  27.629  1.00  0.00    -0.237 OA
ATOM     85  O   UNL A   1      40.522  23.194  26.423  1.00  0.00    -0.237 OA
ATOM     86  O   UNL A   1      42.641  23.187  25.162  1.00  0.00    -0.744 OA
ENDBRANCH  79  83
ENDBRANCH  52  76
BRANCH  64  87
ATOM     87  C   UNL A   1      44.222  27.435  34.143  1.00  0.00     0.023 A 
ATOM     88  C   UNL A   1      45.544  27.911  34.187  1.00  0.00     0.031 A 
ATOM     89  C   UNL A   1      43.955  26.178  34.715  1.00  0.00     0.131 A 
ATOM     90  C   UNL A   1      46.559  27.107  34.730  1.00  0.00     0.055 A 
ATOM     91  C   UNL A   1      44.956  25.412  35.315  1.00  0.00     0.041 A 
ATOM     92  F   UNL A   1      42.712  25.670  34.701  1.00  0.00    -0.206 F 
ATOM     93  C   UNL A   1      46.270  25.870  35.312  1.00  0.00     0.022 A 
BRANCH  90  94
ATOM     94  S   UNL A   1      48.282  27.654  34.572  1.00  0.00     0.124 S 
ATOM     95  O   UNL A   1      49.016  26.418  34.825  1.00  0.00    -0.237 OA
ATOM     96  O   UNL A   1      48.326  28.154  33.202  1.00  0.00    -0.237 OA
ATOM     97  O   UNL A   1      48.414  28.677  35.609  1.00  0.00    -0.744 OA
ENDBRANCH  90  94
ENDBRANCH  64  87
ENDBRANCH  38  39
ENDBRANCH  31  33
ENDBRANCH  30  31
ENDBRANCH  29  30
ENDBRANCH   1  29
TORSDOF 21
ENDMDL
