MODEL 1
REMARK VINA RESULT:     -10.4      0.000      0.000
REMARK SMILES C[C@@H]1CN([C@@H](CCS(C)(=O)=O)C(=O)OCCOCCOC(=O)c2ccc(-c3c4nc(c(-c5cc(S(=O)(=O)[O-])ccc5F)c5ccc([nH]5)c(-c5cc(S(=O)(=O)[O-])ccc5F)c5nc(c(-c6cc(S(=O)(=O)[O-])ccc6F)c6ccc3[nH]6)C=C5)C=C4)cc2)S(=O)(=O)C1
REMARK SMILES IDX 17 1 16 2 15 3 14 4 12 5 13 6 5 7 4 8 1 9 2 10 3 11 89 12
REMARK SMILES IDX 86 13 87 14 88 15 6 16 7 17 8 18 9 19 10 20 11 21 18 22
REMARK SMILES IDX 19 23 20 24 21 25 22 26 23 27 24 28 85 29 25 30 84 31 26 32
REMARK SMILES IDX 27 33 28 34 78 35 29 36 83 37 77 38 79 39 30 40 82 41 76 42
REMARK SMILES IDX 75 43 31 45 63 46 43 47 62 48 44 49 47 50 61 51 80 52 45 53
REMARK SMILES IDX 46 54 60 56 81 57 48 58 32 59 33 60 41 61 34 62 40 63 42 64
REMARK SMILES IDX 39 65 35 66 36 67 37 68 38 69 64 70 65 71 73 72 66 73 72 74
REMARK SMILES IDX 74 75 71 76 67 77 68 78 69 79 70 80 49 81 50 82 58 83 51 84
REMARK SMILES IDX 57 85 59 86 56 87 52 88 53 89 54 90 55 91
REMARK H PARENT 79 44 47 55
REMARK Flexibility Score: inf
ROOT
ATOM      1  O   UNL A   1      31.973  30.771  26.088  1.00  0.00    -0.374 OA
ENDROOT
BRANCH   1   2
ATOM      2  C   UNL A   1      33.210  30.231  26.551  1.00  0.00     0.202 C 
BRANCH   2   3
ATOM      3  C   UNL A   1      33.615  28.882  25.969  1.00  0.00     0.261 C 
BRANCH   3   4
ATOM      4  O   UNL A   1      33.263  27.775  26.824  1.00  0.00    -0.462 OA
BRANCH   4   5
ATOM      5  C   UNL A   1      32.016  27.301  26.656  1.00  0.00     0.324 C 
ATOM      6  O   UNL A   1      31.091  27.495  27.448  1.00  0.00    -0.250 OA
BRANCH   5   7
ATOM      7  C   UNL A   1      31.800  26.399  25.468  1.00  0.00     0.183 C 
BRANCH   7   8
ATOM      8  N   UNL A   1      32.302  25.033  25.267  1.00  0.00    -0.187 NA
ATOM      9  C   UNL A   1      31.975  22.279  22.738  1.00  0.00     0.010 C 
ATOM     10  C   UNL A   1      31.716  23.136  23.965  1.00  0.00     0.017 C 
ATOM     11  C   UNL A   1      32.415  24.498  23.899  1.00  0.00     0.107 C 
ATOM     12  C   UNL A   1      32.226  22.476  25.244  1.00  0.00     0.159 C 
ATOM     13  S   UNL A   1      32.445  23.809  26.410  1.00  0.00     0.215 S 
ATOM     14  O   UNL A   1      33.812  23.748  26.848  1.00  0.00    -0.212 OA
ATOM     15  O   UNL A   1      31.299  23.817  27.281  1.00  0.00    -0.212 OA
ENDBRANCH   7   8
BRANCH   7  16
ATOM     16  C   UNL A   1      30.397  26.654  24.878  1.00  0.00     0.048 C 
BRANCH  16  17
ATOM     17  C   UNL A   1      30.070  27.925  24.104  1.00  0.00     0.139 C 
BRANCH  17  18
ATOM     18  S   UNL A   1      30.770  28.206  22.480  1.00  0.00     0.147 S 
ATOM     19  C   UNL A   1      32.427  28.780  22.732  1.00  0.00     0.158 C 
ATOM     20  O   UNL A   1      30.888  26.904  21.850  1.00  0.00    -0.229 OA
ATOM     21  O   UNL A   1      30.079  29.284  21.811  1.00  0.00    -0.229 OA
ENDBRANCH  17  18
ENDBRANCH  16  17
ENDBRANCH   7  16
ENDBRANCH   5   7
ENDBRANCH   4   5
ENDBRANCH   3   4
ENDBRANCH   2   3
ENDBRANCH   1   2
BRANCH   1  22
ATOM     22  C   UNL A   1      31.408  31.855  26.823  1.00  0.00     0.202 C 
BRANCH  22  23
ATOM     23  C   UNL A   1      32.191  33.172  26.859  1.00  0.00     0.261 C 
BRANCH  23  24
ATOM     24  O   UNL A   1      32.447  33.641  28.190  1.00  0.00    -0.460 OA
BRANCH  24  25
ATOM     25  C   UNL A   1      33.592  34.331  28.376  1.00  0.00     0.338 C 
ATOM     26  O   UNL A   1      33.700  35.538  28.522  1.00  0.00    -0.246 OA
BRANCH  25  27
ATOM     27  C   UNL A   1      34.723  33.395  28.536  1.00  0.00     0.060 A 
ATOM     28  C   UNL A   1      34.465  32.118  29.051  1.00  0.00     0.016 A 
ATOM     29  C   UNL A   1      36.035  33.817  28.318  1.00  0.00     0.016 A 
ATOM     30  C   UNL A   1      35.525  31.289  29.423  1.00  0.00     0.010 A 
ATOM     31  C   UNL A   1      37.095  32.984  28.691  1.00  0.00     0.010 A 
ATOM     32  C   UNL A   1      36.847  31.738  29.296  1.00  0.00    -0.014 A 
BRANCH  32  33
ATOM     33  C   UNL A   1      37.954  31.002  29.966  1.00  0.00     0.031 A 
ATOM     34  C   UNL A   1      38.306  31.365  31.387  1.00  0.00     0.074 A 
ATOM     35  C   UNL A   1      38.625  30.015  29.343  1.00  0.00     0.049 A 
ATOM     36  N   UNL A   1      39.288  30.939  32.140  1.00  0.00    -0.248 NA
ATOM     37  C   UNL A   1      37.435  32.354  32.042  1.00  0.00     0.031 C 
ATOM     38  C   UNL A   1      38.347  29.528  27.994  1.00  0.00     0.029 A 
ATOM     39  N   UNL A   1      39.690  29.255  29.764  1.00  0.00    -0.354 N 
ATOM     40  C   UNL A   1      39.164  31.618  33.348  1.00  0.00     0.074 A 
ATOM     41  C   UNL A   1      38.034  32.513  33.212  1.00  0.00     0.031 C 
ATOM     42  C   UNL A   1      39.223  28.553  27.696  1.00  0.00     0.029 A 
ATOM     43  C   UNL A   1      40.159  28.385  28.807  1.00  0.00     0.049 A 
ATOM     44  H   UNL A   1      40.080  29.325  30.666  1.00  0.00     0.167 HD
ATOM     45  C   UNL A   1      39.918  31.502  34.471  1.00  0.00     0.034 A 
ATOM     46  C   UNL A   1      41.240  27.575  28.813  1.00  0.00     0.034 A 
ATOM     47  C   UNL A   1      41.043  30.608  34.592  1.00  0.00     0.049 A 
ATOM     48  C   UNL A   1      42.129  27.536  30.037  1.00  0.00     0.074 A 
ATOM     49  C   UNL A   1      41.866  30.404  35.686  1.00  0.00     0.029 A 
ATOM     50  N   UNL A   1      41.515  29.777  33.583  1.00  0.00    -0.354 N 
ATOM     51  N   UNL A   1      42.012  28.193  31.167  1.00  0.00    -0.248 NA
ATOM     52  C   UNL A   1      43.295  26.642  29.985  1.00  0.00     0.031 C 
ATOM     53  C   UNL A   1      42.884  29.522  35.313  1.00  0.00     0.029 A 
ATOM     54  C   UNL A   1      42.637  29.090  34.020  1.00  0.00     0.049 A 
ATOM     55  H   UNL A   1      41.112  29.689  32.689  1.00  0.00     0.167 HD
ATOM     56  C   UNL A   1      43.060  27.752  31.976  1.00  0.00     0.074 A 
ATOM     57  C   UNL A   1      43.800  26.778  31.203  1.00  0.00     0.031 C 
ATOM     58  C   UNL A   1      43.369  28.110  33.248  1.00  0.00     0.034 A 
BRANCH  45  59
ATOM     59  C   UNL A   1      39.584  32.407  35.634  1.00  0.00     0.023 A 
ATOM     60  C   UNL A   1      38.772  31.982  36.701  1.00  0.00     0.031 A 
ATOM     61  C   UNL A   1      40.073  33.725  35.668  1.00  0.00     0.131 A 
ATOM     62  C   UNL A   1      38.417  32.886  37.714  1.00  0.00     0.055 A 
ATOM     63  C   UNL A   1      39.790  34.592  36.724  1.00  0.00     0.041 A 
ATOM     64  F   UNL A   1      40.833  34.198  34.667  1.00  0.00    -0.206 F 
ATOM     65  C   UNL A   1      38.944  34.179  37.748  1.00  0.00     0.022 A 
BRANCH  62  66
ATOM     66  S   UNL A   1      37.140  32.398  38.906  1.00  0.00     0.124 S 
ATOM     67  O   UNL A   1      37.299  30.946  38.933  1.00  0.00    -0.237 OA
ATOM     68  O   UNL A   1      37.547  33.108  40.114  1.00  0.00    -0.237 OA
ATOM     69  O   UNL A   1      35.900  32.870  38.293  1.00  0.00    -0.744 OA
ENDBRANCH  62  66
ENDBRANCH  45  59
BRANCH  46  70
ATOM     70  C   UNL A   1      41.582  26.764  27.606  1.00  0.00     0.023 A 
ATOM     71  C   UNL A   1      41.274  25.396  27.536  1.00  0.00     0.031 A 
ATOM     72  C   UNL A   1      42.287  27.333  26.530  1.00  0.00     0.131 A 
ATOM     73  C   UNL A   1      41.712  24.634  26.441  1.00  0.00     0.055 A 
ATOM     74  C   UNL A   1      42.660  26.586  25.412  1.00  0.00     0.041 A 
ATOM     75  F   UNL A   1      42.626  28.633  26.551  1.00  0.00    -0.206 F 
ATOM     76  C   UNL A   1      42.387  25.223  25.370  1.00  0.00     0.022 A 
BRANCH  73  77
ATOM     77  S   UNL A   1      41.490  22.833  26.490  1.00  0.00     0.124 S 
ATOM     78  O   UNL A   1      42.426  22.392  25.464  1.00  0.00    -0.237 OA
ATOM     79  O   UNL A   1      41.850  22.518  27.868  1.00  0.00    -0.237 OA
ATOM     80  O   UNL A   1      40.076  22.656  26.162  1.00  0.00    -0.744 OA
ENDBRANCH  73  77
ENDBRANCH  46  70
BRANCH  58  81
ATOM     81  C   UNL A   1      44.506  27.385  33.930  1.00  0.00     0.023 A 
ATOM     82  C   UNL A   1      44.307  26.252  34.738  1.00  0.00     0.031 A 
ATOM     83  C   UNL A   1      45.828  27.830  33.734  1.00  0.00     0.131 A 
ATOM     84  C   UNL A   1      45.407  25.626  35.349  1.00  0.00     0.055 A 
ATOM     85  C   UNL A   1      46.922  27.168  34.293  1.00  0.00     0.041 A 
ATOM     86  F   UNL A   1      46.080  28.911  32.979  1.00  0.00    -0.206 F 
ATOM     87  C   UNL A   1      46.713  26.064  35.113  1.00  0.00     0.022 A 
BRANCH  84  88
ATOM     88  S   UNL A   1      45.109  24.274  36.521  1.00  0.00     0.124 S 
ATOM     89  O   UNL A   1      46.437  24.062  37.087  1.00  0.00    -0.237 OA
ATOM     90  O   UNL A   1      44.116  24.852  37.422  1.00  0.00    -0.237 OA
ATOM     91  O   UNL A   1      44.616  23.189  35.675  1.00  0.00    -0.744 OA
ENDBRANCH  84  88
ENDBRANCH  58  81
ENDBRANCH  32  33
ENDBRANCH  25  27
ENDBRANCH  24  25
ENDBRANCH  23  24
ENDBRANCH  22  23
ENDBRANCH   1  22
TORSDOF 21
ENDMDL
MODEL 2
REMARK VINA RESULT:      -9.9      1.906      2.336
REMARK SMILES C[C@@H]1CN([C@@H](CCS(C)(=O)=O)C(=O)OCCOCCOC(=O)c2ccc(-c3c4nc(c(-c5cc(S(=O)(=O)[O-])ccc5F)c5ccc([nH]5)c(-c5cc(S(=O)(=O)[O-])ccc5F)c5nc(c(-c6cc(S(=O)(=O)[O-])ccc6F)c6ccc3[nH]6)C=C5)C=C4)cc2)S(=O)(=O)C1
REMARK SMILES IDX 17 1 16 2 15 3 14 4 12 5 13 6 5 7 4 8 1 9 2 10 3 11 89 12
REMARK SMILES IDX 86 13 87 14 88 15 6 16 7 17 8 18 9 19 10 20 11 21 18 22
REMARK SMILES IDX 19 23 20 24 21 25 22 26 23 27 24 28 85 29 25 30 84 31 26 32
REMARK SMILES IDX 27 33 28 34 78 35 29 36 83 37 77 38 79 39 30 40 82 41 76 42
REMARK SMILES IDX 75 43 31 45 63 46 43 47 62 48 44 49 47 50 61 51 80 52 45 53
REMARK SMILES IDX 46 54 60 56 81 57 48 58 32 59 33 60 41 61 34 62 40 63 42 64
REMARK SMILES IDX 39 65 35 66 36 67 37 68 38 69 64 70 65 71 73 72 66 73 72 74
REMARK SMILES IDX 74 75 71 76 67 77 68 78 69 79 70 80 49 81 50 82 58 83 51 84
REMARK SMILES IDX 57 85 59 86 56 87 52 88 53 89 54 90 55 91
REMARK H PARENT 79 44 47 55
REMARK Flexibility Score: inf
ROOT
ATOM      1  O   UNL A   1      31.384  28.930  25.401  1.00  0.00    -0.374 OA
ENDROOT
BRANCH   1   2
ATOM      2  C   UNL A   1      31.776  28.001  26.409  1.00  0.00     0.202 C 
BRANCH   2   3
ATOM      3  C   UNL A   1      31.932  26.551  25.965  1.00  0.00     0.261 C 
BRANCH   3   4
ATOM      4  O   UNL A   1      31.307  25.618  26.870  1.00  0.00    -0.462 OA
BRANCH   4   5
ATOM      5  C   UNL A   1      31.276  24.343  26.439  1.00  0.00     0.324 C 
ATOM      6  O   UNL A   1      30.565  23.465  26.933  1.00  0.00    -0.250 OA
BRANCH   5   7
ATOM      7  C   UNL A   1      32.257  23.983  25.355  1.00  0.00     0.183 C 
BRANCH   7   8
ATOM      8  N   UNL A   1      33.527  23.255  25.489  1.00  0.00    -0.187 NA
ATOM      9  C   UNL A   1      36.649  22.688  23.484  1.00  0.00     0.010 C 
ATOM     10  C   UNL A   1      35.255  22.488  24.053  1.00  0.00     0.017 C 
ATOM     11  C   UNL A   1      34.715  23.735  24.761  1.00  0.00     0.107 C 
ATOM     12  C   UNL A   1      35.217  21.375  25.097  1.00  0.00     0.159 C 
ATOM     13  S   UNL A   1      33.767  21.703  26.086  1.00  0.00     0.215 S 
ATOM     14  O   UNL A   1      34.216  21.800  27.448  1.00  0.00    -0.212 OA
ATOM     15  O   UNL A   1      32.719  20.833  25.622  1.00  0.00    -0.212 OA
ENDBRANCH   7   8
BRANCH   7  16
ATOM     16  C   UNL A   1      31.492  23.688  24.048  1.00  0.00     0.048 C 
BRANCH  16  17
ATOM     17  C   UNL A   1      31.160  24.788  23.045  1.00  0.00     0.139 C 
BRANCH  17  18
ATOM     18  S   UNL A   1      32.379  25.322  21.846  1.00  0.00     0.147 S 
ATOM     19  C   UNL A   1      33.344  26.585  22.630  1.00  0.00     0.158 C 
ATOM     20  O   UNL A   1      33.277  24.201  21.641  1.00  0.00    -0.229 OA
ATOM     21  O   UNL A   1      31.736  25.961  20.722  1.00  0.00    -0.229 OA
ENDBRANCH  17  18
ENDBRANCH  16  17
ENDBRANCH   7  16
ENDBRANCH   5   7
ENDBRANCH   4   5
ENDBRANCH   3   4
ENDBRANCH   2   3
ENDBRANCH   1   2
BRANCH   1  22
ATOM     22  C   UNL A   1      31.639  30.313  25.640  1.00  0.00     0.202 C 
BRANCH  22  23
ATOM     23  C   UNL A   1      32.901  30.676  26.431  1.00  0.00     0.261 C 
BRANCH  23  24
ATOM     24  O   UNL A   1      32.651  31.594  27.503  1.00  0.00    -0.460 OA
BRANCH  24  25
ATOM     25  C   UNL A   1      33.591  32.537  27.722  1.00  0.00     0.338 C 
ATOM     26  O   UNL A   1      33.412  33.741  27.804  1.00  0.00    -0.246 OA
BRANCH  25  27
ATOM     27  C   UNL A   1      34.890  31.894  28.007  1.00  0.00     0.060 A 
ATOM     28  C   UNL A   1      34.918  30.510  28.218  1.00  0.00     0.016 A 
ATOM     29  C   UNL A   1      36.038  32.663  28.206  1.00  0.00     0.016 A 
ATOM     30  C   UNL A   1      36.076  29.902  28.705  1.00  0.00     0.010 A 
ATOM     31  C   UNL A   1      37.197  32.051  28.695  1.00  0.00     0.010 A 
ATOM     32  C   UNL A   1      37.207  30.676  28.999  1.00  0.00    -0.014 A 
BRANCH  32  33
ATOM     33  C   UNL A   1      38.323  30.099  29.797  1.00  0.00     0.031 A 
ATOM     34  C   UNL A   1      38.518  30.576  31.215  1.00  0.00     0.074 A 
ATOM     35  C   UNL A   1      39.139  29.155  29.293  1.00  0.00     0.049 A 
ATOM     36  N   UNL A   1      39.471  30.298  32.067  1.00  0.00    -0.248 NA
ATOM     37  C   UNL A   1      37.501  31.503  31.737  1.00  0.00     0.031 C 
ATOM     38  C   UNL A   1      39.024  28.567  27.960  1.00  0.00     0.029 A 
ATOM     39  N   UNL A   1      40.236  28.535  29.842  1.00  0.00    -0.354 N 
ATOM     40  C   UNL A   1      39.180  31.027  33.216  1.00  0.00     0.074 A 
ATOM     41  C   UNL A   1      37.982  31.789  32.936  1.00  0.00     0.031 C 
ATOM     42  C   UNL A   1      40.014  27.673  27.794  1.00  0.00     0.029 A 
ATOM     43  C   UNL A   1      40.867  27.667  28.982  1.00  0.00     0.049 A 
ATOM     44  H   UNL A   1      40.540  28.696  30.764  1.00  0.00     0.167 HD
ATOM     45  C   UNL A   1      39.846  31.053  34.398  1.00  0.00     0.034 A 
ATOM     46  C   UNL A   1      42.019  26.976  29.123  1.00  0.00     0.034 A 
ATOM     47  C   UNL A   1      41.041  30.290  34.663  1.00  0.00     0.049 A 
ATOM     48  C   UNL A   1      42.803  27.098  30.411  1.00  0.00     0.074 A 
ATOM     49  C   UNL A   1      41.786  30.235  35.828  1.00  0.00     0.029 A 
ATOM     50  N   UNL A   1      41.676  29.458  33.749  1.00  0.00    -0.354 N 
ATOM     51  N   UNL A   1      42.527  27.802  31.485  1.00  0.00    -0.248 NA
ATOM     52  C   UNL A   1      44.053  26.330  30.507  1.00  0.00     0.031 C 
ATOM     53  C   UNL A   1      42.915  29.445  35.591  1.00  0.00     0.029 A 
ATOM     54  C   UNL A   1      42.821  28.917  34.314  1.00  0.00     0.049 A 
ATOM     55  H   UNL A   1      41.359  29.279  32.834  1.00  0.00     0.167 HD
ATOM     56  C   UNL A   1      43.543  27.519  32.398  1.00  0.00     0.074 A 
ATOM     57  C   UNL A   1      44.438  26.586  31.749  1.00  0.00     0.031 C 
ATOM     58  C   UNL A   1      43.708  27.978  33.665  1.00  0.00     0.034 A 
BRANCH  45  59
ATOM     59  C   UNL A   1      39.328  31.981  35.472  1.00  0.00     0.023 A 
ATOM     60  C   UNL A   1      39.731  33.326  35.555  1.00  0.00     0.031 A 
ATOM     61  C   UNL A   1      38.427  31.507  36.443  1.00  0.00     0.131 A 
ATOM     62  C   UNL A   1      39.293  34.125  36.622  1.00  0.00     0.055 A 
ATOM     63  C   UNL A   1      37.924  32.331  37.451  1.00  0.00     0.041 A 
ATOM     64  F   UNL A   1      38.023  30.227  36.433  1.00  0.00    -0.206 F 
ATOM     65  C   UNL A   1      38.369  33.645  37.554  1.00  0.00     0.022 A 
BRANCH  62  66
ATOM     66  S   UNL A   1      40.059  35.751  36.863  1.00  0.00     0.124 S 
ATOM     67  O   UNL A   1      41.475  35.401  36.951  1.00  0.00    -0.237 OA
ATOM     68  O   UNL A   1      39.653  36.473  35.662  1.00  0.00    -0.237 OA
ATOM     69  O   UNL A   1      39.466  36.229  38.109  1.00  0.00    -0.744 OA
ENDBRANCH  62  66
ENDBRANCH  45  59
BRANCH  46  70
ATOM     70  C   UNL A   1      42.540  26.139  28.000  1.00  0.00     0.023 A 
ATOM     71  C   UNL A   1      42.028  24.855  27.751  1.00  0.00     0.031 A 
ATOM     72  C   UNL A   1      43.608  26.586  27.201  1.00  0.00     0.131 A 
ATOM     73  C   UNL A   1      42.617  24.046  26.765  1.00  0.00     0.055 A 
ATOM     74  C   UNL A   1      44.144  25.804  26.177  1.00  0.00     0.041 A 
ATOM     75  F   UNL A   1      44.149  27.798  27.407  1.00  0.00    -0.206 F 
ATOM     76  C   UNL A   1      43.658  24.518  25.965  1.00  0.00     0.022 A 
BRANCH  73  77
ATOM     77  S   UNL A   1      42.078  22.319  26.622  1.00  0.00     0.124 S 
ATOM     78  O   UNL A   1      40.627  22.460  26.633  1.00  0.00    -0.237 OA
ATOM     79  O   UNL A   1      42.675  21.917  25.353  1.00  0.00    -0.237 OA
ATOM     80  O   UNL A   1      42.651  21.684  27.807  1.00  0.00    -0.744 OA
ENDBRANCH  73  77
ENDBRANCH  46  70
BRANCH  58  81
ATOM     81  C   UNL A   1      44.852  27.415  34.478  1.00  0.00     0.023 A 
ATOM     82  C   UNL A   1      44.744  26.221  35.212  1.00  0.00     0.031 A 
ATOM     83  C   UNL A   1      46.091  28.084  34.485  1.00  0.00     0.131 A 
ATOM     84  C   UNL A   1      45.843  25.755  35.953  1.00  0.00     0.055 A 
ATOM     85  C   UNL A   1      47.197  27.582  35.171  1.00  0.00     0.041 A 
ATOM     86  F   UNL A   1      46.252  29.232  33.808  1.00  0.00    -0.206 F 
ATOM     87  C   UNL A   1      47.074  26.416  35.918  1.00  0.00     0.022 A 
BRANCH  84  88
ATOM     88  S   UNL A   1      45.628  24.309  37.027  1.00  0.00     0.124 S 
ATOM     89  O   UNL A   1      46.487  24.639  38.159  1.00  0.00    -0.237 OA
ATOM     90  O   UNL A   1      44.192  24.324  37.290  1.00  0.00    -0.237 OA
ATOM     91  O   UNL A   1      46.092  23.195  36.202  1.00  0.00    -0.744 OA
ENDBRANCH  84  88
ENDBRANCH  58  81
ENDBRANCH  32  33
ENDBRANCH  25  27
ENDBRANCH  24  25
ENDBRANCH  23  24
ENDBRANCH  22  23
ENDBRANCH   1  22
TORSDOF 21
ENDMDL
MODEL 3
REMARK VINA RESULT:      -9.5      2.390      2.875
REMARK SMILES C[C@@H]1CN([C@@H](CCS(C)(=O)=O)C(=O)OCCOCCOC(=O)c2ccc(-c3c4nc(c(-c5cc(S(=O)(=O)[O-])ccc5F)c5ccc([nH]5)c(-c5cc(S(=O)(=O)[O-])ccc5F)c5nc(c(-c6cc(S(=O)(=O)[O-])ccc6F)c6ccc3[nH]6)C=C5)C=C4)cc2)S(=O)(=O)C1
REMARK SMILES IDX 17 1 16 2 15 3 14 4 12 5 13 6 5 7 4 8 1 9 2 10 3 11 89 12
REMARK SMILES IDX 86 13 87 14 88 15 6 16 7 17 8 18 9 19 10 20 11 21 18 22
REMARK SMILES IDX 19 23 20 24 21 25 22 26 23 27 24 28 85 29 25 30 84 31 26 32
REMARK SMILES IDX 27 33 28 34 78 35 29 36 83 37 77 38 79 39 30 40 82 41 76 42
REMARK SMILES IDX 75 43 31 45 63 46 43 47 62 48 44 49 47 50 61 51 80 52 45 53
REMARK SMILES IDX 46 54 60 56 81 57 48 58 32 59 33 60 41 61 34 62 40 63 42 64
REMARK SMILES IDX 39 65 35 66 36 67 37 68 38 69 64 70 65 71 73 72 66 73 72 74
REMARK SMILES IDX 74 75 71 76 67 77 68 78 69 79 70 80 49 81 50 82 58 83 51 84
REMARK SMILES IDX 57 85 59 86 56 87 52 88 53 89 54 90 55 91
REMARK H PARENT 79 44 47 55
REMARK Flexibility Score: inf
ROOT
ATOM      1  O   UNL A   1      33.589  29.879  26.257  1.00  0.00    -0.374 OA
ENDROOT
BRANCH   1   2
ATOM      2  C   UNL A   1      33.233  28.562  26.674  1.00  0.00     0.202 C 
BRANCH   2   3
ATOM      3  C   UNL A   1      31.779  28.159  26.463  1.00  0.00     0.261 C 
BRANCH   3   4
ATOM      4  O   UNL A   1      31.436  26.926  27.128  1.00  0.00    -0.462 OA
BRANCH   4   5
ATOM      5  C   UNL A   1      30.927  25.971  26.328  1.00  0.00     0.324 C 
ATOM      6  O   UNL A   1      29.750  25.605  26.355  1.00  0.00    -0.250 OA
BRANCH   5   7
ATOM      7  C   UNL A   1      31.907  25.261  25.432  1.00  0.00     0.183 C 
BRANCH   7   8
ATOM      8  N   UNL A   1      33.021  24.385  25.823  1.00  0.00    -0.187 NA
ATOM      9  C   UNL A   1      36.493  23.583  24.646  1.00  0.00     0.010 C 
ATOM     10  C   UNL A   1      34.986  23.511  24.819  1.00  0.00     0.017 C 
ATOM     11  C   UNL A   1      34.399  24.767  25.470  1.00  0.00     0.107 C 
ATOM     12  C   UNL A   1      34.566  22.350  25.717  1.00  0.00     0.159 C 
ATOM     13  S   UNL A   1      32.945  22.783  26.325  1.00  0.00     0.215 S 
ATOM     14  O   UNL A   1      33.025  22.747  27.760  1.00  0.00    -0.212 OA
ATOM     15  O   UNL A   1      31.979  22.068  25.534  1.00  0.00    -0.212 OA
ENDBRANCH   7   8
BRANCH   7  16
ATOM     16  C   UNL A   1      31.198  24.841  24.127  1.00  0.00     0.048 C 
BRANCH  16  17
ATOM     17  C   UNL A   1      31.976  24.541  22.851  1.00  0.00     0.139 C 
BRANCH  17  18
ATOM     18  S   UNL A   1      32.697  25.873  21.893  1.00  0.00     0.147 S 
ATOM     19  C   UNL A   1      32.371  25.509  20.190  1.00  0.00     0.158 C 
ATOM     20  O   UNL A   1      31.932  27.066  22.202  1.00  0.00    -0.229 OA
ATOM     21  O   UNL A   1      34.135  25.869  22.027  1.00  0.00    -0.229 OA
ENDBRANCH  17  18
ENDBRANCH  16  17
ENDBRANCH   7  16
ENDBRANCH   5   7
ENDBRANCH   4   5
ENDBRANCH   3   4
ENDBRANCH   2   3
ENDBRANCH   1   2
BRANCH   1  22
ATOM     22  C   UNL A   1      34.150  30.754  27.235  1.00  0.00     0.202 C 
BRANCH  22  23
ATOM     23  C   UNL A   1      33.215  31.769  27.899  1.00  0.00     0.261 C 
BRANCH  23  24
ATOM     24  O   UNL A   1      33.443  33.116  27.463  1.00  0.00    -0.460 OA
BRANCH  24  25
ATOM     25  C   UNL A   1      33.537  34.055  28.428  1.00  0.00     0.338 C 
ATOM     26  O   UNL A   1      32.776  34.991  28.613  1.00  0.00    -0.246 OA
BRANCH  25  27
ATOM     27  C   UNL A   1      34.633  33.712  29.358  1.00  0.00     0.060 A 
ATOM     28  C   UNL A   1      35.947  34.014  28.981  1.00  0.00     0.016 A 
ATOM     29  C   UNL A   1      34.381  32.973  30.515  1.00  0.00     0.016 A 
ATOM     30  C   UNL A   1      37.019  33.511  29.721  1.00  0.00     0.010 A 
ATOM     31  C   UNL A   1      35.457  32.470  31.256  1.00  0.00     0.010 A 
ATOM     32  C   UNL A   1      36.782  32.690  30.832  1.00  0.00    -0.014 A 
BRANCH  32  33
ATOM     33  C   UNL A   1      37.894  31.906  31.435  1.00  0.00     0.031 A 
ATOM     34  C   UNL A   1      38.372  32.275  32.818  1.00  0.00     0.074 A 
ATOM     35  C   UNL A   1      38.461  30.871  30.788  1.00  0.00     0.049 A 
ATOM     36  N   UNL A   1      39.382  31.808  33.506  1.00  0.00    -0.248 NA
ATOM     37  C   UNL A   1      37.608  33.324  33.512  1.00  0.00     0.031 C 
ATOM     38  C   UNL A   1      38.056  30.374  29.475  1.00  0.00     0.029 A 
ATOM     39  N   UNL A   1      39.511  30.059  31.146  1.00  0.00    -0.354 N 
ATOM     40  C   UNL A   1      39.387  32.516  34.703  1.00  0.00     0.074 A 
ATOM     41  C   UNL A   1      38.301  33.471  34.630  1.00  0.00     0.031 C 
ATOM     42  C   UNL A   1      38.851  29.345  29.136  1.00  0.00     0.029 A 
ATOM     43  C   UNL A   1      39.858  29.145  30.178  1.00  0.00     0.049 A 
ATOM     44  H   UNL A   1      39.970  30.124  32.015  1.00  0.00     0.167 HD
ATOM     45  C   UNL A   1      40.215  32.379  35.769  1.00  0.00     0.034 A 
ATOM     46  C   UNL A   1      40.889  28.275  30.123  1.00  0.00     0.034 A 
ATOM     47  C   UNL A   1      41.295  31.425  35.828  1.00  0.00     0.049 A 
ATOM     48  C   UNL A   1      41.864  28.209  31.278  1.00  0.00     0.074 A 
ATOM     49  C   UNL A   1      42.185  31.196  36.863  1.00  0.00     0.029 A 
ATOM     50  N   UNL A   1      41.644  30.549  34.807  1.00  0.00    -0.354 N 
ATOM     51  N   UNL A   1      41.869  28.894  32.399  1.00  0.00    -0.248 NA
ATOM     52  C   UNL A   1      42.972  27.249  31.161  1.00  0.00     0.031 C 
ATOM     53  C   UNL A   1      43.122  30.250  36.436  1.00  0.00     0.029 A 
ATOM     54  C   UNL A   1      42.755  29.808  35.176  1.00  0.00     0.049 A 
ATOM     55  H   UNL A   1      41.170  30.468  33.948  1.00  0.00     0.167 HD
ATOM     56  C   UNL A   1      42.949  28.409  33.138  1.00  0.00     0.074 A 
ATOM     57  C   UNL A   1      43.573  27.380  32.335  1.00  0.00     0.031 C 
ATOM     58  C   UNL A   1      43.371  28.774  34.375  1.00  0.00     0.034 A 
BRANCH  45  59
ATOM     59  C   UNL A   1      40.020  33.324  36.933  1.00  0.00     0.023 A 
ATOM     60  C   UNL A   1      40.821  34.466  37.110  1.00  0.00     0.031 A 
ATOM     61  C   UNL A   1      39.025  33.066  37.894  1.00  0.00     0.131 A 
ATOM     62  C   UNL A   1      40.662  35.264  38.253  1.00  0.00     0.055 A 
ATOM     63  C   UNL A   1      38.812  33.913  38.983  1.00  0.00     0.041 A 
ATOM     64  F   UNL A   1      38.245  31.979  37.795  1.00  0.00    -0.206 F 
ATOM     65  C   UNL A   1      39.644  35.012  39.175  1.00  0.00     0.022 A 
BRANCH  62  66
ATOM     66  S   UNL A   1      41.897  36.547  38.597  1.00  0.00     0.124 S 
ATOM     67  O   UNL A   1      42.893  35.802  39.362  1.00  0.00    -0.237 OA
ATOM     68  O   UNL A   1      42.300  36.964  37.258  1.00  0.00    -0.237 OA
ATOM     69  O   UNL A   1      41.152  37.544  39.363  1.00  0.00    -0.744 OA
ENDBRANCH  62  66
ENDBRANCH  45  59
BRANCH  46  70
ATOM     70  C   UNL A   1      41.094  27.423  28.914  1.00  0.00     0.023 A 
ATOM     71  C   UNL A   1      42.087  27.727  27.968  1.00  0.00     0.031 A 
ATOM     72  C   UNL A   1      40.251  26.328  28.651  1.00  0.00     0.131 A 
ATOM     73  C   UNL A   1      42.179  26.978  26.783  1.00  0.00     0.055 A 
ATOM     74  C   UNL A   1      40.391  25.544  27.504  1.00  0.00     0.041 A 
ATOM     75  F   UNL A   1      39.272  26.002  29.511  1.00  0.00    -0.206 F 
ATOM     76  C   UNL A   1      41.350  25.878  26.554  1.00  0.00     0.022 A 
BRANCH  73  77
ATOM     77  S   UNL A   1      43.322  27.535  25.489  1.00  0.00     0.124 S 
ATOM     78  O   UNL A   1      42.402  28.034  24.475  1.00  0.00    -0.237 OA
ATOM     79  O   UNL A   1      44.112  28.541  26.192  1.00  0.00    -0.237 OA
ATOM     80  O   UNL A   1      44.047  26.317  25.128  1.00  0.00    -0.744 OA
ENDBRANCH  73  77
ENDBRANCH  46  70
BRANCH  58  81
ATOM     81  C   UNL A   1      44.515  27.998  34.988  1.00  0.00     0.023 A 
ATOM     82  C   UNL A   1      44.336  26.754  35.619  1.00  0.00     0.031 A 
ATOM     83  C   UNL A   1      45.823  28.512  34.906  1.00  0.00     0.131 A 
ATOM     84  C   UNL A   1      45.440  26.086  36.174  1.00  0.00     0.055 A 
ATOM     85  C   UNL A   1      46.925  27.815  35.404  1.00  0.00     0.041 A 
ATOM     86  F   UNL A   1      46.056  29.698  34.322  1.00  0.00    -0.206 F 
ATOM     87  C   UNL A   1      46.734  26.598  36.051  1.00  0.00     0.022 A 
BRANCH  84  88
ATOM     88  S   UNL A   1      45.159  24.570  37.131  1.00  0.00     0.124 S 
ATOM     89  O   UNL A   1      46.518  24.179  37.489  1.00  0.00    -0.237 OA
ATOM     90  O   UNL A   1      44.320  25.042  38.228  1.00  0.00    -0.237 OA
ATOM     91  O   UNL A   1      44.490  23.684  36.180  1.00  0.00    -0.744 OA
ENDBRANCH  84  88
ENDBRANCH  58  81
ENDBRANCH  32  33
ENDBRANCH  25  27
ENDBRANCH  24  25
ENDBRANCH  23  24
ENDBRANCH  22  23
ENDBRANCH   1  22
TORSDOF 21
ENDMDL
