MODEL 1
REMARK VINA RESULT:     -12.2      0.000      0.000
REMARK SMILES Cc1ccc2c(c1)c(-c1ccnc3c(C)cccc13)c(C)n2CC(=O)OCCOCCOC(=O)c1ccc(-c2c3nc(c(-c4cc(S(=O)(=O)[O-])ccc4F)c4ccc([nH]4)c(-c4cc(S(=O)(=O)[O-])ccc4F)c4nc(c(-c5cc(S(=O)(=O)[O-])ccc5F)c5ccc2[nH]5)C=C4)C=C3)cc1
REMARK SMILES IDX 30 1 29 2 28 3 27 4 26 5 24 6 25 7 23 8 22 9 1 10 2 11 3 12
REMARK SMILES IDX 7 13 4 14 6 15 5 16 8 17 20 18 21 19 9 20 10 21 19 22 11 23
REMARK SMILES IDX 13 24 18 25 12 26 14 27 17 28 15 29 16 30 31 31 32 32 33 33
REMARK SMILES IDX 34 34 35 35 36 36 97 37 37 38 96 39 38 40 39 41 40 42 90 43
REMARK SMILES IDX 41 44 95 45 89 46 91 47 42 48 94 49 88 50 87 51 43 53 75 54
REMARK SMILES IDX 55 55 74 56 56 57 59 58 73 59 92 60 57 61 58 62 72 64 93 65
REMARK SMILES IDX 60 66 44 67 45 68 53 69 46 70 52 71 54 72 51 73 47 74 48 75
REMARK SMILES IDX 49 76 50 77 76 78 77 79 85 80 78 81 84 82 86 83 83 84 79 85
REMARK SMILES IDX 80 86 81 87 82 88 61 89 62 90 70 91 63 92 69 93 71 94 68 95
REMARK SMILES IDX 64 96 65 97 66 98 67 99
REMARK H PARENT 91 52 59 63
REMARK Flexibility Score: inf
ROOT
ATOM      1  C   UNL A   1      37.332  21.537  24.815  1.00  0.00     0.202 C 
ENDROOT
BRANCH   1   2
ATOM      2  O   UNL A   1      36.016  21.474  25.343  1.00  0.00    -0.374 OA
BRANCH   2   3
ATOM      3  C   UNL A   1      35.181  20.390  24.950  1.00  0.00     0.202 C 
BRANCH   3   4
ATOM      4  C   UNL A   1      33.762  20.242  25.528  1.00  0.00     0.261 C 
BRANCH   4   5
ATOM      5  O   UNL A   1      32.715  20.876  24.763  1.00  0.00    -0.462 OA
BRANCH   5   6
ATOM      6  C   UNL A   1      32.146  21.953  25.365  1.00  0.00     0.326 C 
ATOM      7  O   UNL A   1      30.959  22.021  25.682  1.00  0.00    -0.250 OA
BRANCH   6   8
ATOM      8  C   UNL A   1      33.065  23.103  25.682  1.00  0.00     0.244 C 
BRANCH   8   9
ATOM      9  N   UNL A   1      32.890  24.379  24.983  1.00  0.00    -0.333 N 
ATOM     10  C   UNL A   1      32.565  25.540  19.463  1.00  0.00     0.044 C 
ATOM     11  C   UNL A   1      32.801  25.204  20.904  1.00  0.00    -0.050 A 
ATOM     12  C   UNL A   1      33.245  23.933  21.275  1.00  0.00     0.005 A 
ATOM     13  C   UNL A   1      32.501  26.145  21.899  1.00  0.00     0.014 A 
ATOM     14  C   UNL A   1      33.376  23.569  22.620  1.00  0.00     0.027 A 
ATOM     15  C   UNL A   1      32.580  25.787  23.261  1.00  0.00     0.008 A 
ATOM     16  C   UNL A   1      32.996  24.499  23.601  1.00  0.00     0.049 A 
ATOM     17  C   UNL A   1      32.272  26.467  24.472  1.00  0.00     0.011 A 
ATOM     18  C   UNL A   1      32.268  25.517  25.488  1.00  0.00     0.024 A 
ATOM     19  C   UNL A   1      31.669  25.625  26.853  1.00  0.00     0.065 C 
BRANCH  17  20
ATOM     20  C   UNL A   1      31.829  27.849  24.651  1.00  0.00    -0.005 A 
ATOM     21  C   UNL A   1      32.657  28.733  25.334  1.00  0.00     0.029 A 
ATOM     22  C   UNL A   1      30.592  28.306  24.123  1.00  0.00     0.008 A 
ATOM     23  C   UNL A   1      32.264  30.050  25.411  1.00  0.00     0.112 A 
ATOM     24  C   UNL A   1      30.313  29.693  24.198  1.00  0.00     0.074 A 
ATOM     25  C   UNL A   1      29.636  27.445  23.540  1.00  0.00     0.011 A 
ATOM     26  N   UNL A   1      31.146  30.541  24.837  1.00  0.00    -0.256 NA
ATOM     27  C   UNL A   1      29.146  30.180  23.586  1.00  0.00    -0.025 A 
ATOM     28  C   UNL A   1      28.454  27.941  23.003  1.00  0.00     0.001 A 
ATOM     29  C   UNL A   1      28.828  31.650  23.522  1.00  0.00     0.047 C 
ATOM     30  C   UNL A   1      28.232  29.305  22.981  1.00  0.00     0.005 A 
ENDBRANCH  17  20
ENDBRANCH   8   9
ENDBRANCH   6   8
ENDBRANCH   5   6
ENDBRANCH   4   5
ENDBRANCH   3   4
ENDBRANCH   2   3
ENDBRANCH   1   2
BRANCH   1  31
ATOM     31  C   UNL A   1      38.548  21.423  25.745  1.00  0.00     0.261 C 
BRANCH  31  32
ATOM     32  O   UNL A   1      39.026  22.684  26.197  1.00  0.00    -0.460 OA
BRANCH  32  33
ATOM     33  C   UNL A   1      40.034  22.608  27.103  1.00  0.00     0.338 C 
ATOM     34  O   UNL A   1      40.651  21.614  27.460  1.00  0.00    -0.246 OA
BRANCH  33  35
ATOM     35  C   UNL A   1      40.505  23.980  27.286  1.00  0.00     0.060 A 
ATOM     36  C   UNL A   1      41.601  24.257  28.112  1.00  0.00     0.016 A 
ATOM     37  C   UNL A   1      39.568  24.958  26.933  1.00  0.00     0.016 A 
ATOM     38  C   UNL A   1      41.658  25.498  28.722  1.00  0.00     0.010 A 
ATOM     39  C   UNL A   1      39.618  26.183  27.559  1.00  0.00     0.010 A 
ATOM     40  C   UNL A   1      40.619  26.416  28.504  1.00  0.00    -0.014 A 
BRANCH  40  41
ATOM     41  C   UNL A   1      40.667  27.688  29.207  1.00  0.00     0.031 A 
ATOM     42  C   UNL A   1      41.670  28.625  28.639  1.00  0.00     0.074 A 
ATOM     43  C   UNL A   1      39.775  28.062  30.145  1.00  0.00     0.049 A 
ATOM     44  N   UNL A   1      42.724  29.120  29.198  1.00  0.00    -0.248 NA
ATOM     45  C   UNL A   1      41.558  28.905  27.198  1.00  0.00     0.031 C 
ATOM     46  C   UNL A   1      38.526  27.400  30.527  1.00  0.00     0.029 A 
ATOM     47  N   UNL A   1      39.742  29.207  30.874  1.00  0.00    -0.354 N 
ATOM     48  C   UNL A   1      43.315  29.925  28.226  1.00  0.00     0.074 A 
ATOM     49  C   UNL A   1      42.671  29.600  26.979  1.00  0.00     0.031 C 
ATOM     50  C   UNL A   1      37.759  28.265  31.228  1.00  0.00     0.029 A 
ATOM     51  C   UNL A   1      38.504  29.495  31.428  1.00  0.00     0.049 A 
ATOM     52  H   UNL A   1      40.531  29.783  30.999  1.00  0.00     0.167 HD
ATOM     53  C   UNL A   1      44.148  30.959  28.534  1.00  0.00     0.034 A 
ATOM     54  C   UNL A   1      38.086  30.710  31.867  1.00  0.00     0.034 A 
ATOM     55  C   UNL A   1      44.614  30.881  29.889  1.00  0.00     0.049 A 
ATOM     56  C   UNL A   1      39.291  31.557  32.074  1.00  0.00     0.074 A 
ATOM     57  C   UNL A   1      45.376  29.973  30.597  1.00  0.00     0.029 A 
ATOM     58  N   UNL A   1      43.982  31.655  30.834  1.00  0.00    -0.354 N 
ATOM     59  N   UNL A   1      40.187  31.337  32.996  1.00  0.00    -0.248 NA
ATOM     60  C   UNL A   1      39.740  32.359  30.943  1.00  0.00     0.031 C 
ATOM     61  C   UNL A   1      44.778  29.923  31.888  1.00  0.00     0.029 A 
ATOM     62  C   UNL A   1      43.726  30.842  31.909  1.00  0.00     0.049 A 
ATOM     63  H   UNL A   1      43.755  32.609  30.753  1.00  0.00     0.167 HD
ATOM     64  C   UNL A   1      41.402  31.583  32.371  1.00  0.00     0.074 A 
ATOM     65  C   UNL A   1      41.059  32.279  31.130  1.00  0.00     0.031 C 
ATOM     66  C   UNL A   1      42.552  30.950  32.752  1.00  0.00     0.034 A 
BRANCH  53  67
ATOM     67  C   UNL A   1      44.278  32.197  27.687  1.00  0.00     0.023 A 
ATOM     68  C   UNL A   1      43.663  33.417  28.029  1.00  0.00     0.031 A 
ATOM     69  C   UNL A   1      45.194  32.249  26.620  1.00  0.00     0.131 A 
ATOM     70  C   UNL A   1      43.915  34.596  27.320  1.00  0.00     0.055 A 
ATOM     71  C   UNL A   1      45.506  33.443  25.958  1.00  0.00     0.041 A 
ATOM     72  F   UNL A   1      45.853  31.148  26.223  1.00  0.00    -0.206 F 
ATOM     73  C   UNL A   1      44.861  34.626  26.303  1.00  0.00     0.022 A 
BRANCH  70  74
ATOM     74  S   UNL A   1      43.002  36.111  27.718  1.00  0.00     0.124 S 
ATOM     75  O   UNL A   1      41.793  35.577  28.335  1.00  0.00    -0.237 OA
ATOM     76  O   UNL A   1      43.930  36.788  28.621  1.00  0.00    -0.237 OA
ATOM     77  O   UNL A   1      42.828  36.753  26.419  1.00  0.00    -0.744 OA
ENDBRANCH  70  74
ENDBRANCH  53  67
BRANCH  54  78
ATOM     78  C   UNL A   1      36.760  31.299  31.535  1.00  0.00     0.023 A 
ATOM     79  C   UNL A   1      36.340  31.358  30.191  1.00  0.00     0.031 A 
ATOM     80  C   UNL A   1      36.031  32.054  32.467  1.00  0.00     0.131 A 
ATOM     81  C   UNL A   1      35.263  32.163  29.805  1.00  0.00     0.055 A 
ATOM     82  C   UNL A   1      34.942  32.850  32.083  1.00  0.00     0.041 A 
ATOM     83  F   UNL A   1      36.398  32.080  33.757  1.00  0.00    -0.206 F 
ATOM     84  C   UNL A   1      34.560  32.917  30.745  1.00  0.00     0.022 A 
BRANCH  81  85
ATOM     85  S   UNL A   1      34.809  32.299  28.055  1.00  0.00     0.124 S 
ATOM     86  O   UNL A   1      33.416  32.733  28.129  1.00  0.00    -0.237 OA
ATOM     87  O   UNL A   1      35.756  33.299  27.578  1.00  0.00    -0.237 OA
ATOM     88  O   UNL A   1      35.005  30.944  27.545  1.00  0.00    -0.744 OA
ENDBRANCH  81  85
ENDBRANCH  54  78
BRANCH  66  89
ATOM     89  C   UNL A   1      42.546  30.078  33.990  1.00  0.00     0.023 A 
ATOM     90  C   UNL A   1      43.057  30.635  35.176  1.00  0.00     0.031 A 
ATOM     91  C   UNL A   1      42.316  28.688  33.978  1.00  0.00     0.131 A 
ATOM     92  C   UNL A   1      43.367  29.814  36.267  1.00  0.00     0.055 A 
ATOM     93  C   UNL A   1      42.561  27.882  35.095  1.00  0.00     0.041 A 
ATOM     94  F   UNL A   1      41.944  28.050  32.863  1.00  0.00    -0.206 F 
ATOM     95  C   UNL A   1      43.107  28.442  36.242  1.00  0.00     0.022 A 
BRANCH  92  96
ATOM     96  S   UNL A   1      44.277  30.484  37.683  1.00  0.00     0.124 S 
ATOM     97  O   UNL A   1      44.819  29.277  38.299  1.00  0.00    -0.237 OA
ATOM     98  O   UNL A   1      45.259  31.352  37.036  1.00  0.00    -0.237 OA
ATOM     99  O   UNL A   1      43.258  31.181  38.461  1.00  0.00    -0.744 OA
ENDBRANCH  92  96
ENDBRANCH  66  89
ENDBRANCH  40  41
ENDBRANCH  33  35
ENDBRANCH  32  33
ENDBRANCH  31  32
ENDBRANCH   1  31
TORSDOF 19
ENDMDL
MODEL 2
REMARK VINA RESULT:     -12.0      3.371      8.998
REMARK SMILES Cc1ccc2c(c1)c(-c1ccnc3c(C)cccc13)c(C)n2CC(=O)OCCOCCOC(=O)c1ccc(-c2c3nc(c(-c4cc(S(=O)(=O)[O-])ccc4F)c4ccc([nH]4)c(-c4cc(S(=O)(=O)[O-])ccc4F)c4nc(c(-c5cc(S(=O)(=O)[O-])ccc5F)c5ccc2[nH]5)C=C4)C=C3)cc1
REMARK SMILES IDX 30 1 29 2 28 3 27 4 26 5 24 6 25 7 23 8 22 9 1 10 2 11 3 12
REMARK SMILES IDX 7 13 4 14 6 15 5 16 8 17 20 18 21 19 9 20 10 21 19 22 11 23
REMARK SMILES IDX 13 24 18 25 12 26 14 27 17 28 15 29 16 30 31 31 32 32 33 33
REMARK SMILES IDX 34 34 35 35 36 36 97 37 37 38 96 39 38 40 39 41 40 42 90 43
REMARK SMILES IDX 41 44 95 45 89 46 91 47 42 48 94 49 88 50 87 51 43 53 75 54
REMARK SMILES IDX 55 55 74 56 56 57 59 58 73 59 92 60 57 61 58 62 72 64 93 65
REMARK SMILES IDX 60 66 44 67 45 68 53 69 46 70 52 71 54 72 51 73 47 74 48 75
REMARK SMILES IDX 49 76 50 77 76 78 77 79 85 80 78 81 84 82 86 83 83 84 79 85
REMARK SMILES IDX 80 86 81 87 82 88 61 89 62 90 70 91 63 92 69 93 71 94 68 95
REMARK SMILES IDX 64 96 65 97 66 98 67 99
REMARK H PARENT 91 52 59 63
REMARK Flexibility Score: inf
ROOT
ATOM      1  C   UNL A   1      32.221  31.136  26.878  1.00  0.00     0.202 C 
ENDROOT
BRANCH   1   2
ATOM      2  O   UNL A   1      31.388  30.404  25.991  1.00  0.00    -0.374 OA
BRANCH   2   3
ATOM      3  C   UNL A   1      31.804  29.102  25.594  1.00  0.00     0.202 C 
BRANCH   3   4
ATOM      4  C   UNL A   1      32.103  28.789  24.116  1.00  0.00     0.261 C 
BRANCH   4   5
ATOM      5  O   UNL A   1      33.291  28.005  23.880  1.00  0.00    -0.462 OA
BRANCH   5   6
ATOM      6  C   UNL A   1      33.271  27.276  22.733  1.00  0.00     0.326 C 
ATOM      7  O   UNL A   1      33.987  27.503  21.758  1.00  0.00    -0.250 OA
BRANCH   6   8
ATOM      8  C   UNL A   1      32.327  26.103  22.704  1.00  0.00     0.244 C 
BRANCH   8   9
ATOM      9  N   UNL A   1      32.575  24.957  23.584  1.00  0.00    -0.333 N 
ATOM     10  C   UNL A   1      29.354  22.636  27.604  1.00  0.00     0.044 C 
ATOM     11  C   UNL A   1      30.229  23.371  26.633  1.00  0.00    -0.050 A 
ATOM     12  C   UNL A   1      29.854  24.624  26.145  1.00  0.00     0.005 A 
ATOM     13  C   UNL A   1      31.397  22.764  26.150  1.00  0.00     0.014 A 
ATOM     14  C   UNL A   1      30.607  25.280  25.165  1.00  0.00     0.027 A 
ATOM     15  C   UNL A   1      32.147  23.384  25.129  1.00  0.00     0.008 A 
ATOM     16  C   UNL A   1      31.730  24.623  24.636  1.00  0.00     0.049 A 
ATOM     17  C   UNL A   1      33.299  23.000  24.388  1.00  0.00     0.011 A 
ATOM     18  C   UNL A   1      33.409  23.877  23.314  1.00  0.00     0.024 A 
ATOM     19  C   UNL A   1      34.207  23.708  22.062  1.00  0.00     0.065 C 
BRANCH  17  20
ATOM     20  C   UNL A   1      34.124  21.804  24.548  1.00  0.00    -0.005 A 
ATOM     21  C   UNL A   1      35.387  21.934  25.116  1.00  0.00     0.029 A 
ATOM     22  C   UNL A   1      33.654  20.521  24.161  1.00  0.00     0.008 A 
ATOM     23  C   UNL A   1      36.110  20.785  25.342  1.00  0.00     0.112 A 
ATOM     24  C   UNL A   1      34.447  19.396  24.500  1.00  0.00     0.074 A 
ATOM     25  C   UNL A   1      32.447  20.320  23.456  1.00  0.00     0.011 A 
ATOM     26  N   UNL A   1      35.656  19.541  25.081  1.00  0.00    -0.256 NA
ATOM     27  C   UNL A   1      33.948  18.112  24.222  1.00  0.00    -0.025 A 
ATOM     28  C   UNL A   1      32.007  19.043  23.129  1.00  0.00     0.001 A 
ATOM     29  C   UNL A   1      34.674  16.862  24.646  1.00  0.00     0.047 C 
ATOM     30  C   UNL A   1      32.728  17.942  23.553  1.00  0.00     0.005 A 
ENDBRANCH  17  20
ENDBRANCH   8   9
ENDBRANCH   6   8
ENDBRANCH   5   6
ENDBRANCH   4   5
ENDBRANCH   3   4
ENDBRANCH   2   3
ENDBRANCH   1   2
BRANCH   1  31
ATOM     31  C   UNL A   1      33.692  30.741  27.064  1.00  0.00     0.261 C 
BRANCH  31  32
ATOM     32  O   UNL A   1      34.280  31.309  28.229  1.00  0.00    -0.460 OA
BRANCH  32  33
ATOM     33  C   UNL A   1      35.448  31.961  28.005  1.00  0.00     0.338 C 
ATOM     34  O   UNL A   1      35.606  33.097  27.580  1.00  0.00    -0.246 OA
BRANCH  33  35
ATOM     35  C   UNL A   1      36.470  31.202  28.725  1.00  0.00     0.060 A 
ATOM     36  C   UNL A   1      37.493  31.858  29.421  1.00  0.00     0.016 A 
ATOM     37  C   UNL A   1      36.574  29.864  28.328  1.00  0.00     0.016 A 
ATOM     38  C   UNL A   1      38.701  31.201  29.571  1.00  0.00     0.010 A 
ATOM     39  C   UNL A   1      37.786  29.224  28.460  1.00  0.00     0.010 A 
ATOM     40  C   UNL A   1      38.860  29.924  29.012  1.00  0.00    -0.014 A 
BRANCH  40  41
ATOM     41  C   UNL A   1      40.159  29.280  29.126  1.00  0.00     0.031 A 
ATOM     42  C   UNL A   1      40.512  28.933  30.525  1.00  0.00     0.074 A 
ATOM     43  C   UNL A   1      40.885  28.865  28.070  1.00  0.00     0.049 A 
ATOM     44  N   UNL A   1      41.492  29.369  31.247  1.00  0.00    -0.248 NA
ATOM     45  C   UNL A   1      39.533  28.114  31.261  1.00  0.00     0.031 C 
ATOM     46  C   UNL A   1      40.490  28.802  26.661  1.00  0.00     0.029 A 
ATOM     47  N   UNL A   1      42.111  28.280  28.062  1.00  0.00    -0.354 N 
ATOM     48  C   UNL A   1      41.354  28.734  32.480  1.00  0.00     0.074 A 
ATOM     49  C   UNL A   1      40.042  28.139  32.490  1.00  0.00     0.031 C 
ATOM     50  C   UNL A   1      41.350  28.003  25.991  1.00  0.00     0.029 A 
ATOM     51  C   UNL A   1      42.406  27.588  26.898  1.00  0.00     0.049 A 
ATOM     52  H   UNL A   1      42.737  28.343  28.820  1.00  0.00     0.167 HD
ATOM     53  C   UNL A   1      42.401  28.554  33.334  1.00  0.00     0.034 A 
ATOM     54  C   UNL A   1      43.354  26.626  26.755  1.00  0.00     0.034 A 
ATOM     55  C   UNL A   1      43.517  29.387  32.992  1.00  0.00     0.049 A 
ATOM     56  C   UNL A   1      44.303  26.753  27.892  1.00  0.00     0.074 A 
ATOM     57  C   UNL A   1      43.720  30.752  32.931  1.00  0.00     0.029 A 
ATOM     58  N   UNL A   1      44.546  28.824  32.275  1.00  0.00    -0.354 N 
ATOM     59  N   UNL A   1      45.107  27.767  28.062  1.00  0.00    -0.248 NA
ATOM     60  C   UNL A   1      44.007  25.981  29.093  1.00  0.00     0.031 C 
ATOM     61  C   UNL A   1      44.544  30.947  31.787  1.00  0.00     0.029 A 
ATOM     62  C   UNL A   1      44.841  29.692  31.252  1.00  0.00     0.049 A 
ATOM     63  H   UNL A   1      44.986  27.963  32.458  1.00  0.00     0.167 HD
ATOM     64  C   UNL A   1      45.064  28.025  29.426  1.00  0.00     0.074 A 
ATOM     65  C   UNL A   1      44.427  26.847  30.017  1.00  0.00     0.031 C 
ATOM     66  C   UNL A   1      45.269  29.278  29.931  1.00  0.00     0.034 A 
BRANCH  53  67
ATOM     67  C   UNL A   1      42.500  27.390  34.286  1.00  0.00     0.023 A 
ATOM     68  C   UNL A   1      43.278  26.249  34.007  1.00  0.00     0.031 A 
ATOM     69  C   UNL A   1      41.988  27.481  35.593  1.00  0.00     0.131 A 
ATOM     70  C   UNL A   1      43.485  25.247  34.960  1.00  0.00     0.055 A 
ATOM     71  C   UNL A   1      42.258  26.516  36.571  1.00  0.00     0.041 A 
ATOM     72  F   UNL A   1      41.250  28.537  35.973  1.00  0.00    -0.206 F 
ATOM     73  C   UNL A   1      43.007  25.387  36.256  1.00  0.00     0.022 A 
BRANCH  70  74
ATOM     74  S   UNL A   1      44.385  23.737  34.512  1.00  0.00     0.124 S 
ATOM     75  O   UNL A   1      43.863  23.464  33.177  1.00  0.00    -0.237 OA
ATOM     76  O   UNL A   1      45.773  24.191  34.571  1.00  0.00    -0.237 OA
ATOM     77  O   UNL A   1      44.002  22.791  35.555  1.00  0.00    -0.744 OA
ENDBRANCH  70  74
ENDBRANCH  53  67
BRANCH  54  78
ATOM     78  C   UNL A   1      43.118  25.327  26.070  1.00  0.00     0.023 A 
ATOM     79  C   UNL A   1      42.125  24.453  26.556  1.00  0.00     0.031 A 
ATOM     80  C   UNL A   1      44.027  24.805  25.137  1.00  0.00     0.131 A 
ATOM     81  C   UNL A   1      42.074  23.116  26.146  1.00  0.00     0.055 A 
ATOM     82  C   UNL A   1      43.969  23.468  24.715  1.00  0.00     0.041 A 
ATOM     83  F   UNL A   1      45.026  25.565  24.662  1.00  0.00    -0.206 F 
ATOM     84  C   UNL A   1      42.996  22.613  25.229  1.00  0.00     0.022 A 
BRANCH  81  85
ATOM     85  S   UNL A   1      40.848  21.989  26.865  1.00  0.00     0.124 S 
ATOM     86  O   UNL A   1      41.321  20.685  26.407  1.00  0.00    -0.237 OA
ATOM     87  O   UNL A   1      41.003  22.250  28.291  1.00  0.00    -0.237 OA
ATOM     88  O   UNL A   1      39.588  22.430  26.271  1.00  0.00    -0.744 OA
ENDBRANCH  81  85
ENDBRANCH  54  78
BRANCH  66  89
ATOM     89  C   UNL A   1      45.716  30.390  29.004  1.00  0.00     0.023 A 
ATOM     90  C   UNL A   1      47.064  30.781  29.068  1.00  0.00     0.031 A 
ATOM     91  C   UNL A   1      44.836  31.224  28.287  1.00  0.00     0.131 A 
ATOM     92  C   UNL A   1      47.482  31.982  28.481  1.00  0.00     0.055 A 
ATOM     93  C   UNL A   1      45.269  32.387  27.642  1.00  0.00     0.041 A 
ATOM     94  F   UNL A   1      43.517  30.998  28.269  1.00  0.00    -0.206 F 
ATOM     95  C   UNL A   1      46.596  32.781  27.753  1.00  0.00     0.022 A 
BRANCH  92  96
ATOM     96  S   UNL A   1      49.146  32.622  28.796  1.00  0.00     0.124 S 
ATOM     97  O   UNL A   1      48.870  33.971  29.282  1.00  0.00    -0.237 OA
ATOM     98  O   UNL A   1      49.652  31.687  29.799  1.00  0.00    -0.237 OA
ATOM     99  O   UNL A   1      49.806  32.548  27.497  1.00  0.00    -0.744 OA
ENDBRANCH  92  96
ENDBRANCH  66  89
ENDBRANCH  40  41
ENDBRANCH  33  35
ENDBRANCH  32  33
ENDBRANCH  31  32
ENDBRANCH   1  31
TORSDOF 19
ENDMDL
MODEL 3
REMARK VINA RESULT:     -12.0      3.142      9.066
REMARK SMILES Cc1ccc2c(c1)c(-c1ccnc3c(C)cccc13)c(C)n2CC(=O)OCCOCCOC(=O)c1ccc(-c2c3nc(c(-c4cc(S(=O)(=O)[O-])ccc4F)c4ccc([nH]4)c(-c4cc(S(=O)(=O)[O-])ccc4F)c4nc(c(-c5cc(S(=O)(=O)[O-])ccc5F)c5ccc2[nH]5)C=C4)C=C3)cc1
REMARK SMILES IDX 30 1 29 2 28 3 27 4 26 5 24 6 25 7 23 8 22 9 1 10 2 11 3 12
REMARK SMILES IDX 7 13 4 14 6 15 5 16 8 17 20 18 21 19 9 20 10 21 19 22 11 23
REMARK SMILES IDX 13 24 18 25 12 26 14 27 17 28 15 29 16 30 31 31 32 32 33 33
REMARK SMILES IDX 34 34 35 35 36 36 97 37 37 38 96 39 38 40 39 41 40 42 90 43
REMARK SMILES IDX 41 44 95 45 89 46 91 47 42 48 94 49 88 50 87 51 43 53 75 54
REMARK SMILES IDX 55 55 74 56 56 57 59 58 73 59 92 60 57 61 58 62 72 64 93 65
REMARK SMILES IDX 60 66 44 67 45 68 53 69 46 70 52 71 54 72 51 73 47 74 48 75
REMARK SMILES IDX 49 76 50 77 76 78 77 79 85 80 78 81 84 82 86 83 83 84 79 85
REMARK SMILES IDX 80 86 81 87 82 88 61 89 62 90 70 91 63 92 69 93 71 94 68 95
REMARK SMILES IDX 64 96 65 97 66 98 67 99
REMARK H PARENT 91 52 59 63
REMARK Flexibility Score: inf
ROOT
ATOM      1  C   UNL A   1      32.563  29.813  27.283  1.00  0.00     0.202 C 
ENDROOT
BRANCH   1   2
ATOM      2  O   UNL A   1      31.689  29.567  26.191  1.00  0.00    -0.374 OA
BRANCH   2   3
ATOM      3  C   UNL A   1      32.015  28.516  25.288  1.00  0.00     0.202 C 
BRANCH   3   4
ATOM      4  C   UNL A   1      32.586  28.828  23.893  1.00  0.00     0.261 C 
BRANCH   4   5
ATOM      5  O   UNL A   1      32.768  27.684  23.032  1.00  0.00    -0.462 OA
BRANCH   5   6
ATOM      6  C   UNL A   1      31.615  27.134  22.569  1.00  0.00     0.326 C 
ATOM      7  O   UNL A   1      30.561  27.754  22.431  1.00  0.00    -0.250 OA
BRANCH   6   8
ATOM      8  C   UNL A   1      31.678  25.682  22.175  1.00  0.00     0.244 C 
BRANCH   8   9
ATOM      9  N   UNL A   1      32.011  24.675  23.186  1.00  0.00    -0.333 N 
ATOM     10  C   UNL A   1      29.146  22.931  27.732  1.00  0.00     0.044 C 
ATOM     11  C   UNL A   1      29.932  23.525  26.603  1.00  0.00    -0.050 A 
ATOM     12  C   UNL A   1      29.500  24.694  25.972  1.00  0.00     0.005 A 
ATOM     13  C   UNL A   1      31.070  22.863  26.121  1.00  0.00     0.014 A 
ATOM     14  C   UNL A   1      30.165  25.208  24.854  1.00  0.00     0.027 A 
ATOM     15  C   UNL A   1      31.729  23.335  24.966  1.00  0.00     0.008 A 
ATOM     16  C   UNL A   1      31.255  24.488  24.338  1.00  0.00     0.049 A 
ATOM     17  C   UNL A   1      32.828  22.856  24.200  1.00  0.00     0.011 A 
ATOM     18  C   UNL A   1      32.841  23.571  23.008  1.00  0.00     0.024 A 
ATOM     19  C   UNL A   1      33.543  23.231  21.733  1.00  0.00     0.065 C 
BRANCH  17  20
ATOM     20  C   UNL A   1      33.683  21.700  24.463  1.00  0.00    -0.005 A 
ATOM     21  C   UNL A   1      33.124  20.427  24.396  1.00  0.00     0.029 A 
ATOM     22  C   UNL A   1      35.064  21.849  24.755  1.00  0.00     0.008 A 
ATOM     23  C   UNL A   1      33.966  19.349  24.555  1.00  0.00     0.112 A 
ATOM     24  C   UNL A   1      35.854  20.676  24.834  1.00  0.00     0.074 A 
ATOM     25  C   UNL A   1      35.676  23.103  24.975  1.00  0.00     0.011 A 
ATOM     26  N   UNL A   1      35.299  19.450  24.735  1.00  0.00    -0.256 NA
ATOM     27  C   UNL A   1      37.242  20.808  25.015  1.00  0.00    -0.025 A 
ATOM     28  C   UNL A   1      37.040  23.205  25.223  1.00  0.00     0.001 A 
ATOM     29  C   UNL A   1      38.168  19.621  25.001  1.00  0.00     0.047 C 
ATOM     30  C   UNL A   1      37.827  22.070  25.194  1.00  0.00     0.005 A 
ENDBRANCH  17  20
ENDBRANCH   8   9
ENDBRANCH   6   8
ENDBRANCH   5   6
ENDBRANCH   4   5
ENDBRANCH   3   4
ENDBRANCH   2   3
ENDBRANCH   1   2
BRANCH   1  31
ATOM     31  C   UNL A   1      33.425  31.082  27.316  1.00  0.00     0.261 C 
BRANCH  31  32
ATOM     32  O   UNL A   1      34.821  30.811  27.260  1.00  0.00    -0.460 OA
BRANCH  32  33
ATOM     33  C   UNL A   1      35.603  31.808  27.747  1.00  0.00     0.338 C 
ATOM     34  O   UNL A   1      35.354  33.004  27.795  1.00  0.00    -0.246 OA
BRANCH  33  35
ATOM     35  C   UNL A   1      36.630  31.147  28.552  1.00  0.00     0.060 A 
ATOM     36  C   UNL A   1      37.606  31.894  29.222  1.00  0.00     0.016 A 
ATOM     37  C   UNL A   1      36.796  29.788  28.262  1.00  0.00     0.016 A 
ATOM     38  C   UNL A   1      38.833  31.300  29.456  1.00  0.00     0.010 A 
ATOM     39  C   UNL A   1      38.026  29.208  28.478  1.00  0.00     0.010 A 
ATOM     40  C   UNL A   1      39.056  29.990  29.003  1.00  0.00    -0.014 A 
BRANCH  40  41
ATOM     41  C   UNL A   1      40.374  29.409  29.202  1.00  0.00     0.031 A 
ATOM     42  C   UNL A   1      40.639  29.047  30.617  1.00  0.00     0.074 A 
ATOM     43  C   UNL A   1      41.198  29.055  28.196  1.00  0.00     0.049 A 
ATOM     44  N   UNL A   1      41.539  29.513  31.419  1.00  0.00    -0.248 NA
ATOM     45  C   UNL A   1      39.651  28.164  31.260  1.00  0.00     0.031 C 
ATOM     46  C   UNL A   1      40.912  29.006  26.760  1.00  0.00     0.029 A 
ATOM     47  N   UNL A   1      42.449  28.532  28.270  1.00  0.00    -0.354 N 
ATOM     48  C   UNL A   1      41.342  28.844  32.625  1.00  0.00     0.074 A 
ATOM     49  C   UNL A   1      40.065  28.185  32.524  1.00  0.00     0.031 C 
ATOM     50  C   UNL A   1      41.860  28.267  26.142  1.00  0.00     0.029 A 
ATOM     51  C   UNL A   1      42.865  27.883  27.117  1.00  0.00     0.049 A 
ATOM     52  H   UNL A   1      43.013  28.608  29.074  1.00  0.00     0.167 HD
ATOM     53  C   UNL A   1      42.330  28.696  33.553  1.00  0.00     0.034 A 
ATOM     54  C   UNL A   1      43.869  26.973  27.028  1.00  0.00     0.034 A 
ATOM     55  C   UNL A   1      43.425  29.591  33.312  1.00  0.00     0.049 A 
ATOM     56  C   UNL A   1      44.723  27.120  28.236  1.00  0.00     0.074 A 
ATOM     57  C   UNL A   1      43.561  30.965  33.294  1.00  0.00     0.029 A 
ATOM     58  N   UNL A   1      44.532  29.096  32.665  1.00  0.00    -0.354 N 
ATOM     59  N   UNL A   1      45.459  28.168  28.486  1.00  0.00    -0.248 NA
ATOM     60  C   UNL A   1      44.378  26.306  29.395  1.00  0.00     0.031 C 
ATOM     61  C   UNL A   1      44.458  31.228  32.220  1.00  0.00     0.029 A 
ATOM     62  C   UNL A   1      44.857  30.001  31.685  1.00  0.00     0.049 A 
ATOM     63  H   UNL A   1      45.000  28.254  32.864  1.00  0.00     0.167 HD
ATOM     64  C   UNL A   1      45.300  28.391  29.848  1.00  0.00     0.074 A 
ATOM     65  C   UNL A   1      44.683  27.170  30.366  1.00  0.00     0.031 C 
ATOM     66  C   UNL A   1      45.404  29.640  30.391  1.00  0.00     0.034 A 
BRANCH  53  67
ATOM     67  C   UNL A   1      42.417  27.516  34.486  1.00  0.00     0.023 A 
ATOM     68  C   UNL A   1      43.189  26.374  34.193  1.00  0.00     0.031 A 
ATOM     69  C   UNL A   1      41.899  27.589  35.792  1.00  0.00     0.131 A 
ATOM     70  C   UNL A   1      43.385  25.356  35.130  1.00  0.00     0.055 A 
ATOM     71  C   UNL A   1      42.159  26.607  36.756  1.00  0.00     0.041 A 
ATOM     72  F   UNL A   1      41.166  28.643  36.186  1.00  0.00    -0.206 F 
ATOM     73  C   UNL A   1      42.901  25.478  36.426  1.00  0.00     0.022 A 
BRANCH  70  74
ATOM     74  S   UNL A   1      44.277  23.848  34.662  1.00  0.00     0.124 S 
ATOM     75  O   UNL A   1      44.986  24.280  33.463  1.00  0.00    -0.237 OA
ATOM     76  O   UNL A   1      45.107  23.616  35.842  1.00  0.00    -0.237 OA
ATOM     77  O   UNL A   1      43.211  22.872  34.458  1.00  0.00    -0.744 OA
ENDBRANCH  70  74
ENDBRANCH  53  67
BRANCH  54  78
ATOM     78  C   UNL A   1      43.751  25.680  26.301  1.00  0.00     0.023 A 
ATOM     79  C   UNL A   1      42.768  24.749  26.691  1.00  0.00     0.031 A 
ATOM     80  C   UNL A   1      44.755  25.224  25.433  1.00  0.00     0.131 A 
ATOM     81  C   UNL A   1      42.815  23.421  26.252  1.00  0.00     0.055 A 
ATOM     82  C   UNL A   1      44.796  23.896  24.982  1.00  0.00     0.041 A 
ATOM     83  F   UNL A   1      45.749  26.042  25.053  1.00  0.00    -0.206 F 
ATOM     84  C   UNL A   1      43.829  22.984  25.400  1.00  0.00     0.022 A 
BRANCH  81  85
ATOM     85  S   UNL A   1      41.594  22.221  26.850  1.00  0.00     0.124 S 
ATOM     86  O   UNL A   1      42.323  21.547  27.922  1.00  0.00    -0.237 OA
ATOM     87  O   UNL A   1      40.506  23.091  27.278  1.00  0.00    -0.237 OA
ATOM     88  O   UNL A   1      41.323  21.394  25.676  1.00  0.00    -0.744 OA
ENDBRANCH  81  85
ENDBRANCH  54  78
BRANCH  66  89
ATOM     89  C   UNL A   1      45.861  30.795  29.524  1.00  0.00     0.023 A 
ATOM     90  C   UNL A   1      44.942  31.305  28.590  1.00  0.00     0.031 A 
ATOM     91  C   UNL A   1      47.201  31.212  29.404  1.00  0.00     0.131 A 
ATOM     92  C   UNL A   1      45.375  32.148  27.559  1.00  0.00     0.055 A 
ATOM     93  C   UNL A   1      47.617  32.110  28.416  1.00  0.00     0.041 A 
ATOM     94  F   UNL A   1      48.167  30.692  30.170  1.00  0.00    -0.206 F 
ATOM     95  C   UNL A   1      46.705  32.569  27.475  1.00  0.00     0.022 A 
BRANCH  92  96
ATOM     96  S   UNL A   1      44.256  32.580  26.204  1.00  0.00     0.124 S 
ATOM     97  O   UNL A   1      43.462  31.363  26.060  1.00  0.00    -0.237 OA
ATOM     98  O   UNL A   1      43.540  33.733  26.748  1.00  0.00    -0.237 OA
ATOM     99  O   UNL A   1      45.148  32.880  25.088  1.00  0.00    -0.744 OA
ENDBRANCH  92  96
ENDBRANCH  66  89
ENDBRANCH  40  41
ENDBRANCH  33  35
ENDBRANCH  32  33
ENDBRANCH  31  32
ENDBRANCH   1  31
TORSDOF 19
ENDMDL
