MODEL 1
REMARK VINA RESULT:      -8.8      0.000      0.000
REMARK SMILES COC[C@@H](C)[C@@](O)(C(=O)OCCOCCOC(=O)c1ccc(-c2c3nc(c(-c4cc(S(=O)(=O)[O-])ccc4F)c4ccc([nH]4)c(-c4cc(S(=O)(=O)[O-])ccc4F)c4nc(c(-c5cc(S(=O)(=O)[O-])ccc5F)c5ccc2[nH]5)C=C4)C=C3)cc1)C(C)C
REMARK SMILES IDX 13 1 12 2 11 3 10 4 8 5 9 6 6 7 4 8 5 9 3 10 2 11 1 12 7 13
REMARK SMILES IDX 82 15 83 16 84 17 14 18 15 19 16 20 17 21 18 22 19 23 20 24
REMARK SMILES IDX 81 25 21 26 80 27 22 28 23 29 24 30 74 31 25 32 79 33 73 34
REMARK SMILES IDX 75 35 26 36 78 37 72 38 71 39 27 41 59 42 39 43 58 44 40 45
REMARK SMILES IDX 43 46 57 47 76 48 41 49 42 50 56 52 77 53 44 54 28 55 29 56
REMARK SMILES IDX 37 57 30 58 36 59 38 60 35 61 31 62 32 63 33 64 34 65 60 66
REMARK SMILES IDX 61 67 69 68 62 69 68 70 70 71 67 72 63 73 64 74 65 75 66 76
REMARK SMILES IDX 45 77 46 78 54 79 47 80 53 81 55 82 52 83 48 84 49 85 50 86
REMARK SMILES IDX 51 87
REMARK H PARENT 7 14 75 40 43 51
REMARK Flexibility Score: inf
ROOT
ATOM      1  O   UNL A   1      38.362  22.897  26.656  1.00  0.00    -0.374 OA
ENDROOT
BRANCH   1   2
ATOM      2  C   UNL A   1      37.286  23.137  25.747  1.00  0.00     0.202 C 
BRANCH   2   3
ATOM      3  C   UNL A   1      35.888  23.342  26.341  1.00  0.00     0.261 C 
BRANCH   3   4
ATOM      4  O   UNL A   1      34.824  22.977  25.434  1.00  0.00    -0.461 OA
BRANCH   4   5
ATOM      5  C   UNL A   1      33.565  23.145  25.919  1.00  0.00     0.338 C 
ATOM      6  O   UNL A   1      33.290  23.975  26.783  1.00  0.00    -0.249 OA
BRANCH   5   7
ATOM      7  C   UNL A   1      32.493  22.179  25.295  1.00  0.00     0.168 C 
BRANCH   7   8
ATOM      8  C   UNL A   1      33.026  21.192  24.181  1.00  0.00     0.055 C 
ATOM      9  C   UNL A   1      32.176  21.071  22.916  1.00  0.00     0.014 C 
BRANCH   8  10
ATOM     10  C   UNL A   1      33.370  19.778  24.707  1.00  0.00     0.166 C 
BRANCH  10  11
ATOM     11  O   UNL A   1      32.226  18.991  25.053  1.00  0.00    -0.384 OA
ATOM     12  C   UNL A   1      32.530  17.673  25.504  1.00  0.00     0.194 C 
ENDBRANCH  10  11
ENDBRANCH   8  10
ENDBRANCH   7   8
BRANCH   7  13
ATOM     13  O   UNL A   1      32.138  21.380  26.461  1.00  0.00    -0.378 OA
ATOM     14  H   UNL A   1      32.218  20.438  26.243  1.00  0.00     0.212 HD
ENDBRANCH   7  13
BRANCH   7  15
ATOM     15  C   UNL A   1      31.230  23.076  24.992  1.00  0.00     0.026 C 
ATOM     16  C   UNL A   1      30.318  23.337  26.192  1.00  0.00     0.011 C 
ATOM     17  C   UNL A   1      31.463  24.383  24.227  1.00  0.00     0.011 C 
ENDBRANCH   7  15
ENDBRANCH   5   7
ENDBRANCH   4   5
ENDBRANCH   3   4
ENDBRANCH   2   3
ENDBRANCH   1   2
BRANCH   1  18
ATOM     18  C   UNL A   1      39.554  22.333  26.120  1.00  0.00     0.202 C 
BRANCH  18  19
ATOM     19  C   UNL A   1      39.628  20.798  26.038  1.00  0.00     0.261 C 
BRANCH  19  20
ATOM     20  O   UNL A   1      40.713  20.251  26.810  1.00  0.00    -0.460 OA
BRANCH  20  21
ATOM     21  C   UNL A   1      41.879  20.122  26.130  1.00  0.00     0.338 C 
ATOM     22  O   UNL A   1      42.184  19.205  25.378  1.00  0.00    -0.246 OA
BRANCH  21  23
ATOM     23  C   UNL A   1      42.685  21.355  26.235  1.00  0.00     0.060 A 
ATOM     24  C   UNL A   1      43.019  21.777  27.527  1.00  0.00     0.016 A 
ATOM     25  C   UNL A   1      43.043  22.126  25.126  1.00  0.00     0.016 A 
ATOM     26  C   UNL A   1      43.644  23.005  27.725  1.00  0.00     0.010 A 
ATOM     27  C   UNL A   1      43.668  23.367  25.328  1.00  0.00     0.010 A 
ATOM     28  C   UNL A   1      43.927  23.835  26.632  1.00  0.00    -0.014 A 
BRANCH  28  29
ATOM     29  C   UNL A   1      44.313  25.248  26.893  1.00  0.00     0.031 A 
ATOM     30  C   UNL A   1      43.276  26.194  27.444  1.00  0.00     0.074 A 
ATOM     31  C   UNL A   1      45.585  25.662  26.742  1.00  0.00     0.049 A 
ATOM     32  N   UNL A   1      43.392  27.453  27.779  1.00  0.00    -0.248 NA
ATOM     33  C   UNL A   1      41.930  25.640  27.649  1.00  0.00     0.031 C 
ATOM     34  C   UNL A   1      46.691  24.827  26.277  1.00  0.00     0.029 A 
ATOM     35  N   UNL A   1      46.162  26.885  26.975  1.00  0.00    -0.354 N 
ATOM     36  C   UNL A   1      42.137  27.842  28.236  1.00  0.00     0.074 A 
ATOM     37  C   UNL A   1      41.265  26.696  28.090  1.00  0.00     0.031 C 
ATOM     38  C   UNL A   1      47.815  25.564  26.259  1.00  0.00     0.029 A 
ATOM     39  C   UNL A   1      47.504  26.931  26.672  1.00  0.00     0.049 A 
ATOM     40  H   UNL A   1      45.663  27.658  27.326  1.00  0.00     0.167 HD
ATOM     41  C   UNL A   1      41.749  29.039  28.746  1.00  0.00     0.034 A 
ATOM     42  C   UNL A   1      48.374  27.961  26.704  1.00  0.00     0.034 A 
ATOM     43  C   UNL A   1      42.624  30.178  28.877  1.00  0.00     0.049 A 
ATOM     44  C   UNL A   1      47.896  29.314  27.175  1.00  0.00     0.074 A 
ATOM     45  C   UNL A   1      42.333  31.435  29.380  1.00  0.00     0.029 A 
ATOM     46  N   UNL A   1      43.959  30.207  28.492  1.00  0.00    -0.354 N 
ATOM     47  N   UNL A   1      46.705  29.669  27.602  1.00  0.00    -0.248 NA
ATOM     48  C   UNL A   1      48.882  30.404  27.179  1.00  0.00     0.031 C 
ATOM     49  C   UNL A   1      43.465  32.244  29.225  1.00  0.00     0.029 A 
ATOM     50  C   UNL A   1      44.492  31.469  28.710  1.00  0.00     0.049 A 
ATOM     51  H   UNL A   1      44.455  29.442  28.118  1.00  0.00     0.167 HD
ATOM     52  C   UNL A   1      46.810  31.014  27.954  1.00  0.00     0.074 A 
ATOM     53  C   UNL A   1      48.183  31.401  27.703  1.00  0.00     0.031 C 
ATOM     54  C   UNL A   1      45.860  31.851  28.445  1.00  0.00     0.034 A 
BRANCH  41  55
ATOM     55  C   UNL A   1      40.299  29.186  29.144  1.00  0.00     0.023 A 
ATOM     56  C   UNL A   1      39.890  29.160  30.490  1.00  0.00     0.031 A 
ATOM     57  C   UNL A   1      39.303  29.323  28.159  1.00  0.00     0.131 A 
ATOM     58  C   UNL A   1      38.525  29.198  30.809  1.00  0.00     0.055 A 
ATOM     59  C   UNL A   1      37.952  29.444  28.487  1.00  0.00     0.041 A 
ATOM     60  F   UNL A   1      39.628  29.328  26.856  1.00  0.00    -0.206 F 
ATOM     61  C   UNL A   1      37.554  29.366  29.818  1.00  0.00     0.022 A 
BRANCH  58  62
ATOM     62  S   UNL A   1      38.022  28.871  32.521  1.00  0.00     0.124 S 
ATOM     63  O   UNL A   1      36.653  29.380  32.529  1.00  0.00    -0.237 OA
ATOM     64  O   UNL A   1      38.166  27.423  32.621  1.00  0.00    -0.237 OA
ATOM     65  O   UNL A   1      38.973  29.649  33.312  1.00  0.00    -0.744 OA
ENDBRANCH  58  62
ENDBRANCH  41  55
BRANCH  42  66
ATOM     66  C   UNL A   1      49.777  27.777  26.225  1.00  0.00     0.023 A 
ATOM     67  C   UNL A   1      50.152  28.094  24.910  1.00  0.00     0.031 A 
ATOM     68  C   UNL A   1      50.752  27.218  27.072  1.00  0.00     0.131 A 
ATOM     69  C   UNL A   1      51.454  27.809  24.467  1.00  0.00     0.055 A 
ATOM     70  C   UNL A   1      52.061  26.992  26.644  1.00  0.00     0.041 A 
ATOM     71  F   UNL A   1      50.446  26.890  28.336  1.00  0.00    -0.206 F 
ATOM     72  C   UNL A   1      52.415  27.275  25.329  1.00  0.00     0.022 A 
BRANCH  69  73
ATOM     73  S   UNL A   1      51.854  28.059  22.714  1.00  0.00     0.124 S 
ATOM     74  O   UNL A   1      52.007  26.687  22.247  1.00  0.00    -0.237 OA
ATOM     75  O   UNL A   1      50.674  28.774  22.235  1.00  0.00    -0.237 OA
ATOM     76  O   UNL A   1      53.083  28.847  22.754  1.00  0.00    -0.744 OA
ENDBRANCH  69  73
ENDBRANCH  42  66
BRANCH  54  77
ATOM     77  C   UNL A   1      46.289  33.259  28.787  1.00  0.00     0.023 A 
ATOM     78  C   UNL A   1      46.152  34.323  27.877  1.00  0.00     0.031 A 
ATOM     79  C   UNL A   1      46.849  33.540  30.047  1.00  0.00     0.131 A 
ATOM     80  C   UNL A   1      46.621  35.601  28.216  1.00  0.00     0.055 A 
ATOM     81  C   UNL A   1      47.255  34.827  30.404  1.00  0.00     0.041 A 
ATOM     82  F   UNL A   1      47.007  32.565  30.958  1.00  0.00    -0.206 F 
ATOM     83  C   UNL A   1      47.154  35.864  29.481  1.00  0.00     0.022 A 
BRANCH  80  84
ATOM     84  S   UNL A   1      46.617  36.898  26.949  1.00  0.00     0.124 S 
ATOM     85  O   UNL A   1      45.202  37.245  26.874  1.00  0.00    -0.237 OA
ATOM     86  O   UNL A   1      47.492  37.910  27.533  1.00  0.00    -0.237 OA
ATOM     87  O   UNL A   1      47.153  36.225  25.767  1.00  0.00    -0.744 OA
ENDBRANCH  80  84
ENDBRANCH  54  77
ENDBRANCH  28  29
ENDBRANCH  21  23
ENDBRANCH  20  21
ENDBRANCH  19  20
ENDBRANCH  18  19
ENDBRANCH   1  18
TORSDOF 22
ENDMDL
MODEL 2
REMARK VINA RESULT:      -8.8      2.774      8.359
REMARK SMILES COC[C@@H](C)[C@@](O)(C(=O)OCCOCCOC(=O)c1ccc(-c2c3nc(c(-c4cc(S(=O)(=O)[O-])ccc4F)c4ccc([nH]4)c(-c4cc(S(=O)(=O)[O-])ccc4F)c4nc(c(-c5cc(S(=O)(=O)[O-])ccc5F)c5ccc2[nH]5)C=C4)C=C3)cc1)C(C)C
REMARK SMILES IDX 13 1 12 2 11 3 10 4 8 5 9 6 6 7 4 8 5 9 3 10 2 11 1 12 7 13
REMARK SMILES IDX 82 15 83 16 84 17 14 18 15 19 16 20 17 21 18 22 19 23 20 24
REMARK SMILES IDX 81 25 21 26 80 27 22 28 23 29 24 30 74 31 25 32 79 33 73 34
REMARK SMILES IDX 75 35 26 36 78 37 72 38 71 39 27 41 59 42 39 43 58 44 40 45
REMARK SMILES IDX 43 46 57 47 76 48 41 49 42 50 56 52 77 53 44 54 28 55 29 56
REMARK SMILES IDX 37 57 30 58 36 59 38 60 35 61 31 62 32 63 33 64 34 65 60 66
REMARK SMILES IDX 61 67 69 68 62 69 68 70 70 71 67 72 63 73 64 74 65 75 66 76
REMARK SMILES IDX 45 77 46 78 54 79 47 80 53 81 55 82 52 83 48 84 49 85 50 86
REMARK SMILES IDX 51 87
REMARK H PARENT 7 14 75 40 43 51
REMARK Flexibility Score: inf
ROOT
ATOM      1  O   UNL A   1      37.099  21.452  25.514  1.00  0.00    -0.374 OA
ENDROOT
BRANCH   1   2
ATOM      2  C   UNL A   1      35.927  22.144  25.082  1.00  0.00     0.202 C 
BRANCH   2   3
ATOM      3  C   UNL A   1      36.081  23.610  24.664  1.00  0.00     0.261 C 
BRANCH   3   4
ATOM      4  O   UNL A   1      34.819  24.297  24.516  1.00  0.00    -0.461 OA
BRANCH   4   5
ATOM      5  C   UNL A   1      34.152  24.042  23.358  1.00  0.00     0.338 C 
ATOM      6  O   UNL A   1      34.692  23.536  22.376  1.00  0.00    -0.249 OA
BRANCH   5   7
ATOM      7  C   UNL A   1      32.637  24.461  23.373  1.00  0.00     0.168 C 
BRANCH   7   8
ATOM      8  C   UNL A   1      32.354  26.010  23.224  1.00  0.00     0.055 C 
ATOM      9  C   UNL A   1      31.385  26.420  22.116  1.00  0.00     0.014 C 
BRANCH   8  10
ATOM     10  C   UNL A   1      33.634  26.876  23.135  1.00  0.00     0.166 C 
BRANCH  10  11
ATOM     11  O   UNL A   1      33.751  27.850  24.175  1.00  0.00    -0.384 OA
ATOM     12  C   UNL A   1      33.126  27.482  25.403  1.00  0.00     0.194 C 
ENDBRANCH  10  11
ENDBRANCH   8  10
ENDBRANCH   7   8
BRANCH   7  13
ATOM     13  O   UNL A   1      32.162  23.806  22.162  1.00  0.00    -0.378 OA
ATOM     14  H   UNL A   1      31.295  23.405  22.329  1.00  0.00     0.212 HD
ENDBRANCH   7  13
BRANCH   7  15
ATOM     15  C   UNL A   1      31.982  23.669  24.571  1.00  0.00     0.026 C 
ATOM     16  C   UNL A   1      31.936  22.151  24.395  1.00  0.00     0.011 C 
ATOM     17  C   UNL A   1      32.462  24.011  25.986  1.00  0.00     0.011 C 
ENDBRANCH   7  15
ENDBRANCH   5   7
ENDBRANCH   4   5
ENDBRANCH   3   4
ENDBRANCH   2   3
ENDBRANCH   1   2
BRANCH   1  18
ATOM     18  C   UNL A   1      37.309  20.142  24.999  1.00  0.00     0.202 C 
BRANCH  18  19
ATOM     19  C   UNL A   1      38.729  19.560  25.119  1.00  0.00     0.261 C 
BRANCH  19  20
ATOM     20  O   UNL A   1      39.337  19.835  26.395  1.00  0.00    -0.460 OA
BRANCH  20  21
ATOM     21  C   UNL A   1      40.635  20.222  26.329  1.00  0.00     0.338 C 
ATOM     22  O   UNL A   1      41.528  19.665  25.701  1.00  0.00    -0.246 OA
BRANCH  21  23
ATOM     23  C   UNL A   1      40.817  21.551  26.946  1.00  0.00     0.060 A 
ATOM     24  C   UNL A   1      40.203  22.631  26.300  1.00  0.00     0.016 A 
ATOM     25  C   UNL A   1      41.619  21.764  28.070  1.00  0.00     0.016 A 
ATOM     26  C   UNL A   1      40.447  23.934  26.725  1.00  0.00     0.010 A 
ATOM     27  C   UNL A   1      41.868  23.079  28.493  1.00  0.00     0.010 A 
ATOM     28  C   UNL A   1      41.323  24.173  27.792  1.00  0.00    -0.014 A 
BRANCH  28  29
ATOM     29  C   UNL A   1      41.793  25.565  28.027  1.00  0.00     0.031 A 
ATOM     30  C   UNL A   1      43.149  25.970  27.508  1.00  0.00     0.074 A 
ATOM     31  C   UNL A   1      40.993  26.483  28.600  1.00  0.00     0.049 A 
ATOM     32  N   UNL A   1      43.750  27.132  27.565  1.00  0.00    -0.248 NA
ATOM     33  C   UNL A   1      43.927  24.925  26.829  1.00  0.00     0.031 C 
ATOM     34  C   UNL A   1      39.637  26.231  29.086  1.00  0.00     0.029 A 
ATOM     35  N   UNL A   1      41.200  27.816  28.858  1.00  0.00    -0.354 N 
ATOM     36  C   UNL A   1      44.975  26.957  26.928  1.00  0.00     0.074 A 
ATOM     37  C   UNL A   1      45.048  25.566  26.536  1.00  0.00     0.031 C 
ATOM     38  C   UNL A   1      39.134  27.374  29.584  1.00  0.00     0.029 A 
ATOM     39  C   UNL A   1      40.142  28.428  29.490  1.00  0.00     0.049 A 
ATOM     40  H   UNL A   1      42.028  28.289  28.614  1.00  0.00     0.167 HD
ATOM     41  C   UNL A   1      45.943  27.875  26.679  1.00  0.00     0.034 A 
ATOM     42  C   UNL A   1      40.011  29.686  29.958  1.00  0.00     0.034 A 
ATOM     43  C   UNL A   1      45.864  29.257  27.085  1.00  0.00     0.049 A 
ATOM     44  C   UNL A   1      41.145  30.666  29.763  1.00  0.00     0.074 A 
ATOM     45  C   UNL A   1      46.788  30.269  26.882  1.00  0.00     0.029 A 
ATOM     46  N   UNL A   1      44.807  29.823  27.787  1.00  0.00    -0.354 N 
ATOM     47  N   UNL A   1      42.299  30.487  29.161  1.00  0.00    -0.248 NA
ATOM     48  C   UNL A   1      40.954  32.020  30.301  1.00  0.00     0.031 C 
ATOM     49  C   UNL A   1      46.327  31.421  27.529  1.00  0.00     0.029 A 
ATOM     50  C   UNL A   1      45.074  31.157  28.058  1.00  0.00     0.049 A 
ATOM     51  H   UNL A   1      43.988  29.346  28.053  1.00  0.00     0.167 HD
ATOM     52  C   UNL A   1      42.956  31.715  29.223  1.00  0.00     0.074 A 
ATOM     53  C   UNL A   1      42.063  32.628  29.907  1.00  0.00     0.031 C 
ATOM     54  C   UNL A   1      44.183  32.058  28.753  1.00  0.00     0.034 A 
BRANCH  41  55
ATOM     55  C   UNL A   1      47.194  27.391  25.982  1.00  0.00     0.023 A 
ATOM     56  C   UNL A   1      48.314  26.932  26.699  1.00  0.00     0.031 A 
ATOM     57  C   UNL A   1      47.281  27.420  24.578  1.00  0.00     0.131 A 
ATOM     58  C   UNL A   1      49.490  26.588  26.016  1.00  0.00     0.055 A 
ATOM     59  C   UNL A   1      48.425  26.998  23.900  1.00  0.00     0.041 A 
ATOM     60  F   UNL A   1      46.254  27.872  23.840  1.00  0.00    -0.206 F 
ATOM     61  C   UNL A   1      49.545  26.594  24.620  1.00  0.00     0.022 A 
BRANCH  58  62
ATOM     62  S   UNL A   1      50.997  26.282  26.979  1.00  0.00     0.124 S 
ATOM     63  O   UNL A   1      50.710  27.009  28.214  1.00  0.00    -0.237 OA
ATOM     64  O   UNL A   1      51.015  24.827  27.082  1.00  0.00    -0.237 OA
ATOM     65  O   UNL A   1      52.055  26.863  26.156  1.00  0.00    -0.744 OA
ENDBRANCH  58  62
ENDBRANCH  41  55
BRANCH  42  66
ATOM     66  C   UNL A   1      38.783  30.088  30.706  1.00  0.00     0.023 A 
ATOM     67  C   UNL A   1      37.736  30.784  30.081  1.00  0.00     0.031 A 
ATOM     68  C   UNL A   1      38.671  29.830  32.085  1.00  0.00     0.131 A 
ATOM     69  C   UNL A   1      36.646  31.237  30.842  1.00  0.00     0.055 A 
ATOM     70  C   UNL A   1      37.557  30.230  32.825  1.00  0.00     0.041 A 
ATOM     71  F   UNL A   1      39.645  29.175  32.735  1.00  0.00    -0.206 F 
ATOM     72  C   UNL A   1      36.541  30.951  32.205  1.00  0.00     0.022 A 
BRANCH  69  73
ATOM     73  S   UNL A   1      35.402  32.290  30.043  1.00  0.00     0.124 S 
ATOM     74  O   UNL A   1      34.451  32.499  31.128  1.00  0.00    -0.237 OA
ATOM     75  O   UNL A   1      36.195  33.450  29.650  1.00  0.00    -0.237 OA
ATOM     76  O   UNL A   1      34.917  31.466  28.938  1.00  0.00    -0.744 OA
ENDBRANCH  69  73
ENDBRANCH  42  66
BRANCH  54  77
ATOM     77  C   UNL A   1      44.611  33.498  28.921  1.00  0.00     0.023 A 
ATOM     78  C   UNL A   1      45.344  33.932  30.041  1.00  0.00     0.031 A 
ATOM     79  C   UNL A   1      44.273  34.454  27.946  1.00  0.00     0.131 A 
ATOM     80  C   UNL A   1      45.666  35.290  30.184  1.00  0.00     0.055 A 
ATOM     81  C   UNL A   1      44.652  35.792  28.062  1.00  0.00     0.041 A 
ATOM     82  F   UNL A   1      43.572  34.100  26.856  1.00  0.00    -0.206 F 
ATOM     83  C   UNL A   1      45.341  36.220  29.193  1.00  0.00     0.022 A 
BRANCH  80  84
ATOM     84  S   UNL A   1      46.431  35.847  31.732  1.00  0.00     0.124 S 
ATOM     85  O   UNL A   1      46.757  37.236  31.427  1.00  0.00    -0.237 OA
ATOM     86  O   UNL A   1      45.360  35.641  32.702  1.00  0.00    -0.237 OA
ATOM     87  O   UNL A   1      47.582  34.959  31.884  1.00  0.00    -0.744 OA
ENDBRANCH  80  84
ENDBRANCH  54  77
ENDBRANCH  28  29
ENDBRANCH  21  23
ENDBRANCH  20  21
ENDBRANCH  19  20
ENDBRANCH  18  19
ENDBRANCH   1  18
TORSDOF 22
ENDMDL
MODEL 3
REMARK VINA RESULT:      -8.6      2.386      3.460
REMARK SMILES COC[C@@H](C)[C@@](O)(C(=O)OCCOCCOC(=O)c1ccc(-c2c3nc(c(-c4cc(S(=O)(=O)[O-])ccc4F)c4ccc([nH]4)c(-c4cc(S(=O)(=O)[O-])ccc4F)c4nc(c(-c5cc(S(=O)(=O)[O-])ccc5F)c5ccc2[nH]5)C=C4)C=C3)cc1)C(C)C
REMARK SMILES IDX 13 1 12 2 11 3 10 4 8 5 9 6 6 7 4 8 5 9 3 10 2 11 1 12 7 13
REMARK SMILES IDX 82 15 83 16 84 17 14 18 15 19 16 20 17 21 18 22 19 23 20 24
REMARK SMILES IDX 81 25 21 26 80 27 22 28 23 29 24 30 74 31 25 32 79 33 73 34
REMARK SMILES IDX 75 35 26 36 78 37 72 38 71 39 27 41 59 42 39 43 58 44 40 45
REMARK SMILES IDX 43 46 57 47 76 48 41 49 42 50 56 52 77 53 44 54 28 55 29 56
REMARK SMILES IDX 37 57 30 58 36 59 38 60 35 61 31 62 32 63 33 64 34 65 60 66
REMARK SMILES IDX 61 67 69 68 62 69 68 70 70 71 67 72 63 73 64 74 65 75 66 76
REMARK SMILES IDX 45 77 46 78 54 79 47 80 53 81 55 82 52 83 48 84 49 85 50 86
REMARK SMILES IDX 51 87
REMARK H PARENT 7 14 75 40 43 51
REMARK Flexibility Score: inf
ROOT
ATOM      1  O   UNL A   1      37.415  21.368  25.368  1.00  0.00    -0.374 OA
ENDROOT
BRANCH   1   2
ATOM      2  C   UNL A   1      36.637  22.346  24.676  1.00  0.00     0.202 C 
BRANCH   2   3
ATOM      3  C   UNL A   1      36.341  23.662  25.405  1.00  0.00     0.261 C 
BRANCH   3   4
ATOM      4  O   UNL A   1      35.327  24.459  24.753  1.00  0.00    -0.461 OA
BRANCH   4   5
ATOM      5  C   UNL A   1      34.085  24.380  25.300  1.00  0.00     0.338 C 
ATOM      6  O   UNL A   1      33.878  23.905  26.415  1.00  0.00    -0.249 OA
BRANCH   5   7
ATOM      7  C   UNL A   1      32.933  24.932  24.384  1.00  0.00     0.168 C 
BRANCH   7   8
ATOM      8  C   UNL A   1      32.191  26.222  24.920  1.00  0.00     0.055 C 
ATOM      9  C   UNL A   1      31.316  26.037  26.159  1.00  0.00     0.014 C 
BRANCH   8  10
ATOM     10  C   UNL A   1      31.392  26.982  23.834  1.00  0.00     0.166 C 
BRANCH  10  11
ATOM     11  O   UNL A   1      32.068  28.128  23.308  1.00  0.00    -0.384 OA
ATOM     12  C   UNL A   1      33.144  28.601  24.116  1.00  0.00     0.194 C 
ENDBRANCH  10  11
ENDBRANCH   8  10
ENDBRANCH   7   8
BRANCH   7  13
ATOM     13  O   UNL A   1      33.689  25.317  23.200  1.00  0.00    -0.378 OA
ATOM     14  H   UNL A   1      34.176  26.136  23.379  1.00  0.00     0.212 HD
ENDBRANCH   7  13
BRANCH   7  15
ATOM     15  C   UNL A   1      32.082  23.674  23.956  1.00  0.00     0.026 C 
ATOM     16  C   UNL A   1      32.890  22.511  23.379  1.00  0.00     0.011 C 
ATOM     17  C   UNL A   1      31.060  23.140  24.967  1.00  0.00     0.011 C 
ENDBRANCH   7  15
ENDBRANCH   5   7
ENDBRANCH   4   5
ENDBRANCH   3   4
ENDBRANCH   2   3
ENDBRANCH   1   2
BRANCH   1  18
ATOM     18  C   UNL A   1      37.488  20.068  24.793  1.00  0.00     0.202 C 
BRANCH  18  19
ATOM     19  C   UNL A   1      38.682  19.186  25.201  1.00  0.00     0.261 C 
BRANCH  19  20
ATOM     20  O   UNL A   1      39.277  19.596  26.446  1.00  0.00    -0.460 OA
BRANCH  20  21
ATOM     21  C   UNL A   1      40.595  19.903  26.366  1.00  0.00     0.338 C 
ATOM     22  O   UNL A   1      41.461  19.246  25.801  1.00  0.00    -0.246 OA
BRANCH  21  23
ATOM     23  C   UNL A   1      40.846  21.267  26.872  1.00  0.00     0.060 A 
ATOM     24  C   UNL A   1      40.410  22.325  26.064  1.00  0.00     0.016 A 
ATOM     25  C   UNL A   1      41.551  21.524  28.051  1.00  0.00     0.016 A 
ATOM     26  C   UNL A   1      40.740  23.638  26.389  1.00  0.00     0.010 A 
ATOM     27  C   UNL A   1      41.887  22.848  28.374  1.00  0.00     0.010 A 
ATOM     28  C   UNL A   1      41.525  23.907  27.517  1.00  0.00    -0.014 A 
BRANCH  28  29
ATOM     29  C   UNL A   1      42.106  25.269  27.670  1.00  0.00     0.031 A 
ATOM     30  C   UNL A   1      41.284  26.337  28.346  1.00  0.00     0.074 A 
ATOM     31  C   UNL A   1      43.377  25.528  27.310  1.00  0.00     0.049 A 
ATOM     32  N   UNL A   1      41.595  27.578  28.619  1.00  0.00    -0.248 NA
ATOM     33  C   UNL A   1      39.934  25.947  28.776  1.00  0.00     0.031 C 
ATOM     34  C   UNL A   1      44.293  24.563  26.705  1.00  0.00     0.029 A 
ATOM     35  N   UNL A   1      44.119  26.678  27.411  1.00  0.00    -0.354 N 
ATOM     36  C   UNL A   1      40.480  28.118  29.254  1.00  0.00     0.074 A 
ATOM     37  C   UNL A   1      39.471  27.080  29.281  1.00  0.00     0.031 C 
ATOM     38  C   UNL A   1      45.477  25.163  26.489  1.00  0.00     0.029 A 
ATOM     39  C   UNL A   1      45.392  26.562  26.902  1.00  0.00     0.049 A 
ATOM     40  H   UNL A   1      43.773  27.509  27.811  1.00  0.00     0.167 HD
ATOM     41  C   UNL A   1      40.316  29.358  29.779  1.00  0.00     0.034 A 
ATOM     42  C   UNL A   1      46.368  27.484  26.765  1.00  0.00     0.034 A 
ATOM     43  C   UNL A   1      41.325  30.389  29.736  1.00  0.00     0.049 A 
ATOM     44  C   UNL A   1      46.127  28.890  27.262  1.00  0.00     0.074 A 
ATOM     45  C   UNL A   1      41.263  31.678  30.239  1.00  0.00     0.029 A 
ATOM     46  N   UNL A   1      42.577  30.256  29.147  1.00  0.00    -0.354 N 
ATOM     47  N   UNL A   1      45.068  29.387  27.858  1.00  0.00    -0.248 NA
ATOM     48  C   UNL A   1      47.219  29.857  27.078  1.00  0.00     0.031 C 
ATOM     49  C   UNL A   1      42.440  32.346  29.884  1.00  0.00     0.029 A 
ATOM     50  C   UNL A   1      43.277  31.449  29.240  1.00  0.00     0.049 A 
ATOM     51  H   UNL A   1      42.917  29.433  28.725  1.00  0.00     0.167 HD
ATOM     52  C   UNL A   1      45.380  30.716  28.146  1.00  0.00     0.074 A 
ATOM     53  C   UNL A   1      46.731  30.935  27.672  1.00  0.00     0.031 C 
ATOM     54  C   UNL A   1      44.620  31.664  28.753  1.00  0.00     0.034 A 
BRANCH  41  55
ATOM     55  C   UNL A   1      38.974  29.680  30.394  1.00  0.00     0.023 A 
ATOM     56  C   UNL A   1      37.969  30.355  29.676  1.00  0.00     0.031 A 
ATOM     57  C   UNL A   1      38.704  29.333  31.730  1.00  0.00     0.131 A 
ATOM     58  C   UNL A   1      36.777  30.722  30.317  1.00  0.00     0.055 A 
ATOM     59  C   UNL A   1      37.483  29.629  32.338  1.00  0.00     0.041 A 
ATOM     60  F   UNL A   1      39.632  28.711  32.475  1.00  0.00    -0.206 F 
ATOM     61  C   UNL A   1      36.516  30.341  31.636  1.00  0.00     0.022 A 
BRANCH  58  62
ATOM     62  S   UNL A   1      35.635  31.838  29.455  1.00  0.00     0.124 S 
ATOM     63  O   UNL A   1      34.760  32.264  30.545  1.00  0.00    -0.237 OA
ATOM     64  O   UNL A   1      36.533  32.856  28.920  1.00  0.00    -0.237 OA
ATOM     65  O   UNL A   1      35.002  30.978  28.458  1.00  0.00    -0.744 OA
ENDBRANCH  58  62
ENDBRANCH  41  55
BRANCH  42  66
ATOM     66  C   UNL A   1      47.647  27.130  26.080  1.00  0.00     0.023 A 
ATOM     67  C   UNL A   1      48.733  26.589  26.786  1.00  0.00     0.031 A 
ATOM     68  C   UNL A   1      47.819  27.392  24.708  1.00  0.00     0.131 A 
ATOM     69  C   UNL A   1      49.954  26.368  26.128  1.00  0.00     0.055 A 
ATOM     70  C   UNL A   1      49.015  27.116  24.046  1.00  0.00     0.041 A 
ATOM     71  F   UNL A   1      46.816  27.916  23.986  1.00  0.00    -0.206 F 
ATOM     72  C   UNL A   1      50.098  26.612  24.760  1.00  0.00     0.022 A 
BRANCH  69  73
ATOM     73  S   UNL A   1      51.389  25.841  27.106  1.00  0.00     0.124 S 
ATOM     74  O   UNL A   1      52.188  27.060  27.139  1.00  0.00    -0.237 OA
ATOM     75  O   UNL A   1      50.767  25.445  28.366  1.00  0.00    -0.237 OA
ATOM     76  O   UNL A   1      51.953  24.745  26.321  1.00  0.00    -0.744 OA
ENDBRANCH  69  73
ENDBRANCH  42  66
BRANCH  54  77
ATOM     77  C   UNL A   1      45.256  33.017  28.980  1.00  0.00     0.023 A 
ATOM     78  C   UNL A   1      45.267  34.012  27.985  1.00  0.00     0.031 A 
ATOM     79  C   UNL A   1      45.865  33.313  30.212  1.00  0.00     0.131 A 
ATOM     80  C   UNL A   1      45.923  35.230  28.220  1.00  0.00     0.055 A 
ATOM     81  C   UNL A   1      46.459  34.551  30.464  1.00  0.00     0.041 A 
ATOM     82  F   UNL A   1      45.888  32.403  31.200  1.00  0.00    -0.206 F 
ATOM     83  C   UNL A   1      46.503  35.513  29.460  1.00  0.00     0.022 A 
BRANCH  80  84
ATOM     84  S   UNL A   1      46.096  36.407  26.850  1.00  0.00     0.124 S 
ATOM     85  O   UNL A   1      46.069  35.526  25.687  1.00  0.00    -0.237 OA
ATOM     86  O   UNL A   1      44.929  37.266  27.027  1.00  0.00    -0.237 OA
ATOM     87  O   UNL A   1      47.382  37.050  27.111  1.00  0.00    -0.744 OA
ENDBRANCH  80  84
ENDBRANCH  54  77
ENDBRANCH  28  29
ENDBRANCH  21  23
ENDBRANCH  20  21
ENDBRANCH  19  20
ENDBRANCH  18  19
ENDBRANCH   1  18
TORSDOF 22
ENDMDL
