MODEL 1
REMARK VINA RESULT:     -12.0      0.000      0.000
REMARK SMILES Cc1cc(OC(F)(F)F)cc2c1O[C@H](C(F)(F)F)C(C(=O)OCCOCCOC(=O)c1ccc(-c3c4nc(c(-c5cc(S(=O)(=O)[O-])ccc5F)c5ccc([nH]5)c(-c5cc(S(=O)(=O)[O-])ccc5F)c5nc(c(-c6cc(S(=O)(=O)[O-])ccc6F)c6ccc3[nH]6)C=C5)C=C4)cc1)=C2
REMARK SMILES IDX 26 1 25 2 24 3 23 4 22 5 20 6 21 7 19 8 1 9 2 10 3 11 12 12
REMARK SMILES IDX 4 13 11 14 13 15 10 16 94 17 14 18 5 19 6 20 7 21 8 22 9 23
REMARK SMILES IDX 15 24 16 25 17 26 18 27 27 28 28 29 29 30 30 31 31 32 32 33
REMARK SMILES IDX 93 34 33 35 92 36 34 37 35 38 36 39 86 40 37 41 91 42 85 43
REMARK SMILES IDX 87 44 38 45 90 46 84 47 83 48 39 50 71 51 51 52 70 53 52 54
REMARK SMILES IDX 55 55 69 56 88 57 53 58 54 59 68 61 89 62 56 63 40 64 41 65
REMARK SMILES IDX 49 66 42 67 48 68 50 69 47 70 43 71 44 72 45 73 46 74 72 75
REMARK SMILES IDX 73 76 81 77 74 78 80 79 82 80 79 81 75 82 76 83 77 84 78 85
REMARK SMILES IDX 57 86 58 87 66 88 59 89 65 90 67 91 64 92 60 93 61 94 62 95
REMARK SMILES IDX 63 96
REMARK H PARENT 87 49 55 60
REMARK Flexibility Score: inf
ROOT
ATOM      1  C   UNL A   1      32.322  29.566  24.890  1.00  0.00     0.202 C 
ENDROOT
BRANCH   1   2
ATOM      2  O   UNL A   1      31.526  28.502  24.363  1.00  0.00    -0.374 OA
BRANCH   2   3
ATOM      3  C   UNL A   1      31.375  28.436  22.945  1.00  0.00     0.202 C 
BRANCH   3   4
ATOM      4  C   UNL A   1      30.920  27.089  22.377  1.00  0.00     0.261 C 
BRANCH   4   5
ATOM      5  O   UNL A   1      31.866  26.049  22.672  1.00  0.00    -0.460 OA
BRANCH   5   6
ATOM      6  C   UNL A   1      31.401  25.080  23.494  1.00  0.00     0.338 C 
ATOM      7  O   UNL A   1      30.266  24.971  23.931  1.00  0.00    -0.246 OA
BRANCH   6   8
ATOM      8  C   UNL A   1      32.443  24.057  23.702  1.00  0.00     0.087 C 
ATOM      9  C   UNL A   1      36.639  21.355  24.983  1.00  0.00     0.048 C 
ATOM     10  C   UNL A   1      35.198  21.064  24.656  1.00  0.00    -0.005 A 
ATOM     11  C   UNL A   1      34.736  19.740  24.795  1.00  0.00     0.054 A 
ATOM     12  C   UNL A   1      34.305  22.067  24.253  1.00  0.00     0.131 A 
ATOM     13  C   UNL A   1      33.405  19.415  24.528  1.00  0.00     0.130 A 
ATOM     14  C   UNL A   1      32.968  21.746  24.009  1.00  0.00     0.021 A 
ATOM     15  O   UNL A   1      34.797  23.333  24.095  1.00  0.00    -0.475 OA
ATOM     16  C   UNL A   1      32.530  20.424  24.126  1.00  0.00     0.058 A 
ATOM     17  C   UNL A   1      32.013  22.789  23.691  1.00  0.00     0.027 C 
ATOM     18  C   UNL A   1      33.875  24.450  23.938  1.00  0.00     0.316 C 
BRANCH  13  19
ATOM     19  O   UNL A   1      32.830  18.181  24.620  1.00  0.00    -0.406 OA
BRANCH  19  20
ATOM     20  C   UNL A   1      33.255  17.184  23.709  1.00  0.00     0.573 C 
ATOM     21  F   UNL A   1      34.573  17.299  23.440  1.00  0.00    -0.132 F 
ATOM     22  F   UNL A   1      32.994  15.946  24.178  1.00  0.00    -0.132 F 
ATOM     23  F   UNL A   1      32.577  17.343  22.550  1.00  0.00    -0.132 F 
ENDBRANCH  19  20
ENDBRANCH  13  19
BRANCH  18  24
ATOM     24  C   UNL A   1      34.034  25.385  25.147  1.00  0.00     0.430 C 
ATOM     25  F   UNL A   1      35.199  25.155  25.795  1.00  0.00    -0.167 F 
ATOM     26  F   UNL A   1      34.035  26.686  24.775  1.00  0.00    -0.167 F 
ATOM     27  F   UNL A   1      33.030  25.220  26.040  1.00  0.00    -0.167 F 
ENDBRANCH  18  24
ENDBRANCH   6   8
ENDBRANCH   5   6
ENDBRANCH   4   5
ENDBRANCH   3   4
ENDBRANCH   2   3
ENDBRANCH   1   2
BRANCH   1  28
ATOM     28  C   UNL A   1      31.631  30.536  25.855  1.00  0.00     0.261 C 
BRANCH  28  29
ATOM     29  O   UNL A   1      32.312  30.612  27.121  1.00  0.00    -0.460 OA
BRANCH  29  30
ATOM     30  C   UNL A   1      33.073  31.719  27.292  1.00  0.00     0.338 C 
ATOM     31  O   UNL A   1      32.702  32.884  27.257  1.00  0.00    -0.246 OA
BRANCH  30  32
ATOM     32  C   UNL A   1      34.430  31.338  27.715  1.00  0.00     0.060 A 
ATOM     33  C   UNL A   1      34.681  29.980  27.958  1.00  0.00     0.016 A 
ATOM     34  C   UNL A   1      35.403  32.302  27.981  1.00  0.00     0.016 A 
ATOM     35  C   UNL A   1      35.892  29.587  28.522  1.00  0.00     0.010 A 
ATOM     36  C   UNL A   1      36.611  31.907  28.564  1.00  0.00     0.010 A 
ATOM     37  C   UNL A   1      36.841  30.555  28.874  1.00  0.00    -0.014 A 
BRANCH  37  38
ATOM     38  C   UNL A   1      37.991  30.171  29.724  1.00  0.00     0.031 A 
ATOM     39  C   UNL A   1      38.984  29.176  29.192  1.00  0.00     0.074 A 
ATOM     40  C   UNL A   1      38.158  30.715  30.941  1.00  0.00     0.049 A 
ATOM     41  N   UNL A   1      40.054  28.692  29.764  1.00  0.00    -0.248 NA
ATOM     42  C   UNL A   1      38.740  28.662  27.834  1.00  0.00     0.031 C 
ATOM     43  C   UNL A   1      37.278  31.714  31.543  1.00  0.00     0.029 A 
ATOM     44  N   UNL A   1      39.122  30.494  31.892  1.00  0.00    -0.354 N 
ATOM     45  C   UNL A   1      40.614  27.819  28.838  1.00  0.00     0.074 A 
ATOM     46  C   UNL A   1      39.750  27.818  27.679  1.00  0.00     0.031 C 
ATOM     47  C   UNL A   1      37.734  32.009  32.771  1.00  0.00     0.029 A 
ATOM     48  C   UNL A   1      38.921  31.202  33.053  1.00  0.00     0.049 A 
ATOM     49  H   UNL A   1      39.886  29.888  31.756  1.00  0.00     0.167 HD
ATOM     50  C   UNL A   1      41.752  27.096  28.944  1.00  0.00     0.034 A 
ATOM     51  C   UNL A   1      39.606  31.184  34.215  1.00  0.00     0.034 A 
ATOM     52  C   UNL A   1      42.601  27.097  30.105  1.00  0.00     0.049 A 
ATOM     53  C   UNL A   1      40.835  30.318  34.336  1.00  0.00     0.074 A 
ATOM     54  C   UNL A   1      43.789  26.414  30.296  1.00  0.00     0.029 A 
ATOM     55  N   UNL A   1      42.354  27.805  31.272  1.00  0.00    -0.354 N 
ATOM     56  N   UNL A   1      41.388  29.544  33.432  1.00  0.00    -0.248 NA
ATOM     57  C   UNL A   1      41.536  30.323  35.626  1.00  0.00     0.031 C 
ATOM     58  C   UNL A   1      44.233  26.667  31.595  1.00  0.00     0.029 A 
ATOM     59  C   UNL A   1      43.350  27.551  32.197  1.00  0.00     0.049 A 
ATOM     60  H   UNL A   1      41.582  28.399  31.419  1.00  0.00     0.167 HD
ATOM     61  C   UNL A   1      42.511  28.987  34.038  1.00  0.00     0.074 A 
ATOM     62  C   UNL A   1      42.570  29.529  35.379  1.00  0.00     0.031 C 
ATOM     63  C   UNL A   1      43.409  28.105  33.529  1.00  0.00     0.034 A 
BRANCH  50  64
ATOM     64  C   UNL A   1      42.163  26.237  27.778  1.00  0.00     0.023 A 
ATOM     65  C   UNL A   1      41.725  24.903  27.696  1.00  0.00     0.031 A 
ATOM     66  C   UNL A   1      43.070  26.706  26.812  1.00  0.00     0.131 A 
ATOM     67  C   UNL A   1      42.222  24.073  26.685  1.00  0.00     0.055 A 
ATOM     68  C   UNL A   1      43.537  25.883  25.788  1.00  0.00     0.041 A 
ATOM     69  F   UNL A   1      43.508  27.976  26.848  1.00  0.00    -0.206 F 
ATOM     70  C   UNL A   1      43.120  24.557  25.727  1.00  0.00     0.022 A 
BRANCH  67  71
ATOM     71  S   UNL A   1      41.745  22.326  26.591  1.00  0.00     0.124 S 
ATOM     72  O   UNL A   1      40.290  22.414  26.495  1.00  0.00    -0.237 OA
ATOM     73  O   UNL A   1      42.427  21.890  25.376  1.00  0.00    -0.237 OA
ATOM     74  O   UNL A   1      42.248  21.759  27.838  1.00  0.00    -0.744 OA
ENDBRANCH  67  71
ENDBRANCH  50  64
BRANCH  51  75
ATOM     75  C   UNL A   1      39.145  32.047  35.339  1.00  0.00     0.023 A 
ATOM     76  C   UNL A   1      39.628  33.359  35.485  1.00  0.00     0.031 A 
ATOM     77  C   UNL A   1      38.285  31.541  36.327  1.00  0.00     0.131 A 
ATOM     78  C   UNL A   1      39.292  34.101  36.624  1.00  0.00     0.055 A 
ATOM     79  C   UNL A   1      37.906  32.306  37.432  1.00  0.00     0.041 A 
ATOM     80  F   UNL A   1      37.806  30.292  36.231  1.00  0.00    -0.206 F 
ATOM     81  C   UNL A   1      38.422  33.589  37.592  1.00  0.00     0.022 A 
BRANCH  78  82
ATOM     82  S   UNL A   1      40.048  35.721  36.934  1.00  0.00     0.124 S 
ATOM     83  O   UNL A   1      39.434  36.109  38.200  1.00  0.00    -0.237 OA
ATOM     84  O   UNL A   1      41.466  35.376  36.999  1.00  0.00    -0.237 OA
ATOM     85  O   UNL A   1      39.650  36.513  35.775  1.00  0.00    -0.744 OA
ENDBRANCH  78  82
ENDBRANCH  51  75
BRANCH  63  86
ATOM     86  C   UNL A   1      44.547  27.646  34.406  1.00  0.00     0.023 A 
ATOM     87  C   UNL A   1      44.395  26.506  35.219  1.00  0.00     0.031 A 
ATOM     88  C   UNL A   1      45.712  28.417  34.548  1.00  0.00     0.131 A 
ATOM     89  C   UNL A   1      45.377  26.193  36.167  1.00  0.00     0.055 A 
ATOM     90  C   UNL A   1      46.706  28.076  35.466  1.00  0.00     0.041 A 
ATOM     91  F   UNL A   1      45.897  29.517  33.801  1.00  0.00    -0.206 F 
ATOM     92  C   UNL A   1      46.534  26.966  36.290  1.00  0.00     0.022 A 
BRANCH  89  93
ATOM     93  S   UNL A   1      45.155  24.812  37.323  1.00  0.00     0.124 S 
ATOM     94  O   UNL A   1      44.539  23.798  36.469  1.00  0.00    -0.237 OA
ATOM     95  O   UNL A   1      46.528  24.531  37.733  1.00  0.00    -0.237 OA
ATOM     96  O   UNL A   1      44.287  25.356  38.361  1.00  0.00    -0.744 OA
ENDBRANCH  89  93
ENDBRANCH  63  86
ENDBRANCH  37  38
ENDBRANCH  30  32
ENDBRANCH  29  30
ENDBRANCH  28  29
ENDBRANCH   1  28
TORSDOF 20
ENDMDL
MODEL 2
REMARK VINA RESULT:     -11.9      2.141      7.747
REMARK SMILES Cc1cc(OC(F)(F)F)cc2c1O[C@H](C(F)(F)F)C(C(=O)OCCOCCOC(=O)c1ccc(-c3c4nc(c(-c5cc(S(=O)(=O)[O-])ccc5F)c5ccc([nH]5)c(-c5cc(S(=O)(=O)[O-])ccc5F)c5nc(c(-c6cc(S(=O)(=O)[O-])ccc6F)c6ccc3[nH]6)C=C5)C=C4)cc1)=C2
REMARK SMILES IDX 26 1 25 2 24 3 23 4 22 5 20 6 21 7 19 8 1 9 2 10 3 11 12 12
REMARK SMILES IDX 4 13 11 14 13 15 10 16 94 17 14 18 5 19 6 20 7 21 8 22 9 23
REMARK SMILES IDX 15 24 16 25 17 26 18 27 27 28 28 29 29 30 30 31 31 32 32 33
REMARK SMILES IDX 93 34 33 35 92 36 34 37 35 38 36 39 86 40 37 41 91 42 85 43
REMARK SMILES IDX 87 44 38 45 90 46 84 47 83 48 39 50 71 51 51 52 70 53 52 54
REMARK SMILES IDX 55 55 69 56 88 57 53 58 54 59 68 61 89 62 56 63 40 64 41 65
REMARK SMILES IDX 49 66 42 67 48 68 50 69 47 70 43 71 44 72 45 73 46 74 72 75
REMARK SMILES IDX 73 76 81 77 74 78 80 79 82 80 79 81 75 82 76 83 77 84 78 85
REMARK SMILES IDX 57 86 58 87 66 88 59 89 65 90 67 91 64 92 60 93 61 94 62 95
REMARK SMILES IDX 63 96
REMARK H PARENT 87 49 55 60
REMARK Flexibility Score: inf
ROOT
ATOM      1  C   UNL A   1      31.514  31.516  26.416  1.00  0.00     0.202 C 
ENDROOT
BRANCH   1   2
ATOM      2  O   UNL A   1      32.185  30.386  26.977  1.00  0.00    -0.374 OA
BRANCH   2   3
ATOM      3  C   UNL A   1      32.996  29.603  26.101  1.00  0.00     0.202 C 
BRANCH   3   4
ATOM      4  C   UNL A   1      32.261  28.566  25.248  1.00  0.00     0.261 C 
BRANCH   4   5
ATOM      5  O   UNL A   1      32.751  27.239  25.496  1.00  0.00    -0.460 OA
BRANCH   5   6
ATOM      6  C   UNL A   1      31.886  26.430  26.149  1.00  0.00     0.338 C 
ATOM      7  O   UNL A   1      30.939  26.774  26.840  1.00  0.00    -0.246 OA
BRANCH   6   8
ATOM      8  C   UNL A   1      32.159  25.022  25.806  1.00  0.00     0.087 C 
ATOM      9  C   UNL A   1      32.338  20.303  23.746  1.00  0.00     0.048 C 
ATOM     10  C   UNL A   1      33.239  21.178  24.576  1.00  0.00    -0.005 A 
ATOM     11  C   UNL A   1      34.546  20.725  24.845  1.00  0.00     0.054 A 
ATOM     12  C   UNL A   1      32.831  22.431  25.055  1.00  0.00     0.131 A 
ATOM     13  C   UNL A   1      35.434  21.502  25.589  1.00  0.00     0.130 A 
ATOM     14  C   UNL A   1      33.728  23.220  25.779  1.00  0.00     0.021 A 
ATOM     15  O   UNL A   1      31.545  22.822  24.804  1.00  0.00    -0.475 OA
ATOM     16  C   UNL A   1      35.012  22.746  26.060  1.00  0.00     0.058 A 
ATOM     17  C   UNL A   1      33.353  24.558  26.193  1.00  0.00     0.027 C 
ATOM     18  C   UNL A   1      31.153  24.205  25.044  1.00  0.00     0.316 C 
BRANCH  13  19
ATOM     19  O   UNL A   1      36.718  21.185  25.922  1.00  0.00    -0.406 OA
BRANCH  19  20
ATOM     20  C   UNL A   1      37.671  21.101  24.878  1.00  0.00     0.573 C 
ATOM     21  F   UNL A   1      37.911  19.817  24.540  1.00  0.00    -0.132 F 
ATOM     22  F   UNL A   1      37.269  21.790  23.790  1.00  0.00    -0.132 F 
ATOM     23  F   UNL A   1      38.832  21.643  25.311  1.00  0.00    -0.132 F 
ENDBRANCH  19  20
ENDBRANCH  13  19
BRANCH  18  24
ATOM     24  C   UNL A   1      30.778  24.844  23.699  1.00  0.00     0.430 C 
ATOM     25  F   UNL A   1      29.919  24.060  23.006  1.00  0.00    -0.167 F 
ATOM     26  F   UNL A   1      30.175  26.043  23.867  1.00  0.00    -0.167 F 
ATOM     27  F   UNL A   1      31.866  25.043  22.920  1.00  0.00    -0.167 F 
ENDBRANCH  18  24
ENDBRANCH   6   8
ENDBRANCH   5   6
ENDBRANCH   4   5
ENDBRANCH   3   4
ENDBRANCH   2   3
ENDBRANCH   1   2
BRANCH   1  28
ATOM     28  C   UNL A   1      31.757  32.872  27.090  1.00  0.00     0.261 C 
BRANCH  28  29
ATOM     29  O   UNL A   1      33.122  33.308  26.943  1.00  0.00    -0.460 OA
BRANCH  29  30
ATOM     30  C   UNL A   1      33.713  33.720  28.090  1.00  0.00     0.338 C 
ATOM     31  O   UNL A   1      33.270  34.515  28.906  1.00  0.00    -0.246 OA
BRANCH  30  32
ATOM     32  C   UNL A   1      34.931  32.932  28.339  1.00  0.00     0.060 A 
ATOM     33  C   UNL A   1      34.776  31.614  28.791  1.00  0.00     0.016 A 
ATOM     34  C   UNL A   1      36.198  33.511  28.245  1.00  0.00     0.016 A 
ATOM     35  C   UNL A   1      35.889  30.885  29.204  1.00  0.00     0.010 A 
ATOM     36  C   UNL A   1      37.311  32.783  28.678  1.00  0.00     0.010 A 
ATOM     37  C   UNL A   1      37.154  31.486  29.196  1.00  0.00    -0.014 A 
BRANCH  37  38
ATOM     38  C   UNL A   1      38.278  30.822  29.895  1.00  0.00     0.031 A 
ATOM     39  C   UNL A   1      38.561  31.189  31.324  1.00  0.00     0.074 A 
ATOM     40  C   UNL A   1      39.022  29.891  29.272  1.00  0.00     0.049 A 
ATOM     41  N   UNL A   1      39.494  30.743  32.122  1.00  0.00    -0.248 NA
ATOM     42  C   UNL A   1      37.671  32.190  31.937  1.00  0.00     0.031 C 
ATOM     43  C   UNL A   1      38.816  29.432  27.900  1.00  0.00     0.029 A 
ATOM     44  N   UNL A   1      40.106  29.175  29.712  1.00  0.00    -0.354 N 
ATOM     45  C   UNL A   1      39.305  31.404  33.330  1.00  0.00     0.074 A 
ATOM     46  C   UNL A   1      38.187  32.303  33.152  1.00  0.00     0.031 C 
ATOM     47  C   UNL A   1      39.756  28.519  27.604  1.00  0.00     0.029 A 
ATOM     48  C   UNL A   1      40.645  28.351  28.753  1.00  0.00     0.049 A 
ATOM     49  H   UNL A   1      40.463  29.243  30.626  1.00  0.00     0.167 HD
ATOM     50  C   UNL A   1      39.995  31.263  34.485  1.00  0.00     0.034 A 
ATOM     51  C   UNL A   1      41.742  27.566  28.793  1.00  0.00     0.034 A 
ATOM     52  C   UNL A   1      41.112  30.371  34.651  1.00  0.00     0.049 A 
ATOM     53  C   UNL A   1      42.538  27.474  30.072  1.00  0.00     0.074 A 
ATOM     54  C   UNL A   1      41.860  30.142  35.791  1.00  0.00     0.029 A 
ATOM     55  N   UNL A   1      41.647  29.572  33.652  1.00  0.00    -0.354 N 
ATOM     56  N   UNL A   1      42.312  28.058  31.225  1.00  0.00    -0.248 NA
ATOM     57  C   UNL A   1      43.731  26.618  30.059  1.00  0.00     0.031 C 
ATOM     58  C   UNL A   1      42.879  29.243  35.470  1.00  0.00     0.029 A 
ATOM     59  C   UNL A   1      42.734  28.870  34.142  1.00  0.00     0.049 A 
ATOM     60  H   UNL A   1      41.304  29.513  32.731  1.00  0.00     0.167 HD
ATOM     61  C   UNL A   1      43.323  27.624  32.080  1.00  0.00     0.074 A 
ATOM     62  C   UNL A   1      44.149  26.713  31.316  1.00  0.00     0.031 C 
ATOM     63  C   UNL A   1      43.546  27.954  33.377  1.00  0.00     0.034 A 
BRANCH  50  64
ATOM     64  C   UNL A   1      39.571  32.082  35.674  1.00  0.00     0.023 A 
ATOM     65  C   UNL A   1      38.719  31.527  36.646  1.00  0.00     0.031 A 
ATOM     66  C   UNL A   1      39.921  33.439  35.785  1.00  0.00     0.131 A 
ATOM     67  C   UNL A   1      38.221  32.337  37.672  1.00  0.00     0.055 A 
ATOM     68  C   UNL A   1      39.446  34.233  36.829  1.00  0.00     0.041 A 
ATOM     69  F   UNL A   1      40.738  34.008  34.883  1.00  0.00    -0.206 F 
ATOM     70  C   UNL A   1      38.584  33.684  37.773  1.00  0.00     0.022 A 
BRANCH  67  71
ATOM     71  S   UNL A   1      37.058  31.681  38.899  1.00  0.00     0.124 S 
ATOM     72  O   UNL A   1      36.834  30.322  38.409  1.00  0.00    -0.237 OA
ATOM     73  O   UNL A   1      37.831  31.781  40.134  1.00  0.00    -0.237 OA
ATOM     74  O   UNL A   1      35.905  32.570  38.798  1.00  0.00    -0.744 OA
ENDBRANCH  67  71
ENDBRANCH  50  64
BRANCH  51  75
ATOM     75  C   UNL A   1      42.118  26.786  27.581  1.00  0.00     0.023 A 
ATOM     76  C   UNL A   1      41.951  25.391  27.541  1.00  0.00     0.031 A 
ATOM     77  C   UNL A   1      42.730  27.415  26.484  1.00  0.00     0.131 A 
ATOM     78  C   UNL A   1      42.441  24.663  26.450  1.00  0.00     0.055 A 
ATOM     79  C   UNL A   1      43.165  26.691  25.372  1.00  0.00     0.041 A 
ATOM     80  F   UNL A   1      42.915  28.743  26.483  1.00  0.00    -0.206 F 
ATOM     81  C   UNL A   1      43.034  25.305  25.358  1.00  0.00     0.022 A 
BRANCH  78  82
ATOM     82  S   UNL A   1      42.410  22.850  26.454  1.00  0.00     0.124 S 
ATOM     83  O   UNL A   1      41.154  22.565  27.141  1.00  0.00    -0.237 OA
ATOM     84  O   UNL A   1      42.427  22.552  25.024  1.00  0.00    -0.237 OA
ATOM     85  O   UNL A   1      43.621  22.486  27.182  1.00  0.00    -0.744 OA
ENDBRANCH  78  82
ENDBRANCH  51  75
BRANCH  63  86
ATOM     86  C   UNL A   1      44.730  27.342  34.085  1.00  0.00     0.023 A 
ATOM     87  C   UNL A   1      44.563  26.177  34.858  1.00  0.00     0.031 A 
ATOM     88  C   UNL A   1      45.974  27.993  34.117  1.00  0.00     0.131 A 
ATOM     89  C   UNL A   1      45.615  25.720  35.662  1.00  0.00     0.055 A 
ATOM     90  C   UNL A   1      47.031  27.510  34.888  1.00  0.00     0.041 A 
ATOM     91  F   UNL A   1      46.176  29.112  33.404  1.00  0.00    -0.206 F 
ATOM     92  C   UNL A   1      46.850  26.375  35.675  1.00  0.00     0.022 A 
BRANCH  89  93
ATOM     93  S   UNL A   1      45.396  24.302  36.772  1.00  0.00     0.124 S 
ATOM     94  O   UNL A   1      44.392  24.803  37.709  1.00  0.00    -0.237 OA
ATOM     95  O   UNL A   1      44.931  23.263  35.856  1.00  0.00    -0.237 OA
ATOM     96  O   UNL A   1      46.723  24.091  37.341  1.00  0.00    -0.744 OA
ENDBRANCH  89  93
ENDBRANCH  63  86
ENDBRANCH  37  38
ENDBRANCH  30  32
ENDBRANCH  29  30
ENDBRANCH  28  29
ENDBRANCH   1  28
TORSDOF 20
ENDMDL
MODEL 3
REMARK VINA RESULT:     -11.6      1.817      7.896
REMARK SMILES Cc1cc(OC(F)(F)F)cc2c1O[C@H](C(F)(F)F)C(C(=O)OCCOCCOC(=O)c1ccc(-c3c4nc(c(-c5cc(S(=O)(=O)[O-])ccc5F)c5ccc([nH]5)c(-c5cc(S(=O)(=O)[O-])ccc5F)c5nc(c(-c6cc(S(=O)(=O)[O-])ccc6F)c6ccc3[nH]6)C=C5)C=C4)cc1)=C2
REMARK SMILES IDX 26 1 25 2 24 3 23 4 22 5 20 6 21 7 19 8 1 9 2 10 3 11 12 12
REMARK SMILES IDX 4 13 11 14 13 15 10 16 94 17 14 18 5 19 6 20 7 21 8 22 9 23
REMARK SMILES IDX 15 24 16 25 17 26 18 27 27 28 28 29 29 30 30 31 31 32 32 33
REMARK SMILES IDX 93 34 33 35 92 36 34 37 35 38 36 39 86 40 37 41 91 42 85 43
REMARK SMILES IDX 87 44 38 45 90 46 84 47 83 48 39 50 71 51 51 52 70 53 52 54
REMARK SMILES IDX 55 55 69 56 88 57 53 58 54 59 68 61 89 62 56 63 40 64 41 65
REMARK SMILES IDX 49 66 42 67 48 68 50 69 47 70 43 71 44 72 45 73 46 74 72 75
REMARK SMILES IDX 73 76 81 77 74 78 80 79 82 80 79 81 75 82 76 83 77 84 78 85
REMARK SMILES IDX 57 86 58 87 66 88 59 89 65 90 67 91 64 92 60 93 61 94 62 95
REMARK SMILES IDX 63 96
REMARK H PARENT 87 49 55 60
REMARK Flexibility Score: inf
ROOT
ATOM      1  C   UNL A   1      31.400  31.665  26.442  1.00  0.00     0.202 C 
ENDROOT
BRANCH   1   2
ATOM      2  O   UNL A   1      32.466  30.732  26.259  1.00  0.00    -0.374 OA
BRANCH   2   3
ATOM      3  C   UNL A   1      32.116  29.403  25.871  1.00  0.00     0.202 C 
BRANCH   3   4
ATOM      4  C   UNL A   1      32.792  28.273  26.651  1.00  0.00     0.261 C 
BRANCH   4   5
ATOM      5  O   UNL A   1      32.712  27.025  25.944  1.00  0.00    -0.460 OA
BRANCH   5   6
ATOM      6  C   UNL A   1      31.726  26.200  26.364  1.00  0.00     0.338 C 
ATOM      7  O   UNL A   1      30.683  26.523  26.914  1.00  0.00    -0.246 OA
BRANCH   6   8
ATOM      8  C   UNL A   1      32.015  24.817  25.942  1.00  0.00     0.087 C 
ATOM      9  C   UNL A   1      32.264  20.230  23.608  1.00  0.00     0.048 C 
ATOM     10  C   UNL A   1      33.144  21.060  24.504  1.00  0.00    -0.005 A 
ATOM     11  C   UNL A   1      34.451  20.601  24.767  1.00  0.00     0.054 A 
ATOM     12  C   UNL A   1      32.719  22.280  25.050  1.00  0.00     0.131 A 
ATOM     13  C   UNL A   1      35.320  21.339  25.571  1.00  0.00     0.130 A 
ATOM     14  C   UNL A   1      33.598  23.030  25.834  1.00  0.00     0.021 A 
ATOM     15  O   UNL A   1      31.435  22.676  24.801  1.00  0.00    -0.475 OA
ATOM     16  C   UNL A   1      34.881  22.549  26.108  1.00  0.00     0.058 A 
ATOM     17  C   UNL A   1      33.206  24.338  26.321  1.00  0.00     0.027 C 
ATOM     18  C   UNL A   1      31.028  24.040  25.116  1.00  0.00     0.316 C 
BRANCH  13  19
ATOM     19  O   UNL A   1      36.602  21.011  25.907  1.00  0.00    -0.406 OA
BRANCH  19  20
ATOM     20  C   UNL A   1      37.650  21.570  25.136  1.00  0.00     0.573 C 
ATOM     21  F   UNL A   1      37.593  22.918  25.141  1.00  0.00    -0.132 F 
ATOM     22  F   UNL A   1      38.857  21.165  25.583  1.00  0.00    -0.132 F 
ATOM     23  F   UNL A   1      37.515  21.151  23.858  1.00  0.00    -0.132 F 
ENDBRANCH  19  20
ENDBRANCH  13  19
BRANCH  18  24
ATOM     24  C   UNL A   1      30.670  24.755  23.805  1.00  0.00     0.430 C 
ATOM     25  F   UNL A   1      31.778  25.205  23.173  1.00  0.00    -0.167 F 
ATOM     26  F   UNL A   1      30.029  23.930  22.945  1.00  0.00    -0.167 F 
ATOM     27  F   UNL A   1      29.862  25.819  24.021  1.00  0.00    -0.167 F 
ENDBRANCH  18  24
ENDBRANCH   6   8
ENDBRANCH   5   6
ENDBRANCH   4   5
ENDBRANCH   3   4
ENDBRANCH   2   3
ENDBRANCH   1   2
BRANCH   1  28
ATOM     28  C   UNL A   1      31.792  33.126  26.693  1.00  0.00     0.261 C 
BRANCH  28  29
ATOM     29  O   UNL A   1      32.369  33.311  27.999  1.00  0.00    -0.460 OA
BRANCH  29  30
ATOM     30  C   UNL A   1      33.467  34.104  28.028  1.00  0.00     0.338 C 
ATOM     31  O   UNL A   1      33.497  35.326  27.999  1.00  0.00    -0.246 OA
BRANCH  30  32
ATOM     32  C   UNL A   1      34.668  33.292  28.284  1.00  0.00     0.060 A 
ATOM     33  C   UNL A   1      34.485  31.992  28.775  1.00  0.00     0.016 A 
ATOM     34  C   UNL A   1      35.948  33.834  28.157  1.00  0.00     0.016 A 
ATOM     35  C   UNL A   1      35.584  31.246  29.194  1.00  0.00     0.010 A 
ATOM     36  C   UNL A   1      37.048  33.090  28.595  1.00  0.00     0.010 A 
ATOM     37  C   UNL A   1      36.864  31.813  29.152  1.00  0.00    -0.014 A 
BRANCH  37  38
ATOM     38  C   UNL A   1      37.980  31.139  29.855  1.00  0.00     0.031 A 
ATOM     39  C   UNL A   1      38.238  31.477  31.297  1.00  0.00     0.074 A 
ATOM     40  C   UNL A   1      38.739  30.226  29.225  1.00  0.00     0.049 A 
ATOM     41  N   UNL A   1      39.160  31.018  32.100  1.00  0.00    -0.248 NA
ATOM     42  C   UNL A   1      37.332  32.460  31.916  1.00  0.00     0.031 C 
ATOM     43  C   UNL A   1      38.558  29.796  27.840  1.00  0.00     0.029 A 
ATOM     44  N   UNL A   1      39.819  29.506  29.667  1.00  0.00    -0.354 N 
ATOM     45  C   UNL A   1      38.946  31.652  33.319  1.00  0.00     0.074 A 
ATOM     46  C   UNL A   1      37.827  32.549  33.142  1.00  0.00     0.031 C 
ATOM     47  C   UNL A   1      39.508  28.895  27.539  1.00  0.00     0.029 A 
ATOM     48  C   UNL A   1      40.379  28.706  28.699  1.00  0.00     0.049 A 
ATOM     49  H   UNL A   1      40.161  29.556  30.589  1.00  0.00     0.167 HD
ATOM     50  C   UNL A   1      39.618  31.489  34.482  1.00  0.00     0.034 A 
ATOM     51  C   UNL A   1      41.479  27.926  28.741  1.00  0.00     0.034 A 
ATOM     52  C   UNL A   1      40.737  30.600  34.647  1.00  0.00     0.049 A 
ATOM     53  C   UNL A   1      42.254  27.810  30.030  1.00  0.00     0.074 A 
ATOM     54  C   UNL A   1      41.468  30.349  35.794  1.00  0.00     0.029 A 
ATOM     55  N   UNL A   1      41.293  29.825  33.640  1.00  0.00    -0.354 N 
ATOM     56  N   UNL A   1      42.007  28.368  31.192  1.00  0.00    -0.248 NA
ATOM     57  C   UNL A   1      43.452  26.960  30.019  1.00  0.00     0.031 C 
ATOM     58  C   UNL A   1      42.496  29.463  35.470  1.00  0.00     0.029 A 
ATOM     59  C   UNL A   1      42.376  29.118  34.133  1.00  0.00     0.049 A 
ATOM     60  H   UNL A   1      40.966  29.785  32.712  1.00  0.00     0.167 HD
ATOM     61  C   UNL A   1      43.005  27.921  32.054  1.00  0.00     0.074 A 
ATOM     62  C   UNL A   1      43.849  27.030  31.284  1.00  0.00     0.031 C 
ATOM     63  C   UNL A   1      43.205  28.223  33.362  1.00  0.00     0.034 A 
BRANCH  50  64
ATOM     64  C   UNL A   1      39.171  32.280  35.681  1.00  0.00     0.023 A 
ATOM     65  C   UNL A   1      39.641  33.591  35.876  1.00  0.00     0.031 A 
ATOM     66  C   UNL A   1      38.371  31.699  36.680  1.00  0.00     0.131 A 
ATOM     67  C   UNL A   1      39.332  34.268  37.060  1.00  0.00     0.055 A 
ATOM     68  C   UNL A   1      38.040  32.391  37.845  1.00  0.00     0.041 A 
ATOM     69  F   UNL A   1      37.894  30.452  36.533  1.00  0.00    -0.206 F 
ATOM     70  C   UNL A   1      38.528  33.679  38.043  1.00  0.00     0.022 A 
BRANCH  67  71
ATOM     71  S   UNL A   1      39.983  35.929  37.386  1.00  0.00     0.124 S 
ATOM     72  O   UNL A   1      41.392  35.654  37.659  1.00  0.00    -0.237 OA
ATOM     73  O   UNL A   1      39.713  36.613  36.124  1.00  0.00    -0.237 OA
ATOM     74  O   UNL A   1      39.210  36.389  38.534  1.00  0.00    -0.744 OA
ENDBRANCH  67  71
ENDBRANCH  50  64
BRANCH  51  75
ATOM     75  C   UNL A   1      41.880  27.175  27.519  1.00  0.00     0.023 A 
ATOM     76  C   UNL A   1      41.739  25.778  27.453  1.00  0.00     0.031 A 
ATOM     77  C   UNL A   1      42.488  27.834  26.437  1.00  0.00     0.131 A 
ATOM     78  C   UNL A   1      42.252  25.078  26.354  1.00  0.00     0.055 A 
ATOM     79  C   UNL A   1      42.945  27.138  25.317  1.00  0.00     0.041 A 
ATOM     80  F   UNL A   1      42.648  29.165  26.461  1.00  0.00    -0.206 F 
ATOM     81  C   UNL A   1      42.841  25.750  25.278  1.00  0.00     0.022 A 
BRANCH  78  82
ATOM     82  S   UNL A   1      42.255  23.265  26.326  1.00  0.00     0.124 S 
ATOM     83  O   UNL A   1      42.891  22.978  25.043  1.00  0.00    -0.237 OA
ATOM     84  O   UNL A   1      43.055  22.954  27.509  1.00  0.00    -0.237 OA
ATOM     85  O   UNL A   1      40.842  22.916  26.418  1.00  0.00    -0.744 OA
ENDBRANCH  78  82
ENDBRANCH  51  75
BRANCH  63  86
ATOM     86  C   UNL A   1      44.380  27.602  34.075  1.00  0.00     0.023 A 
ATOM     87  C   UNL A   1      44.229  26.372  34.743  1.00  0.00     0.031 A 
ATOM     88  C   UNL A   1      45.592  28.296  34.221  1.00  0.00     0.131 A 
ATOM     89  C   UNL A   1      45.261  25.892  35.559  1.00  0.00     0.055 A 
ATOM     90  C   UNL A   1      46.633  27.793  35.003  1.00  0.00     0.041 A 
ATOM     91  F   UNL A   1      45.779  29.478  33.611  1.00  0.00    -0.206 F 
ATOM     92  C   UNL A   1      46.465  26.591  35.686  1.00  0.00     0.022 A 
BRANCH  89  93
ATOM     93  S   UNL A   1      45.053  24.379  36.539  1.00  0.00     0.124 S 
ATOM     94  O   UNL A   1      43.826  23.819  35.976  1.00  0.00    -0.237 OA
ATOM     95  O   UNL A   1      46.275  23.642  36.228  1.00  0.00    -0.237 OA
ATOM     96  O   UNL A   1      44.942  24.861  37.911  1.00  0.00    -0.744 OA
ENDBRANCH  89  93
ENDBRANCH  63  86
ENDBRANCH  37  38
ENDBRANCH  30  32
ENDBRANCH  29  30
ENDBRANCH  28  29
ENDBRANCH   1  28
TORSDOF 20
ENDMDL
