MODEL 1
REMARK VINA RESULT:      -9.5      0.000      0.000
REMARK SMILES O=C(OCCOCCOC(=O)[C@H]1CCC[N@@H+]1Cc1ccccc1[N+](=O)[O-])c1ccc(-c2c3nc(c(-c4cc(S(=O)(=O)[O-])ccc4F)c4ccc([nH]4)c(-c4cc(S(=O)(=O)[O-])ccc4F)c4nc(c(-c5cc(S(=O)(=O)[O-])ccc5F)c5ccc2[nH]5)C=C4)C=C3)cc1
REMARK SMILES IDX 6 1 5 2 4 3 3 4 2 5 1 6 27 7 28 8 89 9 29 10 88 11 30 12
REMARK SMILES IDX 31 13 32 14 82 15 33 16 87 17 81 18 83 19 34 20 86 21 80 22
REMARK SMILES IDX 79 23 35 25 67 26 47 27 66 28 48 29 51 30 65 31 84 32 49 33
REMARK SMILES IDX 50 34 64 36 85 37 52 38 36 39 37 40 45 41 38 42 44 43 46 44
REMARK SMILES IDX 43 45 39 46 40 47 41 48 42 49 68 50 69 51 77 52 70 53 76 54
REMARK SMILES IDX 78 55 75 56 71 57 72 58 73 59 74 60 53 61 54 62 62 63 55 64
REMARK SMILES IDX 61 65 63 66 60 67 56 68 57 69 58 70 59 71 7 72 8 73 9 74
REMARK SMILES IDX 10 75 11 76 12 77 13 78 16 79 14 80 15 81 17 83 18 84 19 85
REMARK SMILES IDX 23 86 20 87 22 88 21 89 24 90 25 91 26 92
REMARK H PARENT 83 24 51 35 16 82
REMARK Flexibility Score: inf
ROOT
ATOM      1  O   UNL A   1      34.523  35.253  29.526  1.00  0.00    -0.374 OA
ENDROOT
BRANCH   1   2
ATOM      2  C   UNL A   1      34.883  34.311  28.514  1.00  0.00     0.202 C 
BRANCH   2   3
ATOM      3  C   UNL A   1      33.743  33.384  28.079  1.00  0.00     0.261 C 
BRANCH   3   4
ATOM      4  O   UNL A   1      33.947  32.055  28.577  1.00  0.00    -0.460 OA
BRANCH   4   5
ATOM      5  C   UNL A   1      34.533  31.019  27.929  1.00  0.00     0.338 C 
ATOM      6  O   UNL A   1      33.958  30.551  26.946  1.00  0.00    -0.246 OA
BRANCH   5   7
ATOM      7  C   UNL A   1      35.842  30.412  28.330  1.00  0.00     0.060 A 
ATOM      8  C   UNL A   1      37.065  30.632  27.691  1.00  0.00     0.016 A 
ATOM      9  C   UNL A   1      35.849  29.645  29.507  1.00  0.00     0.016 A 
ATOM     10  C   UNL A   1      38.249  30.116  28.180  1.00  0.00     0.010 A 
ATOM     11  C   UNL A   1      37.045  29.137  30.025  1.00  0.00     0.010 A 
ATOM     12  C   UNL A   1      38.248  29.386  29.359  1.00  0.00    -0.014 A 
BRANCH  12  13
ATOM     13  C   UNL A   1      39.538  28.850  29.811  1.00  0.00     0.031 A 
ATOM     14  C   UNL A   1      40.130  29.406  31.063  1.00  0.00     0.074 A 
ATOM     15  C   UNL A   1      40.058  27.785  29.172  1.00  0.00     0.049 A 
ATOM     16  N   UNL A   1      41.272  29.132  31.626  1.00  0.00    -0.248 NA
ATOM     17  C   UNL A   1      39.313  30.391  31.794  1.00  0.00     0.031 C 
ATOM     18  C   UNL A   1      39.432  27.098  28.036  1.00  0.00     0.029 A 
ATOM     19  N   UNL A   1      41.204  27.074  29.396  1.00  0.00    -0.354 N 
ATOM     20  C   UNL A   1      41.331  29.935  32.756  1.00  0.00     0.074 A 
ATOM     21  C   UNL A   1      40.106  30.698  32.810  1.00  0.00     0.031 C 
ATOM     22  C   UNL A   1      40.203  26.061  27.671  1.00  0.00     0.029 A 
ATOM     23  C   UNL A   1      41.413  26.066  28.482  1.00  0.00     0.049 A 
ATOM     24  H   UNL A   1      41.820  27.265  30.140  1.00  0.00     0.167 HD
ATOM     25  C   UNL A   1      42.344  30.027  33.648  1.00  0.00     0.034 A 
ATOM     26  C   UNL A   1      42.494  25.284  28.297  1.00  0.00     0.034 A 
ATOM     27  C   UNL A   1      43.547  29.244  33.535  1.00  0.00     0.049 A 
ATOM     28  C   UNL A   1      43.659  25.502  29.235  1.00  0.00     0.074 A 
ATOM     29  C   UNL A   1      44.675  29.272  34.331  1.00  0.00     0.029 A 
ATOM     30  N   UNL A   1      43.777  28.293  32.546  1.00  0.00    -0.354 N 
ATOM     31  N   UNL A   1      43.744  26.310  30.270  1.00  0.00    -0.248 NA
ATOM     32  C   UNL A   1      44.874  24.723  28.977  1.00  0.00     0.031 C 
ATOM     33  C   UNL A   1      45.615  28.397  33.778  1.00  0.00     0.029 A 
ATOM     34  C   UNL A   1      45.046  27.759  32.685  1.00  0.00     0.049 A 
ATOM     35  H   UNL A   1      43.131  28.038  31.848  1.00  0.00     0.167 HD
ATOM     36  C   UNL A   1      45.018  26.123  30.795  1.00  0.00     0.074 A 
ATOM     37  C   UNL A   1      45.649  25.101  29.982  1.00  0.00     0.031 C 
ATOM     38  C   UNL A   1      45.626  26.742  31.840  1.00  0.00     0.034 A 
BRANCH  25  39
ATOM     39  C   UNL A   1      42.230  31.080  34.719  1.00  0.00     0.023 A 
ATOM     40  C   UNL A   1      42.615  32.415  34.509  1.00  0.00     0.031 A 
ATOM     41  C   UNL A   1      41.774  30.715  35.999  1.00  0.00     0.131 A 
ATOM     42  C   UNL A   1      42.583  33.324  35.579  1.00  0.00     0.055 A 
ATOM     43  C   UNL A   1      41.680  31.640  37.038  1.00  0.00     0.041 A 
ATOM     44  F   UNL A   1      41.431  29.445  36.264  1.00  0.00    -0.206 F 
ATOM     45  C   UNL A   1      42.094  32.953  36.834  1.00  0.00     0.022 A 
BRANCH  42  46
ATOM     46  S   UNL A   1      43.299  34.976  35.344  1.00  0.00     0.124 S 
ATOM     47  O   UNL A   1      44.694  34.654  35.054  1.00  0.00    -0.237 OA
ATOM     48  O   UNL A   1      42.519  35.505  34.231  1.00  0.00    -0.237 OA
ATOM     49  O   UNL A   1      43.073  35.634  36.631  1.00  0.00    -0.744 OA
ENDBRANCH  42  46
ENDBRANCH  25  39
BRANCH  26  50
ATOM     50  C   UNL A   1      42.585  24.335  27.147  1.00  0.00     0.023 A 
ATOM     51  C   UNL A   1      42.013  23.054  27.206  1.00  0.00     0.031 A 
ATOM     52  C   UNL A   1      43.337  24.657  25.999  1.00  0.00     0.131 A 
ATOM     53  C   UNL A   1      42.258  22.126  26.180  1.00  0.00     0.055 A 
ATOM     54  C   UNL A   1      43.514  23.757  24.948  1.00  0.00     0.041 A 
ATOM     55  F   UNL A   1      43.926  25.859  25.884  1.00  0.00    -0.206 F 
ATOM     56  C   UNL A   1      42.992  22.473  25.044  1.00  0.00     0.022 A 
BRANCH  53  57
ATOM     57  S   UNL A   1      41.733  20.405  26.421  1.00  0.00     0.124 S 
ATOM     58  O   UNL A   1      42.459  19.720  25.357  1.00  0.00    -0.237 OA
ATOM     59  O   UNL A   1      42.187  20.139  27.782  1.00  0.00    -0.237 OA
ATOM     60  O   UNL A   1      40.283  20.464  26.249  1.00  0.00    -0.744 OA
ENDBRANCH  53  57
ENDBRANCH  26  50
BRANCH  38  61
ATOM     61  C   UNL A   1      47.026  26.291  32.160  1.00  0.00     0.023 A 
ATOM     62  C   UNL A   1      48.136  26.823  31.484  1.00  0.00     0.031 A 
ATOM     63  C   UNL A   1      47.247  25.323  33.153  1.00  0.00     0.131 A 
ATOM     64  C   UNL A   1      49.418  26.339  31.770  1.00  0.00     0.055 A 
ATOM     65  C   UNL A   1      48.532  24.896  33.482  1.00  0.00     0.041 A 
ATOM     66  F   UNL A   1      46.217  24.784  33.825  1.00  0.00    -0.206 F 
ATOM     67  C   UNL A   1      49.626  25.396  32.781  1.00  0.00     0.022 A 
BRANCH  64  68
ATOM     68  S   UNL A   1      50.803  26.894  30.742  1.00  0.00     0.124 S 
ATOM     69  O   UNL A   1      51.009  25.746  29.866  1.00  0.00    -0.237 OA
ATOM     70  O   UNL A   1      50.262  28.092  30.107  1.00  0.00    -0.237 OA
ATOM     71  O   UNL A   1      51.872  27.135  31.709  1.00  0.00    -0.744 OA
ENDBRANCH  64  68
ENDBRANCH  38  61
ENDBRANCH  12  13
ENDBRANCH   5   7
ENDBRANCH   4   5
ENDBRANCH   3   4
ENDBRANCH   2   3
ENDBRANCH   1   2
BRANCH   1  72
ATOM     72  C   UNL A   1      33.181  35.180  30.013  1.00  0.00     0.202 C 
BRANCH  72  73
ATOM     73  C   UNL A   1      33.150  35.603  31.479  1.00  0.00     0.261 C 
BRANCH  73  74
ATOM     74  O   UNL A   1      33.557  34.473  32.266  1.00  0.00    -0.459 OA
BRANCH  74  75
ATOM     75  C   UNL A   1      34.707  34.695  32.974  1.00  0.00     0.365 C 
ATOM     76  O   UNL A   1      35.162  35.796  33.241  1.00  0.00    -0.245 OA
BRANCH  75  77
ATOM     77  C   UNL A   1      35.343  33.351  33.369  1.00  0.00     0.295 C 
ATOM     78  C   UNL A   1      35.218  32.428  32.170  1.00  0.00     0.083 C 
ATOM     79  N   UNL A   1      36.803  33.500  33.586  1.00  0.00    -0.319 N 
ATOM     80  C   UNL A   1      36.459  32.733  31.338  1.00  0.00     0.068 C 
ATOM     81  C   UNL A   1      37.415  33.494  32.255  1.00  0.00     0.263 C 
ATOM     82  H   UNL A   1      36.969  34.387  34.064  1.00  0.00     0.349 HD
BRANCH  79  83
ATOM     83  C   UNL A   1      37.442  32.630  34.582  1.00  0.00     0.307 C 
BRANCH  83  84
ATOM     84  C   UNL A   1      38.220  33.324  35.680  1.00  0.00     0.084 A 
ATOM     85  C   UNL A   1      38.941  34.487  35.343  1.00  0.00     0.017 A 
ATOM     86  C   UNL A   1      38.157  32.973  37.040  1.00  0.00     0.278 A 
ATOM     87  C   UNL A   1      39.460  35.326  36.331  1.00  0.00     0.001 A 
ATOM     88  C   UNL A   1      38.642  33.834  38.038  1.00  0.00     0.086 A 
ATOM     89  C   UNL A   1      39.273  35.022  37.677  1.00  0.00     0.007 A 
BRANCH  86  90
ATOM     90  N   UNL A   1      37.616  31.691  37.478  1.00  0.00     0.063 N 
ATOM     91  O   UNL A   1      37.951  30.685  36.839  1.00  0.00    -0.258 OA
ATOM     92  O   UNL A   1      36.815  31.705  38.421  1.00  0.00    -0.258 OA
ENDBRANCH  86  90
ENDBRANCH  83  84
ENDBRANCH  79  83
ENDBRANCH  75  77
ENDBRANCH  74  75
ENDBRANCH  73  74
ENDBRANCH  72  73
ENDBRANCH   1  72
TORSDOF 20
ENDMDL
MODEL 2
REMARK VINA RESULT:      -9.4      0.931      7.888
REMARK SMILES O=C(OCCOCCOC(=O)[C@H]1CCC[N@@H+]1Cc1ccccc1[N+](=O)[O-])c1ccc(-c2c3nc(c(-c4cc(S(=O)(=O)[O-])ccc4F)c4ccc([nH]4)c(-c4cc(S(=O)(=O)[O-])ccc4F)c4nc(c(-c5cc(S(=O)(=O)[O-])ccc5F)c5ccc2[nH]5)C=C4)C=C3)cc1
REMARK SMILES IDX 6 1 5 2 4 3 3 4 2 5 1 6 27 7 28 8 89 9 29 10 88 11 30 12
REMARK SMILES IDX 31 13 32 14 82 15 33 16 87 17 81 18 83 19 34 20 86 21 80 22
REMARK SMILES IDX 79 23 35 25 67 26 47 27 66 28 48 29 51 30 65 31 84 32 49 33
REMARK SMILES IDX 50 34 64 36 85 37 52 38 36 39 37 40 45 41 38 42 44 43 46 44
REMARK SMILES IDX 43 45 39 46 40 47 41 48 42 49 68 50 69 51 77 52 70 53 76 54
REMARK SMILES IDX 78 55 75 56 71 57 72 58 73 59 74 60 53 61 54 62 62 63 55 64
REMARK SMILES IDX 61 65 63 66 60 67 56 68 57 69 58 70 59 71 7 72 8 73 9 74
REMARK SMILES IDX 10 75 11 76 12 77 13 78 16 79 14 80 15 81 17 83 18 84 19 85
REMARK SMILES IDX 23 86 20 87 22 88 21 89 24 90 25 91 26 92
REMARK H PARENT 83 24 51 35 16 82
REMARK Flexibility Score: inf
ROOT
ATOM      1  O   UNL A   1      34.437  35.302  29.116  1.00  0.00    -0.374 OA
ENDROOT
BRANCH   1   2
ATOM      2  C   UNL A   1      34.730  34.216  28.235  1.00  0.00     0.202 C 
BRANCH   2   3
ATOM      3  C   UNL A   1      33.515  33.360  27.861  1.00  0.00     0.261 C 
BRANCH   3   4
ATOM      4  O   UNL A   1      33.654  32.026  28.368  1.00  0.00    -0.460 OA
BRANCH   4   5
ATOM      5  C   UNL A   1      34.445  31.042  27.875  1.00  0.00     0.338 C 
ATOM      6  O   UNL A   1      34.097  30.487  26.834  1.00  0.00    -0.246 OA
BRANCH   5   7
ATOM      7  C   UNL A   1      35.722  30.594  28.515  1.00  0.00     0.060 A 
ATOM      8  C   UNL A   1      35.820  29.719  29.600  1.00  0.00     0.016 A 
ATOM      9  C   UNL A   1      36.917  31.011  27.903  1.00  0.00     0.016 A 
ATOM     10  C   UNL A   1      37.039  29.272  30.073  1.00  0.00     0.010 A 
ATOM     11  C   UNL A   1      38.156  30.547  28.358  1.00  0.00     0.010 A 
ATOM     12  C   UNL A   1      38.209  29.666  29.442  1.00  0.00    -0.014 A 
BRANCH  12  13
ATOM     13  C   UNL A   1      39.470  29.172  30.008  1.00  0.00     0.031 A 
ATOM     14  C   UNL A   1      40.180  28.072  29.289  1.00  0.00     0.074 A 
ATOM     15  C   UNL A   1      40.010  29.821  31.056  1.00  0.00     0.049 A 
ATOM     16  N   UNL A   1      41.269  27.442  29.621  1.00  0.00    -0.248 NA
ATOM     17  C   UNL A   1      39.592  27.639  28.009  1.00  0.00     0.031 C 
ATOM     18  C   UNL A   1      39.433  31.009  31.696  1.00  0.00     0.029 A 
ATOM     19  N   UNL A   1      41.168  29.604  31.748  1.00  0.00    -0.354 N 
ATOM     20  C   UNL A   1      41.482  26.512  28.613  1.00  0.00     0.074 A 
ATOM     21  C   UNL A   1      40.417  26.667  27.650  1.00  0.00     0.031 C 
ATOM     22  C   UNL A   1      40.247  31.416  32.683  1.00  0.00     0.029 A 
ATOM     23  C   UNL A   1      41.349  30.470  32.803  1.00  0.00     0.049 A 
ATOM     24  H   UNL A   1      41.811  28.896  31.514  1.00  0.00     0.167 HD
ATOM     25  C   UNL A   1      42.477  25.599  28.531  1.00  0.00     0.034 A 
ATOM     26  C   UNL A   1      42.273  30.450  33.783  1.00  0.00     0.034 A 
ATOM     27  C   UNL A   1      43.507  25.488  29.531  1.00  0.00     0.049 A 
ATOM     28  C   UNL A   1      43.296  29.339  33.730  1.00  0.00     0.074 A 
ATOM     29  C   UNL A   1      44.544  24.578  29.607  1.00  0.00     0.029 A 
ATOM     30  N   UNL A   1      43.619  26.318  30.642  1.00  0.00    -0.354 N 
ATOM     31  N   UNL A   1      43.462  28.413  32.809  1.00  0.00    -0.248 NA
ATOM     32  C   UNL A   1      44.244  29.255  34.846  1.00  0.00     0.031 C 
ATOM     33  C   UNL A   1      45.233  24.809  30.802  1.00  0.00     0.029 A 
ATOM     34  C   UNL A   1      44.680  25.915  31.433  1.00  0.00     0.049 A 
ATOM     35  H   UNL A   1      43.028  27.081  30.838  1.00  0.00     0.167 HD
ATOM     36  C   UNL A   1      44.542  27.647  33.229  1.00  0.00     0.074 A 
ATOM     37  C   UNL A   1      45.008  28.242  34.467  1.00  0.00     0.031 C 
ATOM     38  C   UNL A   1      45.098  26.545  32.663  1.00  0.00     0.034 A 
BRANCH  25  39
ATOM     39  C   UNL A   1      42.411  24.602  27.405  1.00  0.00     0.023 A 
ATOM     40  C   UNL A   1      41.580  23.469  27.448  1.00  0.00     0.031 A 
ATOM     41  C   UNL A   1      43.247  24.768  26.287  1.00  0.00     0.131 A 
ATOM     42  C   UNL A   1      41.642  22.521  26.413  1.00  0.00     0.055 A 
ATOM     43  C   UNL A   1      43.253  23.858  25.229  1.00  0.00     0.041 A 
ATOM     44  F   UNL A   1      44.088  25.811  26.213  1.00  0.00    -0.206 F 
ATOM     45  C   UNL A   1      42.454  22.721  25.293  1.00  0.00     0.022 A 
BRANCH  42  46
ATOM     46  S   UNL A   1      40.735  20.961  26.601  1.00  0.00     0.124 S 
ATOM     47  O   UNL A   1      41.539  20.052  25.787  1.00  0.00    -0.237 OA
ATOM     48  O   UNL A   1      40.779  20.739  28.042  1.00  0.00    -0.237 OA
ATOM     49  O   UNL A   1      39.411  21.266  26.058  1.00  0.00    -0.744 OA
ENDBRANCH  42  46
ENDBRANCH  25  39
BRANCH  26  50
ATOM     50  C   UNL A   1      42.216  31.404  34.931  1.00  0.00     0.023 A 
ATOM     51  C   UNL A   1      43.008  32.563  34.962  1.00  0.00     0.031 A 
ATOM     52  C   UNL A   1      41.438  31.120  36.072  1.00  0.00     0.131 A 
ATOM     53  C   UNL A   1      43.058  33.351  36.124  1.00  0.00     0.055 A 
ATOM     54  C   UNL A   1      41.434  31.947  37.196  1.00  0.00     0.041 A 
ATOM     55  F   UNL A   1      40.670  30.019  36.117  1.00  0.00    -0.206 F 
ATOM     56  C   UNL A   1      42.265  33.060  37.236  1.00  0.00     0.022 A 
BRANCH  53  57
ATOM     57  S   UNL A   1      44.293  34.678  36.222  1.00  0.00     0.124 S 
ATOM     58  O   UNL A   1      45.454  34.050  35.602  1.00  0.00    -0.237 OA
ATOM     59  O   UNL A   1      43.653  35.743  35.457  1.00  0.00    -0.237 OA
ATOM     60  O   UNL A   1      44.411  34.928  37.657  1.00  0.00    -0.744 OA
ENDBRANCH  53  57
ENDBRANCH  26  50
BRANCH  38  61
ATOM     61  C   UNL A   1      46.284  25.953  33.377  1.00  0.00     0.023 A 
ATOM     62  C   UNL A   1      47.596  26.328  33.045  1.00  0.00     0.031 A 
ATOM     63  C   UNL A   1      46.094  25.008  34.398  1.00  0.00     0.131 A 
ATOM     64  C   UNL A   1      48.676  25.716  33.693  1.00  0.00     0.055 A 
ATOM     65  C   UNL A   1      47.172  24.454  35.088  1.00  0.00     0.041 A 
ATOM     66  F   UNL A   1      44.859  24.617  34.749  1.00  0.00    -0.206 F 
ATOM     67  C   UNL A   1      48.472  24.798  34.727  1.00  0.00     0.022 A 
BRANCH  64  68
ATOM     68  S   UNL A   1      50.353  26.069  33.104  1.00  0.00     0.124 S 
ATOM     69  O   UNL A   1      51.127  25.012  33.746  1.00  0.00    -0.237 OA
ATOM     70  O   UNL A   1      50.205  25.961  31.655  1.00  0.00    -0.237 OA
ATOM     71  O   UNL A   1      50.613  27.418  33.601  1.00  0.00    -0.744 OA
ENDBRANCH  64  68
ENDBRANCH  38  61
ENDBRANCH  12  13
ENDBRANCH   5   7
ENDBRANCH   4   5
ENDBRANCH   3   4
ENDBRANCH   2   3
ENDBRANCH   1   2
BRANCH   1  72
ATOM     72  C   UNL A   1      33.119  35.336  29.667  1.00  0.00     0.202 C 
BRANCH  72  73
ATOM     73  C   UNL A   1      33.182  35.842  31.104  1.00  0.00     0.261 C 
BRANCH  73  74
ATOM     74  O   UNL A   1      33.489  34.721  31.947  1.00  0.00    -0.459 OA
BRANCH  74  75
ATOM     75  C   UNL A   1      34.486  34.981  32.848  1.00  0.00     0.365 C 
ATOM     76  O   UNL A   1      34.795  36.091  33.248  1.00  0.00    -0.245 OA
BRANCH  75  77
ATOM     77  C   UNL A   1      35.165  33.665  33.267  1.00  0.00     0.295 C 
ATOM     78  C   UNL A   1      35.090  32.725  32.077  1.00  0.00     0.083 C 
ATOM     79  N   UNL A   1      36.615  33.869  33.501  1.00  0.00    -0.319 N 
ATOM     80  C   UNL A   1      36.331  33.065  31.258  1.00  0.00     0.068 C 
ATOM     81  C   UNL A   1      37.246  33.871  32.179  1.00  0.00     0.263 C 
ATOM     82  H   UNL A   1      36.744  34.766  33.971  1.00  0.00     0.349 HD
BRANCH  79  83
ATOM     83  C   UNL A   1      37.272  33.033  34.516  1.00  0.00     0.307 C 
BRANCH  83  84
ATOM     84  C   UNL A   1      38.216  33.744  35.463  1.00  0.00     0.084 A 
ATOM     85  C   UNL A   1      39.119  34.678  34.916  1.00  0.00     0.017 A 
ATOM     86  C   UNL A   1      38.156  33.645  36.864  1.00  0.00     0.278 A 
ATOM     87  C   UNL A   1      39.829  35.559  35.734  1.00  0.00     0.001 A 
ATOM     88  C   UNL A   1      38.837  34.555  37.688  1.00  0.00     0.086 A 
ATOM     89  C   UNL A   1      39.655  35.526  37.115  1.00  0.00     0.007 A 
BRANCH  86  90
ATOM     90  N   UNL A   1      37.414  32.579  37.528  1.00  0.00     0.063 N 
ATOM     91  O   UNL A   1      36.335  32.881  38.056  1.00  0.00    -0.258 OA
ATOM     92  O   UNL A   1      37.942  31.461  37.569  1.00  0.00    -0.258 OA
ENDBRANCH  86  90
ENDBRANCH  83  84
ENDBRANCH  79  83
ENDBRANCH  75  77
ENDBRANCH  74  75
ENDBRANCH  73  74
ENDBRANCH  72  73
ENDBRANCH   1  72
TORSDOF 20
ENDMDL
MODEL 3
REMARK VINA RESULT:      -9.2      4.375     10.732
REMARK SMILES O=C(OCCOCCOC(=O)[C@H]1CCC[N@@H+]1Cc1ccccc1[N+](=O)[O-])c1ccc(-c2c3nc(c(-c4cc(S(=O)(=O)[O-])ccc4F)c4ccc([nH]4)c(-c4cc(S(=O)(=O)[O-])ccc4F)c4nc(c(-c5cc(S(=O)(=O)[O-])ccc5F)c5ccc2[nH]5)C=C4)C=C3)cc1
REMARK SMILES IDX 6 1 5 2 4 3 3 4 2 5 1 6 27 7 28 8 89 9 29 10 88 11 30 12
REMARK SMILES IDX 31 13 32 14 82 15 33 16 87 17 81 18 83 19 34 20 86 21 80 22
REMARK SMILES IDX 79 23 35 25 67 26 47 27 66 28 48 29 51 30 65 31 84 32 49 33
REMARK SMILES IDX 50 34 64 36 85 37 52 38 36 39 37 40 45 41 38 42 44 43 46 44
REMARK SMILES IDX 43 45 39 46 40 47 41 48 42 49 68 50 69 51 77 52 70 53 76 54
REMARK SMILES IDX 78 55 75 56 71 57 72 58 73 59 74 60 53 61 54 62 62 63 55 64
REMARK SMILES IDX 61 65 63 66 60 67 56 68 57 69 58 70 59 71 7 72 8 73 9 74
REMARK SMILES IDX 10 75 11 76 12 77 13 78 16 79 14 80 15 81 17 83 18 84 19 85
REMARK SMILES IDX 23 86 20 87 22 88 21 89 24 90 25 91 26 92
REMARK H PARENT 83 24 51 35 16 82
REMARK Flexibility Score: inf
ROOT
ATOM      1  O   UNL A   1      31.250  29.352  23.836  1.00  0.00    -0.374 OA
ENDROOT
BRANCH   1   2
ATOM      2  C   UNL A   1      31.634  29.091  25.188  1.00  0.00     0.202 C 
BRANCH   2   3
ATOM      3  C   UNL A   1      32.935  29.777  25.618  1.00  0.00     0.261 C 
BRANCH   3   4
ATOM      4  O   UNL A   1      32.708  30.652  26.731  1.00  0.00    -0.460 OA
BRANCH   4   5
ATOM      5  C   UNL A   1      33.579  31.544  27.262  1.00  0.00     0.338 C 
ATOM      6  O   UNL A   1      33.358  32.743  27.090  1.00  0.00    -0.246 OA
BRANCH   5   7
ATOM      7  C   UNL A   1      34.792  31.162  28.053  1.00  0.00     0.060 A 
ATOM      8  C   UNL A   1      34.983  29.938  28.699  1.00  0.00     0.016 A 
ATOM      9  C   UNL A   1      35.861  32.074  28.052  1.00  0.00     0.016 A 
ATOM     10  C   UNL A   1      36.172  29.620  29.327  1.00  0.00     0.010 A 
ATOM     11  C   UNL A   1      37.077  31.754  28.663  1.00  0.00     0.010 A 
ATOM     12  C   UNL A   1      37.230  30.516  29.293  1.00  0.00    -0.014 A 
BRANCH  12  13
ATOM     13  C   UNL A   1      38.457  30.123  29.997  1.00  0.00     0.031 A 
ATOM     14  C   UNL A   1      39.401  29.199  29.301  1.00  0.00     0.074 A 
ATOM     15  C   UNL A   1      38.755  30.721  31.165  1.00  0.00     0.049 A 
ATOM     16  N   UNL A   1      40.511  28.675  29.737  1.00  0.00    -0.248 NA
ATOM     17  C   UNL A   1      39.059  28.832  27.915  1.00  0.00     0.031 C 
ATOM     18  C   UNL A   1      37.940  31.757  31.811  1.00  0.00     0.029 A 
ATOM     19  N   UNL A   1      39.827  30.577  32.001  1.00  0.00    -0.354 N 
ATOM     20  C   UNL A   1      40.984  27.888  28.696  1.00  0.00     0.074 A 
ATOM     21  C   UNL A   1      40.049  28.011  27.602  1.00  0.00     0.031 C 
ATOM     22  C   UNL A   1      38.548  32.155  32.939  1.00  0.00     0.029 A 
ATOM     23  C   UNL A   1      39.742  31.344  33.141  1.00  0.00     0.049 A 
ATOM     24  H   UNL A   1      40.586  29.981  31.806  1.00  0.00     0.167 HD
ATOM     25  C   UNL A   1      42.096  27.118  28.687  1.00  0.00     0.034 A 
ATOM     26  C   UNL A   1      40.518  31.336  34.242  1.00  0.00     0.034 A 
ATOM     27  C   UNL A   1      42.985  27.030  29.815  1.00  0.00     0.049 A 
ATOM     28  C   UNL A   1      41.680  30.370  34.248  1.00  0.00     0.074 A 
ATOM     29  C   UNL A   1      44.115  26.251  29.967  1.00  0.00     0.029 A 
ATOM     30  N   UNL A   1      42.829  27.747  30.997  1.00  0.00    -0.354 N 
ATOM     31  N   UNL A   1      42.094  29.572  33.287  1.00  0.00    -0.248 NA
ATOM     32  C   UNL A   1      42.468  30.287  35.481  1.00  0.00     0.031 C 
ATOM     33  C   UNL A   1      44.597  26.439  31.267  1.00  0.00     0.029 A 
ATOM     34  C   UNL A   1      43.817  27.398  31.900  1.00  0.00     0.049 A 
ATOM     35  H   UNL A   1      42.119  28.408  31.167  1.00  0.00     0.167 HD
ATOM     36  C   UNL A   1      43.201  28.905  33.797  1.00  0.00     0.074 A 
ATOM     37  C   UNL A   1      43.408  29.420  35.136  1.00  0.00     0.031 C 
ATOM     38  C   UNL A   1      43.973  27.943  33.228  1.00  0.00     0.034 A 
BRANCH  25  39
ATOM     39  C   UNL A   1      42.321  26.242  27.482  1.00  0.00     0.023 A 
ATOM     40  C   UNL A   1      41.905  24.899  27.437  1.00  0.00     0.031 A 
ATOM     41  C   UNL A   1      43.019  26.756  26.376  1.00  0.00     0.131 A 
ATOM     42  C   UNL A   1      42.238  24.106  26.327  1.00  0.00     0.055 A 
ATOM     43  C   UNL A   1      43.286  25.981  25.247  1.00  0.00     0.041 A 
ATOM     44  F   UNL A   1      43.472  28.020  26.383  1.00  0.00    -0.206 F 
ATOM     45  C   UNL A   1      42.902  24.644  25.222  1.00  0.00     0.022 A 
BRANCH  42  46
ATOM     46  S   UNL A   1      41.895  22.325  26.392  1.00  0.00     0.124 S 
ATOM     47  O   UNL A   1      42.451  21.964  27.694  1.00  0.00    -0.237 OA
ATOM     48  O   UNL A   1      40.441  22.277  26.282  1.00  0.00    -0.237 OA
ATOM     49  O   UNL A   1      42.624  21.793  25.241  1.00  0.00    -0.744 OA
ENDBRANCH  42  46
ENDBRANCH  25  39
BRANCH  26  50
ATOM     50  C   UNL A   1      40.175  32.152  35.446  1.00  0.00     0.023 A 
ATOM     51  C   UNL A   1      39.232  31.710  36.387  1.00  0.00     0.031 A 
ATOM     52  C   UNL A   1      40.713  33.443  35.624  1.00  0.00     0.131 A 
ATOM     53  C   UNL A   1      38.807  32.569  37.416  1.00  0.00     0.055 A 
ATOM     54  C   UNL A   1      40.344  34.263  36.690  1.00  0.00     0.041 A 
ATOM     55  F   UNL A   1      41.607  33.935  34.752  1.00  0.00    -0.206 F 
ATOM     56  C   UNL A   1      39.368  33.837  37.583  1.00  0.00     0.022 A 
BRANCH  53  57
ATOM     57  S   UNL A   1      37.398  32.065  38.442  1.00  0.00     0.124 S 
ATOM     58  O   UNL A   1      37.283  30.648  38.116  1.00  0.00    -0.237 OA
ATOM     59  O   UNL A   1      37.875  32.378  39.785  1.00  0.00    -0.237 OA
ATOM     60  O   UNL A   1      36.306  32.907  37.958  1.00  0.00    -0.744 OA
ENDBRANCH  53  57
ENDBRANCH  26  50
BRANCH  38  61
ATOM     61  C   UNL A   1      45.120  27.430  34.057  1.00  0.00     0.023 A 
ATOM     62  C   UNL A   1      44.974  26.305  34.886  1.00  0.00     0.031 A 
ATOM     63  C   UNL A   1      46.368  28.072  34.013  1.00  0.00     0.131 A 
ATOM     64  C   UNL A   1      46.047  25.891  35.685  1.00  0.00     0.055 A 
ATOM     65  C   UNL A   1      47.452  27.612  34.758  1.00  0.00     0.041 A 
ATOM     66  F   UNL A   1      46.555  29.152  33.236  1.00  0.00    -0.206 F 
ATOM     67  C   UNL A   1      47.291  26.522  35.610  1.00  0.00     0.022 A 
BRANCH  64  68
ATOM     68  S   UNL A   1      45.767  24.568  36.892  1.00  0.00     0.124 S 
ATOM     69  O   UNL A   1      47.124  24.284  37.349  1.00  0.00    -0.237 OA
ATOM     70  O   UNL A   1      44.889  25.212  37.865  1.00  0.00    -0.237 OA
ATOM     71  O   UNL A   1      45.145  23.509  36.101  1.00  0.00    -0.744 OA
ENDBRANCH  64  68
ENDBRANCH  38  61
ENDBRANCH  12  13
ENDBRANCH   5   7
ENDBRANCH   4   5
ENDBRANCH   3   4
ENDBRANCH   2   3
ENDBRANCH   1   2
BRANCH   1  72
ATOM     72  C   UNL A   1      30.019  28.770  23.402  1.00  0.00     0.202 C 
BRANCH  72  73
ATOM     73  C   UNL A   1      30.276  27.350  22.906  1.00  0.00     0.261 C 
BRANCH  73  74
ATOM     74  O   UNL A   1      29.732  26.445  23.879  1.00  0.00    -0.459 OA
BRANCH  74  75
ATOM     75  C   UNL A   1      30.419  25.264  23.959  1.00  0.00     0.365 C 
ATOM     76  O   UNL A   1      30.335  24.350  23.154  1.00  0.00    -0.245 OA
BRANCH  75  77
ATOM     77  C   UNL A   1      31.299  25.257  25.221  1.00  0.00     0.295 C 
ATOM     78  C   UNL A   1      30.439  24.745  26.363  1.00  0.00     0.083 C 
ATOM     79  N   UNL A   1      32.396  24.268  25.096  1.00  0.00    -0.319 N 
ATOM     80  C   UNL A   1      30.591  23.230  26.290  1.00  0.00     0.068 C 
ATOM     81  C   UNL A   1      31.805  22.962  25.401  1.00  0.00     0.263 C 
ATOM     82  H   UNL A   1      32.750  24.297  24.139  1.00  0.00     0.349 HD
BRANCH  79  83
ATOM     83  C   UNL A   1      33.667  24.561  25.773  1.00  0.00     0.307 C 
BRANCH  83  84
ATOM     84  C   UNL A   1      34.919  24.021  25.114  1.00  0.00     0.084 A 
ATOM     85  C   UNL A   1      36.019  23.716  25.941  1.00  0.00     0.017 A 
ATOM     86  C   UNL A   1      35.011  23.666  23.757  1.00  0.00     0.278 A 
ATOM     87  C   UNL A   1      37.100  22.976  25.459  1.00  0.00     0.001 A 
ATOM     88  C   UNL A   1      36.077  22.887  23.279  1.00  0.00     0.086 A 
ATOM     89  C   UNL A   1      37.109  22.525  24.142  1.00  0.00     0.007 A 
BRANCH  86  90
ATOM     90  N   UNL A   1      34.026  24.112  22.778  1.00  0.00     0.063 N 
ATOM     91  O   UNL A   1      33.950  25.329  22.562  1.00  0.00    -0.258 OA
ATOM     92  O   UNL A   1      33.295  23.250  22.275  1.00  0.00    -0.258 OA
ENDBRANCH  86  90
ENDBRANCH  83  84
ENDBRANCH  79  83
ENDBRANCH  75  77
ENDBRANCH  74  75
ENDBRANCH  73  74
ENDBRANCH  72  73
ENDBRANCH   1  72
TORSDOF 20
ENDMDL
