MODEL 1
REMARK VINA RESULT:     -11.2      0.000      0.000
REMARK SMILES CC(C)(C)OC(=O)N1[C@@H](C(=O)OCCOCCOC(=O)c2ccc(-c3c4nc(c(-c5cc(S(=O)(=O)[O-])ccc5F)c5ccc([nH]5)c(-c5cc(S(=O)(=O)[O-])ccc5F)c5nc(c(-c6cc(S(=O)(=O)[O-])ccc6F)c6ccc3[nH]6)C=C5)C=C4)cc2)C[C@H]2CCCC[C@@H]21
REMARK SMILES IDX 15 1 14 2 13 3 12 4 10 5 11 6 9 7 8 8 90 9 84 10 85 11 89 12
REMARK SMILES IDX 86 13 88 14 87 15 6 16 7 17 5 18 2 19 1 20 3 21 4 22 16 23
REMARK SMILES IDX 17 24 18 25 19 26 20 27 21 28 22 29 83 30 23 31 82 32 24 33
REMARK SMILES IDX 25 34 26 35 76 36 27 37 81 38 75 39 77 40 28 41 80 42 74 43
REMARK SMILES IDX 73 44 29 46 61 47 41 48 60 49 42 50 45 51 59 52 78 53 43 54
REMARK SMILES IDX 44 55 58 57 79 58 46 59 30 60 31 61 39 62 32 63 38 64 40 65
REMARK SMILES IDX 37 66 33 67 34 68 35 69 36 70 62 71 63 72 71 73 64 74 70 75
REMARK SMILES IDX 72 76 69 77 65 78 66 79 67 80 68 81 47 82 48 83 56 84 49 85
REMARK SMILES IDX 55 86 57 87 54 88 50 89 51 90 52 91 53 92
REMARK H PARENT 77 45 45 56
REMARK Flexibility Score: inf
ROOT
ATOM      1  O   UNL A   1      35.374  22.251  25.575  1.00  0.00    -0.374 OA
ENDROOT
BRANCH   1   2
ATOM      2  C   UNL A   1      34.673  22.618  26.763  1.00  0.00     0.202 C 
BRANCH   2   3
ATOM      3  C   UNL A   1      33.162  22.385  26.778  1.00  0.00     0.261 C 
BRANCH   3   4
ATOM      4  O   UNL A   1      32.495  23.211  25.805  1.00  0.00    -0.462 OA
BRANCH   4   5
ATOM      5  C   UNL A   1      31.450  23.945  26.285  1.00  0.00     0.329 C 
ATOM      6  O   UNL A   1      30.836  23.690  27.314  1.00  0.00    -0.250 OA
BRANCH   5   7
ATOM      7  C   UNL A   1      31.165  25.151  25.364  1.00  0.00     0.199 C 
ATOM      8  N   UNL A   1      32.454  25.748  24.981  1.00  0.00    -0.291 N 
ATOM      9  C   UNL A   1      32.828  26.715  25.981  1.00  0.00     0.092 C 
ATOM     10  C   UNL A   1      30.466  26.239  26.202  1.00  0.00     0.043 C 
ATOM     11  C   UNL A   1      31.477  27.387  26.241  1.00  0.00     0.014 C 
ATOM     12  C   UNL A   1      33.855  27.791  25.655  1.00  0.00     0.025 C 
ATOM     13  C   UNL A   1      31.547  28.222  27.506  1.00  0.00     0.006 C 
ATOM     14  C   UNL A   1      33.979  28.732  26.860  1.00  0.00     0.002 C 
ATOM     15  C   UNL A   1      32.632  29.294  27.339  1.00  0.00     0.000 C 
BRANCH   8  16
ATOM     16  C   UNL A   1      33.306  25.226  24.048  1.00  0.00     0.411 C 
ATOM     17  O   UNL A   1      34.507  25.050  24.248  1.00  0.00    -0.224 OA
BRANCH  16  18
ATOM     18  O   UNL A   1      32.698  25.049  22.847  1.00  0.00    -0.444 OA
BRANCH  18  19
ATOM     19  C   UNL A   1      32.605  26.149  21.895  1.00  0.00     0.106 C 
ATOM     20  C   UNL A   1      31.203  26.748  22.103  1.00  0.00     0.056 C 
ATOM     21  C   UNL A   1      32.713  25.594  20.475  1.00  0.00     0.056 C 
ATOM     22  C   UNL A   1      33.620  27.283  22.128  1.00  0.00     0.056 C 
ENDBRANCH  18  19
ENDBRANCH  16  18
ENDBRANCH   8  16
ENDBRANCH   5   7
ENDBRANCH   4   5
ENDBRANCH   3   4
ENDBRANCH   2   3
ENDBRANCH   1   2
BRANCH   1  23
ATOM     23  C   UNL A   1      35.489  20.871  25.249  1.00  0.00     0.202 C 
BRANCH  23  24
ATOM     24  C   UNL A   1      36.884  20.313  24.936  1.00  0.00     0.261 C 
BRANCH  24  25
ATOM     25  O   UNL A   1      37.928  21.300  24.956  1.00  0.00    -0.460 OA
BRANCH  25  26
ATOM     26  C   UNL A   1      38.973  20.979  25.764  1.00  0.00     0.338 C 
ATOM     27  O   UNL A   1      39.516  19.890  25.858  1.00  0.00    -0.246 OA
BRANCH  26  28
ATOM     28  C   UNL A   1      39.507  22.183  26.430  1.00  0.00     0.060 A 
ATOM     29  C   UNL A   1      38.930  23.415  26.094  1.00  0.00     0.016 A 
ATOM     30  C   UNL A   1      40.616  22.126  27.276  1.00  0.00     0.016 A 
ATOM     31  C   UNL A   1      39.488  24.600  26.566  1.00  0.00     0.010 A 
ATOM     32  C   UNL A   1      41.183  23.320  27.740  1.00  0.00     0.010 A 
ATOM     33  C   UNL A   1      40.642  24.562  27.359  1.00  0.00    -0.014 A 
BRANCH  33  34
ATOM     34  C   UNL A   1      41.364  25.826  27.651  1.00  0.00     0.031 A 
ATOM     35  C   UNL A   1      40.660  26.903  28.434  1.00  0.00     0.074 A 
ATOM     36  C   UNL A   1      42.639  25.998  27.261  1.00  0.00     0.049 A 
ATOM     37  N   UNL A   1      41.087  28.086  28.791  1.00  0.00    -0.248 NA
ATOM     38  C   UNL A   1      39.289  26.599  28.870  1.00  0.00     0.031 C 
ATOM     39  C   UNL A   1      43.437  25.010  26.536  1.00  0.00     0.029 A 
ATOM     40  N   UNL A   1      43.484  27.068  27.417  1.00  0.00    -0.354 N 
ATOM     41  C   UNL A   1      40.039  28.671  29.495  1.00  0.00     0.074 A 
ATOM     42  C   UNL A   1      38.944  27.724  29.478  1.00  0.00     0.031 C 
ATOM     43  C   UNL A   1      44.656  25.526  26.300  1.00  0.00     0.029 A 
ATOM     44  C   UNL A   1      44.714  26.889  26.828  1.00  0.00     0.049 A 
ATOM     45  H   UNL A   1      43.235  27.885  27.906  1.00  0.00     0.167 HD
ATOM     46  C   UNL A   1      39.997  29.881  30.107  1.00  0.00     0.034 A 
ATOM     47  C   UNL A   1      45.756  27.736  26.708  1.00  0.00     0.034 A 
ATOM     48  C   UNL A   1      41.092  30.821  30.102  1.00  0.00     0.049 A 
ATOM     49  C   UNL A   1      45.658  29.111  27.322  1.00  0.00     0.074 A 
ATOM     50  C   UNL A   1      41.163  32.068  30.701  1.00  0.00     0.029 A 
ATOM     51  N   UNL A   1      42.305  30.626  29.453  1.00  0.00    -0.354 N 
ATOM     52  N   UNL A   1      44.665  29.649  27.993  1.00  0.00    -0.248 NA
ATOM     53  C   UNL A   1      46.825  29.989  27.169  1.00  0.00     0.031 C 
ATOM     54  C   UNL A   1      42.388  32.652  30.356  1.00  0.00     0.029 A 
ATOM     55  C   UNL A   1      43.115  31.741  29.605  1.00  0.00     0.049 A 
ATOM     56  H   UNL A   1      42.554  29.813  28.957  1.00  0.00     0.167 HD
ATOM     57  C   UNL A   1      45.102  30.918  28.365  1.00  0.00     0.074 A 
ATOM     58  C   UNL A   1      46.449  31.060  27.852  1.00  0.00     0.031 C 
ATOM     59  C   UNL A   1      44.451  31.877  29.074  1.00  0.00     0.034 A 
BRANCH  46  60
ATOM     60  C   UNL A   1      38.704  30.268  30.782  1.00  0.00     0.023 A 
ATOM     61  C   UNL A   1      37.709  31.002  30.111  1.00  0.00     0.031 A 
ATOM     62  C   UNL A   1      38.480  29.934  32.129  1.00  0.00     0.131 A 
ATOM     63  C   UNL A   1      36.573  31.441  30.809  1.00  0.00     0.055 A 
ATOM     64  C   UNL A   1      37.311  30.307  32.796  1.00  0.00     0.041 A 
ATOM     65  F   UNL A   1      39.402  29.253  32.827  1.00  0.00    -0.206 F 
ATOM     66  C   UNL A   1      36.356  31.080  32.141  1.00  0.00     0.022 A 
BRANCH  63  67
ATOM     67  S   UNL A   1      35.457  32.618  29.995  1.00  0.00     0.124 S 
ATOM     68  O   UNL A   1      34.700  33.141  31.130  1.00  0.00    -0.237 OA
ATOM     69  O   UNL A   1      36.385  33.547  29.361  1.00  0.00    -0.237 OA
ATOM     70  O   UNL A   1      34.687  31.781  29.076  1.00  0.00    -0.744 OA
ENDBRANCH  63  67
ENDBRANCH  46  60
BRANCH  47  71
ATOM     71  C   UNL A   1      46.967  27.331  25.941  1.00  0.00     0.023 A 
ATOM     72  C   UNL A   1      47.141  27.706  24.600  1.00  0.00     0.031 A 
ATOM     73  C   UNL A   1      47.953  26.521  26.533  1.00  0.00     0.131 A 
ATOM     74  C   UNL A   1      48.253  27.240  23.883  1.00  0.00     0.055 A 
ATOM     75  C   UNL A   1      49.082  26.099  25.830  1.00  0.00     0.041 A 
ATOM     76  F   UNL A   1      47.835  26.136  27.815  1.00  0.00    -0.206 F 
ATOM     77  C   UNL A   1      49.231  26.449  24.492  1.00  0.00     0.022 A 
BRANCH  74  78
ATOM     78  S   UNL A   1      48.374  27.628  22.115  1.00  0.00     0.124 S 
ATOM     79  O   UNL A   1      48.593  26.308  21.536  1.00  0.00    -0.237 OA
ATOM     80  O   UNL A   1      47.076  28.239  21.850  1.00  0.00    -0.237 OA
ATOM     81  O   UNL A   1      49.515  28.539  22.044  1.00  0.00    -0.744 OA
ENDBRANCH  74  78
ENDBRANCH  47  71
BRANCH  59  82
ATOM     82  C   UNL A   1      45.211  33.147  29.369  1.00  0.00     0.023 A 
ATOM     83  C   UNL A   1      45.049  34.306  28.589  1.00  0.00     0.031 A 
ATOM     84  C   UNL A   1      46.119  33.192  30.442  1.00  0.00     0.131 A 
ATOM     85  C   UNL A   1      45.822  35.445  28.863  1.00  0.00     0.055 A 
ATOM     86  C   UNL A   1      46.844  34.346  30.744  1.00  0.00     0.041 A 
ATOM     87  F   UNL A   1      46.314  32.114  31.218  1.00  0.00    -0.206 F 
ATOM     88  C   UNL A   1      46.707  35.477  29.945  1.00  0.00     0.022 A 
BRANCH  85  89
ATOM     89  S   UNL A   1      45.719  36.861  27.734  1.00  0.00     0.124 S 
ATOM     90  O   UNL A   1      44.927  37.810  28.509  1.00  0.00    -0.237 OA
ATOM     91  O   UNL A   1      47.123  37.211  27.542  1.00  0.00    -0.237 OA
ATOM     92  O   UNL A   1      45.051  36.313  26.555  1.00  0.00    -0.744 OA
ENDBRANCH  85  89
ENDBRANCH  59  82
ENDBRANCH  33  34
ENDBRANCH  26  28
ENDBRANCH  25  26
ENDBRANCH  24  25
ENDBRANCH  23  24
ENDBRANCH   1  23
TORSDOF 20
ENDMDL
MODEL 2
REMARK VINA RESULT:     -10.8      5.154      9.994
REMARK SMILES CC(C)(C)OC(=O)N1[C@@H](C(=O)OCCOCCOC(=O)c2ccc(-c3c4nc(c(-c5cc(S(=O)(=O)[O-])ccc5F)c5ccc([nH]5)c(-c5cc(S(=O)(=O)[O-])ccc5F)c5nc(c(-c6cc(S(=O)(=O)[O-])ccc6F)c6ccc3[nH]6)C=C5)C=C4)cc2)C[C@H]2CCCC[C@@H]21
REMARK SMILES IDX 15 1 14 2 13 3 12 4 10 5 11 6 9 7 8 8 90 9 84 10 85 11 89 12
REMARK SMILES IDX 86 13 88 14 87 15 6 16 7 17 5 18 2 19 1 20 3 21 4 22 16 23
REMARK SMILES IDX 17 24 18 25 19 26 20 27 21 28 22 29 83 30 23 31 82 32 24 33
REMARK SMILES IDX 25 34 26 35 76 36 27 37 81 38 75 39 77 40 28 41 80 42 74 43
REMARK SMILES IDX 73 44 29 46 61 47 41 48 60 49 42 50 45 51 59 52 78 53 43 54
REMARK SMILES IDX 44 55 58 57 79 58 46 59 30 60 31 61 39 62 32 63 38 64 40 65
REMARK SMILES IDX 37 66 33 67 34 68 35 69 36 70 62 71 63 72 71 73 64 74 70 75
REMARK SMILES IDX 72 76 69 77 65 78 66 79 67 80 68 81 47 82 48 83 56 84 49 85
REMARK SMILES IDX 55 86 57 87 54 88 50 89 51 90 52 91 53 92
REMARK H PARENT 77 45 45 56
REMARK Flexibility Score: inf
ROOT
ATOM      1  O   UNL A   1      32.290  27.901  27.185  1.00  0.00    -0.374 OA
ENDROOT
BRANCH   1   2
ATOM      2  C   UNL A   1      32.936  26.980  26.308  1.00  0.00     0.202 C 
BRANCH   2   3
ATOM      3  C   UNL A   1      34.101  27.513  25.474  1.00  0.00     0.261 C 
BRANCH   3   4
ATOM      4  O   UNL A   1      33.923  27.217  24.077  1.00  0.00    -0.462 OA
BRANCH   4   5
ATOM      5  C   UNL A   1      33.174  28.122  23.382  1.00  0.00     0.329 C 
ATOM      6  O   UNL A   1      33.121  29.320  23.635  1.00  0.00    -0.250 OA
BRANCH   5   7
ATOM      7  C   UNL A   1      32.425  27.431  22.222  1.00  0.00     0.199 C 
ATOM      8  N   UNL A   1      31.250  26.745  22.783  1.00  0.00    -0.291 N 
ATOM      9  C   UNL A   1      31.643  25.423  23.196  1.00  0.00     0.092 C 
ATOM     10  C   UNL A   1      33.317  26.297  21.683  1.00  0.00     0.043 C 
ATOM     11  C   UNL A   1      32.546  25.020  22.028  1.00  0.00     0.014 C 
ATOM     12  C   UNL A   1      30.590  24.341  23.396  1.00  0.00     0.025 C 
ATOM     13  C   UNL A   1      33.352  23.788  22.394  1.00  0.00     0.006 C 
ATOM     14  C   UNL A   1      31.299  23.022  23.732  1.00  0.00     0.002 C 
ATOM     15  C   UNL A   1      32.389  22.638  22.721  1.00  0.00     0.000 C 
BRANCH   8  16
ATOM     16  C   UNL A   1      30.096  27.369  23.169  1.00  0.00     0.411 C 
ATOM     17  O   UNL A   1      29.499  27.107  24.212  1.00  0.00    -0.224 OA
BRANCH  16  18
ATOM     18  O   UNL A   1      29.628  28.209  22.211  1.00  0.00    -0.444 OA
BRANCH  18  19
ATOM     19  C   UNL A   1      28.935  29.439  22.577  1.00  0.00     0.106 C 
ATOM     20  C   UNL A   1      28.930  30.298  21.301  1.00  0.00     0.056 C 
ATOM     21  C   UNL A   1      29.730  30.156  23.668  1.00  0.00     0.056 C 
ATOM     22  C   UNL A   1      27.467  29.243  22.997  1.00  0.00     0.056 C 
ENDBRANCH  18  19
ENDBRANCH  16  18
ENDBRANCH   8  16
ENDBRANCH   5   7
ENDBRANCH   4   5
ENDBRANCH   3   4
ENDBRANCH   2   3
ENDBRANCH   1   2
BRANCH   1  23
ATOM     23  C   UNL A   1      31.403  28.865  26.629  1.00  0.00     0.202 C 
BRANCH  23  24
ATOM     24  C   UNL A   1      31.700  30.351  26.871  1.00  0.00     0.261 C 
BRANCH  24  25
ATOM     25  O   UNL A   1      33.021  30.756  26.475  1.00  0.00    -0.460 OA
BRANCH  25  26
ATOM     26  C   UNL A   1      33.542  31.753  27.238  1.00  0.00     0.338 C 
ATOM     27  O   UNL A   1      32.979  32.778  27.585  1.00  0.00    -0.246 OA
BRANCH  26  28
ATOM     28  C   UNL A   1      34.870  31.372  27.758  1.00  0.00     0.060 A 
ATOM     29  C   UNL A   1      35.067  30.029  28.102  1.00  0.00     0.016 A 
ATOM     30  C   UNL A   1      35.864  32.321  28.007  1.00  0.00     0.016 A 
ATOM     31  C   UNL A   1      36.240  29.635  28.742  1.00  0.00     0.010 A 
ATOM     32  C   UNL A   1      37.038  31.926  28.660  1.00  0.00     0.010 A 
ATOM     33  C   UNL A   1      37.216  30.589  29.061  1.00  0.00    -0.014 A 
BRANCH  33  34
ATOM     34  C   UNL A   1      38.341  30.206  29.951  1.00  0.00     0.031 A 
ATOM     35  C   UNL A   1      39.349  29.202  29.459  1.00  0.00     0.074 A 
ATOM     36  C   UNL A   1      38.485  30.772  31.161  1.00  0.00     0.049 A 
ATOM     37  N   UNL A   1      40.398  28.711  30.066  1.00  0.00    -0.248 NA
ATOM     38  C   UNL A   1      39.141  28.684  28.099  1.00  0.00     0.031 C 
ATOM     39  C   UNL A   1      37.598  31.788  31.727  1.00  0.00     0.029 A 
ATOM     40  N   UNL A   1      39.432  30.570  32.134  1.00  0.00    -0.354 N 
ATOM     41  C   UNL A   1      40.979  27.826  29.164  1.00  0.00     0.074 A 
ATOM     42  C   UNL A   1      40.139  27.820  27.984  1.00  0.00     0.031 C 
ATOM     43  C   UNL A   1      38.037  32.113  32.956  1.00  0.00     0.029 A 
ATOM     44  C   UNL A   1      39.215  31.307  33.275  1.00  0.00     0.049 A 
ATOM     45  H   UNL A   1      40.194  29.957  32.027  1.00  0.00     0.167 HD
ATOM     46  C   UNL A   1      42.112  27.092  29.301  1.00  0.00     0.034 A 
ATOM     47  C   UNL A   1      39.877  31.313  34.449  1.00  0.00     0.034 A 
ATOM     48  C   UNL A   1      42.930  27.095  30.490  1.00  0.00     0.049 A 
ATOM     49  C   UNL A   1      41.086  30.425  34.615  1.00  0.00     0.074 A 
ATOM     50  C   UNL A   1      44.104  26.403  30.732  1.00  0.00     0.029 A 
ATOM     51  N   UNL A   1      42.652  27.817  31.645  1.00  0.00    -0.354 N 
ATOM     52  N   UNL A   1      41.630  29.599  33.751  1.00  0.00    -0.248 NA
ATOM     53  C   UNL A   1      41.774  30.477  35.912  1.00  0.00     0.031 C 
ATOM     54  C   UNL A   1      44.497  26.651  32.054  1.00  0.00     0.029 A 
ATOM     55  C   UNL A   1      43.611  27.558  32.613  1.00  0.00     0.049 A 
ATOM     56  H   UNL A   1      41.886  28.425  31.759  1.00  0.00     0.167 HD
ATOM     57  C   UNL A   1      42.741  29.056  34.392  1.00  0.00     0.074 A 
ATOM     58  C   UNL A   1      42.793  29.655  35.709  1.00  0.00     0.031 C 
ATOM     59  C   UNL A   1      43.641  28.150  33.930  1.00  0.00     0.034 A 
BRANCH  46  60
ATOM     60  C   UNL A   1      42.491  26.188  28.154  1.00  0.00     0.023 A 
ATOM     61  C   UNL A   1      41.901  24.924  27.980  1.00  0.00     0.031 A 
ATOM     62  C   UNL A   1      43.490  26.579  27.244  1.00  0.00     0.131 A 
ATOM     63  C   UNL A   1      42.366  24.067  26.970  1.00  0.00     0.055 A 
ATOM     64  C   UNL A   1      43.893  25.753  26.193  1.00  0.00     0.041 A 
ATOM     65  F   UNL A   1      44.105  27.765  27.372  1.00  0.00    -0.206 F 
ATOM     66  C   UNL A   1      43.342  24.482  26.061  1.00  0.00     0.022 A 
BRANCH  63  67
ATOM     67  S   UNL A   1      41.783  22.349  26.954  1.00  0.00     0.124 S 
ATOM     68  O   UNL A   1      42.158  21.921  25.609  1.00  0.00    -0.237 OA
ATOM     69  O   UNL A   1      42.535  21.750  28.050  1.00  0.00    -0.237 OA
ATOM     70  O   UNL A   1      40.344  22.473  27.180  1.00  0.00    -0.744 OA
ENDBRANCH  63  67
ENDBRANCH  46  60
BRANCH  47  71
ATOM     71  C   UNL A   1      39.391  32.153  35.581  1.00  0.00     0.023 A 
ATOM     72  C   UNL A   1      39.827  33.476  35.748  1.00  0.00     0.031 A 
ATOM     73  C   UNL A   1      38.510  31.621  36.540  1.00  0.00     0.131 A 
ATOM     74  C   UNL A   1      39.413  34.211  36.869  1.00  0.00     0.055 A 
ATOM     75  C   UNL A   1      38.064  32.372  37.628  1.00  0.00     0.041 A 
ATOM     76  F   UNL A   1      38.061  30.360  36.425  1.00  0.00    -0.206 F 
ATOM     77  C   UNL A   1      38.525  33.672  37.804  1.00  0.00     0.022 A 
BRANCH  74  78
ATOM     78  S   UNL A   1      40.106  35.867  37.128  1.00  0.00     0.124 S 
ATOM     79  O   UNL A   1      39.413  36.293  38.338  1.00  0.00    -0.237 OA
ATOM     80  O   UNL A   1      41.529  35.581  37.269  1.00  0.00    -0.237 OA
ATOM     81  O   UNL A   1      39.735  36.586  35.910  1.00  0.00    -0.744 OA
ENDBRANCH  74  78
ENDBRANCH  47  71
BRANCH  59  82
ATOM     82  C   UNL A   1      44.783  27.788  34.849  1.00  0.00     0.023 A 
ATOM     83  C   UNL A   1      44.711  26.689  35.724  1.00  0.00     0.031 A 
ATOM     84  C   UNL A   1      45.957  28.562  34.854  1.00  0.00     0.131 A 
ATOM     85  C   UNL A   1      45.772  26.426  36.604  1.00  0.00     0.055 A 
ATOM     86  C   UNL A   1      47.031  28.262  35.692  1.00  0.00     0.041 A 
ATOM     87  F   UNL A   1      46.079  29.623  34.041  1.00  0.00    -0.206 F 
ATOM     88  C   UNL A   1      46.938  27.196  36.582  1.00  0.00     0.022 A 
BRANCH  85  89
ATOM     89  S   UNL A   1      45.576  25.112  37.839  1.00  0.00     0.124 S 
ATOM     90  O   UNL A   1      46.962  24.797  38.170  1.00  0.00    -0.237 OA
ATOM     91  O   UNL A   1      44.807  25.778  38.885  1.00  0.00    -0.237 OA
ATOM     92  O   UNL A   1      44.858  24.065  37.115  1.00  0.00    -0.744 OA
ENDBRANCH  85  89
ENDBRANCH  59  82
ENDBRANCH  33  34
ENDBRANCH  26  28
ENDBRANCH  25  26
ENDBRANCH  24  25
ENDBRANCH  23  24
ENDBRANCH   1  23
TORSDOF 20
ENDMDL
MODEL 3
REMARK VINA RESULT:     -10.7      4.999      7.705
REMARK SMILES CC(C)(C)OC(=O)N1[C@@H](C(=O)OCCOCCOC(=O)c2ccc(-c3c4nc(c(-c5cc(S(=O)(=O)[O-])ccc5F)c5ccc([nH]5)c(-c5cc(S(=O)(=O)[O-])ccc5F)c5nc(c(-c6cc(S(=O)(=O)[O-])ccc6F)c6ccc3[nH]6)C=C5)C=C4)cc2)C[C@H]2CCCC[C@@H]21
REMARK SMILES IDX 15 1 14 2 13 3 12 4 10 5 11 6 9 7 8 8 90 9 84 10 85 11 89 12
REMARK SMILES IDX 86 13 88 14 87 15 6 16 7 17 5 18 2 19 1 20 3 21 4 22 16 23
REMARK SMILES IDX 17 24 18 25 19 26 20 27 21 28 22 29 83 30 23 31 82 32 24 33
REMARK SMILES IDX 25 34 26 35 76 36 27 37 81 38 75 39 77 40 28 41 80 42 74 43
REMARK SMILES IDX 73 44 29 46 61 47 41 48 60 49 42 50 45 51 59 52 78 53 43 54
REMARK SMILES IDX 44 55 58 57 79 58 46 59 30 60 31 61 39 62 32 63 38 64 40 65
REMARK SMILES IDX 37 66 33 67 34 68 35 69 36 70 62 71 63 72 71 73 64 74 70 75
REMARK SMILES IDX 72 76 69 77 65 78 66 79 67 80 68 81 47 82 48 83 56 84 49 85
REMARK SMILES IDX 55 86 57 87 54 88 50 89 51 90 52 91 53 92
REMARK H PARENT 77 45 45 56
REMARK Flexibility Score: inf
ROOT
ATOM      1  O   UNL A   1      30.602  30.195  24.714  1.00  0.00    -0.374 OA
ENDROOT
BRANCH   1   2
ATOM      2  C   UNL A   1      29.882  30.155  23.483  1.00  0.00     0.202 C 
BRANCH   2   3
ATOM      3  C   UNL A   1      28.798  29.086  23.345  1.00  0.00     0.261 C 
BRANCH   3   4
ATOM      4  O   UNL A   1      29.307  27.904  22.700  1.00  0.00    -0.462 OA
BRANCH   4   5
ATOM      5  C   UNL A   1      29.252  26.765  23.449  1.00  0.00     0.329 C 
ATOM      6  O   UNL A   1      28.288  26.422  24.123  1.00  0.00    -0.250 OA
BRANCH   5   7
ATOM      7  C   UNL A   1      30.562  25.959  23.309  1.00  0.00     0.199 C 
ATOM      8  N   UNL A   1      31.103  25.731  24.658  1.00  0.00    -0.291 N 
ATOM      9  C   UNL A   1      31.936  26.851  25.015  1.00  0.00     0.092 C 
ATOM     10  C   UNL A   1      31.605  26.857  22.617  1.00  0.00     0.043 C 
ATOM     11  C   UNL A   1      32.670  27.087  23.692  1.00  0.00     0.014 C 
ATOM     12  C   UNL A   1      32.966  26.712  26.128  1.00  0.00     0.025 C 
ATOM     13  C   UNL A   1      33.367  28.435  23.718  1.00  0.00     0.006 C 
ATOM     14  C   UNL A   1      33.769  28.016  26.219  1.00  0.00     0.002 C 
ATOM     15  C   UNL A   1      34.372  28.457  24.877  1.00  0.00     0.000 C 
BRANCH   8  16
ATOM     16  C   UNL A   1      30.619  24.809  25.545  1.00  0.00     0.411 C 
ATOM     17  O   UNL A   1      30.141  25.104  26.639  1.00  0.00    -0.224 OA
BRANCH  16  18
ATOM     18  O   UNL A   1      30.848  23.537  25.129  1.00  0.00    -0.444 OA
BRANCH  18  19
ATOM     19  C   UNL A   1      32.044  22.821  25.559  1.00  0.00     0.106 C 
ATOM     20  C   UNL A   1      33.163  23.299  24.619  1.00  0.00     0.056 C 
ATOM     21  C   UNL A   1      31.826  21.320  25.366  1.00  0.00     0.056 C 
ATOM     22  C   UNL A   1      32.494  23.137  26.997  1.00  0.00     0.056 C 
ENDBRANCH  18  19
ENDBRANCH  16  18
ENDBRANCH   8  16
ENDBRANCH   5   7
ENDBRANCH   4   5
ENDBRANCH   3   4
ENDBRANCH   2   3
ENDBRANCH   1   2
BRANCH   1  23
ATOM     23  C   UNL A   1      30.710  31.436  25.403  1.00  0.00     0.202 C 
BRANCH  23  24
ATOM     24  C   UNL A   1      31.433  31.454  26.756  1.00  0.00     0.261 C 
BRANCH  24  25
ATOM     25  O   UNL A   1      32.866  31.438  26.655  1.00  0.00    -0.460 OA
BRANCH  25  26
ATOM     26  C   UNL A   1      33.487  32.302  27.502  1.00  0.00     0.338 C 
ATOM     27  O   UNL A   1      33.013  33.316  27.988  1.00  0.00    -0.246 OA
BRANCH  26  28
ATOM     28  C   UNL A   1      34.802  31.774  27.913  1.00  0.00     0.060 A 
ATOM     29  C   UNL A   1      34.891  30.402  28.182  1.00  0.00     0.016 A 
ATOM     30  C   UNL A   1      35.895  32.613  28.138  1.00  0.00     0.016 A 
ATOM     31  C   UNL A   1      36.059  29.870  28.723  1.00  0.00     0.010 A 
ATOM     32  C   UNL A   1      37.065  32.078  28.693  1.00  0.00     0.010 A 
ATOM     33  C   UNL A   1      37.139  30.711  29.019  1.00  0.00    -0.014 A 
BRANCH  33  34
ATOM     34  C   UNL A   1      38.276  30.181  29.813  1.00  0.00     0.031 A 
ATOM     35  C   UNL A   1      38.464  30.660  31.227  1.00  0.00     0.074 A 
ATOM     36  C   UNL A   1      39.105  29.257  29.296  1.00  0.00     0.049 A 
ATOM     37  N   UNL A   1      39.389  30.346  32.096  1.00  0.00    -0.248 NA
ATOM     38  C   UNL A   1      37.472  31.625  31.724  1.00  0.00     0.031 C 
ATOM     39  C   UNL A   1      38.996  28.685  27.955  1.00  0.00     0.029 A 
ATOM     40  N   UNL A   1      40.204  28.640  29.839  1.00  0.00    -0.354 N 
ATOM     41  C   UNL A   1      39.093  31.072  33.245  1.00  0.00     0.074 A 
ATOM     42  C   UNL A   1      37.924  31.872  32.945  1.00  0.00     0.031 C 
ATOM     43  C   UNL A   1      39.998  27.806  27.775  1.00  0.00     0.029 A 
ATOM     44  C   UNL A   1      40.835  27.778  28.973  1.00  0.00     0.049 A 
ATOM     45  H   UNL A   1      40.511  28.798  30.761  1.00  0.00     0.167 HD
ATOM     46  C   UNL A   1      39.731  31.067  34.443  1.00  0.00     0.034 A 
ATOM     47  C   UNL A   1      41.970  27.066  29.124  1.00  0.00     0.034 A 
ATOM     48  C   UNL A   1      40.905  30.276  34.723  1.00  0.00     0.049 A 
ATOM     49  C   UNL A   1      42.715  27.139  30.434  1.00  0.00     0.074 A 
ATOM     50  C   UNL A   1      41.623  30.183  35.903  1.00  0.00     0.029 A 
ATOM     51  N   UNL A   1      41.546  29.452  33.806  1.00  0.00    -0.354 N 
ATOM     52  N   UNL A   1      42.419  27.823  31.516  1.00  0.00    -0.248 NA
ATOM     53  C   UNL A   1      43.940  26.337  30.546  1.00  0.00     0.031 C 
ATOM     54  C   UNL A   1      42.733  29.359  35.679  1.00  0.00     0.029 A 
ATOM     55  C   UNL A   1      42.669  28.876  34.382  1.00  0.00     0.049 A 
ATOM     56  H   UNL A   1      41.246  29.297  32.881  1.00  0.00     0.167 HD
ATOM     57  C   UNL A   1      43.408  27.510  32.445  1.00  0.00     0.074 A 
ATOM     58  C   UNL A   1      44.301  26.570  31.800  1.00  0.00     0.031 C 
ATOM     59  C   UNL A   1      43.560  27.953  33.720  1.00  0.00     0.034 A 
BRANCH  46  60
ATOM     60  C   UNL A   1      39.196  31.986  35.513  1.00  0.00     0.023 A 
ATOM     61  C   UNL A   1      39.643  33.313  35.641  1.00  0.00     0.031 A 
ATOM     62  C   UNL A   1      38.255  31.516  36.446  1.00  0.00     0.131 A 
ATOM     63  C   UNL A   1      39.208  34.098  36.720  1.00  0.00     0.055 A 
ATOM     64  C   UNL A   1      37.766  32.327  37.472  1.00  0.00     0.041 A 
ATOM     65  F   UNL A   1      37.808  30.252  36.389  1.00  0.00    -0.206 F 
ATOM     66  C   UNL A   1      38.255  33.622  37.624  1.00  0.00     0.022 A 
BRANCH  63  67
ATOM     67  S   UNL A   1      40.016  35.696  37.012  1.00  0.00     0.124 S 
ATOM     68  O   UNL A   1      41.418  35.303  37.121  1.00  0.00    -0.237 OA
ATOM     69  O   UNL A   1      39.654  36.455  35.821  1.00  0.00    -0.237 OA
ATOM     70  O   UNL A   1      39.411  36.164  38.258  1.00  0.00    -0.744 OA
ENDBRANCH  63  67
ENDBRANCH  46  60
BRANCH  47  71
ATOM     71  C   UNL A   1      42.503  26.256  27.992  1.00  0.00     0.023 A 
ATOM     72  C   UNL A   1      42.021  24.964  27.728  1.00  0.00     0.031 A 
ATOM     73  C   UNL A   1      43.540  26.752  27.182  1.00  0.00     0.131 A 
ATOM     74  C   UNL A   1      42.601  24.198  26.707  1.00  0.00     0.055 A 
ATOM     75  C   UNL A   1      44.082  26.004  26.136  1.00  0.00     0.041 A 
ATOM     76  F   UNL A   1      44.036  27.983  27.391  1.00  0.00    -0.206 F 
ATOM     77  C   UNL A   1      43.620  24.713  25.901  1.00  0.00     0.022 A 
BRANCH  74  78
ATOM     78  S   UNL A   1      42.050  22.484  26.484  1.00  0.00     0.124 S 
ATOM     79  O   UNL A   1      42.652  21.826  27.637  1.00  0.00    -0.237 OA
ATOM     80  O   UNL A   1      40.598  22.628  26.511  1.00  0.00    -0.237 OA
ATOM     81  O   UNL A   1      42.611  22.112  25.187  1.00  0.00    -0.744 OA
ENDBRANCH  74  78
ENDBRANCH  47  71
BRANCH  59  82
ATOM     82  C   UNL A   1      44.716  27.387  34.509  1.00  0.00     0.023 A 
ATOM     83  C   UNL A   1      44.609  26.179  35.220  1.00  0.00     0.031 A 
ATOM     84  C   UNL A   1      45.942  28.076  34.555  1.00  0.00     0.131 A 
ATOM     85  C   UNL A   1      45.691  25.722  35.989  1.00  0.00     0.055 A 
ATOM     86  C   UNL A   1      47.032  27.588  35.277  1.00  0.00     0.041 A 
ATOM     87  F   UNL A   1      46.100  29.235  33.896  1.00  0.00    -0.206 F 
ATOM     88  C   UNL A   1      46.906  26.411  36.009  1.00  0.00     0.022 A 
BRANCH  85  89
ATOM     89  S   UNL A   1      45.462  24.256  37.033  1.00  0.00     0.124 S 
ATOM     90  O   UNL A   1      44.541  23.455  36.234  1.00  0.00    -0.237 OA
ATOM     91  O   UNL A   1      46.822  23.738  37.147  1.00  0.00    -0.237 OA
ATOM     92  O   UNL A   1      44.901  24.799  38.269  1.00  0.00    -0.744 OA
ENDBRANCH  85  89
ENDBRANCH  59  82
ENDBRANCH  33  34
ENDBRANCH  26  28
ENDBRANCH  25  26
ENDBRANCH  24  25
ENDBRANCH  23  24
ENDBRANCH   1  23
TORSDOF 20
ENDMDL
