MODEL 1
REMARK VINA RESULT:     -12.3      0.000      0.000
REMARK SMILES Cc1ccc(NC(=O)c2ccccc2NC(=O)[C@H]2CCCC[C@H]2C(=O)OCCOCCOC(=O)c2ccc(-c3c4nc(c(-c5cc(S(=O)(=O)[O-])ccc5F)c5ccc([nH]5)c(-c5cc(S(=O)(=O)[O-])ccc5F)c5nc(c(-c6cc(S(=O)(=O)[O-])ccc6F)c6ccc3[nH]6)C=C5)C=C4)cc2)cc1
REMARK SMILES IDX 28 1 27 2 26 3 24 4 25 5 23 6 18 7 19 8 20 9 22 10 21 11
REMARK SMILES IDX 16 12 15 13 17 15 14 16 9 17 10 18 11 19 13 20 12 21 7 22
REMARK SMILES IDX 6 23 8 25 5 26 1 27 2 28 3 29 99 30 4 31 98 32 29 33 30 34
REMARK SMILES IDX 31 35 32 36 33 37 34 38 35 39 36 40 97 41 37 42 96 43 38 44
REMARK SMILES IDX 39 45 40 46 90 47 41 48 95 49 89 50 91 51 42 52 94 53 88 54
REMARK SMILES IDX 87 55 43 57 75 58 55 59 74 60 56 61 59 62 73 63 92 64 57 65
REMARK SMILES IDX 58 66 72 68 93 69 60 70 44 71 45 72 53 73 46 74 52 75 54 76
REMARK SMILES IDX 51 77 47 78 48 79 49 80 50 81 76 82 77 83 85 84 78 85 84 86
REMARK SMILES IDX 86 87 83 88 79 89 80 90 81 91 82 92 61 93 62 94 70 95 63 96
REMARK SMILES IDX 69 97 71 98 68 99 64 100 65 101 66 102 67 103
REMARK H PARENT 15 14 6 24 91 56 59 67
REMARK Flexibility Score: inf
ROOT
ATOM      1  C   UNL A   1      40.345  20.394  26.573  1.00  0.00     0.202 C 
ENDROOT
BRANCH   1   2
ATOM      2  C   UNL A   1      39.790  21.723  26.192  1.00  0.00     0.261 C 
BRANCH   2   3
ATOM      3  O   UNL A   1      38.610  21.661  25.410  1.00  0.00    -0.463 OA
BRANCH   3   4
ATOM      4  C   UNL A   1      37.640  22.568  25.669  1.00  0.00     0.309 C 
ATOM      5  O   UNL A   1      37.766  23.766  25.798  1.00  0.00    -0.252 OA
BRANCH   4   6
ATOM      6  C   UNL A   1      36.314  21.846  25.681  1.00  0.00     0.111 C 
ATOM      7  C   UNL A   1      35.154  22.777  25.208  1.00  0.00     0.093 C 
ATOM      8  C   UNL A   1      33.841  21.983  25.215  1.00  0.00     0.014 C 
ATOM      9  C   UNL A   1      33.955  20.649  24.464  1.00  0.00     0.001 C 
ATOM     10  C   UNL A   1      36.421  20.497  24.980  1.00  0.00     0.016 C 
ATOM     11  C   UNL A   1      35.081  19.770  24.995  1.00  0.00     0.001 C 
BRANCH   7  12
ATOM     12  C   UNL A   1      35.294  23.418  23.810  1.00  0.00     0.228 C 
ATOM     13  N   UNL A   1      34.339  24.201  23.203  1.00  0.00    -0.325 N 
ATOM     14  H   UNL A   1      34.684  24.622  22.383  1.00  0.00     0.169 HD
ATOM     15  O   UNL A   1      36.338  23.201  23.184  1.00  0.00    -0.274 OA
BRANCH  13  16
ATOM     16  C   UNL A   1      32.976  24.566  23.444  1.00  0.00     0.054 A 
ATOM     17  C   UNL A   1      32.621  25.641  24.311  1.00  0.00     0.063 A 
ATOM     18  C   UNL A   1      31.272  25.764  24.737  1.00  0.00     0.016 A 
ATOM     19  C   UNL A   1      30.270  24.923  24.274  1.00  0.00     0.001 A 
ATOM     20  C   UNL A   1      31.916  23.829  22.890  1.00  0.00     0.027 A 
ATOM     21  C   UNL A   1      30.588  23.982  23.315  1.00  0.00     0.002 A 
BRANCH  17  22
ATOM     22  C   UNL A   1      33.492  26.696  24.932  1.00  0.00     0.257 C 
ATOM     23  N   UNL A   1      33.358  28.048  24.739  1.00  0.00    -0.322 N 
ATOM     24  H   UNL A   1      34.112  28.571  25.099  1.00  0.00     0.170 HD
ATOM     25  O   UNL A   1      34.363  26.323  25.728  1.00  0.00    -0.269 OA
BRANCH  23  26
ATOM     26  C   UNL A   1      32.374  28.838  24.137  1.00  0.00     0.041 A 
ATOM     27  C   UNL A   1      28.663  29.757  22.258  1.00  0.00     0.044 C 
ATOM     28  C   UNL A   1      30.024  29.623  22.867  1.00  0.00    -0.051 A 
ATOM     29  C   UNL A   1      30.240  29.950  24.210  1.00  0.00     0.005 A 
ATOM     30  C   UNL A   1      31.075  29.088  22.121  1.00  0.00     0.005 A 
ATOM     31  C   UNL A   1      31.432  29.583  24.840  1.00  0.00     0.026 A 
ATOM     32  C   UNL A   1      32.263  28.730  22.751  1.00  0.00     0.026 A 
ENDBRANCH  23  26
ENDBRANCH  17  22
ENDBRANCH  13  16
ENDBRANCH   7  12
ENDBRANCH   4   6
ENDBRANCH   3   4
ENDBRANCH   2   3
ENDBRANCH   1   2
BRANCH   1  33
ATOM     33  O   UNL A   1      41.332  20.009  25.626  1.00  0.00    -0.374 OA
BRANCH  33  34
ATOM     34  C   UNL A   1      42.193  18.980  26.078  1.00  0.00     0.202 C 
BRANCH  34  35
ATOM     35  C   UNL A   1      43.511  18.854  25.294  1.00  0.00     0.261 C 
BRANCH  35  36
ATOM     36  O   UNL A   1      43.764  20.055  24.530  1.00  0.00    -0.460 OA
BRANCH  36  37
ATOM     37  C   UNL A   1      44.677  20.922  25.060  1.00  0.00     0.338 C 
ATOM     38  O   UNL A   1      45.855  20.657  25.242  1.00  0.00    -0.246 OA
BRANCH  37  39
ATOM     39  C   UNL A   1      44.011  22.198  25.459  1.00  0.00     0.060 A 
ATOM     40  C   UNL A   1      44.067  23.340  24.636  1.00  0.00     0.016 A 
ATOM     41  C   UNL A   1      43.593  22.323  26.778  1.00  0.00     0.016 A 
ATOM     42  C   UNL A   1      43.852  24.618  25.183  1.00  0.00     0.010 A 
ATOM     43  C   UNL A   1      43.535  23.580  27.333  1.00  0.00     0.010 A 
ATOM     44  C   UNL A   1      43.676  24.745  26.554  1.00  0.00    -0.014 A 
BRANCH  44  45
ATOM     45  C   UNL A   1      43.710  25.980  27.358  1.00  0.00     0.031 A 
ATOM     46  C   UNL A   1      42.485  26.816  27.309  1.00  0.00     0.074 A 
ATOM     47  C   UNL A   1      44.642  26.204  28.324  1.00  0.00     0.049 A 
ATOM     48  N   UNL A   1      42.367  27.951  27.893  1.00  0.00    -0.248 NA
ATOM     49  C   UNL A   1      41.283  26.461  26.546  1.00  0.00     0.031 C 
ATOM     50  C   UNL A   1      44.524  27.027  29.535  1.00  0.00     0.029 A 
ATOM     51  N   UNL A   1      45.967  25.755  28.398  1.00  0.00    -0.354 N 
ATOM     52  C   UNL A   1      41.042  28.310  27.863  1.00  0.00     0.074 A 
ATOM     53  C   UNL A   1      40.429  27.413  26.925  1.00  0.00     0.031 C 
ATOM     54  C   UNL A   1      45.751  27.261  30.041  1.00  0.00     0.029 A 
ATOM     55  C   UNL A   1      46.710  26.726  29.089  1.00  0.00     0.049 A 
ATOM     56  H   UNL A   1      46.315  24.910  28.031  1.00  0.00     0.167 HD
ATOM     57  C   UNL A   1      40.626  29.265  28.734  1.00  0.00     0.034 A 
ATOM     58  C   UNL A   1      47.749  27.357  28.481  1.00  0.00     0.034 A 
ATOM     59  C   UNL A   1      41.788  29.906  29.364  1.00  0.00     0.049 A 
ATOM     60  C   UNL A   1      47.428  28.821  28.407  1.00  0.00     0.074 A 
ATOM     61  C   UNL A   1      42.360  29.833  30.620  1.00  0.00     0.029 A 
ATOM     62  N   UNL A   1      42.731  30.517  28.540  1.00  0.00    -0.354 N 
ATOM     63  N   UNL A   1      46.212  29.278  28.536  1.00  0.00    -0.248 NA
ATOM     64  C   UNL A   1      48.414  29.878  28.251  1.00  0.00     0.031 C 
ATOM     65  C   UNL A   1      43.701  30.314  30.508  1.00  0.00     0.029 A 
ATOM     66  C   UNL A   1      43.921  30.733  29.204  1.00  0.00     0.049 A 
ATOM     67  H   UNL A   1      42.568  30.764  27.600  1.00  0.00     0.167 HD
ATOM     68  C   UNL A   1      46.218  30.632  28.482  1.00  0.00     0.074 A 
ATOM     69  C   UNL A   1      47.626  30.966  28.316  1.00  0.00     0.031 C 
ATOM     70  C   UNL A   1      45.054  31.344  28.511  1.00  0.00     0.034 A 
BRANCH  57  71
ATOM     71  C   UNL A   1      39.199  29.551  29.138  1.00  0.00     0.023 A 
ATOM     72  C   UNL A   1      38.702  30.851  28.913  1.00  0.00     0.031 A 
ATOM     73  C   UNL A   1      38.312  28.681  29.814  1.00  0.00     0.131 A 
ATOM     74  C   UNL A   1      37.418  31.236  29.339  1.00  0.00     0.055 A 
ATOM     75  C   UNL A   1      37.014  29.051  30.196  1.00  0.00     0.041 A 
ATOM     76  F   UNL A   1      38.651  27.446  30.193  1.00  0.00    -0.206 F 
ATOM     77  C   UNL A   1      36.561  30.336  29.965  1.00  0.00     0.022 A 
BRANCH  74  78
ATOM     78  S   UNL A   1      36.898  32.953  29.099  1.00  0.00     0.124 S 
ATOM     79  O   UNL A   1      36.308  33.279  30.394  1.00  0.00    -0.237 OA
ATOM     80  O   UNL A   1      38.156  33.616  28.773  1.00  0.00    -0.237 OA
ATOM     81  O   UNL A   1      35.944  32.866  27.993  1.00  0.00    -0.744 OA
ENDBRANCH  74  78
ENDBRANCH  57  71
BRANCH  58  82
ATOM     82  C   UNL A   1      48.391  26.486  27.439  1.00  0.00     0.023 A 
ATOM     83  C   UNL A   1      47.968  26.693  26.102  1.00  0.00     0.031 A 
ATOM     84  C   UNL A   1      49.667  25.938  27.634  1.00  0.00     0.131 A 
ATOM     85  C   UNL A   1      48.885  26.574  25.042  1.00  0.00     0.055 A 
ATOM     86  C   UNL A   1      50.548  25.738  26.559  1.00  0.00     0.041 A 
ATOM     87  F   UNL A   1      50.142  25.740  28.872  1.00  0.00    -0.206 F 
ATOM     88  C   UNL A   1      50.182  26.118  25.266  1.00  0.00     0.022 A 
BRANCH  85  89
ATOM     89  S   UNL A   1      48.512  27.333  23.439  1.00  0.00     0.124 S 
ATOM     90  O   UNL A   1      48.316  26.191  22.552  1.00  0.00    -0.237 OA
ATOM     91  O   UNL A   1      47.314  28.113  23.711  1.00  0.00    -0.237 OA
ATOM     92  O   UNL A   1      49.692  28.144  23.160  1.00  0.00    -0.744 OA
ENDBRANCH  85  89
ENDBRANCH  58  82
BRANCH  70  93
ATOM     93  C   UNL A   1      44.937  32.704  27.879  1.00  0.00     0.023 A 
ATOM     94  C   UNL A   1      44.705  33.849  28.649  1.00  0.00     0.031 A 
ATOM     95  C   UNL A   1      45.155  32.927  26.503  1.00  0.00     0.131 A 
ATOM     96  C   UNL A   1      44.522  35.102  28.062  1.00  0.00     0.055 A 
ATOM     97  C   UNL A   1      45.109  34.202  25.932  1.00  0.00     0.041 A 
ATOM     98  F   UNL A   1      45.442  31.927  25.657  1.00  0.00    -0.206 F 
ATOM     99  C   UNL A   1      44.752  35.297  26.706  1.00  0.00     0.022 A 
BRANCH  96 100
ATOM    100  S   UNL A   1      43.835  36.401  29.111  1.00  0.00     0.124 S 
ATOM    101  O   UNL A   1      44.762  36.392  30.241  1.00  0.00    -0.237 OA
ATOM    102  O   UNL A   1      43.905  37.576  28.248  1.00  0.00    -0.237 OA
ATOM    103  O   UNL A   1      42.487  35.922  29.409  1.00  0.00    -0.744 OA
ENDBRANCH  96 100
ENDBRANCH  70  93
ENDBRANCH  44  45
ENDBRANCH  37  39
ENDBRANCH  36  37
ENDBRANCH  35  36
ENDBRANCH  34  35
ENDBRANCH  33  34
ENDBRANCH   1  33
TORSDOF 21
ENDMDL
MODEL 2
REMARK VINA RESULT:     -12.3      4.389     10.355
REMARK SMILES Cc1ccc(NC(=O)c2ccccc2NC(=O)[C@H]2CCCC[C@H]2C(=O)OCCOCCOC(=O)c2ccc(-c3c4nc(c(-c5cc(S(=O)(=O)[O-])ccc5F)c5ccc([nH]5)c(-c5cc(S(=O)(=O)[O-])ccc5F)c5nc(c(-c6cc(S(=O)(=O)[O-])ccc6F)c6ccc3[nH]6)C=C5)C=C4)cc2)cc1
REMARK SMILES IDX 28 1 27 2 26 3 24 4 25 5 23 6 18 7 19 8 20 9 22 10 21 11
REMARK SMILES IDX 16 12 15 13 17 15 14 16 9 17 10 18 11 19 13 20 12 21 7 22
REMARK SMILES IDX 6 23 8 25 5 26 1 27 2 28 3 29 99 30 4 31 98 32 29 33 30 34
REMARK SMILES IDX 31 35 32 36 33 37 34 38 35 39 36 40 97 41 37 42 96 43 38 44
REMARK SMILES IDX 39 45 40 46 90 47 41 48 95 49 89 50 91 51 42 52 94 53 88 54
REMARK SMILES IDX 87 55 43 57 75 58 55 59 74 60 56 61 59 62 73 63 92 64 57 65
REMARK SMILES IDX 58 66 72 68 93 69 60 70 44 71 45 72 53 73 46 74 52 75 54 76
REMARK SMILES IDX 51 77 47 78 48 79 49 80 50 81 76 82 77 83 85 84 78 85 84 86
REMARK SMILES IDX 86 87 83 88 79 89 80 90 81 91 82 92 61 93 62 94 70 95 63 96
REMARK SMILES IDX 69 97 71 98 68 99 64 100 65 101 66 102 67 103
REMARK H PARENT 15 14 6 24 91 56 59 67
REMARK Flexibility Score: inf
ROOT
ATOM      1  C   UNL A   1      33.973  28.832  25.473  1.00  0.00     0.202 C 
ENDROOT
BRANCH   1   2
ATOM      2  C   UNL A   1      34.072  28.507  24.023  1.00  0.00     0.261 C 
BRANCH   2   3
ATOM      3  O   UNL A   1      32.851  28.093  23.432  1.00  0.00    -0.463 OA
BRANCH   3   4
ATOM      4  C   UNL A   1      32.843  26.909  22.777  1.00  0.00     0.309 C 
ATOM      5  O   UNL A   1      33.665  26.497  21.989  1.00  0.00    -0.252 OA
BRANCH   4   6
ATOM      6  C   UNL A   1      31.658  26.112  23.267  1.00  0.00     0.111 C 
ATOM      7  C   UNL A   1      32.110  24.873  24.100  1.00  0.00     0.093 C 
ATOM      8  C   UNL A   1      30.868  24.119  24.592  1.00  0.00     0.014 C 
ATOM      9  C   UNL A   1      29.857  25.041  25.288  1.00  0.00     0.001 C 
ATOM     10  C   UNL A   1      30.621  27.018  23.919  1.00  0.00     0.016 C 
ATOM     11  C   UNL A   1      29.426  26.210  24.412  1.00  0.00     0.001 C 
BRANCH   7  12
ATOM     12  C   UNL A   1      33.000  25.143  25.334  1.00  0.00     0.228 C 
ATOM     13  N   UNL A   1      34.220  24.552  25.571  1.00  0.00    -0.325 N 
ATOM     14  H   UNL A   1      34.680  24.968  26.335  1.00  0.00     0.169 HD
ATOM     15  O   UNL A   1      32.577  25.940  26.179  1.00  0.00    -0.274 OA
BRANCH  13  16
ATOM     16  C   UNL A   1      34.999  23.495  25.002  1.00  0.00     0.054 A 
ATOM     17  C   UNL A   1      35.148  22.232  25.648  1.00  0.00     0.063 A 
ATOM     18  C   UNL A   1      36.156  21.341  25.190  1.00  0.00     0.016 A 
ATOM     19  C   UNL A   1      36.946  21.622  24.085  1.00  0.00     0.001 A 
ATOM     20  C   UNL A   1      35.716  23.680  23.808  1.00  0.00     0.027 A 
ATOM     21  C   UNL A   1      36.694  22.775  23.368  1.00  0.00     0.002 A 
BRANCH  17  22
ATOM     22  C   UNL A   1      34.415  21.671  26.833  1.00  0.00     0.257 C 
ATOM     23  N   UNL A   1      33.364  20.791  26.771  1.00  0.00    -0.322 N 
ATOM     24  H   UNL A   1      32.914  20.659  27.638  1.00  0.00     0.170 HD
ATOM     25  O   UNL A   1      34.828  21.980  27.958  1.00  0.00    -0.269 OA
BRANCH  23  26
ATOM     26  C   UNL A   1      32.800  20.043  25.733  1.00  0.00     0.041 A 
ATOM     27  C   UNL A   1      32.530  18.186  21.910  1.00  0.00     0.044 C 
ATOM     28  C   UNL A   1      32.427  18.794  23.273  1.00  0.00    -0.051 A 
ATOM     29  C   UNL A   1      32.690  18.031  24.416  1.00  0.00     0.005 A 
ATOM     30  C   UNL A   1      32.150  20.154  23.415  1.00  0.00     0.005 A 
ATOM     31  C   UNL A   1      32.847  18.654  25.657  1.00  0.00     0.026 A 
ATOM     32  C   UNL A   1      32.302  20.770  24.653  1.00  0.00     0.026 A 
ENDBRANCH  23  26
ENDBRANCH  17  22
ENDBRANCH  13  16
ENDBRANCH   7  12
ENDBRANCH   4   6
ENDBRANCH   3   4
ENDBRANCH   2   3
ENDBRANCH   1   2
BRANCH   1  33
ATOM     33  O   UNL A   1      32.669  29.321  25.755  1.00  0.00    -0.374 OA
BRANCH  33  34
ATOM     34  C   UNL A   1      32.654  30.500  26.539  1.00  0.00     0.202 C 
BRANCH  34  35
ATOM     35  C   UNL A   1      34.010  30.878  27.160  1.00  0.00     0.261 C 
BRANCH  35  36
ATOM     36  O   UNL A   1      33.817  31.602  28.397  1.00  0.00    -0.460 OA
BRANCH  36  37
ATOM     37  C   UNL A   1      34.341  32.862  28.442  1.00  0.00     0.338 C 
ATOM     38  O   UNL A   1      33.825  33.843  27.930  1.00  0.00    -0.246 OA
BRANCH  37  39
ATOM     39  C   UNL A   1      35.668  32.849  29.130  1.00  0.00     0.060 A 
ATOM     40  C   UNL A   1      36.789  33.488  28.567  1.00  0.00     0.016 A 
ATOM     41  C   UNL A   1      35.842  31.953  30.177  1.00  0.00     0.016 A 
ATOM     42  C   UNL A   1      38.088  33.110  28.953  1.00  0.00     0.010 A 
ATOM     43  C   UNL A   1      37.110  31.484  30.436  1.00  0.00     0.010 A 
ATOM     44  C   UNL A   1      38.249  32.041  29.823  1.00  0.00    -0.014 A 
BRANCH  44  45
ATOM     45  C   UNL A   1      39.491  31.313  30.140  1.00  0.00     0.031 A 
ATOM     46  C   UNL A   1      39.621  29.964  29.537  1.00  0.00     0.074 A 
ATOM     47  C   UNL A   1      40.586  31.924  30.672  1.00  0.00     0.049 A 
ATOM     48  N   UNL A   1      40.603  29.170  29.759  1.00  0.00    -0.248 NA
ATOM     49  C   UNL A   1      38.615  29.363  28.653  1.00  0.00     0.031 C 
ATOM     50  C   UNL A   1      41.999  31.547  30.534  1.00  0.00     0.029 A 
ATOM     51  N   UNL A   1      40.656  33.032  31.525  1.00  0.00    -0.354 N 
ATOM     52  C   UNL A   1      40.535  28.144  28.849  1.00  0.00     0.074 A 
ATOM     53  C   UNL A   1      39.230  28.247  28.260  1.00  0.00     0.031 C 
ATOM     54  C   UNL A   1      42.728  32.186  31.471  1.00  0.00     0.029 A 
ATOM     55  C   UNL A   1      41.789  32.874  32.340  1.00  0.00     0.049 A 
ATOM     56  H   UNL A   1      40.024  33.787  31.550  1.00  0.00     0.167 HD
ATOM     57  C   UNL A   1      41.655  27.405  28.645  1.00  0.00     0.034 A 
ATOM     58  C   UNL A   1      41.658  32.788  33.690  1.00  0.00     0.034 A 
ATOM     59  C   UNL A   1      42.656  27.722  29.673  1.00  0.00     0.049 A 
ATOM     60  C   UNL A   1      42.157  31.442  34.124  1.00  0.00     0.074 A 
ATOM     61  C   UNL A   1      43.834  28.445  29.674  1.00  0.00     0.029 A 
ATOM     62  N   UNL A   1      42.308  27.539  31.010  1.00  0.00    -0.354 N 
ATOM     63  N   UNL A   1      42.289  30.444  33.293  1.00  0.00    -0.248 NA
ATOM     64  C   UNL A   1      42.601  31.119  35.470  1.00  0.00     0.031 C 
ATOM     65  C   UNL A   1      44.129  28.782  31.031  1.00  0.00     0.029 A 
ATOM     66  C   UNL A   1      43.166  28.214  31.853  1.00  0.00     0.049 A 
ATOM     67  H   UNL A   1      41.546  26.995  31.314  1.00  0.00     0.167 HD
ATOM     68  C   UNL A   1      42.808  29.371  33.938  1.00  0.00     0.074 A 
ATOM     69  C   UNL A   1      43.002  29.845  35.301  1.00  0.00     0.031 C 
ATOM     70  C   UNL A   1      42.963  28.173  33.301  1.00  0.00     0.034 A 
BRANCH  57  71
ATOM     71  C   UNL A   1      41.932  26.499  27.468  1.00  0.00     0.023 A 
ATOM     72  C   UNL A   1      41.419  25.187  27.517  1.00  0.00     0.031 A 
ATOM     73  C   UNL A   1      42.737  26.784  26.342  1.00  0.00     0.131 A 
ATOM     74  C   UNL A   1      41.701  24.245  26.510  1.00  0.00     0.055 A 
ATOM     75  C   UNL A   1      42.980  25.860  25.315  1.00  0.00     0.041 A 
ATOM     76  F   UNL A   1      43.381  27.944  26.182  1.00  0.00    -0.206 F 
ATOM     77  C   UNL A   1      42.466  24.579  25.397  1.00  0.00     0.022 A 
BRANCH  74  78
ATOM     78  S   UNL A   1      41.086  22.554  26.702  1.00  0.00     0.124 S 
ATOM     79  O   UNL A   1      41.813  21.842  25.656  1.00  0.00    -0.237 OA
ATOM     80  O   UNL A   1      41.456  22.242  28.078  1.00  0.00    -0.237 OA
ATOM     81  O   UNL A   1      39.648  22.689  26.468  1.00  0.00    -0.744 OA
ENDBRANCH  74  78
ENDBRANCH  57  71
BRANCH  58  82
ATOM     82  C   UNL A   1      40.451  33.541  34.177  1.00  0.00     0.023 A 
ATOM     83  C   UNL A   1      39.471  32.778  34.861  1.00  0.00     0.031 A 
ATOM     84  C   UNL A   1      40.514  34.913  34.460  1.00  0.00     0.131 A 
ATOM     85  C   UNL A   1      38.767  33.337  35.943  1.00  0.00     0.055 A 
ATOM     86  C   UNL A   1      39.740  35.483  35.484  1.00  0.00     0.041 A 
ATOM     87  F   UNL A   1      41.433  35.689  33.869  1.00  0.00    -0.206 F 
ATOM     88  C   UNL A   1      38.912  34.683  36.272  1.00  0.00     0.022 A 
BRANCH  85  89
ATOM     89  S   UNL A   1      37.932  32.252  37.130  1.00  0.00     0.124 S 
ATOM     90  O   UNL A   1      38.831  32.238  38.279  1.00  0.00    -0.237 OA
ATOM     91  O   UNL A   1      36.659  32.921  37.353  1.00  0.00    -0.237 OA
ATOM     92  O   UNL A   1      37.814  30.986  36.415  1.00  0.00    -0.744 OA
ENDBRANCH  85  89
ENDBRANCH  58  82
BRANCH  70  93
ATOM     93  C   UNL A   1      42.949  26.868  34.047  1.00  0.00     0.023 A 
ATOM     94  C   UNL A   1      44.107  26.096  34.189  1.00  0.00     0.031 A 
ATOM     95  C   UNL A   1      41.811  26.394  34.732  1.00  0.00     0.131 A 
ATOM     96  C   UNL A   1      44.084  24.849  34.816  1.00  0.00     0.055 A 
ATOM     97  C   UNL A   1      41.821  25.211  35.478  1.00  0.00     0.041 A 
ATOM     98  F   UNL A   1      40.649  27.061  34.728  1.00  0.00    -0.206 F 
ATOM     99  C   UNL A   1      42.954  24.408  35.492  1.00  0.00     0.022 A 
BRANCH  96 100
ATOM    100  S   UNL A   1      45.527  23.789  34.577  1.00  0.00     0.124 S 
ATOM    101  O   UNL A   1      46.625  24.733  34.778  1.00  0.00    -0.237 OA
ATOM    102  O   UNL A   1      45.360  22.785  35.622  1.00  0.00    -0.237 OA
ATOM    103  O   UNL A   1      45.370  23.302  33.208  1.00  0.00    -0.744 OA
ENDBRANCH  96 100
ENDBRANCH  70  93
ENDBRANCH  44  45
ENDBRANCH  37  39
ENDBRANCH  36  37
ENDBRANCH  35  36
ENDBRANCH  34  35
ENDBRANCH  33  34
ENDBRANCH   1  33
TORSDOF 21
ENDMDL
MODEL 3
REMARK VINA RESULT:     -11.9      1.451      2.216
REMARK SMILES Cc1ccc(NC(=O)c2ccccc2NC(=O)[C@H]2CCCC[C@H]2C(=O)OCCOCCOC(=O)c2ccc(-c3c4nc(c(-c5cc(S(=O)(=O)[O-])ccc5F)c5ccc([nH]5)c(-c5cc(S(=O)(=O)[O-])ccc5F)c5nc(c(-c6cc(S(=O)(=O)[O-])ccc6F)c6ccc3[nH]6)C=C5)C=C4)cc2)cc1
REMARK SMILES IDX 28 1 27 2 26 3 24 4 25 5 23 6 18 7 19 8 20 9 22 10 21 11
REMARK SMILES IDX 16 12 15 13 17 15 14 16 9 17 10 18 11 19 13 20 12 21 7 22
REMARK SMILES IDX 6 23 8 25 5 26 1 27 2 28 3 29 99 30 4 31 98 32 29 33 30 34
REMARK SMILES IDX 31 35 32 36 33 37 34 38 35 39 36 40 97 41 37 42 96 43 38 44
REMARK SMILES IDX 39 45 40 46 90 47 41 48 95 49 89 50 91 51 42 52 94 53 88 54
REMARK SMILES IDX 87 55 43 57 75 58 55 59 74 60 56 61 59 62 73 63 92 64 57 65
REMARK SMILES IDX 58 66 72 68 93 69 60 70 44 71 45 72 53 73 46 74 52 75 54 76
REMARK SMILES IDX 51 77 47 78 48 79 49 80 50 81 76 82 77 83 85 84 78 85 84 86
REMARK SMILES IDX 86 87 83 88 79 89 80 90 81 91 82 92 61 93 62 94 70 95 63 96
REMARK SMILES IDX 69 97 71 98 68 99 64 100 65 101 66 102 67 103
REMARK H PARENT 15 14 6 24 91 56 59 67
REMARK Flexibility Score: inf
ROOT
ATOM      1  C   UNL A   1      38.687  24.046  26.814  1.00  0.00     0.202 C 
ENDROOT
BRANCH   1   2
ATOM      2  C   UNL A   1      37.711  23.777  25.721  1.00  0.00     0.261 C 
BRANCH   2   3
ATOM      3  O   UNL A   1      36.633  22.937  26.095  1.00  0.00    -0.463 OA
BRANCH   3   4
ATOM      4  C   UNL A   1      36.242  21.990  25.210  1.00  0.00     0.309 C 
ATOM      5  O   UNL A   1      36.901  21.492  24.324  1.00  0.00    -0.252 OA
BRANCH   4   6
ATOM      6  C   UNL A   1      34.838  21.566  25.567  1.00  0.00     0.111 C 
ATOM      7  C   UNL A   1      33.866  22.787  25.603  1.00  0.00     0.093 C 
ATOM      8  C   UNL A   1      32.455  22.294  25.943  1.00  0.00     0.014 C 
ATOM      9  C   UNL A   1      32.006  21.128  25.051  1.00  0.00     0.001 C 
ATOM     10  C   UNL A   1      34.394  20.378  24.723  1.00  0.00     0.016 C 
ATOM     11  C   UNL A   1      32.976  19.953  25.087  1.00  0.00     0.001 C 
BRANCH   7  12
ATOM     12  C   UNL A   1      33.758  23.635  24.316  1.00  0.00     0.228 C 
ATOM     13  N   UNL A   1      33.388  24.960  24.274  1.00  0.00    -0.325 N 
ATOM     14  H   UNL A   1      33.519  25.343  23.377  1.00  0.00     0.169 HD
ATOM     15  O   UNL A   1      34.007  23.076  23.242  1.00  0.00    -0.274 OA
BRANCH  13  16
ATOM     16  C   UNL A   1      32.863  25.929  25.186  1.00  0.00     0.054 A 
ATOM     17  C   UNL A   1      31.465  26.192  25.292  1.00  0.00     0.063 A 
ATOM     18  C   UNL A   1      31.034  27.353  25.988  1.00  0.00     0.016 A 
ATOM     19  C   UNL A   1      31.922  28.198  26.639  1.00  0.00     0.001 A 
ATOM     20  C   UNL A   1      33.714  26.723  25.974  1.00  0.00     0.027 A 
ATOM     21  C   UNL A   1      33.260  27.856  26.667  1.00  0.00     0.002 A 
BRANCH  17  22
ATOM     22  C   UNL A   1      30.303  25.436  24.713  1.00  0.00     0.257 C 
ATOM     23  N   UNL A   1      29.304  25.983  23.949  1.00  0.00    -0.322 N 
ATOM     24  H   UNL A   1      28.550  25.368  23.792  1.00  0.00     0.170 HD
ATOM     25  O   UNL A   1      30.275  24.211  24.887  1.00  0.00    -0.269 OA
BRANCH  23  26
ATOM     26  C   UNL A   1      29.133  27.233  23.346  1.00  0.00     0.041 A 
ATOM     27  C   UNL A   1      28.755  31.468  23.095  1.00  0.00     0.044 C 
ATOM     28  C   UNL A   1      28.829  29.978  22.989  1.00  0.00    -0.051 A 
ATOM     29  C   UNL A   1      30.020  29.348  22.611  1.00  0.00     0.005 A 
ATOM     30  C   UNL A   1      27.731  29.194  23.347  1.00  0.00     0.005 A 
ATOM     31  C   UNL A   1      30.162  27.966  22.762  1.00  0.00     0.026 A 
ATOM     32  C   UNL A   1      27.875  27.818  23.490  1.00  0.00     0.026 A 
ENDBRANCH  23  26
ENDBRANCH  17  22
ENDBRANCH  13  16
ENDBRANCH   7  12
ENDBRANCH   4   6
ENDBRANCH   3   4
ENDBRANCH   2   3
ENDBRANCH   1   2
BRANCH   1  33
ATOM     33  O   UNL A   1      39.859  23.273  26.595  1.00  0.00    -0.374 OA
BRANCH  33  34
ATOM     34  C   UNL A   1      39.710  21.900  26.911  1.00  0.00     0.202 C 
BRANCH  34  35
ATOM     35  C   UNL A   1      40.559  20.946  26.053  1.00  0.00     0.261 C 
BRANCH  35  36
ATOM     36  O   UNL A   1      41.852  20.730  26.663  1.00  0.00    -0.460 OA
BRANCH  36  37
ATOM     37  C   UNL A   1      42.906  21.373  26.079  1.00  0.00     0.338 C 
ATOM     38  O   UNL A   1      43.380  21.075  24.993  1.00  0.00    -0.246 OA
BRANCH  37  39
ATOM     39  C   UNL A   1      43.442  22.427  26.991  1.00  0.00     0.060 A 
ATOM     40  C   UNL A   1      43.016  22.521  28.330  1.00  0.00     0.016 A 
ATOM     41  C   UNL A   1      44.137  23.484  26.416  1.00  0.00     0.016 A 
ATOM     42  C   UNL A   1      43.154  23.731  29.035  1.00  0.00     0.010 A 
ATOM     43  C   UNL A   1      44.130  24.701  27.058  1.00  0.00     0.010 A 
ATOM     44  C   UNL A   1      43.630  24.851  28.366  1.00  0.00    -0.014 A 
BRANCH  44  45
ATOM     45  C   UNL A   1      43.598  26.253  28.818  1.00  0.00     0.031 A 
ATOM     46  C   UNL A   1      42.295  26.948  28.675  1.00  0.00     0.074 A 
ATOM     47  C   UNL A   1      44.571  26.797  29.600  1.00  0.00     0.049 A 
ATOM     48  N   UNL A   1      42.107  28.185  28.956  1.00  0.00    -0.248 NA
ATOM     49  C   UNL A   1      41.083  26.312  28.148  1.00  0.00     0.031 C 
ATOM     50  C   UNL A   1      44.459  27.899  30.564  1.00  0.00     0.029 A 
ATOM     51  N   UNL A   1      45.936  26.488  29.659  1.00  0.00    -0.354 N 
ATOM     52  C   UNL A   1      40.754  28.418  28.962  1.00  0.00     0.074 A 
ATOM     53  C   UNL A   1      40.168  27.261  28.350  1.00  0.00     0.031 C 
ATOM     54  C   UNL A   1      45.690  28.353  30.873  1.00  0.00     0.029 A 
ATOM     55  C   UNL A   1      46.626  27.662  30.002  1.00  0.00     0.049 A 
ATOM     56  H   UNL A   1      46.340  25.606  29.490  1.00  0.00     0.167 HD
ATOM     57  C   UNL A   1      40.309  29.535  29.595  1.00  0.00     0.034 A 
ATOM     58  C   UNL A   1      47.549  28.189  29.155  1.00  0.00     0.034 A 
ATOM     59  C   UNL A   1      41.443  30.408  29.924  1.00  0.00     0.049 A 
ATOM     60  C   UNL A   1      47.078  29.552  28.738  1.00  0.00     0.074 A 
ATOM     61  C   UNL A   1      42.109  30.715  31.095  1.00  0.00     0.029 A 
ATOM     62  N   UNL A   1      42.257  30.850  28.883  1.00  0.00    -0.354 N 
ATOM     63  N   UNL A   1      45.835  29.930  28.863  1.00  0.00    -0.248 NA
ATOM     64  C   UNL A   1      47.940  30.602  28.222  1.00  0.00     0.031 C 
ATOM     65  C   UNL A   1      43.383  31.252  30.735  1.00  0.00     0.029 A 
ATOM     66  C   UNL A   1      43.464  31.327  29.352  1.00  0.00     0.049 A 
ATOM     67  H   UNL A   1      42.003  30.827  27.932  1.00  0.00     0.167 HD
ATOM     68  C   UNL A   1      45.702  31.218  28.461  1.00  0.00     0.074 A 
ATOM     69  C   UNL A   1      47.053  31.605  28.081  1.00  0.00     0.031 C 
ATOM     70  C   UNL A   1      44.477  31.819  28.419  1.00  0.00     0.034 A 
BRANCH  57  71
ATOM     71  C   UNL A   1      38.893  29.805  30.048  1.00  0.00     0.023 A 
ATOM     72  C   UNL A   1      38.322  31.048  29.706  1.00  0.00     0.031 A 
ATOM     73  C   UNL A   1      38.087  28.984  30.868  1.00  0.00     0.131 A 
ATOM     74  C   UNL A   1      37.045  31.426  30.160  1.00  0.00     0.055 A 
ATOM     75  C   UNL A   1      36.795  29.340  31.282  1.00  0.00     0.041 A 
ATOM     76  F   UNL A   1      38.506  27.816  31.365  1.00  0.00    -0.206 F 
ATOM     77  C   UNL A   1      36.268  30.570  30.934  1.00  0.00     0.022 A 
BRANCH  74  78
ATOM     78  S   UNL A   1      36.430  33.080  29.758  1.00  0.00     0.124 S 
ATOM     79  O   UNL A   1      37.523  33.933  30.214  1.00  0.00    -0.237 OA
ATOM     80  O   UNL A   1      36.231  32.995  28.316  1.00  0.00    -0.237 OA
ATOM     81  O   UNL A   1      35.201  33.183  30.544  1.00  0.00    -0.744 OA
ENDBRANCH  74  78
ENDBRANCH  57  71
BRANCH  58  82
ATOM     82  C   UNL A   1      48.199  27.125  28.315  1.00  0.00     0.023 A 
ATOM     83  C   UNL A   1      47.637  26.911  27.031  1.00  0.00     0.031 A 
ATOM     84  C   UNL A   1      49.544  26.775  28.497  1.00  0.00     0.131 A 
ATOM     85  C   UNL A   1      48.464  26.588  25.940  1.00  0.00     0.055 A 
ATOM     86  C   UNL A   1      50.344  26.366  27.417  1.00  0.00     0.041 A 
ATOM     87  F   UNL A   1      50.147  26.974  29.677  1.00  0.00    -0.206 F 
ATOM     88  C   UNL A   1      49.822  26.335  26.123  1.00  0.00     0.022 A 
BRANCH  85  89
ATOM     89  S   UNL A   1      47.861  26.833  24.249  1.00  0.00     0.124 S 
ATOM     90  O   UNL A   1      47.912  25.497  23.666  1.00  0.00    -0.237 OA
ATOM     91  O   UNL A   1      46.522  27.367  24.447  1.00  0.00    -0.237 OA
ATOM     92  O   UNL A   1      48.802  27.796  23.685  1.00  0.00    -0.744 OA
ENDBRANCH  85  89
ENDBRANCH  58  82
BRANCH  70  93
ATOM     93  C   UNL A   1      44.179  32.950  27.473  1.00  0.00     0.023 A 
ATOM     94  C   UNL A   1      43.772  34.204  27.940  1.00  0.00     0.031 A 
ATOM     95  C   UNL A   1      44.387  32.854  26.081  1.00  0.00     0.131 A 
ATOM     96  C   UNL A   1      43.423  35.233  27.065  1.00  0.00     0.055 A 
ATOM     97  C   UNL A   1      44.170  33.929  25.214  1.00  0.00     0.041 A 
ATOM     98  F   UNL A   1      44.829  31.729  25.503  1.00  0.00    -0.206 F 
ATOM     99  C   UNL A   1      43.646  35.119  25.700  1.00  0.00     0.022 A 
BRANCH  96 100
ATOM    100  S   UNL A   1      42.537  36.640  27.773  1.00  0.00     0.124 S 
ATOM    101  O   UNL A   1      41.377  35.987  28.378  1.00  0.00    -0.237 OA
ATOM    102  O   UNL A   1      43.510  37.188  28.712  1.00  0.00    -0.237 OA
ATOM    103  O   UNL A   1      42.244  37.478  26.613  1.00  0.00    -0.744 OA
ENDBRANCH  96 100
ENDBRANCH  70  93
ENDBRANCH  44  45
ENDBRANCH  37  39
ENDBRANCH  36  37
ENDBRANCH  35  36
ENDBRANCH  34  35
ENDBRANCH  33  34
ENDBRANCH   1  33
TORSDOF 21
ENDMDL
