MODEL 1
REMARK VINA RESULT:      -9.1      0.000      0.000
REMARK SMILES C#CC[NH2+]CC(=O)N[C@H](CC)C(=O)OCCOCCOC(=O)c1ccc(-c2c3nc(c(-c4cc(S(=O)(=O)[O-])ccc4F)c4ccc([nH]4)c(-c4cc(S(=O)(=O)[O-])ccc4F)c4nc(c(-c5cc(S(=O)(=O)[O-])ccc5F)c5ccc2[nH]5)C=C4)C=C3)cc1
REMARK SMILES IDX 16 1 15 2 14 3 12 4 13 5 9 6 8 7 6 8 7 9 5 11 4 12 3 15 2 16
REMARK SMILES IDX 1 17 10 18 11 19 17 20 18 21 19 22 20 23 21 24 22 25 23 26
REMARK SMILES IDX 24 27 85 28 25 29 84 30 26 31 27 32 28 33 78 34 29 35 83 36
REMARK SMILES IDX 77 37 79 38 30 39 82 40 76 41 75 42 31 44 63 45 43 46 62 47
REMARK SMILES IDX 44 48 47 49 61 50 80 51 45 52 46 53 60 55 81 56 48 57 32 58
REMARK SMILES IDX 33 59 41 60 34 61 40 62 42 63 39 64 35 65 36 66 37 67 38 68
REMARK SMILES IDX 64 69 65 70 73 71 66 72 72 73 74 74 71 75 67 76 68 77 69 78
REMARK SMILES IDX 70 79 49 80 50 81 58 82 51 83 57 84 59 85 56 86 52 87 53 88
REMARK SMILES IDX 54 89 55 90
REMARK H PARENT 8 10 4 13 4 14 79 43 47 54
REMARK Flexibility Score: inf
ROOT
ATOM      1  C   UNL A   1      39.473  21.711  26.140  1.00  0.00     0.202 C 
ENDROOT
BRANCH   1   2
ATOM      2  C   UNL A   1      38.180  21.397  25.375  1.00  0.00     0.261 C 
BRANCH   2   3
ATOM      3  O   UNL A   1      37.036  22.139  25.851  1.00  0.00    -0.462 OA
BRANCH   3   4
ATOM      4  C   UNL A   1      36.098  22.405  24.912  1.00  0.00     0.328 C 
ATOM      5  O   UNL A   1      36.339  22.531  23.712  1.00  0.00    -0.250 OA
BRANCH   4   6
ATOM      6  C   UNL A   1      34.643  22.403  25.426  1.00  0.00     0.192 C 
BRANCH   6   7
ATOM      7  N   UNL A   1      34.432  23.765  25.947  1.00  0.00    -0.338 N 
ATOM      8  C   UNL A   1      33.337  24.572  25.918  1.00  0.00     0.275 C 
ATOM      9  O   UNL A   1      33.498  25.777  26.129  1.00  0.00    -0.268 OA
ATOM     10  H   UNL A   1      35.219  24.159  26.390  1.00  0.00     0.164 HD
BRANCH   8  11
ATOM     11  C   UNL A   1      31.944  24.003  25.641  1.00  0.00     0.362 C 
BRANCH  11  12
ATOM     12  N   UNL A   1      31.254  24.675  24.516  1.00  0.00    -0.328 N 
ATOM     13  H   UNL A   1      30.466  25.210  24.879  1.00  0.00     0.347 HD
ATOM     14  H   UNL A   1      31.920  25.290  24.049  1.00  0.00     0.347 HD
BRANCH  12  15
ATOM     15  C   UNL A   1      30.765  23.706  23.549  1.00  0.00     0.352 C 
BRANCH  15  16
ATOM     16  C   UNL A   1      31.777  22.781  23.041  1.00  0.00    -0.047 C 
ATOM     17  C   UNL A   1      32.449  21.903  22.581  1.00  0.00     0.010 C 
ENDBRANCH  15  16
ENDBRANCH  12  15
ENDBRANCH  11  12
ENDBRANCH   8  11
ENDBRANCH   6   7
BRANCH   6  18
ATOM     18  C   UNL A   1      34.155  21.333  26.407  1.00  0.00     0.033 C 
ATOM     19  C   UNL A   1      33.269  20.265  25.745  1.00  0.00     0.007 C 
ENDBRANCH   6  18
ENDBRANCH   4   6
ENDBRANCH   3   4
ENDBRANCH   2   3
ENDBRANCH   1   2
BRANCH   1  20
ATOM     20  O   UNL A   1      40.628  20.943  25.827  1.00  0.00    -0.374 OA
BRANCH  20  21
ATOM     21  C   UNL A   1      41.831  21.210  26.543  1.00  0.00     0.202 C 
BRANCH  21  22
ATOM     22  C   UNL A   1      43.023  21.827  25.791  1.00  0.00     0.261 C 
BRANCH  22  23
ATOM     23  O   UNL A   1      42.666  22.908  24.904  1.00  0.00    -0.460 OA
BRANCH  23  24
ATOM     24  C   UNL A   1      43.401  24.039  25.075  1.00  0.00     0.338 C 
ATOM     25  O   UNL A   1      44.449  24.311  24.511  1.00  0.00    -0.246 OA
BRANCH  24  26
ATOM     26  C   UNL A   1      42.696  25.040  25.901  1.00  0.00     0.060 A 
ATOM     27  C   UNL A   1      43.395  26.211  26.220  1.00  0.00     0.016 A 
ATOM     28  C   UNL A   1      41.482  24.756  26.528  1.00  0.00     0.016 A 
ATOM     29  C   UNL A   1      42.911  27.071  27.201  1.00  0.00     0.010 A 
ATOM     30  C   UNL A   1      40.995  25.628  27.517  1.00  0.00     0.010 A 
ATOM     31  C   UNL A   1      41.727  26.771  27.890  1.00  0.00    -0.014 A 
BRANCH  31  32
ATOM     32  C   UNL A   1      41.351  27.626  29.052  1.00  0.00     0.031 A 
ATOM     33  C   UNL A   1      40.100  28.467  29.006  1.00  0.00     0.074 A 
ATOM     34  C   UNL A   1      42.068  27.560  30.190  1.00  0.00     0.049 A 
ATOM     35  N   UNL A   1      39.561  29.206  29.945  1.00  0.00    -0.248 NA
ATOM     36  C   UNL A   1      39.358  28.479  27.738  1.00  0.00     0.031 C 
ATOM     37  C   UNL A   1      43.273  26.751  30.373  1.00  0.00     0.029 A 
ATOM     38  N   UNL A   1      41.878  28.156  31.412  1.00  0.00    -0.354 N 
ATOM     39  C   UNL A   1      38.420  29.770  29.385  1.00  0.00     0.074 A 
ATOM     40  C   UNL A   1      38.372  29.323  28.008  1.00  0.00     0.031 C 
ATOM     41  C   UNL A   1      43.698  26.880  31.640  1.00  0.00     0.029 A 
ATOM     42  C   UNL A   1      42.830  27.818  32.346  1.00  0.00     0.049 A 
ATOM     43  H   UNL A   1      41.131  28.769  31.602  1.00  0.00     0.167 HD
ATOM     44  C   UNL A   1      37.493  30.575  29.966  1.00  0.00     0.034 A 
ATOM     45  C   UNL A   1      42.998  28.228  33.619  1.00  0.00     0.034 A 
ATOM     46  C   UNL A   1      37.560  31.023  31.340  1.00  0.00     0.049 A 
ATOM     47  C   UNL A   1      41.998  29.187  34.216  1.00  0.00     0.074 A 
ATOM     48  C   UNL A   1      36.665  31.827  32.028  1.00  0.00     0.029 A 
ATOM     49  N   UNL A   1      38.581  30.723  32.232  1.00  0.00    -0.354 N 
ATOM     50  N   UNL A   1      40.916  29.700  33.674  1.00  0.00    -0.248 NA
ATOM     51  C   UNL A   1      42.234  29.606  35.601  1.00  0.00     0.031 C 
ATOM     52  C   UNL A   1      37.192  32.089  33.296  1.00  0.00     0.029 A 
ATOM     53  C   UNL A   1      38.360  31.361  33.446  1.00  0.00     0.049 A 
ATOM     54  H   UNL A   1      39.349  30.141  32.034  1.00  0.00     0.167 HD
ATOM     55  C   UNL A   1      40.327  30.478  34.669  1.00  0.00     0.074 A 
ATOM     56  C   UNL A   1      41.159  30.334  35.847  1.00  0.00     0.031 C 
ATOM     57  C   UNL A   1      39.203  31.240  34.614  1.00  0.00     0.034 A 
BRANCH  44  58
ATOM     58  C   UNL A   1      36.354  31.073  29.101  1.00  0.00     0.023 A 
ATOM     59  C   UNL A   1      35.369  30.207  28.593  1.00  0.00     0.031 A 
ATOM     60  C   UNL A   1      36.255  32.438  28.775  1.00  0.00     0.131 A 
ATOM     61  C   UNL A   1      34.377  30.702  27.732  1.00  0.00     0.055 A 
ATOM     62  C   UNL A   1      35.213  32.939  27.992  1.00  0.00     0.041 A 
ATOM     63  F   UNL A   1      37.178  33.313  29.208  1.00  0.00    -0.206 F 
ATOM     64  C   UNL A   1      34.273  32.067  27.453  1.00  0.00     0.022 A 
BRANCH  61  65
ATOM     65  S   UNL A   1      33.317  29.518  26.856  1.00  0.00     0.124 S 
ATOM     66  O   UNL A   1      32.961  28.593  27.929  1.00  0.00    -0.237 OA
ATOM     67  O   UNL A   1      32.240  30.366  26.358  1.00  0.00    -0.237 OA
ATOM     68  O   UNL A   1      34.199  28.962  25.832  1.00  0.00    -0.744 OA
ENDBRANCH  61  65
ENDBRANCH  44  58
BRANCH  45  69
ATOM     69  C   UNL A   1      44.176  27.768  34.412  1.00  0.00     0.023 A 
ATOM     70  C   UNL A   1      45.416  28.423  34.332  1.00  0.00     0.031 A 
ATOM     71  C   UNL A   1      44.093  26.617  35.219  1.00  0.00     0.131 A 
ATOM     72  C   UNL A   1      46.531  27.893  35.000  1.00  0.00     0.055 A 
ATOM     73  C   UNL A   1      45.187  26.136  35.937  1.00  0.00     0.041 A 
ATOM     74  F   UNL A   1      42.936  25.946  35.326  1.00  0.00    -0.206 F 
ATOM     75  C   UNL A   1      46.420  26.766  35.817  1.00  0.00     0.022 A 
BRANCH  72  76
ATOM     76  S   UNL A   1      48.159  28.634  34.695  1.00  0.00     0.124 S 
ATOM     77  O   UNL A   1      47.835  29.667  33.717  1.00  0.00    -0.237 OA
ATOM     78  O   UNL A   1      48.532  29.102  36.025  1.00  0.00    -0.237 OA
ATOM     79  O   UNL A   1      48.950  27.515  34.183  1.00  0.00    -0.744 OA
ENDBRANCH  72  76
ENDBRANCH  45  69
BRANCH  57  80
ATOM     80  C   UNL A   1      38.789  31.941  35.891  1.00  0.00     0.023 A 
ATOM     81  C   UNL A   1      38.175  31.250  36.951  1.00  0.00     0.031 A 
ATOM     82  C   UNL A   1      38.945  33.333  36.023  1.00  0.00     0.131 A 
ATOM     83  C   UNL A   1      37.640  31.961  38.036  1.00  0.00     0.055 A 
ATOM     84  C   UNL A   1      38.499  34.022  37.152  1.00  0.00     0.041 A 
ATOM     85  F   UNL A   1      39.521  34.054  35.046  1.00  0.00    -0.206 F 
ATOM     86  C   UNL A   1      37.818  33.340  38.154  1.00  0.00     0.022 A 
BRANCH  83  87
ATOM     87  S   UNL A   1      36.552  31.082  39.192  1.00  0.00     0.124 S 
ATOM     88  O   UNL A   1      37.390  30.994  40.384  1.00  0.00    -0.237 OA
ATOM     89  O   UNL A   1      35.405  31.979  39.284  1.00  0.00    -0.237 OA
ATOM     90  O   UNL A   1      36.293  29.810  38.520  1.00  0.00    -0.744 OA
ENDBRANCH  83  87
ENDBRANCH  57  80
ENDBRANCH  31  32
ENDBRANCH  24  26
ENDBRANCH  23  24
ENDBRANCH  22  23
ENDBRANCH  21  22
ENDBRANCH  20  21
ENDBRANCH   1  20
TORSDOF 23
ENDMDL
MODEL 2
REMARK VINA RESULT:      -8.8      3.460      9.526
REMARK SMILES C#CC[NH2+]CC(=O)N[C@H](CC)C(=O)OCCOCCOC(=O)c1ccc(-c2c3nc(c(-c4cc(S(=O)(=O)[O-])ccc4F)c4ccc([nH]4)c(-c4cc(S(=O)(=O)[O-])ccc4F)c4nc(c(-c5cc(S(=O)(=O)[O-])ccc5F)c5ccc2[nH]5)C=C4)C=C3)cc1
REMARK SMILES IDX 16 1 15 2 14 3 12 4 13 5 9 6 8 7 6 8 7 9 5 11 4 12 3 15 2 16
REMARK SMILES IDX 1 17 10 18 11 19 17 20 18 21 19 22 20 23 21 24 22 25 23 26
REMARK SMILES IDX 24 27 85 28 25 29 84 30 26 31 27 32 28 33 78 34 29 35 83 36
REMARK SMILES IDX 77 37 79 38 30 39 82 40 76 41 75 42 31 44 63 45 43 46 62 47
REMARK SMILES IDX 44 48 47 49 61 50 80 51 45 52 46 53 60 55 81 56 48 57 32 58
REMARK SMILES IDX 33 59 41 60 34 61 40 62 42 63 39 64 35 65 36 66 37 67 38 68
REMARK SMILES IDX 64 69 65 70 73 71 66 72 72 73 74 74 71 75 67 76 68 77 69 78
REMARK SMILES IDX 70 79 49 80 50 81 58 82 51 83 57 84 59 85 56 86 52 87 53 88
REMARK SMILES IDX 54 89 55 90
REMARK H PARENT 8 10 4 13 4 14 79 43 47 54
REMARK Flexibility Score: inf
ROOT
ATOM      1  C   UNL A   1      31.277  27.716  24.808  1.00  0.00     0.202 C 
ENDROOT
BRANCH   1   2
ATOM      2  C   UNL A   1      31.134  26.780  26.017  1.00  0.00     0.261 C 
BRANCH   2   3
ATOM      3  O   UNL A   1      32.272  25.915  26.210  1.00  0.00    -0.462 OA
BRANCH   3   4
ATOM      4  C   UNL A   1      31.971  24.606  26.383  1.00  0.00     0.328 C 
ATOM      5  O   UNL A   1      31.209  24.182  27.251  1.00  0.00    -0.250 OA
BRANCH   4   6
ATOM      6  C   UNL A   1      32.543  23.658  25.308  1.00  0.00     0.192 C 
BRANCH   6   7
ATOM      7  N   UNL A   1      34.000  23.681  25.532  1.00  0.00    -0.338 N 
ATOM      8  C   UNL A   1      34.910  22.671  25.580  1.00  0.00     0.275 C 
ATOM      9  O   UNL A   1      36.007  22.903  26.096  1.00  0.00    -0.268 OA
ATOM     10  H   UNL A   1      34.377  24.579  25.671  1.00  0.00     0.164 HD
BRANCH   8  11
ATOM     11  C   UNL A   1      34.591  21.291  25.004  1.00  0.00     0.362 C 
BRANCH  11  12
ATOM     12  N   UNL A   1      34.044  20.352  26.011  1.00  0.00    -0.328 N 
ATOM     13  H   UNL A   1      34.756  19.659  26.243  1.00  0.00     0.347 HD
ATOM     14  H   UNL A   1      33.779  20.884  26.839  1.00  0.00     0.347 HD
BRANCH  12  15
ATOM     15  C   UNL A   1      32.865  19.669  25.504  1.00  0.00     0.352 C 
BRANCH  15  16
ATOM     16  C   UNL A   1      32.637  19.822  24.068  1.00  0.00    -0.047 C 
ATOM     17  C   UNL A   1      32.293  20.063  22.946  1.00  0.00     0.010 C 
ENDBRANCH  15  16
ENDBRANCH  12  15
ENDBRANCH  11  12
ENDBRANCH   8  11
ENDBRANCH   6   7
BRANCH   6  18
ATOM     18  C   UNL A   1      32.189  23.838  23.829  1.00  0.00     0.033 C 
ATOM     19  C   UNL A   1      30.676  23.799  23.561  1.00  0.00     0.007 C 
ENDBRANCH   6  18
ENDBRANCH   4   6
ENDBRANCH   3   4
ENDBRANCH   2   3
ENDBRANCH   1   2
BRANCH   1  20
ATOM     20  O   UNL A   1      32.204  28.790  24.911  1.00  0.00    -0.374 OA
BRANCH  20  21
ATOM     21  C   UNL A   1      31.932  29.831  25.843  1.00  0.00     0.202 C 
BRANCH  21  22
ATOM     22  C   UNL A   1      32.723  29.876  27.162  1.00  0.00     0.261 C 
BRANCH  22  23
ATOM     23  O   UNL A   1      34.147  30.045  26.990  1.00  0.00    -0.460 OA
BRANCH  23  24
ATOM     24  C   UNL A   1      34.664  31.126  27.631  1.00  0.00     0.338 C 
ATOM     25  O   UNL A   1      34.175  32.244  27.673  1.00  0.00    -0.246 OA
BRANCH  24  26
ATOM     26  C   UNL A   1      35.829  30.771  28.467  1.00  0.00     0.060 A 
ATOM     27  C   UNL A   1      37.034  31.430  28.196  1.00  0.00     0.016 A 
ATOM     28  C   UNL A   1      35.808  29.677  29.334  1.00  0.00     0.016 A 
ATOM     29  C   UNL A   1      38.226  30.968  28.747  1.00  0.00     0.010 A 
ATOM     30  C   UNL A   1      37.014  29.215  29.891  1.00  0.00     0.010 A 
ATOM     31  C   UNL A   1      38.237  29.832  29.568  1.00  0.00    -0.014 A 
BRANCH  31  32
ATOM     32  C   UNL A   1      39.556  29.273  29.983  1.00  0.00     0.031 A 
ATOM     33  C   UNL A   1      40.230  29.763  31.240  1.00  0.00     0.074 A 
ATOM     34  C   UNL A   1      40.093  28.247  29.294  1.00  0.00     0.049 A 
ATOM     35  N   UNL A   1      41.332  29.339  31.809  1.00  0.00    -0.248 NA
ATOM     36  C   UNL A   1      39.580  30.873  31.948  1.00  0.00     0.031 C 
ATOM     37  C   UNL A   1      39.514  27.656  28.087  1.00  0.00     0.029 A 
ATOM     38  N   UNL A   1      41.223  27.502  29.521  1.00  0.00    -0.354 N 
ATOM     39  C   UNL A   1      41.509  30.129  32.941  1.00  0.00     0.074 A 
ATOM     40  C   UNL A   1      40.423  31.088  32.948  1.00  0.00     0.031 C 
ATOM     41  C   UNL A   1      40.278  26.624  27.697  1.00  0.00     0.029 A 
ATOM     42  C   UNL A   1      41.427  26.509  28.591  1.00  0.00     0.049 A 
ATOM     43  H   UNL A   1      41.831  27.663  30.279  1.00  0.00     0.167 HD
ATOM     44  C   UNL A   1      42.478  30.056  33.889  1.00  0.00     0.034 A 
ATOM     45  C   UNL A   1      42.430  25.619  28.460  1.00  0.00     0.034 A 
ATOM     46  C   UNL A   1      43.564  29.100  33.863  1.00  0.00     0.049 A 
ATOM     47  C   UNL A   1      43.538  25.611  29.485  1.00  0.00     0.074 A 
ATOM     48  C   UNL A   1      44.586  28.932  34.782  1.00  0.00     0.029 A 
ATOM     49  N   UNL A   1      43.780  28.160  32.862  1.00  0.00    -0.354 N 
ATOM     50  N   UNL A   1      43.681  26.357  30.556  1.00  0.00    -0.248 NA
ATOM     51  C   UNL A   1      44.608  24.627  29.288  1.00  0.00     0.031 C 
ATOM     52  C   UNL A   1      45.468  27.964  34.290  1.00  0.00     0.029 A 
ATOM     53  C   UNL A   1      44.942  27.444  33.120  1.00  0.00     0.049 A 
ATOM     54  H   UNL A   1      43.194  28.021  32.084  1.00  0.00     0.167 HD
ATOM     55  C   UNL A   1      44.845  25.907  31.178  1.00  0.00     0.074 A 
ATOM     56  C   UNL A   1      45.338  24.805  30.376  1.00  0.00     0.031 C 
ATOM     57  C   UNL A   1      45.449  26.362  32.307  1.00  0.00     0.034 A 
BRANCH  44  58
ATOM     58  C   UNL A   1      42.443  31.073  35.010  1.00  0.00     0.023 A 
ATOM     59  C   UNL A   1      42.873  32.399  34.828  1.00  0.00     0.031 A 
ATOM     60  C   UNL A   1      41.976  30.706  36.286  1.00  0.00     0.131 A 
ATOM     61  C   UNL A   1      42.895  33.285  35.918  1.00  0.00     0.055 A 
ATOM     62  C   UNL A   1      41.915  31.617  37.343  1.00  0.00     0.041 A 
ATOM     63  F   UNL A   1      41.574  29.448  36.531  1.00  0.00    -0.206 F 
ATOM     64  C   UNL A   1      42.390  32.913  37.166  1.00  0.00     0.022 A 
BRANCH  61  65
ATOM     65  S   UNL A   1      43.737  34.880  35.723  1.00  0.00     0.124 S 
ATOM     66  O   UNL A   1      43.158  35.654  36.818  1.00  0.00    -0.237 OA
ATOM     67  O   UNL A   1      45.142  34.515  35.870  1.00  0.00    -0.237 OA
ATOM     68  O   UNL A   1      43.341  35.315  34.385  1.00  0.00    -0.744 OA
ENDBRANCH  61  65
ENDBRANCH  44  58
BRANCH  45  69
ATOM     69  C   UNL A   1      42.462  24.681  27.299  1.00  0.00     0.023 A 
ATOM     70  C   UNL A   1      41.849  23.419  27.357  1.00  0.00     0.031 A 
ATOM     71  C   UNL A   1      43.168  25.014  26.127  1.00  0.00     0.131 A 
ATOM     72  C   UNL A   1      42.000  22.519  26.291  1.00  0.00     0.055 A 
ATOM     73  C   UNL A   1      43.254  24.143  25.042  1.00  0.00     0.041 A 
ATOM     74  F   UNL A   1      43.781  26.204  26.019  1.00  0.00    -0.206 F 
ATOM     75  C   UNL A   1      42.681  22.879  25.127  1.00  0.00     0.022 A 
BRANCH  72  76
ATOM     76  S   UNL A   1      41.387  20.823  26.494  1.00  0.00     0.124 S 
ATOM     77  O   UNL A   1      41.804  20.519  27.858  1.00  0.00    -0.237 OA
ATOM     78  O   UNL A   1      39.953  20.993  26.282  1.00  0.00    -0.237 OA
ATOM     79  O   UNL A   1      42.087  20.082  25.446  1.00  0.00    -0.744 OA
ENDBRANCH  72  76
ENDBRANCH  45  69
BRANCH  57  80
ATOM     80  C   UNL A   1      46.693  25.627  32.760  1.00  0.00     0.023 A 
ATOM     81  C   UNL A   1      46.629  24.537  33.648  1.00  0.00     0.031 A 
ATOM     82  C   UNL A   1      47.968  26.066  32.358  1.00  0.00     0.131 A 
ATOM     83  C   UNL A   1      47.807  24.001  34.188  1.00  0.00     0.055 A 
ATOM     84  C   UNL A   1      49.138  25.463  32.823  1.00  0.00     0.041 A 
ATOM     85  F   UNL A   1      48.101  27.104  31.515  1.00  0.00    -0.206 F 
ATOM     86  C   UNL A   1      49.062  24.442  33.764  1.00  0.00     0.022 A 
BRANCH  83  87
ATOM     87  S   UNL A   1      47.672  22.851  35.585  1.00  0.00     0.124 S 
ATOM     88  O   UNL A   1      48.113  21.596  34.984  1.00  0.00    -0.237 OA
ATOM     89  O   UNL A   1      48.578  23.443  36.564  1.00  0.00    -0.237 OA
ATOM     90  O   UNL A   1      46.255  22.907  35.939  1.00  0.00    -0.744 OA
ENDBRANCH  83  87
ENDBRANCH  57  80
ENDBRANCH  31  32
ENDBRANCH  24  26
ENDBRANCH  23  24
ENDBRANCH  22  23
ENDBRANCH  21  22
ENDBRANCH  20  21
ENDBRANCH   1  20
TORSDOF 23
ENDMDL
MODEL 3
REMARK VINA RESULT:      -8.7      2.847      8.328
REMARK SMILES C#CC[NH2+]CC(=O)N[C@H](CC)C(=O)OCCOCCOC(=O)c1ccc(-c2c3nc(c(-c4cc(S(=O)(=O)[O-])ccc4F)c4ccc([nH]4)c(-c4cc(S(=O)(=O)[O-])ccc4F)c4nc(c(-c5cc(S(=O)(=O)[O-])ccc5F)c5ccc2[nH]5)C=C4)C=C3)cc1
REMARK SMILES IDX 16 1 15 2 14 3 12 4 13 5 9 6 8 7 6 8 7 9 5 11 4 12 3 15 2 16
REMARK SMILES IDX 1 17 10 18 11 19 17 20 18 21 19 22 20 23 21 24 22 25 23 26
REMARK SMILES IDX 24 27 85 28 25 29 84 30 26 31 27 32 28 33 78 34 29 35 83 36
REMARK SMILES IDX 77 37 79 38 30 39 82 40 76 41 75 42 31 44 63 45 43 46 62 47
REMARK SMILES IDX 44 48 47 49 61 50 80 51 45 52 46 53 60 55 81 56 48 57 32 58
REMARK SMILES IDX 33 59 41 60 34 61 40 62 42 63 39 64 35 65 36 66 37 67 38 68
REMARK SMILES IDX 64 69 65 70 73 71 66 72 72 73 74 74 71 75 67 76 68 77 69 78
REMARK SMILES IDX 70 79 49 80 50 81 58 82 51 83 57 84 59 85 56 86 52 87 53 88
REMARK SMILES IDX 54 89 55 90
REMARK H PARENT 8 10 4 13 4 14 79 43 47 54
REMARK Flexibility Score: inf
ROOT
ATOM      1  C   UNL A   1      31.419  27.823  25.537  1.00  0.00     0.202 C 
ENDROOT
BRANCH   1   2
ATOM      2  C   UNL A   1      32.682  26.998  25.255  1.00  0.00     0.261 C 
BRANCH   2   3
ATOM      3  O   UNL A   1      32.438  25.836  24.435  1.00  0.00    -0.462 OA
BRANCH   3   4
ATOM      4  C   UNL A   1      31.490  24.992  24.909  1.00  0.00     0.328 C 
ATOM      5  O   UNL A   1      30.280  25.202  24.834  1.00  0.00    -0.250 OA
BRANCH   4   6
ATOM      6  C   UNL A   1      32.024  23.645  25.440  1.00  0.00     0.192 C 
BRANCH   6   7
ATOM      7  N   UNL A   1      31.749  22.685  24.356  1.00  0.00    -0.338 N 
ATOM      8  C   UNL A   1      32.432  21.581  23.950  1.00  0.00     0.275 C 
ATOM      9  O   UNL A   1      32.186  21.127  22.829  1.00  0.00    -0.268 OA
ATOM     10  H   UNL A   1      30.934  22.877  23.838  1.00  0.00     0.164 HD
BRANCH   8  11
ATOM     11  C   UNL A   1      33.467  20.913  24.856  1.00  0.00     0.362 C 
BRANCH  11  12
ATOM     12  N   UNL A   1      32.881  19.894  25.757  1.00  0.00    -0.328 N 
ATOM     13  H   UNL A   1      33.551  19.674  26.494  1.00  0.00     0.347 HD
ATOM     14  H   UNL A   1      32.021  20.270  26.155  1.00  0.00     0.347 HD
BRANCH  12  15
ATOM     15  C   UNL A   1      32.559  18.677  25.030  1.00  0.00     0.352 C 
BRANCH  15  16
ATOM     16  C   UNL A   1      33.712  17.971  24.474  1.00  0.00    -0.047 C 
ATOM     17  C   UNL A   1      34.764  17.489  24.161  1.00  0.00     0.010 C 
ENDBRANCH  15  16
ENDBRANCH  12  15
ENDBRANCH  11  12
ENDBRANCH   8  11
ENDBRANCH   6   7
BRANCH   6  18
ATOM     18  C   UNL A   1      31.587  23.107  26.806  1.00  0.00     0.033 C 
ATOM     19  C   UNL A   1      30.123  22.639  26.831  1.00  0.00     0.007 C 
ENDBRANCH   6  18
ENDBRANCH   4   6
ENDBRANCH   3   4
ENDBRANCH   2   3
ENDBRANCH   1   2
BRANCH   1  20
ATOM     20  O   UNL A   1      31.565  29.019  26.293  1.00  0.00    -0.374 OA
BRANCH  20  21
ATOM     21  C   UNL A   1      31.992  30.198  25.616  1.00  0.00     0.202 C 
BRANCH  21  22
ATOM     22  C   UNL A   1      31.576  31.569  26.175  1.00  0.00     0.261 C 
BRANCH  22  23
ATOM     23  O   UNL A   1      32.120  31.865  27.479  1.00  0.00    -0.460 OA
BRANCH  23  24
ATOM     24  C   UNL A   1      33.118  32.788  27.473  1.00  0.00     0.338 C 
ATOM     25  O   UNL A   1      32.986  33.993  27.329  1.00  0.00    -0.246 OA
BRANCH  24  26
ATOM     26  C   UNL A   1      34.418  32.203  27.858  1.00  0.00     0.060 A 
ATOM     27  C   UNL A   1      34.417  30.870  28.285  1.00  0.00     0.016 A 
ATOM     28  C   UNL A   1      35.563  32.987  28.010  1.00  0.00     0.016 A 
ATOM     29  C   UNL A   1      35.538  30.333  28.912  1.00  0.00     0.010 A 
ATOM     30  C   UNL A   1      36.694  32.440  28.642  1.00  0.00     0.010 A 
ATOM     31  C   UNL A   1      36.675  31.122  29.134  1.00  0.00    -0.014 A 
BRANCH  31  32
ATOM     32  C   UNL A   1      37.774  30.557  29.969  1.00  0.00     0.031 A 
ATOM     33  C   UNL A   1      38.762  29.587  29.371  1.00  0.00     0.074 A 
ATOM     34  C   UNL A   1      37.954  31.002  31.227  1.00  0.00     0.049 A 
ATOM     35  N   UNL A   1      39.833  29.056  29.910  1.00  0.00    -0.248 NA
ATOM     36  C   UNL A   1      38.514  29.158  27.989  1.00  0.00     0.031 C 
ATOM     37  C   UNL A   1      37.091  31.971  31.903  1.00  0.00     0.029 A 
ATOM     38  N   UNL A   1      38.929  30.723  32.152  1.00  0.00    -0.354 N 
ATOM     39  C   UNL A   1      40.386  28.231  28.935  1.00  0.00     0.074 A 
ATOM     40  C   UNL A   1      39.503  28.298  27.789  1.00  0.00     0.031 C 
ATOM     41  C   UNL A   1      37.592  32.227  33.122  1.00  0.00     0.029 A 
ATOM     42  C   UNL A   1      38.778  31.404  33.337  1.00  0.00     0.049 A 
ATOM     43  H   UNL A   1      39.668  30.093  31.983  1.00  0.00     0.167 HD
ATOM     44  C   UNL A   1      41.527  27.497  28.987  1.00  0.00     0.034 A 
ATOM     45  C   UNL A   1      39.500  31.361  34.475  1.00  0.00     0.034 A 
ATOM     46  C   UNL A   1      42.393  27.430  30.143  1.00  0.00     0.049 A 
ATOM     47  C   UNL A   1      40.719  30.474  34.533  1.00  0.00     0.074 A 
ATOM     48  C   UNL A   1      43.579  26.728  30.292  1.00  0.00     0.029 A 
ATOM     49  N   UNL A   1      42.166  28.073  31.353  1.00  0.00    -0.354 N 
ATOM     50  N   UNL A   1      41.235  29.710  33.596  1.00  0.00    -0.248 NA
ATOM     51  C   UNL A   1      41.461  30.459  35.799  1.00  0.00     0.031 C 
ATOM     52  C   UNL A   1      44.012  26.869  31.615  1.00  0.00     0.029 A 
ATOM     53  C   UNL A   1      43.163  27.748  32.264  1.00  0.00     0.049 A 
ATOM     54  H   UNL A   1      41.408  28.673  31.539  1.00  0.00     0.167 HD
ATOM     55  C   UNL A   1      42.382  29.150  34.154  1.00  0.00     0.074 A 
ATOM     56  C   UNL A   1      42.495  29.693  35.493  1.00  0.00     0.031 C 
ATOM     57  C   UNL A   1      43.262  28.269  33.609  1.00  0.00     0.034 A 
BRANCH  44  58
ATOM     58  C   UNL A   1      41.877  26.658  27.776  1.00  0.00     0.023 A 
ATOM     59  C   UNL A   1      41.636  25.273  27.731  1.00  0.00     0.031 A 
ATOM     60  C   UNL A   1      42.471  27.254  26.648  1.00  0.00     0.131 A 
ATOM     61  C   UNL A   1      42.050  24.524  26.618  1.00  0.00     0.055 A 
ATOM     62  C   UNL A   1      42.797  26.519  25.507  1.00  0.00     0.041 A 
ATOM     63  F   UNL A   1      42.751  28.568  26.637  1.00  0.00    -0.206 F 
ATOM     64  C   UNL A   1      42.601  25.141  25.493  1.00  0.00     0.022 A 
BRANCH  61  65
ATOM     65  S   UNL A   1      42.003  22.713  26.723  1.00  0.00     0.124 S 
ATOM     66  O   UNL A   1      43.118  22.443  27.627  1.00  0.00    -0.237 OA
ATOM     67  O   UNL A   1      40.670  22.463  27.259  1.00  0.00    -0.237 OA
ATOM     68  O   UNL A   1      42.212  22.285  25.342  1.00  0.00    -0.744 OA
ENDBRANCH  61  65
ENDBRANCH  44  58
BRANCH  45  69
ATOM     69  C   UNL A   1      39.076  32.150  35.669  1.00  0.00     0.023 A 
ATOM     70  C   UNL A   1      39.537  33.458  35.886  1.00  0.00     0.031 A 
ATOM     71  C   UNL A   1      38.248  31.575  36.652  1.00  0.00     0.131 A 
ATOM     72  C   UNL A   1      39.213  34.126  37.077  1.00  0.00     0.055 A 
ATOM     73  C   UNL A   1      37.870  32.270  37.800  1.00  0.00     0.041 A 
ATOM     74  F   UNL A   1      37.784  30.324  36.503  1.00  0.00    -0.206 F 
ATOM     75  C   UNL A   1      38.367  33.549  38.026  1.00  0.00     0.022 A 
BRANCH  72  76
ATOM     76  S   UNL A   1      40.006  35.721  37.421  1.00  0.00     0.124 S 
ATOM     77  O   UNL A   1      39.651  36.491  36.234  1.00  0.00    -0.237 OA
ATOM     78  O   UNL A   1      39.355  36.121  38.664  1.00  0.00    -0.237 OA
ATOM     79  O   UNL A   1      41.422  35.377  37.543  1.00  0.00    -0.744 OA
ENDBRANCH  72  76
ENDBRANCH  45  69
BRANCH  57  80
ATOM     80  C   UNL A   1      44.452  27.875  34.460  1.00  0.00     0.023 A 
ATOM     81  C   UNL A   1      44.424  26.743  35.294  1.00  0.00     0.031 A 
ATOM     82  C   UNL A   1      45.603  28.683  34.493  1.00  0.00     0.131 A 
ATOM     83  C   UNL A   1      45.469  26.514  36.202  1.00  0.00     0.055 A 
ATOM     84  C   UNL A   1      46.684  28.393  35.329  1.00  0.00     0.041 A 
ATOM     85  F   UNL A   1      45.693  29.781  33.725  1.00  0.00    -0.206 F 
ATOM     86  C   UNL A   1      46.609  27.320  36.209  1.00  0.00     0.022 A 
BRANCH  83  87
ATOM     87  S   UNL A   1      45.232  25.263  37.495  1.00  0.00     0.124 S 
ATOM     88  O   UNL A   1      46.065  25.786  38.574  1.00  0.00    -0.237 OA
ATOM     89  O   UNL A   1      43.791  25.315  37.718  1.00  0.00    -0.237 OA
ATOM     90  O   UNL A   1      45.720  24.033  36.875  1.00  0.00    -0.744 OA
ENDBRANCH  83  87
ENDBRANCH  57  80
ENDBRANCH  31  32
ENDBRANCH  24  26
ENDBRANCH  23  24
ENDBRANCH  22  23
ENDBRANCH  21  22
ENDBRANCH  20  21
ENDBRANCH   1  20
TORSDOF 23
ENDMDL
