MODEL 1
REMARK VINA RESULT:     -10.6      0.000      0.000
REMARK SMILES O=C(C[C@@H]([NH2+]C[C@H]1CCCO1)C(=O)OCCOCCOC(=O)c1ccc(-c2c3nc(c(-c4cc(S(=O)(=O)[O-])ccc4F)c4ccc([nH]4)c(-c4cc(S(=O)(=O)[O-])ccc4F)c4nc(c(-c5cc(S(=O)(=O)[O-])ccc5F)c5ccc2[nH]5)C=C4)C=C3)cc1)Nc1cccc(Cl)c1
REMARK SMILES IDX 17 1 16 2 15 3 14 4 12 5 13 6 4 7 3 8 2 9 1 10 86 11 87 13
REMARK SMILES IDX 88 14 93 15 89 16 91 17 90 18 92 19 5 20 6 23 7 24 8 25
REMARK SMILES IDX 11 26 9 27 10 28 18 29 19 30 20 31 21 32 22 33 23 34 24 35
REMARK SMILES IDX 85 36 25 37 84 38 26 39 27 40 28 41 78 42 29 43 83 44 77 45
REMARK SMILES IDX 79 46 30 47 82 48 76 49 75 50 31 52 63 53 43 54 62 55 44 56
REMARK SMILES IDX 47 57 61 58 80 59 45 60 46 61 60 63 81 64 48 65 32 66 33 67
REMARK SMILES IDX 41 68 34 69 40 70 42 71 39 72 35 73 36 74 37 75 38 76 64 77
REMARK SMILES IDX 65 78 73 79 66 80 72 81 74 82 71 83 67 84 68 85 69 86 70 87
REMARK SMILES IDX 49 88 50 89 58 90 51 91 57 92 59 93 56 94 52 95 53 96 54 97
REMARK SMILES IDX 55 98
REMARK H PARENT 86 12 5 21 5 22 79 51 47 62
REMARK Flexibility Score: inf
ROOT
ATOM      1  O   UNL A   1      31.831  29.974  27.369  1.00  0.00    -0.374 OA
ENDROOT
BRANCH   1   2
ATOM      2  C   UNL A   1      32.485  28.799  26.903  1.00  0.00     0.202 C 
BRANCH   2   3
ATOM      3  C   UNL A   1      31.658  27.519  26.698  1.00  0.00     0.261 C 
BRANCH   3   4
ATOM      4  O   UNL A   1      32.317  26.499  25.934  1.00  0.00    -0.459 OA
BRANCH   4   5
ATOM      5  C   UNL A   1      31.553  25.990  24.928  1.00  0.00     0.365 C 
ATOM      6  O   UNL A   1      30.597  25.246  25.132  1.00  0.00    -0.245 OA
BRANCH   5   7
ATOM      7  C   UNL A   1      31.915  26.560  23.535  1.00  0.00     0.302 C 
BRANCH   7   8
ATOM      8  C   UNL A   1      31.696  25.537  22.401  1.00  0.00     0.177 C 
BRANCH   8   9
ATOM      9  C   UNL A   1      32.567  24.297  22.543  1.00  0.00     0.231 C 
ATOM     10  O   UNL A   1      33.651  24.203  21.979  1.00  0.00    -0.274 OA
ATOM     11  N   UNL A   1      31.966  23.335  23.333  1.00  0.00    -0.326 N 
ATOM     12  H   UNL A   1      31.070  23.561  23.675  1.00  0.00     0.169 HD
BRANCH  11  13
ATOM     13  C   UNL A   1      32.463  22.078  23.710  1.00  0.00     0.042 A 
ATOM     14  C   UNL A   1      33.367  22.057  24.781  1.00  0.00     0.026 A 
ATOM     15  C   UNL A   1      32.129  20.883  23.071  1.00  0.00     0.046 A 
ATOM     16  C   UNL A   1      33.926  20.857  25.220  1.00  0.00     0.004 A 
ATOM     17  C   UNL A   1      32.712  19.687  23.500  1.00  0.00     0.043 A 
ATOM     18  C   UNL A   1      33.603  19.669  24.572  1.00  0.00     0.020 A 
ATOM     19  Cl  UNL A   1      32.346  18.214  22.686  1.00  0.00    -0.084 Cl
ENDBRANCH  11  13
ENDBRANCH   8   9
ENDBRANCH   7   8
BRANCH   7  20
ATOM     20  N   UNL A   1      31.226  27.858  23.207  1.00  0.00    -0.332 N 
ATOM     21  H   UNL A   1      31.817  28.370  22.553  1.00  0.00     0.347 HD
ATOM     22  H   UNL A   1      31.087  28.331  24.100  1.00  0.00     0.347 HD
BRANCH  20  23
ATOM     23  C   UNL A   1      29.881  27.737  22.604  1.00  0.00     0.293 C 
BRANCH  23  24
ATOM     24  C   UNL A   1      28.872  28.872  22.928  1.00  0.00     0.173 C 
ATOM     25  C   UNL A   1      29.501  30.188  23.361  1.00  0.00     0.040 C 
ATOM     26  O   UNL A   1      27.997  29.144  21.822  1.00  0.00    -0.372 OA
ATOM     27  C   UNL A   1      29.247  31.140  22.219  1.00  0.00     0.031 C 
ATOM     28  C   UNL A   1      28.102  30.521  21.453  1.00  0.00     0.161 C 
ENDBRANCH  23  24
ENDBRANCH  20  23
ENDBRANCH   7  20
ENDBRANCH   5   7
ENDBRANCH   4   5
ENDBRANCH   3   4
ENDBRANCH   2   3
ENDBRANCH   1   2
BRANCH   1  29
ATOM     29  C   UNL A   1      31.485  30.994  26.432  1.00  0.00     0.202 C 
BRANCH  29  30
ATOM     30  C   UNL A   1      31.578  32.465  26.849  1.00  0.00     0.261 C 
BRANCH  30  31
ATOM     31  O   UNL A   1      32.921  32.976  26.768  1.00  0.00    -0.460 OA
BRANCH  31  32
ATOM     32  C   UNL A   1      33.414  33.424  27.947  1.00  0.00     0.338 C 
ATOM     33  O   UNL A   1      32.821  34.100  28.782  1.00  0.00    -0.246 OA
BRANCH  32  34
ATOM     34  C   UNL A   1      34.722  32.812  28.226  1.00  0.00     0.060 A 
ATOM     35  C   UNL A   1      34.742  31.442  28.516  1.00  0.00     0.016 A 
ATOM     36  C   UNL A   1      35.886  33.578  28.316  1.00  0.00     0.016 A 
ATOM     37  C   UNL A   1      35.920  30.842  28.949  1.00  0.00     0.010 A 
ATOM     38  C   UNL A   1      37.067  32.971  28.762  1.00  0.00     0.010 A 
ATOM     39  C   UNL A   1      37.079  31.610  29.116  1.00  0.00    -0.014 A 
BRANCH  39  40
ATOM     40  C   UNL A   1      38.243  30.996  29.801  1.00  0.00     0.031 A 
ATOM     41  C   UNL A   1      38.515  31.345  31.240  1.00  0.00     0.074 A 
ATOM     42  C   UNL A   1      38.991  30.071  29.172  1.00  0.00     0.049 A 
ATOM     43  N   UNL A   1      39.429  30.876  32.050  1.00  0.00    -0.248 NA
ATOM     44  C   UNL A   1      37.635  32.355  31.846  1.00  0.00     0.031 C 
ATOM     45  C   UNL A   1      38.792  29.625  27.793  1.00  0.00     0.029 A 
ATOM     46  N   UNL A   1      40.058  29.331  29.615  1.00  0.00    -0.354 N 
ATOM     47  C   UNL A   1      39.231  31.527  33.264  1.00  0.00     0.074 A 
ATOM     48  C   UNL A   1      38.139  32.456  33.067  1.00  0.00     0.031 C 
ATOM     49  C   UNL A   1      39.705  28.682  27.505  1.00  0.00     0.029 A 
ATOM     50  C   UNL A   1      40.570  28.479  28.665  1.00  0.00     0.049 A 
ATOM     51  H   UNL A   1      40.422  29.403  30.527  1.00  0.00     0.167 HD
ATOM     52  C   UNL A   1      39.892  31.356  34.437  1.00  0.00     0.034 A 
ATOM     53  C   UNL A   1      41.624  27.641  28.723  1.00  0.00     0.034 A 
ATOM     54  C   UNL A   1      40.991  30.437  34.611  1.00  0.00     0.049 A 
ATOM     55  C   UNL A   1      42.394  27.527  30.016  1.00  0.00     0.074 A 
ATOM     56  C   UNL A   1      41.724  30.174  35.756  1.00  0.00     0.029 A 
ATOM     57  N   UNL A   1      41.528  29.637  33.608  1.00  0.00    -0.354 N 
ATOM     58  N   UNL A   1      42.184  28.135  31.161  1.00  0.00    -0.248 NA
ATOM     59  C   UNL A   1      43.534  26.601  30.025  1.00  0.00     0.031 C 
ATOM     60  C   UNL A   1      42.747  29.277  35.427  1.00  0.00     0.029 A 
ATOM     61  C   UNL A   1      42.605  28.913  34.098  1.00  0.00     0.049 A 
ATOM     62  H   UNL A   1      41.193  29.592  32.684  1.00  0.00     0.167 HD
ATOM     63  C   UNL A   1      43.155  27.646  32.033  1.00  0.00     0.074 A 
ATOM     64  C   UNL A   1      43.928  26.675  31.287  1.00  0.00     0.031 C 
ATOM     65  C   UNL A   1      43.386  27.968  33.333  1.00  0.00     0.034 A 
BRANCH  52  66
ATOM     66  C   UNL A   1      39.471  32.220  35.601  1.00  0.00     0.023 A 
ATOM     67  C   UNL A   1      40.072  33.466  35.858  1.00  0.00     0.031 A 
ATOM     68  C   UNL A   1      38.472  31.778  36.488  1.00  0.00     0.131 A 
ATOM     69  C   UNL A   1      39.718  34.191  37.007  1.00  0.00     0.055 A 
ATOM     70  C   UNL A   1      38.070  32.541  37.586  1.00  0.00     0.041 A 
ATOM     71  F   UNL A   1      37.878  30.587  36.309  1.00  0.00    -0.206 F 
ATOM     72  C   UNL A   1      38.705  33.749  37.859  1.00  0.00     0.022 A 
BRANCH  69  73
ATOM     73  S   UNL A   1      40.699  35.653  37.448  1.00  0.00     0.124 S 
ATOM     74  O   UNL A   1      41.343  35.215  38.684  1.00  0.00    -0.237 OA
ATOM     75  O   UNL A   1      41.573  35.807  36.291  1.00  0.00    -0.237 OA
ATOM     76  O   UNL A   1      39.694  36.702  37.615  1.00  0.00    -0.744 OA
ENDBRANCH  69  73
ENDBRANCH  52  66
BRANCH  53  77
ATOM     77  C   UNL A   1      42.041  26.867  27.518  1.00  0.00     0.023 A 
ATOM     78  C   UNL A   1      41.802  25.487  27.416  1.00  0.00     0.031 A 
ATOM     79  C   UNL A   1      42.737  27.494  26.469  1.00  0.00     0.131 A 
ATOM     80  C   UNL A   1      42.296  24.772  26.314  1.00  0.00     0.055 A 
ATOM     81  C   UNL A   1      43.179  26.788  25.349  1.00  0.00     0.041 A 
ATOM     82  F   UNL A   1      42.992  28.812  26.515  1.00  0.00    -0.206 F 
ATOM     83  C   UNL A   1      42.971  25.415  25.274  1.00  0.00     0.022 A 
BRANCH  80  84
ATOM     84  S   UNL A   1      42.116  22.967  26.297  1.00  0.00     0.124 S 
ATOM     85  O   UNL A   1      42.910  22.577  27.455  1.00  0.00    -0.237 OA
ATOM     86  O   UNL A   1      40.671  22.807  26.425  1.00  0.00    -0.237 OA
ATOM     87  O   UNL A   1      42.669  22.582  24.999  1.00  0.00    -0.744 OA
ENDBRANCH  80  84
ENDBRANCH  53  77
BRANCH  65  88
ATOM     88  C   UNL A   1      44.511  27.234  34.026  1.00  0.00     0.023 A 
ATOM     89  C   UNL A   1      44.287  26.038  34.732  1.00  0.00     0.031 A 
ATOM     90  C   UNL A   1      45.816  27.756  34.014  1.00  0.00     0.131 A 
ATOM     91  C   UNL A   1      45.332  25.445  35.455  1.00  0.00     0.055 A 
ATOM     92  C   UNL A   1      46.869  27.124  34.677  1.00  0.00     0.041 A 
ATOM     93  F   UNL A   1      46.091  28.896  33.359  1.00  0.00    -0.206 F 
ATOM     94  C   UNL A   1      46.626  25.972  35.419  1.00  0.00     0.022 A 
BRANCH  91  95
ATOM     95  S   UNL A   1      44.952  24.045  36.545  1.00  0.00     0.124 S 
ATOM     96  O   UNL A   1      44.158  23.189  35.671  1.00  0.00    -0.237 OA
ATOM     97  O   UNL A   1      46.280  23.549  36.889  1.00  0.00    -0.237 OA
ATOM     98  O   UNL A   1      44.215  24.660  37.648  1.00  0.00    -0.744 OA
ENDBRANCH  91  95
ENDBRANCH  65  88
ENDBRANCH  39  40
ENDBRANCH  32  34
ENDBRANCH  31  32
ENDBRANCH  30  31
ENDBRANCH  29  30
ENDBRANCH   1  29
TORSDOF 23
ENDMDL
MODEL 2
REMARK VINA RESULT:     -10.5      1.877      7.653
REMARK SMILES O=C(C[C@@H]([NH2+]C[C@H]1CCCO1)C(=O)OCCOCCOC(=O)c1ccc(-c2c3nc(c(-c4cc(S(=O)(=O)[O-])ccc4F)c4ccc([nH]4)c(-c4cc(S(=O)(=O)[O-])ccc4F)c4nc(c(-c5cc(S(=O)(=O)[O-])ccc5F)c5ccc2[nH]5)C=C4)C=C3)cc1)Nc1cccc(Cl)c1
REMARK SMILES IDX 17 1 16 2 15 3 14 4 12 5 13 6 4 7 3 8 2 9 1 10 86 11 87 13
REMARK SMILES IDX 88 14 93 15 89 16 91 17 90 18 92 19 5 20 6 23 7 24 8 25
REMARK SMILES IDX 11 26 9 27 10 28 18 29 19 30 20 31 21 32 22 33 23 34 24 35
REMARK SMILES IDX 85 36 25 37 84 38 26 39 27 40 28 41 78 42 29 43 83 44 77 45
REMARK SMILES IDX 79 46 30 47 82 48 76 49 75 50 31 52 63 53 43 54 62 55 44 56
REMARK SMILES IDX 47 57 61 58 80 59 45 60 46 61 60 63 81 64 48 65 32 66 33 67
REMARK SMILES IDX 41 68 34 69 40 70 42 71 39 72 35 73 36 74 37 75 38 76 64 77
REMARK SMILES IDX 65 78 73 79 66 80 72 81 74 82 71 83 67 84 68 85 69 86 70 87
REMARK SMILES IDX 49 88 50 89 58 90 51 91 57 92 59 93 56 94 52 95 53 96 54 97
REMARK SMILES IDX 55 98
REMARK H PARENT 86 12 5 21 5 22 79 51 47 62
REMARK Flexibility Score: inf
ROOT
ATOM      1  O   UNL A   1      31.853  31.211  26.499  1.00  0.00    -0.374 OA
ENDROOT
BRANCH   1   2
ATOM      2  C   UNL A   1      32.939  30.517  27.105  1.00  0.00     0.202 C 
BRANCH   2   3
ATOM      3  C   UNL A   1      33.375  29.163  26.521  1.00  0.00     0.261 C 
BRANCH   3   4
ATOM      4  O   UNL A   1      32.293  28.282  26.187  1.00  0.00    -0.459 OA
BRANCH   4   5
ATOM      5  C   UNL A   1      32.350  27.804  24.913  1.00  0.00     0.365 C 
ATOM      6  O   UNL A   1      33.249  28.104  24.131  1.00  0.00    -0.245 OA
BRANCH   5   7
ATOM      7  C   UNL A   1      31.267  26.742  24.608  1.00  0.00     0.302 C 
BRANCH   7   8
ATOM      8  C   UNL A   1      30.537  26.258  25.879  1.00  0.00     0.177 C 
BRANCH   8   9
ATOM      9  C   UNL A   1      30.892  24.828  26.259  1.00  0.00     0.231 C 
ATOM     10  O   UNL A   1      30.231  24.195  27.074  1.00  0.00    -0.274 OA
ATOM     11  N   UNL A   1      32.029  24.390  25.606  1.00  0.00    -0.326 N 
ATOM     12  H   UNL A   1      32.461  25.046  25.013  1.00  0.00     0.169 HD
BRANCH  11  13
ATOM     13  C   UNL A   1      32.648  23.132  25.679  1.00  0.00     0.042 A 
ATOM     14  C   UNL A   1      33.808  23.050  26.463  1.00  0.00     0.026 A 
ATOM     15  C   UNL A   1      32.192  21.997  25.009  1.00  0.00     0.046 A 
ATOM     16  C   UNL A   1      34.502  21.846  26.587  1.00  0.00     0.004 A 
ATOM     17  C   UNL A   1      32.906  20.800  25.116  1.00  0.00     0.043 A 
ATOM     18  C   UNL A   1      34.053  20.719  25.905  1.00  0.00     0.020 A 
ATOM     19  Cl  UNL A   1      32.380  19.406  24.252  1.00  0.00    -0.084 Cl
ENDBRANCH  11  13
ENDBRANCH   8   9
ENDBRANCH   7   8
BRANCH   7  20
ATOM     20  N   UNL A   1      30.269  27.168  23.564  1.00  0.00    -0.332 N 
ATOM     21  H   UNL A   1      29.370  26.750  23.801  1.00  0.00     0.347 HD
ATOM     22  H   UNL A   1      30.651  26.855  22.672  1.00  0.00     0.347 HD
BRANCH  20  23
ATOM     23  C   UNL A   1      30.068  28.627  23.425  1.00  0.00     0.293 C 
BRANCH  23  24
ATOM     24  C   UNL A   1      28.959  29.081  22.437  1.00  0.00     0.173 C 
ATOM     25  C   UNL A   1      27.698  29.626  23.090  1.00  0.00     0.040 C 
ATOM     26  O   UNL A   1      29.439  30.070  21.512  1.00  0.00    -0.372 OA
ATOM     27  C   UNL A   1      27.703  31.103  22.786  1.00  0.00     0.031 C 
ATOM     28  C   UNL A   1      28.632  31.246  21.604  1.00  0.00     0.161 C 
ENDBRANCH  23  24
ENDBRANCH  20  23
ENDBRANCH   7  20
ENDBRANCH   5   7
ENDBRANCH   4   5
ENDBRANCH   3   4
ENDBRANCH   2   3
ENDBRANCH   1   2
BRANCH   1  29
ATOM     29  C   UNL A   1      31.657  32.592  26.803  1.00  0.00     0.202 C 
BRANCH  29  30
ATOM     30  C   UNL A   1      32.833  33.424  27.326  1.00  0.00     0.261 C 
BRANCH  30  31
ATOM     31  O   UNL A   1      32.453  34.292  28.409  1.00  0.00    -0.460 OA
BRANCH  31  32
ATOM     32  C   UNL A   1      33.486  34.976  28.957  1.00  0.00     0.338 C 
ATOM     33  O   UNL A   1      33.481  36.150  29.316  1.00  0.00    -0.246 OA
BRANCH  32  34
ATOM     34  C   UNL A   1      34.594  34.066  29.282  1.00  0.00     0.060 A 
ATOM     35  C   UNL A   1      34.316  32.992  30.137  1.00  0.00     0.016 A 
ATOM     36  C   UNL A   1      35.900  34.318  28.856  1.00  0.00     0.016 A 
ATOM     37  C   UNL A   1      35.352  32.196  30.612  1.00  0.00     0.010 A 
ATOM     38  C   UNL A   1      36.942  33.520  29.345  1.00  0.00     0.010 A 
ATOM     39  C   UNL A   1      36.676  32.480  30.254  1.00  0.00    -0.014 A 
BRANCH  39  40
ATOM     40  C   UNL A   1      37.769  31.769  30.961  1.00  0.00     0.031 A 
ATOM     41  C   UNL A   1      38.559  30.721  30.224  1.00  0.00     0.074 A 
ATOM     42  C   UNL A   1      38.109  32.120  32.215  1.00  0.00     0.049 A 
ATOM     43  N   UNL A   1      39.596  30.029  30.622  1.00  0.00    -0.248 NA
ATOM     44  C   UNL A   1      38.123  30.416  28.854  1.00  0.00     0.031 C 
ATOM     45  C   UNL A   1      37.440  33.151  33.009  1.00  0.00     0.029 A 
ATOM     46  N   UNL A   1      39.108  31.659  33.034  1.00  0.00    -0.354 N 
ATOM     47  C   UNL A   1      39.942  29.212  29.551  1.00  0.00     0.074 A 
ATOM     48  C   UNL A   1      38.974  29.463  28.504  1.00  0.00     0.031 C 
ATOM     49  C   UNL A   1      38.054  33.248  34.201  1.00  0.00     0.029 A 
ATOM     50  C   UNL A   1      39.136  32.269  34.266  1.00  0.00     0.049 A 
ATOM     51  H   UNL A   1      39.745  30.958  32.765  1.00  0.00     0.167 HD
ATOM     52  C   UNL A   1      40.978  28.343  29.446  1.00  0.00     0.034 A 
ATOM     53  C   UNL A   1      39.938  32.052  35.329  1.00  0.00     0.034 A 
ATOM     54  C   UNL A   1      41.924  28.091  30.506  1.00  0.00     0.049 A 
ATOM     55  C   UNL A   1      41.034  31.021  35.215  1.00  0.00     0.074 A 
ATOM     56  C   UNL A   1      43.017  27.241  30.506  1.00  0.00     0.029 A 
ATOM     57  N   UNL A   1      41.883  28.677  31.767  1.00  0.00    -0.354 N 
ATOM     58  N   UNL A   1      41.361  30.269  34.189  1.00  0.00    -0.248 NA
ATOM     59  C   UNL A   1      41.877  30.823  36.401  1.00  0.00     0.031 C 
ATOM     60  C   UNL A   1      43.588  27.257  31.783  1.00  0.00     0.029 A 
ATOM     61  C   UNL A   1      42.906  28.179  32.561  1.00  0.00     0.049 A 
ATOM     62  H   UNL A   1      41.223  29.349  32.054  1.00  0.00     0.167 HD
ATOM     63  C   UNL A   1      42.464  29.524  34.602  1.00  0.00     0.074 A 
ATOM     64  C   UNL A   1      42.759  29.940  35.957  1.00  0.00     0.031 C 
ATOM     65  C   UNL A   1      43.171  28.583  33.922  1.00  0.00     0.034 A 
BRANCH  52  66
ATOM     66  C   UNL A   1      41.104  27.567  28.156  1.00  0.00     0.023 A 
ATOM     67  C   UNL A   1      40.755  26.207  28.069  1.00  0.00     0.031 A 
ATOM     68  C   UNL A   1      41.609  28.189  27.000  1.00  0.00     0.131 A 
ATOM     69  C   UNL A   1      40.979  25.499  26.877  1.00  0.00     0.055 A 
ATOM     70  C   UNL A   1      41.758  27.499  25.796  1.00  0.00     0.041 A 
ATOM     71  F   UNL A   1      41.982  29.479  27.027  1.00  0.00    -0.206 F 
ATOM     72  C   UNL A   1      41.456  26.142  25.734  1.00  0.00     0.022 A 
BRANCH  69  73
ATOM     73  S   UNL A   1      40.772  23.697  26.884  1.00  0.00     0.124 S 
ATOM     74  O   UNL A   1      39.384  23.558  26.449  1.00  0.00    -0.237 OA
ATOM     75  O   UNL A   1      41.787  23.259  25.934  1.00  0.00    -0.237 OA
ATOM     76  O   UNL A   1      41.019  23.329  28.277  1.00  0.00    -0.744 OA
ENDBRANCH  69  73
ENDBRANCH  52  66
BRANCH  53  77
ATOM     77  C   UNL A   1      39.720  32.795  36.603  1.00  0.00     0.023 A 
ATOM     78  C   UNL A   1      38.850  32.310  37.593  1.00  0.00     0.031 A 
ATOM     79  C   UNL A   1      40.344  34.036  36.825  1.00  0.00     0.131 A 
ATOM     80  C   UNL A   1      38.592  33.083  38.735  1.00  0.00     0.055 A 
ATOM     81  C   UNL A   1      40.125  34.776  37.988  1.00  0.00     0.041 A 
ATOM     82  F   UNL A   1      41.185  34.546  35.911  1.00  0.00    -0.206 F 
ATOM     83  C   UNL A   1      39.233  34.306  38.945  1.00  0.00     0.022 A 
BRANCH  80  84
ATOM     84  S   UNL A   1      37.337  32.506  39.911  1.00  0.00     0.124 S 
ATOM     85  O   UNL A   1      36.244  32.135  39.022  1.00  0.00    -0.237 OA
ATOM     86  O   UNL A   1      38.029  31.405  40.573  1.00  0.00    -0.237 OA
ATOM     87  O   UNL A   1      37.092  33.678  40.750  1.00  0.00    -0.744 OA
ENDBRANCH  80  84
ENDBRANCH  53  77
BRANCH  65  88
ATOM     88  C   UNL A   1      44.347  27.965  34.642  1.00  0.00     0.023 A 
ATOM     89  C   UNL A   1      44.232  26.743  35.330  1.00  0.00     0.031 A 
ATOM     90  C   UNL A   1      45.590  28.622  34.673  1.00  0.00     0.131 A 
ATOM     91  C   UNL A   1      45.314  26.256  36.079  1.00  0.00     0.055 A 
ATOM     92  C   UNL A   1      46.684  28.098  35.362  1.00  0.00     0.041 A 
ATOM     93  F   UNL A   1      45.760  29.793  34.036  1.00  0.00    -0.206 F 
ATOM     94  C   UNL A   1      46.545  26.918  36.085  1.00  0.00     0.022 A 
BRANCH  91  95
ATOM     95  S   UNL A   1      45.054  24.811  37.144  1.00  0.00     0.124 S 
ATOM     96  O   UNL A   1      44.135  25.336  38.148  1.00  0.00    -0.237 OA
ATOM     97  O   UNL A   1      44.493  23.836  36.214  1.00  0.00    -0.237 OA
ATOM     98  O   UNL A   1      46.396  24.499  37.633  1.00  0.00    -0.744 OA
ENDBRANCH  91  95
ENDBRANCH  65  88
ENDBRANCH  39  40
ENDBRANCH  32  34
ENDBRANCH  31  32
ENDBRANCH  30  31
ENDBRANCH  29  30
ENDBRANCH   1  29
TORSDOF 23
ENDMDL
MODEL 3
REMARK VINA RESULT:     -10.4      2.639      8.466
REMARK SMILES O=C(C[C@@H]([NH2+]C[C@H]1CCCO1)C(=O)OCCOCCOC(=O)c1ccc(-c2c3nc(c(-c4cc(S(=O)(=O)[O-])ccc4F)c4ccc([nH]4)c(-c4cc(S(=O)(=O)[O-])ccc4F)c4nc(c(-c5cc(S(=O)(=O)[O-])ccc5F)c5ccc2[nH]5)C=C4)C=C3)cc1)Nc1cccc(Cl)c1
REMARK SMILES IDX 17 1 16 2 15 3 14 4 12 5 13 6 4 7 3 8 2 9 1 10 86 11 87 13
REMARK SMILES IDX 88 14 93 15 89 16 91 17 90 18 92 19 5 20 6 23 7 24 8 25
REMARK SMILES IDX 11 26 9 27 10 28 18 29 19 30 20 31 21 32 22 33 23 34 24 35
REMARK SMILES IDX 85 36 25 37 84 38 26 39 27 40 28 41 78 42 29 43 83 44 77 45
REMARK SMILES IDX 79 46 30 47 82 48 76 49 75 50 31 52 63 53 43 54 62 55 44 56
REMARK SMILES IDX 47 57 61 58 80 59 45 60 46 61 60 63 81 64 48 65 32 66 33 67
REMARK SMILES IDX 41 68 34 69 40 70 42 71 39 72 35 73 36 74 37 75 38 76 64 77
REMARK SMILES IDX 65 78 73 79 66 80 72 81 74 82 71 83 67 84 68 85 69 86 70 87
REMARK SMILES IDX 49 88 50 89 58 90 51 91 57 92 59 93 56 94 52 95 53 96 54 97
REMARK SMILES IDX 55 98
REMARK H PARENT 86 12 5 21 5 22 79 51 47 62
REMARK Flexibility Score: inf
ROOT
ATOM      1  O   UNL A   1      33.685  29.845  27.350  1.00  0.00    -0.374 OA
ENDROOT
BRANCH   1   2
ATOM      2  C   UNL A   1      32.988  28.784  26.704  1.00  0.00     0.202 C 
BRANCH   2   3
ATOM      3  C   UNL A   1      33.779  27.802  25.823  1.00  0.00     0.261 C 
BRANCH   3   4
ATOM      4  O   UNL A   1      33.048  26.632  25.432  1.00  0.00    -0.459 OA
BRANCH   4   5
ATOM      5  C   UNL A   1      33.830  25.653  24.895  1.00  0.00     0.365 C 
ATOM      6  O   UNL A   1      34.739  25.114  25.519  1.00  0.00    -0.245 OA
BRANCH   5   7
ATOM      7  C   UNL A   1      33.360  25.195  23.494  1.00  0.00     0.302 C 
BRANCH   7   8
ATOM      8  C   UNL A   1      33.394  26.335  22.455  1.00  0.00     0.177 C 
BRANCH   8   9
ATOM      9  C   UNL A   1      32.008  26.762  21.996  1.00  0.00     0.231 C 
ATOM     10  O   UNL A   1      31.446  26.219  21.052  1.00  0.00    -0.274 OA
ATOM     11  N   UNL A   1      31.523  27.819  22.743  1.00  0.00    -0.326 N 
ATOM     12  H   UNL A   1      32.127  28.161  23.442  1.00  0.00     0.169 HD
BRANCH  11  13
ATOM     13  C   UNL A   1      30.283  28.469  22.637  1.00  0.00     0.042 A 
ATOM     14  C   UNL A   1      30.280  29.709  21.984  1.00  0.00     0.026 A 
ATOM     15  C   UNL A   1      29.090  27.964  23.155  1.00  0.00     0.046 A 
ATOM     16  C   UNL A   1      29.099  30.437  21.840  1.00  0.00     0.004 A 
ATOM     17  C   UNL A   1      27.915  28.709  23.030  1.00  0.00     0.043 A 
ATOM     18  C   UNL A   1      27.914  29.939  22.371  1.00  0.00     0.020 A 
ATOM     19  Cl  UNL A   1      26.447  28.119  23.711  1.00  0.00    -0.084 Cl
ENDBRANCH  11  13
ENDBRANCH   8   9
ENDBRANCH   7   8
BRANCH   7  20
ATOM     20  N   UNL A   1      34.092  23.988  22.968  1.00  0.00    -0.332 N 
ATOM     21  H   UNL A   1      34.621  23.582  23.740  1.00  0.00     0.347 HD
ATOM     22  H   UNL A   1      34.672  24.329  22.201  1.00  0.00     0.347 HD
BRANCH  20  23
ATOM     23  C   UNL A   1      33.245  22.923  22.389  1.00  0.00     0.293 C 
BRANCH  23  24
ATOM     24  C   UNL A   1      32.594  21.934  23.394  1.00  0.00     0.173 C 
ATOM     25  C   UNL A   1      33.511  21.450  24.507  1.00  0.00     0.040 C 
ATOM     26  O   UNL A   1      31.416  22.487  24.002  1.00  0.00    -0.372 OA
ATOM     27  C   UNL A   1      32.983  22.097  25.762  1.00  0.00     0.031 C 
ATOM     28  C   UNL A   1      31.562  22.483  25.425  1.00  0.00     0.161 C 
ENDBRANCH  23  24
ENDBRANCH  20  23
ENDBRANCH   7  20
ENDBRANCH   5   7
ENDBRANCH   4   5
ENDBRANCH   3   4
ENDBRANCH   2   3
ENDBRANCH   1   2
BRANCH   1  29
ATOM     29  C   UNL A   1      33.191  31.178  27.222  1.00  0.00     0.202 C 
BRANCH  29  30
ATOM     30  C   UNL A   1      33.890  32.317  27.972  1.00  0.00     0.261 C 
BRANCH  30  31
ATOM     31  O   UNL A   1      33.374  33.611  27.611  1.00  0.00    -0.460 OA
BRANCH  31  32
ATOM     32  C   UNL A   1      33.429  34.525  28.609  1.00  0.00     0.338 C 
ATOM     33  O   UNL A   1      32.635  35.439  28.812  1.00  0.00    -0.246 OA
BRANCH  32  34
ATOM     34  C   UNL A   1      34.468  34.164  29.585  1.00  0.00     0.060 A 
ATOM     35  C   UNL A   1      35.803  34.349  29.202  1.00  0.00     0.016 A 
ATOM     36  C   UNL A   1      34.153  33.550  30.799  1.00  0.00     0.016 A 
ATOM     37  C   UNL A   1      36.829  33.873  30.011  1.00  0.00     0.010 A 
ATOM     38  C   UNL A   1      35.189  33.064  31.605  1.00  0.00     0.010 A 
ATOM     39  C   UNL A   1      36.529  33.190  31.196  1.00  0.00    -0.014 A 
BRANCH  39  40
ATOM     40  C   UNL A   1      37.628  32.492  31.909  1.00  0.00     0.031 A 
ATOM     41  C   UNL A   1      38.340  31.356  31.225  1.00  0.00     0.074 A 
ATOM     42  C   UNL A   1      38.042  32.928  33.113  1.00  0.00     0.049 A 
ATOM     43  N   UNL A   1      39.367  30.655  31.631  1.00  0.00    -0.248 NA
ATOM     44  C   UNL A   1      37.825  30.961  29.906  1.00  0.00     0.031 C 
ATOM     45  C   UNL A   1      37.452  34.047  33.849  1.00  0.00     0.029 A 
ATOM     46  N   UNL A   1      39.061  32.493  33.920  1.00  0.00    -0.354 N 
ATOM     47  C   UNL A   1      39.629  29.740  30.615  1.00  0.00     0.074 A 
ATOM     48  C   UNL A   1      38.621  29.948  29.597  1.00  0.00     0.031 C 
ATOM     49  C   UNL A   1      38.127  34.213  34.999  1.00  0.00     0.029 A 
ATOM     50  C   UNL A   1      39.173  33.197  35.095  1.00  0.00     0.049 A 
ATOM     51  H   UNL A   1      39.656  31.746  33.681  1.00  0.00     0.167 HD
ATOM     52  C   UNL A   1      40.624  28.822  30.535  1.00  0.00     0.034 A 
ATOM     53  C   UNL A   1      40.016  33.033  36.134  1.00  0.00     0.034 A 
ATOM     54  C   UNL A   1      41.610  28.617  31.569  1.00  0.00     0.049 A 
ATOM     55  C   UNL A   1      41.065  31.951  36.056  1.00  0.00     0.074 A 
ATOM     56  C   UNL A   1      42.668  27.724  31.588  1.00  0.00     0.029 A 
ATOM     57  N   UNL A   1      41.653  29.303  32.777  1.00  0.00    -0.354 N 
ATOM     58  N   UNL A   1      41.313  31.106  35.082  1.00  0.00    -0.248 NA
ATOM     59  C   UNL A   1      41.957  31.813  37.215  1.00  0.00     0.031 C 
ATOM     60  C   UNL A   1      43.302  27.818  32.833  1.00  0.00     0.029 A 
ATOM     61  C   UNL A   1      42.694  28.828  33.562  1.00  0.00     0.049 A 
ATOM     62  H   UNL A   1      41.035  30.023  33.038  1.00  0.00     0.167 HD
ATOM     63  C   UNL A   1      42.405  30.350  35.503  1.00  0.00     0.074 A 
ATOM     64  C   UNL A   1      42.781  30.860  36.805  1.00  0.00     0.031 C 
ATOM     65  C   UNL A   1      43.041  29.328  34.872  1.00  0.00     0.034 A 
BRANCH  52  66
ATOM     66  C   UNL A   1      40.657  27.941  29.309  1.00  0.00     0.023 A 
ATOM     67  C   UNL A   1      41.567  28.159  28.260  1.00  0.00     0.031 A 
ATOM     68  C   UNL A   1      39.741  26.881  29.173  1.00  0.00     0.131 A 
ATOM     69  C   UNL A   1      41.497  27.377  27.096  1.00  0.00     0.055 A 
ATOM     70  C   UNL A   1      39.728  26.058  28.046  1.00  0.00     0.041 A 
ATOM     71  F   UNL A   1      38.832  26.638  30.130  1.00  0.00    -0.206 F 
ATOM     72  C   UNL A   1      40.600  26.313  26.992  1.00  0.00     0.022 A 
BRANCH  69  73
ATOM     73  S   UNL A   1      42.502  27.859  25.663  1.00  0.00     0.124 S 
ATOM     74  O   UNL A   1      43.801  28.108  26.284  1.00  0.00    -0.237 OA
ATOM     75  O   UNL A   1      42.415  26.682  24.808  1.00  0.00    -0.237 OA
ATOM     76  O   UNL A   1      41.824  29.051  25.156  1.00  0.00    -0.744 OA
ENDBRANCH  69  73
ENDBRANCH  52  66
BRANCH  53  77
ATOM     77  C   UNL A   1      39.890  33.884  37.352  1.00  0.00     0.023 A 
ATOM     78  C   UNL A   1      39.152  33.459  38.468  1.00  0.00     0.031 A 
ATOM     79  C   UNL A   1      40.467  35.167  37.392  1.00  0.00     0.131 A 
ATOM     80  C   UNL A   1      38.971  34.326  39.557  1.00  0.00     0.055 A 
ATOM     81  C   UNL A   1      40.328  36.005  38.500  1.00  0.00     0.041 A 
ATOM     82  F   UNL A   1      41.182  35.623  36.352  1.00  0.00    -0.206 F 
ATOM     83  C   UNL A   1      39.564  35.590  39.586  1.00  0.00     0.022 A 
BRANCH  80  84
ATOM     84  S   UNL A   1      37.874  33.810  40.907  1.00  0.00     0.124 S 
ATOM     85  O   UNL A   1      37.503  35.091  41.496  1.00  0.00    -0.237 OA
ATOM     86  O   UNL A   1      36.820  33.105  40.186  1.00  0.00    -0.237 OA
ATOM     87  O   UNL A   1      38.731  32.964  41.737  1.00  0.00    -0.744 OA
ENDBRANCH  80  84
ENDBRANCH  53  77
BRANCH  65  88
ATOM     88  C   UNL A   1      44.226  28.721  35.585  1.00  0.00     0.023 A 
ATOM     89  C   UNL A   1      44.083  27.619  36.449  1.00  0.00     0.031 A 
ATOM     90  C   UNL A   1      45.511  29.272  35.431  1.00  0.00     0.131 A 
ATOM     91  C   UNL A   1      45.185  27.153  37.179  1.00  0.00     0.055 A 
ATOM     92  C   UNL A   1      46.618  28.759  36.107  1.00  0.00     0.041 A 
ATOM     93  F   UNL A   1      45.710  30.326  34.622  1.00  0.00    -0.206 F 
ATOM     94  C   UNL A   1      46.456  27.705  37.001  1.00  0.00     0.022 A 
BRANCH  91  95
ATOM     95  S   UNL A   1      44.913  25.894  38.457  1.00  0.00     0.124 S 
ATOM     96  O   UNL A   1      46.267  25.408  38.697  1.00  0.00    -0.237 OA
ATOM     97  O   UNL A   1      44.314  26.671  39.537  1.00  0.00    -0.237 OA
ATOM     98  O   UNL A   1      44.016  24.937  37.811  1.00  0.00    -0.744 OA
ENDBRANCH  91  95
ENDBRANCH  65  88
ENDBRANCH  39  40
ENDBRANCH  32  34
ENDBRANCH  31  32
ENDBRANCH  30  31
ENDBRANCH  29  30
ENDBRANCH   1  29
TORSDOF 23
ENDMDL
