MODEL 1
REMARK VINA RESULT:     -10.2      0.000      0.000
REMARK SMILES O=C(N[C@@H](CS)C(=O)N[C@@H](CO)C(=O)OCCOCCOC(=O)c1ccc(-c2c3nc(c(-c4cc(S(=O)(=O)[O-])ccc4F)c4ccc([nH]4)c(-c4cc(S(=O)(=O)[O-])ccc4F)c4nc(c(-c5cc(S(=O)(=O)[O-])ccc5F)c5ccc2[nH]5)C=C4)C=C3)cc1)c1ccc(F)cc1
REMARK SMILES IDX 17 1 16 2 15 3 13 4 14 5 10 6 9 7 7 8 8 9 4 11 3 12 1 13
REMARK SMILES IDX 2 14 87 16 88 17 93 18 89 19 92 20 90 21 91 22 5 23 6 24
REMARK SMILES IDX 11 26 12 27 18 29 19 30 20 31 21 32 22 33 23 34 24 35 25 36
REMARK SMILES IDX 86 37 26 38 85 39 27 40 28 41 29 42 79 43 30 44 84 45 78 46
REMARK SMILES IDX 80 47 31 48 83 49 77 50 76 51 32 53 64 54 44 55 63 56 45 57
REMARK SMILES IDX 48 58 62 59 81 60 46 61 47 62 61 64 82 65 49 66 33 67 34 68
REMARK SMILES IDX 42 69 35 70 41 71 43 72 40 73 36 74 37 75 38 76 39 77 65 78
REMARK SMILES IDX 66 79 74 80 67 81 73 82 75 83 72 84 68 85 69 86 70 87 71 88
REMARK SMILES IDX 50 89 51 90 59 91 52 92 58 93 60 94 57 95 53 96 54 97 55 98
REMARK SMILES IDX 56 99
REMARK H PARENT 9 10 3 15 6 25 12 28 80 52 48 63
REMARK Flexibility Score: inf
ROOT
ATOM      1  C   UNL A   1      33.324  20.782  26.016  1.00  0.00     0.202 C 
ENDROOT
BRANCH   1   2
ATOM      2  C   UNL A   1      32.100  21.687  25.864  1.00  0.00     0.261 C 
BRANCH   2   3
ATOM      3  O   UNL A   1      32.351  22.981  26.442  1.00  0.00    -0.462 OA
BRANCH   3   4
ATOM      4  C   UNL A   1      31.428  23.940  26.157  1.00  0.00     0.331 C 
ATOM      5  O   UNL A   1      30.227  23.744  26.012  1.00  0.00    -0.250 OA
BRANCH   4   6
ATOM      6  C   UNL A   1      32.066  25.333  26.024  1.00  0.00     0.218 C 
BRANCH   6   7
ATOM      7  N   UNL A   1      31.616  26.307  27.031  1.00  0.00    -0.339 N 
ATOM      8  C   UNL A   1      31.625  27.663  27.079  1.00  0.00     0.244 C 
ATOM      9  O   UNL A   1      31.031  28.179  28.033  1.00  0.00    -0.273 OA
ATOM     10  H   UNL A   1      31.230  25.890  27.834  1.00  0.00     0.164 HD
BRANCH   8  11
ATOM     11  C   UNL A   1      32.210  28.588  25.990  1.00  0.00     0.181 C 
BRANCH  11  12
ATOM     12  N   UNL A   1      31.244  29.152  25.044  1.00  0.00    -0.339 N 
ATOM     13  O   UNL A   1      30.271  29.516  23.057  1.00  0.00    -0.269 OA
ATOM     14  C   UNL A   1      30.972  28.785  23.751  1.00  0.00     0.251 C 
ATOM     15  H   UNL A   1      30.709  29.905  25.389  1.00  0.00     0.164 HD
BRANCH  14  16
ATOM     16  C   UNL A   1      31.539  27.551  23.161  1.00  0.00     0.040 A 
ATOM     17  C   UNL A   1      30.794  26.369  23.060  1.00  0.00     0.017 A 
ATOM     18  C   UNL A   1      32.834  27.609  22.627  1.00  0.00     0.017 A 
ATOM     19  C   UNL A   1      31.372  25.227  22.500  1.00  0.00     0.040 A 
ATOM     20  C   UNL A   1      33.403  26.470  22.053  1.00  0.00     0.040 A 
ATOM     21  C   UNL A   1      32.671  25.287  22.007  1.00  0.00     0.123 A 
ATOM     22  F   UNL A   1      33.222  24.193  21.465  1.00  0.00    -0.207 F 
ENDBRANCH  14  16
ENDBRANCH  11  12
BRANCH  11  23
ATOM     23  C   UNL A   1      33.222  29.609  26.543  1.00  0.00     0.101 C 
BRANCH  23  24
ATOM     24  S   UNL A   1      34.888  28.980  26.920  1.00  0.00    -0.177 SA
ATOM     25  H   UNL A   1      35.326  29.528  28.085  1.00  0.00     0.102 HD
ENDBRANCH  23  24
ENDBRANCH  11  23
ENDBRANCH   8  11
ENDBRANCH   6   7
BRANCH   6  26
ATOM     26  C   UNL A   1      33.587  25.169  26.072  1.00  0.00     0.193 C 
BRANCH  26  27
ATOM     27  O   UNL A   1      34.070  24.436  24.949  1.00  0.00    -0.394 OA
ATOM     28  H   UNL A   1      34.792  24.927  24.529  1.00  0.00     0.210 HD
ENDBRANCH  26  27
ENDBRANCH   6  26
ENDBRANCH   4   6
ENDBRANCH   3   4
ENDBRANCH   2   3
ENDBRANCH   1   2
BRANCH   1  29
ATOM     29  O   UNL A   1      34.596  21.432  25.938  1.00  0.00    -0.374 OA
BRANCH  29  30
ATOM     30  C   UNL A   1      35.423  21.126  24.818  1.00  0.00     0.202 C 
BRANCH  30  31
ATOM     31  C   UNL A   1      36.754  20.417  25.099  1.00  0.00     0.261 C 
BRANCH  31  32
ATOM     32  O   UNL A   1      37.893  21.278  24.951  1.00  0.00    -0.460 OA
BRANCH  32  33
ATOM     33  C   UNL A   1      38.908  20.992  25.801  1.00  0.00     0.338 C 
ATOM     34  O   UNL A   1      39.446  19.901  25.962  1.00  0.00    -0.246 OA
BRANCH  33  35
ATOM     35  C   UNL A   1      39.442  22.220  26.411  1.00  0.00     0.060 A 
ATOM     36  C   UNL A   1      38.796  23.418  26.086  1.00  0.00     0.016 A 
ATOM     37  C   UNL A   1      40.597  22.223  27.197  1.00  0.00     0.016 A 
ATOM     38  C   UNL A   1      39.341  24.632  26.490  1.00  0.00     0.010 A 
ATOM     39  C   UNL A   1      41.146  23.448  27.600  1.00  0.00     0.010 A 
ATOM     40  C   UNL A   1      40.543  24.659  27.210  1.00  0.00    -0.014 A 
BRANCH  40  41
ATOM     41  C   UNL A   1      41.218  25.966  27.397  1.00  0.00     0.031 A 
ATOM     42  C   UNL A   1      40.536  27.030  28.214  1.00  0.00     0.074 A 
ATOM     43  C   UNL A   1      42.466  26.160  26.933  1.00  0.00     0.049 A 
ATOM     44  N   UNL A   1      40.982  28.200  28.596  1.00  0.00    -0.248 NA
ATOM     45  C   UNL A   1      39.166  26.733  28.662  1.00  0.00     0.031 C 
ATOM     46  C   UNL A   1      43.236  25.186  26.159  1.00  0.00     0.029 A 
ATOM     47  N   UNL A   1      43.313  27.231  27.062  1.00  0.00    -0.354 N 
ATOM     48  C   UNL A   1      39.955  28.774  29.339  1.00  0.00     0.074 A 
ATOM     49  C   UNL A   1      38.846  27.843  29.309  1.00  0.00     0.031 C 
ATOM     50  C   UNL A   1      44.447  25.702  25.890  1.00  0.00     0.029 A 
ATOM     51  C   UNL A   1      44.532  27.048  26.454  1.00  0.00     0.049 A 
ATOM     52  H   UNL A   1      43.069  28.054  27.544  1.00  0.00     0.167 HD
ATOM     53  C   UNL A   1      39.945  29.959  29.999  1.00  0.00     0.034 A 
ATOM     54  C   UNL A   1      45.594  27.873  26.363  1.00  0.00     0.034 A 
ATOM     55  C   UNL A   1      41.053  30.883  30.004  1.00  0.00     0.049 A 
ATOM     56  C   UNL A   1      45.536  29.213  27.053  1.00  0.00     0.074 A 
ATOM     57  C   UNL A   1      41.154  32.110  30.639  1.00  0.00     0.029 A 
ATOM     58  N   UNL A   1      42.255  30.688  29.331  1.00  0.00    -0.354 N 
ATOM     59  N   UNL A   1      44.566  29.735  27.771  1.00  0.00    -0.248 NA
ATOM     60  C   UNL A   1      46.724  30.067  26.936  1.00  0.00     0.031 C 
ATOM     61  C   UNL A   1      42.384  32.683  30.295  1.00  0.00     0.029 A 
ATOM     62  C   UNL A   1      43.086  31.784  29.509  1.00  0.00     0.049 A 
ATOM     63  H   UNL A   1      42.481  29.888  28.804  1.00  0.00     0.167 HD
ATOM     64  C   UNL A   1      45.041  30.968  28.212  1.00  0.00     0.074 A 
ATOM     65  C   UNL A   1      46.390  31.096  27.701  1.00  0.00     0.031 C 
ATOM     66  C   UNL A   1      44.423  31.907  28.973  1.00  0.00     0.034 A 
BRANCH  53  67
ATOM     67  C   UNL A   1      38.673  30.337  30.722  1.00  0.00     0.023 A 
ATOM     68  C   UNL A   1      37.648  31.064  30.090  1.00  0.00     0.031 A 
ATOM     69  C   UNL A   1      38.497  29.996  32.075  1.00  0.00     0.131 A 
ATOM     70  C   UNL A   1      36.529  31.484  30.826  1.00  0.00     0.055 A 
ATOM     71  C   UNL A   1      37.346  30.351  32.781  1.00  0.00     0.041 A 
ATOM     72  F   UNL A   1      39.451  29.325  32.739  1.00  0.00    -0.206 F 
ATOM     73  C   UNL A   1      36.361  31.112  32.162  1.00  0.00     0.022 A 
BRANCH  70  74
ATOM     74  S   UNL A   1      35.364  32.642  30.055  1.00  0.00     0.124 S 
ATOM     75  O   UNL A   1      36.252  33.733  29.659  1.00  0.00    -0.237 OA
ATOM     76  O   UNL A   1      34.803  31.848  28.968  1.00  0.00    -0.237 OA
ATOM     77  O   UNL A   1      34.435  32.965  31.137  1.00  0.00    -0.744 OA
ENDBRANCH  70  74
ENDBRANCH  53  67
BRANCH  54  78
ATOM     78  C   UNL A   1      46.796  27.473  25.575  1.00  0.00     0.023 A 
ATOM     79  C   UNL A   1      46.975  27.895  24.247  1.00  0.00     0.031 A 
ATOM     80  C   UNL A   1      47.761  26.613  26.128  1.00  0.00     0.131 A 
ATOM     81  C   UNL A   1      48.066  27.418  23.503  1.00  0.00     0.055 A 
ATOM     82  C   UNL A   1      48.871  26.183  25.401  1.00  0.00     0.041 A 
ATOM     83  F   UNL A   1      47.638  26.180  27.393  1.00  0.00    -0.206 F 
ATOM     84  C   UNL A   1      49.022  26.576  24.075  1.00  0.00     0.022 A 
BRANCH  81  85
ATOM     85  S   UNL A   1      48.175  27.851  21.745  1.00  0.00     0.124 S 
ATOM     86  O   UNL A   1      49.322  28.751  21.730  1.00  0.00    -0.237 OA
ATOM     87  O   UNL A   1      48.373  26.545  21.124  1.00  0.00    -0.237 OA
ATOM     88  O   UNL A   1      46.885  28.479  21.468  1.00  0.00    -0.744 OA
ENDBRANCH  81  85
ENDBRANCH  54  78
BRANCH  66  89
ATOM     89  C   UNL A   1      45.225  33.140  29.315  1.00  0.00     0.023 A 
ATOM     90  C   UNL A   1      45.177  34.298  28.517  1.00  0.00     0.031 A 
ATOM     91  C   UNL A   1      46.080  33.145  30.432  1.00  0.00     0.131 A 
ATOM     92  C   UNL A   1      46.024  35.380  28.801  1.00  0.00     0.055 A 
ATOM     93  C   UNL A   1      46.871  34.251  30.749  1.00  0.00     0.041 A 
ATOM     94  F   UNL A   1      46.168  32.068  31.229  1.00  0.00    -0.206 F 
ATOM     95  C   UNL A   1      46.859  35.369  29.921  1.00  0.00     0.022 A 
BRANCH  92  96
ATOM     96  S   UNL A   1      46.111  36.751  27.616  1.00  0.00     0.124 S 
ATOM     97  O   UNL A   1      44.770  36.743  27.043  1.00  0.00    -0.237 OA
ATOM     98  O   UNL A   1      46.430  37.885  28.477  1.00  0.00    -0.237 OA
ATOM     99  O   UNL A   1      47.178  36.346  26.702  1.00  0.00    -0.744 OA
ENDBRANCH  92  96
ENDBRANCH  66  89
ENDBRANCH  40  41
ENDBRANCH  33  35
ENDBRANCH  32  33
ENDBRANCH  31  32
ENDBRANCH  30  31
ENDBRANCH  29  30
ENDBRANCH   1  29
TORSDOF 25
ENDMDL
MODEL 2
REMARK VINA RESULT:     -10.2      2.417      8.021
REMARK SMILES O=C(N[C@@H](CS)C(=O)N[C@@H](CO)C(=O)OCCOCCOC(=O)c1ccc(-c2c3nc(c(-c4cc(S(=O)(=O)[O-])ccc4F)c4ccc([nH]4)c(-c4cc(S(=O)(=O)[O-])ccc4F)c4nc(c(-c5cc(S(=O)(=O)[O-])ccc5F)c5ccc2[nH]5)C=C4)C=C3)cc1)c1ccc(F)cc1
REMARK SMILES IDX 17 1 16 2 15 3 13 4 14 5 10 6 9 7 7 8 8 9 4 11 3 12 1 13
REMARK SMILES IDX 2 14 87 16 88 17 93 18 89 19 92 20 90 21 91 22 5 23 6 24
REMARK SMILES IDX 11 26 12 27 18 29 19 30 20 31 21 32 22 33 23 34 24 35 25 36
REMARK SMILES IDX 86 37 26 38 85 39 27 40 28 41 29 42 79 43 30 44 84 45 78 46
REMARK SMILES IDX 80 47 31 48 83 49 77 50 76 51 32 53 64 54 44 55 63 56 45 57
REMARK SMILES IDX 48 58 62 59 81 60 46 61 47 62 61 64 82 65 49 66 33 67 34 68
REMARK SMILES IDX 42 69 35 70 41 71 43 72 40 73 36 74 37 75 38 76 39 77 65 78
REMARK SMILES IDX 66 79 74 80 67 81 73 82 75 83 72 84 68 85 69 86 70 87 71 88
REMARK SMILES IDX 50 89 51 90 59 91 52 92 58 93 60 94 57 95 53 96 54 97 55 98
REMARK SMILES IDX 56 99
REMARK H PARENT 9 10 3 15 6 25 12 28 80 52 48 63
REMARK Flexibility Score: inf
ROOT
ATOM      1  C   UNL A   1      34.409  20.765  24.859  1.00  0.00     0.202 C 
ENDROOT
BRANCH   1   2
ATOM      2  C   UNL A   1      33.604  22.050  25.058  1.00  0.00     0.261 C 
BRANCH   2   3
ATOM      3  O   UNL A   1      34.449  23.206  24.911  1.00  0.00    -0.462 OA
BRANCH   3   4
ATOM      4  C   UNL A   1      34.441  23.785  23.678  1.00  0.00     0.331 C 
ATOM      5  O   UNL A   1      35.255  23.566  22.789  1.00  0.00    -0.250 OA
BRANCH   4   6
ATOM      6  C   UNL A   1      33.278  24.778  23.516  1.00  0.00     0.218 C 
BRANCH   6   7
ATOM      7  N   UNL A   1      33.694  26.168  23.269  1.00  0.00    -0.339 N 
ATOM      8  C   UNL A   1      33.026  27.348  23.257  1.00  0.00     0.244 C 
ATOM      9  O   UNL A   1      33.719  28.366  23.148  1.00  0.00    -0.273 OA
ATOM     10  H   UNL A   1      34.654  26.260  23.072  1.00  0.00     0.164 HD
BRANCH   8  11
ATOM     11  C   UNL A   1      31.507  27.513  23.483  1.00  0.00     0.181 C 
BRANCH  11  12
ATOM     12  N   UNL A   1      30.968  26.877  24.688  1.00  0.00    -0.339 N 
ATOM     13  O   UNL A   1      30.916  26.235  26.836  1.00  0.00    -0.269 OA
ATOM     14  C   UNL A   1      31.360  27.011  25.996  1.00  0.00     0.251 C 
ATOM     15  H   UNL A   1      30.212  26.263  24.537  1.00  0.00     0.164 HD
BRANCH  14  16
ATOM     16  C   UNL A   1      32.339  28.043  26.408  1.00  0.00     0.040 A 
ATOM     17  C   UNL A   1      33.703  27.757  26.544  1.00  0.00     0.017 A 
ATOM     18  C   UNL A   1      31.878  29.354  26.592  1.00  0.00     0.017 A 
ATOM     19  C   UNL A   1      34.589  28.761  26.941  1.00  0.00     0.040 A 
ATOM     20  C   UNL A   1      32.769  30.360  26.971  1.00  0.00     0.040 A 
ATOM     21  C   UNL A   1      34.113  30.051  27.155  1.00  0.00     0.123 A 
ATOM     22  F   UNL A   1      34.965  31.014  27.530  1.00  0.00    -0.207 F 
ENDBRANCH  14  16
ENDBRANCH  11  12
BRANCH  11  23
ATOM     23  C   UNL A   1      31.015  28.954  23.257  1.00  0.00     0.101 C 
BRANCH  23  24
ATOM     24  S   UNL A   1      29.342  29.142  22.564  1.00  0.00    -0.177 SA
ATOM     25  H   UNL A   1      28.630  28.005  22.786  1.00  0.00     0.102 HD
ENDBRANCH  23  24
ENDBRANCH  11  23
ENDBRANCH   8  11
ENDBRANCH   6   7
BRANCH   6  26
ATOM     26  C   UNL A   1      32.374  24.276  22.387  1.00  0.00     0.193 C 
BRANCH  26  27
ATOM     27  O   UNL A   1      33.104  24.091  21.177  1.00  0.00    -0.394 OA
ATOM     28  H   UNL A   1      33.415  24.949  20.852  1.00  0.00     0.210 HD
ENDBRANCH  26  27
ENDBRANCH   6  26
ENDBRANCH   4   6
ENDBRANCH   3   4
ENDBRANCH   2   3
ENDBRANCH   1   2
BRANCH   1  29
ATOM     29  O   UNL A   1      35.682  20.717  25.508  1.00  0.00    -0.374 OA
BRANCH  29  30
ATOM     30  C   UNL A   1      36.843  20.715  24.681  1.00  0.00     0.202 C 
BRANCH  30  31
ATOM     31  C   UNL A   1      38.187  21.023  25.353  1.00  0.00     0.261 C 
BRANCH  31  32
ATOM     32  O   UNL A   1      38.220  22.317  25.975  1.00  0.00    -0.460 OA
BRANCH  32  33
ATOM     33  C   UNL A   1      39.386  22.588  26.608  1.00  0.00     0.338 C 
ATOM     34  O   UNL A   1      40.372  21.860  26.676  1.00  0.00    -0.246 OA
BRANCH  33  35
ATOM     35  C   UNL A   1      39.417  23.983  27.076  1.00  0.00     0.060 A 
ATOM     36  C   UNL A   1      39.856  24.946  26.160  1.00  0.00     0.016 A 
ATOM     37  C   UNL A   1      39.121  24.336  28.395  1.00  0.00     0.016 A 
ATOM     38  C   UNL A   1      40.067  26.255  26.578  1.00  0.00     0.010 A 
ATOM     39  C   UNL A   1      39.339  25.656  28.815  1.00  0.00     0.010 A 
ATOM     40  C   UNL A   1      39.854  26.610  27.917  1.00  0.00    -0.014 A 
BRANCH  40  41
ATOM     41  C   UNL A   1      40.332  27.938  28.374  1.00  0.00     0.031 A 
ATOM     42  C   UNL A   1      41.785  28.289  28.205  1.00  0.00     0.074 A 
ATOM     43  C   UNL A   1      39.459  28.852  28.834  1.00  0.00     0.049 A 
ATOM     44  N   UNL A   1      42.398  29.423  28.432  1.00  0.00    -0.248 NA
ATOM     45  C   UNL A   1      42.664  27.217  27.713  1.00  0.00     0.031 C 
ATOM     46  C   UNL A   1      38.023  28.632  29.007  1.00  0.00     0.029 A 
ATOM     47  N   UNL A   1      39.648  30.155  29.220  1.00  0.00    -0.354 N 
ATOM     48  C   UNL A   1      43.733  29.206  28.098  1.00  0.00     0.074 A 
ATOM     49  C   UNL A   1      43.845  27.817  27.703  1.00  0.00     0.031 C 
ATOM     50  C   UNL A   1      37.459  29.766  29.456  1.00  0.00     0.029 A 
ATOM     51  C   UNL A   1      38.494  30.785  29.621  1.00  0.00     0.049 A 
ATOM     52  H   UNL A   1      40.528  30.596  29.211  1.00  0.00     0.167 HD
ATOM     53  C   UNL A   1      44.763  30.088  28.104  1.00  0.00     0.034 A 
ATOM     54  C   UNL A   1      38.297  32.040  30.072  1.00  0.00     0.034 A 
ATOM     55  C   UNL A   1      44.637  31.465  28.518  1.00  0.00     0.049 A 
ATOM     56  C   UNL A   1      39.472  32.986  30.129  1.00  0.00     0.074 A 
ATOM     57  C   UNL A   1      45.612  32.447  28.563  1.00  0.00     0.029 A 
ATOM     58  N   UNL A   1      43.462  32.055  28.971  1.00  0.00    -0.354 N 
ATOM     59  N   UNL A   1      40.724  32.774  29.790  1.00  0.00    -0.248 NA
ATOM     60  C   UNL A   1      39.201  34.345  30.612  1.00  0.00     0.031 C 
ATOM     61  C   UNL A   1      45.045  33.606  29.105  1.00  0.00     0.029 A 
ATOM     62  C   UNL A   1      43.696  33.375  29.327  1.00  0.00     0.049 A 
ATOM     63  H   UNL A   1      42.591  31.601  29.031  1.00  0.00     0.167 HD
ATOM     64  C   UNL A   1      41.383  33.984  29.995  1.00  0.00     0.074 A 
ATOM     65  C   UNL A   1      40.383  34.923  30.462  1.00  0.00     0.031 C 
ATOM     66  C   UNL A   1      42.692  34.294  29.812  1.00  0.00     0.034 A 
BRANCH  53  67
ATOM     67  C   UNL A   1      46.122  29.566  27.699  1.00  0.00     0.023 A 
ATOM     68  C   UNL A   1      46.400  29.164  26.380  1.00  0.00     0.031 A 
ATOM     69  C   UNL A   1      47.145  29.434  28.654  1.00  0.00     0.131 A 
ATOM     70  C   UNL A   1      47.642  28.588  26.069  1.00  0.00     0.055 A 
ATOM     71  C   UNL A   1      48.404  28.930  28.322  1.00  0.00     0.041 A 
ATOM     72  F   UNL A   1      46.933  29.777  29.934  1.00  0.00    -0.206 F 
ATOM     73  C   UNL A   1      48.654  28.490  27.026  1.00  0.00     0.022 A 
BRANCH  70  74
ATOM     74  S   UNL A   1      47.868  27.837  24.432  1.00  0.00     0.124 S 
ATOM     75  O   UNL A   1      47.607  26.428  24.715  1.00  0.00    -0.237 OA
ATOM     76  O   UNL A   1      46.864  28.525  23.629  1.00  0.00    -0.237 OA
ATOM     77  O   UNL A   1      49.256  28.152  24.100  1.00  0.00    -0.744 OA
ENDBRANCH  70  74
ENDBRANCH  53  67
BRANCH  54  78
ATOM     78  C   UNL A   1      36.945  32.477  30.525  1.00  0.00     0.023 A 
ATOM     79  C   UNL A   1      36.043  33.099  29.645  1.00  0.00     0.031 A 
ATOM     80  C   UNL A   1      36.556  32.326  31.868  1.00  0.00     0.131 A 
ATOM     81  C   UNL A   1      34.819  33.588  30.129  1.00  0.00     0.055 A 
ATOM     82  C   UNL A   1      35.317  32.767  32.332  1.00  0.00     0.041 A 
ATOM     83  F   UNL A   1      37.381  31.738  32.750  1.00  0.00    -0.206 F 
ATOM     84  C   UNL A   1      34.445  33.414  31.463  1.00  0.00     0.022 A 
BRANCH  81  85
ATOM     85  S   UNL A   1      33.754  34.530  29.004  1.00  0.00     0.124 S 
ATOM     86  O   UNL A   1      33.291  33.491  28.091  1.00  0.00    -0.237 OA
ATOM     87  O   UNL A   1      32.755  35.074  29.918  1.00  0.00    -0.237 OA
ATOM     88  O   UNL A   1      34.662  35.515  28.420  1.00  0.00    -0.744 OA
ENDBRANCH  81  85
ENDBRANCH  54  78
BRANCH  66  89
ATOM     89  C   UNL A   1      43.098  35.722  30.093  1.00  0.00     0.023 A 
ATOM     90  C   UNL A   1      42.981  36.729  29.118  1.00  0.00     0.031 A 
ATOM     91  C   UNL A   1      43.648  36.072  31.340  1.00  0.00     0.131 A 
ATOM     92  C   UNL A   1      43.476  38.016  29.377  1.00  0.00     0.055 A 
ATOM     93  C   UNL A   1      44.077  37.372  31.615  1.00  0.00     0.041 A 
ATOM     94  F   UNL A   1      43.785  35.153  32.309  1.00  0.00    -0.206 F 
ATOM     95  C   UNL A   1      44.010  38.347  30.625  1.00  0.00     0.022 A 
BRANCH  92  96
ATOM     96  S   UNL A   1      43.529  39.217  28.018  1.00  0.00     0.124 S 
ATOM     97  O   UNL A   1      42.394  40.078  28.329  1.00  0.00    -0.237 OA
ATOM     98  O   UNL A   1      44.849  39.816  28.185  1.00  0.00    -0.237 OA
ATOM     99  O   UNL A   1      43.370  38.390  26.823  1.00  0.00    -0.744 OA
ENDBRANCH  92  96
ENDBRANCH  66  89
ENDBRANCH  40  41
ENDBRANCH  33  35
ENDBRANCH  32  33
ENDBRANCH  31  32
ENDBRANCH  30  31
ENDBRANCH  29  30
ENDBRANCH   1  29
TORSDOF 25
ENDMDL
MODEL 3
REMARK VINA RESULT:      -9.8      2.535      3.756
REMARK SMILES O=C(N[C@@H](CS)C(=O)N[C@@H](CO)C(=O)OCCOCCOC(=O)c1ccc(-c2c3nc(c(-c4cc(S(=O)(=O)[O-])ccc4F)c4ccc([nH]4)c(-c4cc(S(=O)(=O)[O-])ccc4F)c4nc(c(-c5cc(S(=O)(=O)[O-])ccc5F)c5ccc2[nH]5)C=C4)C=C3)cc1)c1ccc(F)cc1
REMARK SMILES IDX 17 1 16 2 15 3 13 4 14 5 10 6 9 7 7 8 8 9 4 11 3 12 1 13
REMARK SMILES IDX 2 14 87 16 88 17 93 18 89 19 92 20 90 21 91 22 5 23 6 24
REMARK SMILES IDX 11 26 12 27 18 29 19 30 20 31 21 32 22 33 23 34 24 35 25 36
REMARK SMILES IDX 86 37 26 38 85 39 27 40 28 41 29 42 79 43 30 44 84 45 78 46
REMARK SMILES IDX 80 47 31 48 83 49 77 50 76 51 32 53 64 54 44 55 63 56 45 57
REMARK SMILES IDX 48 58 62 59 81 60 46 61 47 62 61 64 82 65 49 66 33 67 34 68
REMARK SMILES IDX 42 69 35 70 41 71 43 72 40 73 36 74 37 75 38 76 39 77 65 78
REMARK SMILES IDX 66 79 74 80 67 81 73 82 75 83 72 84 68 85 69 86 70 87 71 88
REMARK SMILES IDX 50 89 51 90 59 91 52 92 58 93 60 94 57 95 53 96 54 97 55 98
REMARK SMILES IDX 56 99
REMARK H PARENT 9 10 3 15 6 25 12 28 80 52 48 63
REMARK Flexibility Score: inf
ROOT
ATOM      1  C   UNL A   1      37.010  23.743  25.442  1.00  0.00     0.202 C 
ENDROOT
BRANCH   1   2
ATOM      2  C   UNL A   1      35.539  23.364  25.259  1.00  0.00     0.261 C 
BRANCH   2   3
ATOM      3  O   UNL A   1      34.774  24.501  24.818  1.00  0.00    -0.462 OA
BRANCH   3   4
ATOM      4  C   UNL A   1      34.392  24.480  23.511  1.00  0.00     0.331 C 
ATOM      5  O   UNL A   1      34.932  23.824  22.628  1.00  0.00    -0.250 OA
BRANCH   4   6
ATOM      6  C   UNL A   1      33.187  25.398  23.249  1.00  0.00     0.218 C 
BRANCH   6   7
ATOM      7  N   UNL A   1      33.515  26.831  23.186  1.00  0.00    -0.339 N 
ATOM      8  C   UNL A   1      32.795  27.958  23.410  1.00  0.00     0.244 C 
ATOM      9  O   UNL A   1      33.428  29.021  23.404  1.00  0.00    -0.273 OA
ATOM     10  H   UNL A   1      34.448  27.008  22.928  1.00  0.00     0.164 HD
BRANCH   8  11
ATOM     11  C   UNL A   1      31.296  27.997  23.780  1.00  0.00     0.181 C 
BRANCH  11  12
ATOM     12  N   UNL A   1      30.923  27.290  25.007  1.00  0.00    -0.339 N 
ATOM     13  O   UNL A   1      31.132  26.574  27.122  1.00  0.00    -0.269 OA
ATOM     14  C   UNL A   1      31.441  27.403  26.272  1.00  0.00     0.251 C 
ATOM     15  H   UNL A   1      30.191  26.637  24.910  1.00  0.00     0.164 HD
BRANCH  14  16
ATOM     16  C   UNL A   1      32.397  28.479  26.624  1.00  0.00     0.040 A 
ATOM     17  C   UNL A   1      31.971  29.781  26.915  1.00  0.00     0.017 A 
ATOM     18  C   UNL A   1      33.754  28.146  26.733  1.00  0.00     0.017 A 
ATOM     19  C   UNL A   1      32.909  30.765  27.237  1.00  0.00     0.040 A 
ATOM     20  C   UNL A   1      34.687  29.128  27.072  1.00  0.00     0.040 A 
ATOM     21  C   UNL A   1      34.257  30.430  27.307  1.00  0.00     0.123 A 
ATOM     22  F   UNL A   1      35.155  31.373  27.621  1.00  0.00    -0.207 F 
ENDBRANCH  14  16
ENDBRANCH  11  12
BRANCH  11  23
ATOM     23  C   UNL A   1      30.677  29.402  23.648  1.00  0.00     0.101 C 
BRANCH  23  24
ATOM     24  S   UNL A   1      29.011  29.490  22.921  1.00  0.00    -0.177 SA
ATOM     25  H   UNL A   1      28.941  30.553  22.077  1.00  0.00     0.102 HD
ENDBRANCH  23  24
ENDBRANCH  11  23
ENDBRANCH   8  11
ENDBRANCH   6   7
BRANCH   6  26
ATOM     26  C   UNL A   1      32.511  24.941  21.953  1.00  0.00     0.193 C 
BRANCH  26  27
ATOM     27  O   UNL A   1      33.222  25.397  20.805  1.00  0.00    -0.394 OA
ATOM     28  H   UNL A   1      33.699  26.212  21.022  1.00  0.00     0.210 HD
ENDBRANCH  26  27
ENDBRANCH   6  26
ENDBRANCH   4   6
ENDBRANCH   3   4
ENDBRANCH   2   3
ENDBRANCH   1   2
BRANCH   1  29
ATOM     29  O   UNL A   1      37.764  22.913  26.330  1.00  0.00    -0.374 OA
BRANCH  29  30
ATOM     30  C   UNL A   1      38.438  21.790  25.767  1.00  0.00     0.202 C 
BRANCH  30  31
ATOM     31  C   UNL A   1      39.882  21.536  26.219  1.00  0.00     0.261 C 
BRANCH  31  32
ATOM     32  O   UNL A   1      40.172  20.145  26.420  1.00  0.00    -0.460 OA
BRANCH  32  33
ATOM     33  C   UNL A   1      41.477  19.829  26.246  1.00  0.00     0.338 C 
ATOM     34  O   UNL A   1      41.932  18.738  25.915  1.00  0.00    -0.246 OA
BRANCH  33  35
ATOM     35  C   UNL A   1      42.322  21.032  26.325  1.00  0.00     0.060 A 
ATOM     36  C   UNL A   1      42.589  21.533  27.604  1.00  0.00     0.016 A 
ATOM     37  C   UNL A   1      42.760  21.714  25.186  1.00  0.00     0.016 A 
ATOM     38  C   UNL A   1      43.239  22.753  27.750  1.00  0.00     0.010 A 
ATOM     39  C   UNL A   1      43.412  22.946  25.337  1.00  0.00     0.010 A 
ATOM     40  C   UNL A   1      43.614  23.490  26.618  1.00  0.00    -0.014 A 
BRANCH  40  41
ATOM     41  C   UNL A   1      44.068  24.889  26.813  1.00  0.00     0.031 A 
ATOM     42  C   UNL A   1      43.106  25.895  27.385  1.00  0.00     0.074 A 
ATOM     43  C   UNL A   1      45.349  25.227  26.582  1.00  0.00     0.049 A 
ATOM     44  N   UNL A   1      43.315  27.138  27.739  1.00  0.00    -0.248 NA
ATOM     45  C   UNL A   1      41.722  25.437  27.587  1.00  0.00     0.031 C 
ATOM     46  C   UNL A   1      46.375  24.324  26.060  1.00  0.00     0.029 A 
ATOM     47  N   UNL A   1      46.011  26.412  26.774  1.00  0.00    -0.354 N 
ATOM     48  C   UNL A   1      42.095  27.608  28.218  1.00  0.00     0.074 A 
ATOM     49  C   UNL A   1      41.141  26.529  28.058  1.00  0.00     0.031 C 
ATOM     50  C   UNL A   1      47.541  24.988  25.984  1.00  0.00     0.029 A 
ATOM     51  C   UNL A   1      47.341  26.365  26.431  1.00  0.00     0.049 A 
ATOM     52  H   UNL A   1      45.573  27.222  27.125  1.00  0.00     0.167 HD
ATOM     53  C   UNL A   1      41.802  28.818  28.754  1.00  0.00     0.034 A 
ATOM     54  C   UNL A   1      48.287  27.324  26.471  1.00  0.00     0.034 A 
ATOM     55  C   UNL A   1      42.762  29.888  28.889  1.00  0.00     0.049 A 
ATOM     56  C   UNL A   1      47.923  28.684  27.014  1.00  0.00     0.074 A 
ATOM     57  C   UNL A   1      42.578  31.154  29.419  1.00  0.00     0.029 A 
ATOM     58  N   UNL A   1      44.089  29.822  28.479  1.00  0.00    -0.354 N 
ATOM     59  N   UNL A   1      46.770  29.107  27.483  1.00  0.00    -0.248 NA
ATOM     60  C   UNL A   1      48.992  29.688  27.051  1.00  0.00     0.031 C 
ATOM     61  C   UNL A   1      43.769  31.872  29.267  1.00  0.00     0.029 A 
ATOM     62  C   UNL A   1      44.724  31.033  28.714  1.00  0.00     0.049 A 
ATOM     63  H   UNL A   1      44.516  29.031  28.079  1.00  0.00     0.167 HD
ATOM     64  C   UNL A   1      46.987  30.421  27.895  1.00  0.00     0.074 A 
ATOM     65  C   UNL A   1      48.385  30.706  27.642  1.00  0.00     0.031 C 
ATOM     66  C   UNL A   1      46.115  31.310  28.435  1.00  0.00     0.034 A 
BRANCH  53  67
ATOM     67  C   UNL A   1      40.373  29.057  29.183  1.00  0.00     0.023 A 
ATOM     68  C   UNL A   1      39.976  28.957  30.529  1.00  0.00     0.031 A 
ATOM     69  C   UNL A   1      39.387  29.355  28.227  1.00  0.00     0.131 A 
ATOM     70  C   UNL A   1      38.620  29.085  30.870  1.00  0.00     0.055 A 
ATOM     71  C   UNL A   1      38.051  29.556  28.584  1.00  0.00     0.041 A 
ATOM     72  F   UNL A   1      39.700  29.439  26.925  1.00  0.00    -0.206 F 
ATOM     73  C   UNL A   1      37.659  29.407  29.910  1.00  0.00     0.022 A 
BRANCH  70  74
ATOM     74  S   UNL A   1      38.108  28.683  32.565  1.00  0.00     0.124 S 
ATOM     75  O   UNL A   1      39.144  29.349  33.351  1.00  0.00    -0.237 OA
ATOM     76  O   UNL A   1      36.775  29.268  32.638  1.00  0.00    -0.237 OA
ATOM     77  O   UNL A   1      38.153  27.223  32.599  1.00  0.00    -0.744 OA
ENDBRANCH  70  74
ENDBRANCH  53  67
BRANCH  54  78
ATOM     78  C   UNL A   1      49.664  27.049  25.967  1.00  0.00     0.023 A 
ATOM     79  C   UNL A   1      50.027  27.326  24.639  1.00  0.00     0.031 A 
ATOM     80  C   UNL A   1      50.625  26.450  26.801  1.00  0.00     0.131 A 
ATOM     81  C   UNL A   1      51.299  26.962  24.171  1.00  0.00     0.055 A 
ATOM     82  C   UNL A   1      51.906  26.137  26.346  1.00  0.00     0.041 A 
ATOM     83  F   UNL A   1      50.330  26.164  28.079  1.00  0.00    -0.206 F 
ATOM     84  C   UNL A   1      52.245  26.382  25.019  1.00  0.00     0.022 A 
BRANCH  81  85
ATOM     85  S   UNL A   1      51.675  27.184  22.411  1.00  0.00     0.124 S 
ATOM     86  O   UNL A   1      52.104  28.577  22.370  1.00  0.00    -0.237 OA
ATOM     87  O   UNL A   1      52.716  26.184  22.196  1.00  0.00    -0.237 OA
ATOM     88  O   UNL A   1      50.401  26.903  21.753  1.00  0.00    -0.744 OA
ENDBRANCH  81  85
ENDBRANCH  54  78
BRANCH  66  89
ATOM     89  C   UNL A   1      46.669  32.663  28.813  1.00  0.00     0.023 A 
ATOM     90  C   UNL A   1      46.658  33.744  27.913  1.00  0.00     0.031 A 
ATOM     91  C   UNL A   1      47.254  32.863  30.076  1.00  0.00     0.131 A 
ATOM     92  C   UNL A   1      47.287  34.950  28.258  1.00  0.00     0.055 A 
ATOM     93  C   UNL A   1      47.819  34.087  30.440  1.00  0.00     0.041 A 
ATOM     94  F   UNL A   1      47.295  31.868  30.977  1.00  0.00    -0.206 F 
ATOM     95  C   UNL A   1      47.854  35.133  29.522  1.00  0.00     0.022 A 
BRANCH  92  96
ATOM     96  S   UNL A   1      47.465  36.232  26.988  1.00  0.00     0.124 S 
ATOM     97  O   UNL A   1      46.150  36.220  26.357  1.00  0.00    -0.237 OA
ATOM     98  O   UNL A   1      47.779  37.415  27.783  1.00  0.00    -0.237 OA
ATOM     99  O   UNL A   1      48.558  35.738  26.153  1.00  0.00    -0.744 OA
ENDBRANCH  92  96
ENDBRANCH  66  89
ENDBRANCH  40  41
ENDBRANCH  33  35
ENDBRANCH  32  33
ENDBRANCH  31  32
ENDBRANCH  30  31
ENDBRANCH  29  30
ENDBRANCH   1  29
TORSDOF 25
ENDMDL
