MODEL 1
REMARK VINA RESULT:     -11.7      0.000      0.000
REMARK SMILES C[C@@H]1CC[C@H](C)[N@H+]1Cc1cc2c(cc1Cl)C=C(C(=O)OCCOCCOC(=O)c1ccc(-c3c4nc(c(-c5cc(S(=O)(=O)[O-])ccc5F)c5ccc([nH]5)c(-c5cc(S(=O)(=O)[O-])ccc5F)c5nc(c(-c6cc(S(=O)(=O)[O-])ccc6F)c6ccc3[nH]6)C=C5)C=C4)cc1)[C@@H](C(F)(F)F)O2
REMARK SMILES IDX 24 1 23 2 22 3 21 4 20 5 18 6 19 7 17 8 9 9 10 10 14 11
REMARK SMILES IDX 11 12 13 13 15 14 12 15 97 16 16 17 92 18 8 19 7 20 6 21
REMARK SMILES IDX 5 22 4 23 3 24 2 25 1 27 93 28 94 29 95 30 96 31 25 32 26 33
REMARK SMILES IDX 27 34 28 35 29 36 30 37 91 38 31 39 90 40 32 41 33 42 34 43
REMARK SMILES IDX 84 44 35 45 89 46 83 47 85 48 36 49 88 50 82 51 81 52 37 54
REMARK SMILES IDX 69 55 49 56 68 57 50 58 53 59 67 60 86 61 51 62 52 63 66 65
REMARK SMILES IDX 87 66 54 67 38 68 39 69 47 70 40 71 46 72 48 73 45 74 41 75
REMARK SMILES IDX 42 76 43 77 44 78 70 79 71 80 79 81 72 82 78 83 80 84 77 85
REMARK SMILES IDX 73 86 74 87 75 88 76 89 55 90 56 91 64 92 57 93 63 94 65 95
REMARK SMILES IDX 62 96 58 97 59 98 60 99 61 100
REMARK H PARENT 7 26 85 53 53 64
REMARK Flexibility Score: inf
ROOT
ATOM      1  C   UNL A   1      37.795  19.775  24.946  1.00  0.00     0.202 C 
ENDROOT
BRANCH   1   2
ATOM      2  O   UNL A   1      37.392  21.102  24.609  1.00  0.00    -0.374 OA
BRANCH   2   3
ATOM      3  C   UNL A   1      35.998  21.394  24.538  1.00  0.00     0.202 C 
BRANCH   3   4
ATOM      4  C   UNL A   1      35.013  20.291  24.939  1.00  0.00     0.261 C 
BRANCH   4   5
ATOM      5  O   UNL A   1      33.775  20.387  24.218  1.00  0.00    -0.460 OA
BRANCH   5   6
ATOM      6  C   UNL A   1      32.683  20.268  25.005  1.00  0.00     0.338 C 
ATOM      7  O   UNL A   1      32.299  19.259  25.578  1.00  0.00    -0.246 OA
BRANCH   6   8
ATOM      8  C   UNL A   1      32.066  21.583  25.235  1.00  0.00     0.087 C 
ATOM      9  C   UNL A   1      31.133  26.432  24.424  1.00  0.00     0.029 A 
ATOM     10  C   UNL A   1      31.002  25.593  25.562  1.00  0.00     0.058 A 
ATOM     11  C   UNL A   1      31.524  25.827  23.216  1.00  0.00     0.050 A 
ATOM     12  C   UNL A   1      31.236  24.216  25.476  1.00  0.00     0.128 A 
ATOM     13  C   UNL A   1      31.589  24.441  23.101  1.00  0.00     0.033 A 
ATOM     14  Cl  UNL A   1      32.156  26.696  21.859  1.00  0.00    -0.084 Cl
ATOM     15  C   UNL A   1      31.471  23.643  24.232  1.00  0.00     0.019 A 
ATOM     16  O   UNL A   1      31.246  23.482  26.634  1.00  0.00    -0.475 OA
ATOM     17  C   UNL A   1      31.763  22.235  24.108  1.00  0.00     0.027 C 
ATOM     18  C   UNL A   1      31.924  22.176  26.608  1.00  0.00     0.316 C 
BRANCH   9  19
ATOM     19  C   UNL A   1      30.918  27.931  24.571  1.00  0.00     0.301 C 
BRANCH  19  20
ATOM     20  N   UNL A   1      32.009  28.736  25.151  1.00  0.00    -0.327 N 
ATOM     21  C   UNL A   1      34.067  28.779  23.782  1.00  0.00     0.075 C 
ATOM     22  C   UNL A   1      33.367  28.190  25.000  1.00  0.00     0.181 C 
ATOM     23  C   UNL A   1      34.097  28.566  26.290  1.00  0.00     0.071 C 
ATOM     24  C   UNL A   1      32.985  28.599  27.314  1.00  0.00     0.071 C 
ATOM     25  C   UNL A   1      31.819  29.187  26.533  1.00  0.00     0.181 C 
ATOM     26  H   UNL A   1      31.937  29.557  24.549  1.00  0.00     0.348 HD
ATOM     27  C   UNL A   1      31.782  30.713  26.586  1.00  0.00     0.075 C 
ENDBRANCH  19  20
ENDBRANCH   9  19
BRANCH  18  28
ATOM     28  C   UNL A   1      33.278  22.259  27.330  1.00  0.00     0.430 C 
ATOM     29  F   UNL A   1      33.163  22.879  28.526  1.00  0.00    -0.167 F 
ATOM     30  F   UNL A   1      33.780  21.025  27.571  1.00  0.00    -0.167 F 
ATOM     31  F   UNL A   1      34.196  22.936  26.603  1.00  0.00    -0.167 F 
ENDBRANCH  18  28
ENDBRANCH   6   8
ENDBRANCH   5   6
ENDBRANCH   4   5
ENDBRANCH   3   4
ENDBRANCH   2   3
ENDBRANCH   1   2
BRANCH   1  32
ATOM     32  C   UNL A   1      39.160  19.562  25.612  1.00  0.00     0.261 C 
BRANCH  32  33
ATOM     33  O   UNL A   1      39.802  20.797  25.967  1.00  0.00    -0.460 OA
BRANCH  33  34
ATOM     34  C   UNL A   1      40.518  20.767  27.121  1.00  0.00     0.338 C 
ATOM     35  O   UNL A   1      40.968  19.781  27.683  1.00  0.00    -0.246 OA
BRANCH  34  36
ATOM     36  C   UNL A   1      40.872  22.150  27.486  1.00  0.00     0.060 A 
ATOM     37  C   UNL A   1      41.789  22.406  28.505  1.00  0.00     0.016 A 
ATOM     38  C   UNL A   1      40.275  23.204  26.782  1.00  0.00     0.016 A 
ATOM     39  C   UNL A   1      42.110  23.728  28.819  1.00  0.00     0.010 A 
ATOM     40  C   UNL A   1      40.592  24.523  27.100  1.00  0.00     0.010 A 
ATOM     41  C   UNL A   1      41.519  24.795  28.116  1.00  0.00    -0.014 A 
BRANCH  41  42
ATOM     42  C   UNL A   1      41.969  26.186  28.364  1.00  0.00     0.031 A 
ATOM     43  C   UNL A   1      43.348  26.641  27.994  1.00  0.00     0.074 A 
ATOM     44  C   UNL A   1      41.106  27.041  28.946  1.00  0.00     0.049 A 
ATOM     45  N   UNL A   1      43.860  27.841  28.071  1.00  0.00    -0.248 NA
ATOM     46  C   UNL A   1      44.274  25.621  27.479  1.00  0.00     0.031 C 
ATOM     47  C   UNL A   1      39.756  26.685  29.382  1.00  0.00     0.029 A 
ATOM     48  N   UNL A   1      41.223  28.370  29.264  1.00  0.00    -0.354 N 
ATOM     49  C   UNL A   1      45.162  27.732  27.597  1.00  0.00     0.074 A 
ATOM     50  C   UNL A   1      45.377  26.334  27.285  1.00  0.00     0.031 C 
ATOM     51  C   UNL A   1      39.158  27.776  29.883  1.00  0.00     0.029 A 
ATOM     52  C   UNL A   1      40.092  28.899  29.841  1.00  0.00     0.049 A 
ATOM     53  H   UNL A   1      42.039  28.895  29.095  1.00  0.00     0.167 HD
ATOM     54  C   UNL A   1      46.077  28.715  27.422  1.00  0.00     0.034 A 
ATOM     55  C   UNL A   1      39.831  30.146  30.286  1.00  0.00     0.034 A 
ATOM     56  C   UNL A   1      45.839  30.100  27.753  1.00  0.00     0.049 A 
ATOM     57  C   UNL A   1      40.876  31.216  30.105  1.00  0.00     0.074 A 
ATOM     58  C   UNL A   1      46.688  31.177  27.565  1.00  0.00     0.029 A 
ATOM     59  N   UNL A   1      44.689  30.600  28.348  1.00  0.00    -0.354 N 
ATOM     60  N   UNL A   1      42.062  31.122  29.549  1.00  0.00    -0.248 NA
ATOM     61  C   UNL A   1      40.550  32.564  30.591  1.00  0.00     0.031 C 
ATOM     62  C   UNL A   1      46.090  32.308  28.120  1.00  0.00     0.029 A 
ATOM     63  C   UNL A   1      44.823  31.963  28.566  1.00  0.00     0.049 A 
ATOM     64  H   UNL A   1      43.894  30.067  28.579  1.00  0.00     0.167 HD
ATOM     65  C   UNL A   1      42.609  32.401  29.591  1.00  0.00     0.074 A 
ATOM     66  C   UNL A   1      41.615  33.256  30.205  1.00  0.00     0.031 C 
ATOM     67  C   UNL A   1      43.824  32.823  29.160  1.00  0.00     0.034 A 
BRANCH  54  68
ATOM     68  C   UNL A   1      47.419  28.368  26.823  1.00  0.00     0.023 A 
ATOM     69  C   UNL A   1      47.536  28.135  25.439  1.00  0.00     0.031 A 
ATOM     70  C   UNL A   1      48.534  28.098  27.637  1.00  0.00     0.131 A 
ATOM     71  C   UNL A   1      48.722  27.601  24.919  1.00  0.00     0.055 A 
ATOM     72  C   UNL A   1      49.731  27.614  27.107  1.00  0.00     0.041 A 
ATOM     73  F   UNL A   1      48.475  28.295  28.964  1.00  0.00    -0.206 F 
ATOM     74  C   UNL A   1      49.823  27.347  25.744  1.00  0.00     0.022 A 
BRANCH  71  75
ATOM     75  S   UNL A   1      48.853  27.133  23.171  1.00  0.00     0.124 S 
ATOM     76  O   UNL A   1      50.299  27.148  22.965  1.00  0.00    -0.237 OA
ATOM     77  O   UNL A   1      48.235  25.809  23.164  1.00  0.00    -0.237 OA
ATOM     78  O   UNL A   1      48.115  28.178  22.471  1.00  0.00    -0.744 OA
ENDBRANCH  71  75
ENDBRANCH  54  68
BRANCH  55  79
ATOM     79  C   UNL A   1      38.490  30.436  30.876  1.00  0.00     0.023 A 
ATOM     80  C   UNL A   1      37.486  31.056  30.109  1.00  0.00     0.031 A 
ATOM     81  C   UNL A   1      38.237  30.214  32.239  1.00  0.00     0.131 A 
ATOM     82  C   UNL A   1      36.312  31.502  30.727  1.00  0.00     0.055 A 
ATOM     83  C   UNL A   1      37.031  30.588  32.834  1.00  0.00     0.041 A 
ATOM     84  F   UNL A   1      39.169  29.643  33.016  1.00  0.00    -0.206 F 
ATOM     85  C   UNL A   1      36.068  31.255  32.081  1.00  0.00     0.022 A 
BRANCH  82  86
ATOM     86  S   UNL A   1      35.132  32.549  29.830  1.00  0.00     0.124 S 
ATOM     87  O   UNL A   1      35.993  33.605  29.310  1.00  0.00    -0.237 OA
ATOM     88  O   UNL A   1      34.605  31.616  28.836  1.00  0.00    -0.237 OA
ATOM     89  O   UNL A   1      34.182  32.957  30.860  1.00  0.00    -0.744 OA
ENDBRANCH  82  86
ENDBRANCH  55  79
BRANCH  67  90
ATOM     90  C   UNL A   1      44.189  34.283  29.306  1.00  0.00     0.023 A 
ATOM     91  C   UNL A   1      44.680  34.762  30.537  1.00  0.00     0.031 A 
ATOM     92  C   UNL A   1      43.887  35.223  28.305  1.00  0.00     0.131 A 
ATOM     93  C   UNL A   1      44.797  36.140  30.756  1.00  0.00     0.055 A 
ATOM     94  C   UNL A   1      44.064  36.593  28.507  1.00  0.00     0.041 A 
ATOM     95  F   UNL A   1      43.406  34.823  27.117  1.00  0.00    -0.206 F 
ATOM     96  C   UNL A   1      44.502  37.058  29.744  1.00  0.00     0.022 A 
BRANCH  93  97
ATOM     97  S   UNL A   1      45.230  36.795  32.393  1.00  0.00     0.124 S 
ATOM     98  O   UNL A   1      43.927  37.218  32.902  1.00  0.00    -0.237 OA
ATOM     99  O   UNL A   1      45.805  35.625  33.049  1.00  0.00    -0.237 OA
ATOM    100  O   UNL A   1      46.164  37.878  32.104  1.00  0.00    -0.744 OA
ENDBRANCH  93  97
ENDBRANCH  67  90
ENDBRANCH  41  42
ENDBRANCH  34  36
ENDBRANCH  33  34
ENDBRANCH  32  33
ENDBRANCH   1  32
TORSDOF 20
ENDMDL
MODEL 2
REMARK VINA RESULT:     -11.7      1.277      7.332
REMARK SMILES C[C@@H]1CC[C@H](C)[N@H+]1Cc1cc2c(cc1Cl)C=C(C(=O)OCCOCCOC(=O)c1ccc(-c3c4nc(c(-c5cc(S(=O)(=O)[O-])ccc5F)c5ccc([nH]5)c(-c5cc(S(=O)(=O)[O-])ccc5F)c5nc(c(-c6cc(S(=O)(=O)[O-])ccc6F)c6ccc3[nH]6)C=C5)C=C4)cc1)[C@@H](C(F)(F)F)O2
REMARK SMILES IDX 24 1 23 2 22 3 21 4 20 5 18 6 19 7 17 8 9 9 10 10 14 11
REMARK SMILES IDX 11 12 13 13 15 14 12 15 97 16 16 17 92 18 8 19 7 20 6 21
REMARK SMILES IDX 5 22 4 23 3 24 2 25 1 27 93 28 94 29 95 30 96 31 25 32 26 33
REMARK SMILES IDX 27 34 28 35 29 36 30 37 91 38 31 39 90 40 32 41 33 42 34 43
REMARK SMILES IDX 84 44 35 45 89 46 83 47 85 48 36 49 88 50 82 51 81 52 37 54
REMARK SMILES IDX 69 55 49 56 68 57 50 58 53 59 67 60 86 61 51 62 52 63 66 65
REMARK SMILES IDX 87 66 54 67 38 68 39 69 47 70 40 71 46 72 48 73 45 74 41 75
REMARK SMILES IDX 42 76 43 77 44 78 70 79 71 80 79 81 72 82 78 83 80 84 77 85
REMARK SMILES IDX 73 86 74 87 75 88 76 89 55 90 56 91 64 92 57 93 63 94 65 95
REMARK SMILES IDX 62 96 58 97 59 98 60 99 61 100
REMARK H PARENT 7 26 85 53 53 64
REMARK Flexibility Score: inf
ROOT
ATOM      1  C   UNL A   1      38.045  20.710  24.957  1.00  0.00     0.202 C 
ENDROOT
BRANCH   1   2
ATOM      2  O   UNL A   1      36.654  20.468  25.170  1.00  0.00    -0.374 OA
BRANCH   2   3
ATOM      3  C   UNL A   1      36.146  19.158  24.931  1.00  0.00     0.202 C 
BRANCH   3   4
ATOM      4  C   UNL A   1      34.684  19.025  24.494  1.00  0.00     0.261 C 
BRANCH   4   5
ATOM      5  O   UNL A   1      33.981  20.274  24.577  1.00  0.00    -0.460 OA
BRANCH   5   6
ATOM      6  C   UNL A   1      32.726  20.155  25.063  1.00  0.00     0.338 C 
ATOM      7  O   UNL A   1      32.154  19.120  25.370  1.00  0.00    -0.246 OA
BRANCH   6   8
ATOM      8  C   UNL A   1      32.152  21.481  25.342  1.00  0.00     0.087 C 
ATOM      9  C   UNL A   1      31.047  26.286  24.496  1.00  0.00     0.029 A 
ATOM     10  C   UNL A   1      31.139  25.503  25.676  1.00  0.00     0.058 A 
ATOM     11  C   UNL A   1      31.208  25.624  23.266  1.00  0.00     0.050 A 
ATOM     12  C   UNL A   1      31.364  24.123  25.612  1.00  0.00     0.128 A 
ATOM     13  C   UNL A   1      31.262  24.235  23.205  1.00  0.00     0.033 A 
ATOM     14  Cl  UNL A   1      31.568  26.427  21.775  1.00  0.00    -0.084 Cl
ATOM     15  C   UNL A   1      31.364  23.491  24.374  1.00  0.00     0.019 A 
ATOM     16  O   UNL A   1      31.596  23.444  26.781  1.00  0.00    -0.475 OA
ATOM     17  C   UNL A   1      31.638  22.079  24.264  1.00  0.00     0.027 C 
ATOM     18  C   UNL A   1      32.267  22.138  26.688  1.00  0.00     0.316 C 
BRANCH   9  19
ATOM     19  C   UNL A   1      30.853  27.792  24.610  1.00  0.00     0.301 C 
BRANCH  19  20
ATOM     20  N   UNL A   1      31.974  28.600  25.123  1.00  0.00    -0.327 N 
ATOM     21  C   UNL A   1      33.948  28.644  23.637  1.00  0.00     0.075 C 
ATOM     22  C   UNL A   1      33.322  28.057  24.895  1.00  0.00     0.181 C 
ATOM     23  C   UNL A   1      34.124  28.438  26.139  1.00  0.00     0.071 C 
ATOM     24  C   UNL A   1      33.074  28.471  27.226  1.00  0.00     0.071 C 
ATOM     25  C   UNL A   1      31.863  29.055  26.513  1.00  0.00     0.181 C 
ATOM     26  H   UNL A   1      31.865  29.419  24.524  1.00  0.00     0.348 HD
ATOM     27  C   UNL A   1      31.826  30.581  26.564  1.00  0.00     0.075 C 
ENDBRANCH  19  20
ENDBRANCH   9  19
BRANCH  18  28
ATOM     28  C   UNL A   1      33.732  22.253  27.139  1.00  0.00     0.430 C 
ATOM     29  F   UNL A   1      33.856  23.058  28.218  1.00  0.00    -0.167 F 
ATOM     30  F   UNL A   1      34.233  21.045  27.486  1.00  0.00    -0.167 F 
ATOM     31  F   UNL A   1      34.521  22.753  26.161  1.00  0.00    -0.167 F 
ENDBRANCH  18  28
ENDBRANCH   6   8
ENDBRANCH   5   6
ENDBRANCH   4   5
ENDBRANCH   3   4
ENDBRANCH   2   3
ENDBRANCH   1   2
BRANCH   1  32
ATOM     32  C   UNL A   1      39.068  19.769  25.606  1.00  0.00     0.261 C 
BRANCH  32  33
ATOM     33  O   UNL A   1      40.328  20.410  25.860  1.00  0.00    -0.460 OA
BRANCH  33  34
ATOM     34  C   UNL A   1      40.673  20.511  27.170  1.00  0.00     0.338 C 
ATOM     35  O   UNL A   1      40.888  19.594  27.947  1.00  0.00    -0.246 OA
BRANCH  34  36
ATOM     36  C   UNL A   1      40.977  21.922  27.465  1.00  0.00     0.060 A 
ATOM     37  C   UNL A   1      41.885  22.261  28.468  1.00  0.00     0.016 A 
ATOM     38  C   UNL A   1      40.341  22.917  26.712  1.00  0.00     0.016 A 
ATOM     39  C   UNL A   1      42.157  23.608  28.715  1.00  0.00     0.010 A 
ATOM     40  C   UNL A   1      40.610  24.261  26.963  1.00  0.00     0.010 A 
ATOM     41  C   UNL A   1      41.527  24.617  27.961  1.00  0.00    -0.014 A 
BRANCH  41  42
ATOM     42  C   UNL A   1      41.926  26.034  28.140  1.00  0.00     0.031 A 
ATOM     43  C   UNL A   1      40.988  27.043  28.730  1.00  0.00     0.074 A 
ATOM     44  C   UNL A   1      43.160  26.402  27.746  1.00  0.00     0.049 A 
ATOM     45  N   UNL A   1      41.217  28.295  29.025  1.00  0.00    -0.248 NA
ATOM     46  C   UNL A   1      39.618  26.595  29.019  1.00  0.00     0.031 C 
ATOM     47  C   UNL A   1      44.133  25.506  27.122  1.00  0.00     0.029 A 
ATOM     48  N   UNL A   1      43.810  27.609  27.814  1.00  0.00    -0.354 N 
ATOM     49  C   UNL A   1      40.030  28.786  29.555  1.00  0.00     0.074 A 
ATOM     50  C   UNL A   1      39.066  27.708  29.489  1.00  0.00     0.031 C 
ATOM     51  C   UNL A   1      45.266  26.185  26.892  1.00  0.00     0.029 A 
ATOM     52  C   UNL A   1      45.090  27.572  27.314  1.00  0.00     0.049 A 
ATOM     53  H   UNL A   1      43.398  28.423  28.185  1.00  0.00     0.167 HD
ATOM     54  C   UNL A   1      39.783  30.016  30.065  1.00  0.00     0.034 A 
ATOM     55  C   UNL A   1      46.022  28.542  27.208  1.00  0.00     0.034 A 
ATOM     56  C   UNL A   1      40.761  31.078  30.107  1.00  0.00     0.049 A 
ATOM     57  C   UNL A   1      45.714  29.911  27.758  1.00  0.00     0.074 A 
ATOM     58  C   UNL A   1      40.620  32.343  30.651  1.00  0.00     0.029 A 
ATOM     59  N   UNL A   1      42.044  31.013  29.581  1.00  0.00    -0.354 N 
ATOM     60  N   UNL A   1      44.625  30.329  28.361  1.00  0.00    -0.248 NA
ATOM     61  C   UNL A   1      46.758  30.937  27.635  1.00  0.00     0.031 C 
ATOM     62  C   UNL A   1      41.780  33.068  30.379  1.00  0.00     0.029 A 
ATOM     63  C   UNL A   1      42.689  32.227  29.756  1.00  0.00     0.049 A 
ATOM     64  H   UNL A   1      42.439  30.220  29.150  1.00  0.00     0.167 HD
ATOM     65  C   UNL A   1      44.864  31.653  28.715  1.00  0.00     0.074 A 
ATOM     66  C   UNL A   1      46.211  31.960  28.280  1.00  0.00     0.031 C 
ATOM     67  C   UNL A   1      44.041  32.530  29.341  1.00  0.00     0.034 A 
BRANCH  54  68
ATOM     68  C   UNL A   1      38.422  30.306  30.652  1.00  0.00     0.023 A 
ATOM     69  C   UNL A   1      37.461  31.005  29.895  1.00  0.00     0.031 A 
ATOM     70  C   UNL A   1      38.140  30.047  32.005  1.00  0.00     0.131 A 
ATOM     71  C   UNL A   1      36.289  31.465  30.509  1.00  0.00     0.055 A 
ATOM     72  C   UNL A   1      36.948  30.463  32.600  1.00  0.00     0.041 A 
ATOM     73  F   UNL A   1      39.025  29.391  32.773  1.00  0.00    -0.206 F 
ATOM     74  C   UNL A   1      36.024  31.191  31.855  1.00  0.00     0.022 A 
BRANCH  71  75
ATOM     75  S   UNL A   1      35.108  32.510  29.613  1.00  0.00     0.124 S 
ATOM     76  O   UNL A   1      34.274  33.017  30.700  1.00  0.00    -0.237 OA
ATOM     77  O   UNL A   1      35.987  33.496  28.989  1.00  0.00    -0.237 OA
ATOM     78  O   UNL A   1      34.445  31.587  28.700  1.00  0.00    -0.744 OA
ENDBRANCH  71  75
ENDBRANCH  54  68
BRANCH  55  79
ATOM     79  C   UNL A   1      47.351  28.206  26.614  1.00  0.00     0.023 A 
ATOM     80  C   UNL A   1      47.514  28.122  25.219  1.00  0.00     0.031 A 
ATOM     81  C   UNL A   1      48.435  27.844  27.429  1.00  0.00     0.131 A 
ATOM     82  C   UNL A   1      48.704  27.612  24.686  1.00  0.00     0.055 A 
ATOM     83  C   UNL A   1      49.649  27.412  26.890  1.00  0.00     0.041 A 
ATOM     84  F   UNL A   1      48.324  27.890  28.765  1.00  0.00    -0.206 F 
ATOM     85  C   UNL A   1      49.781  27.276  25.511  1.00  0.00     0.022 A 
BRANCH  82  86
ATOM     86  S   UNL A   1      48.838  27.228  22.918  1.00  0.00     0.124 S 
ATOM     87  O   UNL A   1      48.037  28.286  22.313  1.00  0.00    -0.237 OA
ATOM     88  O   UNL A   1      50.281  27.327  22.702  1.00  0.00    -0.237 OA
ATOM     89  O   UNL A   1      48.288  25.881  22.815  1.00  0.00    -0.744 OA
ENDBRANCH  82  86
ENDBRANCH  55  79
BRANCH  67  90
ATOM     90  C   UNL A   1      44.541  33.928  29.629  1.00  0.00     0.023 A 
ATOM     91  C   UNL A   1      44.528  34.900  28.609  1.00  0.00     0.031 A 
ATOM     92  C   UNL A   1      45.185  34.247  30.837  1.00  0.00     0.131 A 
ATOM     93  C   UNL A   1      45.197  36.117  28.792  1.00  0.00     0.055 A 
ATOM     94  C   UNL A   1      45.799  35.485  31.037  1.00  0.00     0.041 A 
ATOM     95  F   UNL A   1      45.237  33.355  31.839  1.00  0.00    -0.206 F 
ATOM     96  C   UNL A   1      45.824  36.419  30.005  1.00  0.00     0.022 A 
BRANCH  93  97
ATOM     97  S   UNL A   1      45.375  37.302  27.429  1.00  0.00     0.124 S 
ATOM     98  O   UNL A   1      46.014  36.486  26.400  1.00  0.00    -0.237 OA
ATOM     99  O   UNL A   1      43.988  37.671  27.161  1.00  0.00    -0.237 OA
ATOM    100  O   UNL A   1      46.210  38.360  27.989  1.00  0.00    -0.744 OA
ENDBRANCH  93  97
ENDBRANCH  67  90
ENDBRANCH  41  42
ENDBRANCH  34  36
ENDBRANCH  33  34
ENDBRANCH  32  33
ENDBRANCH   1  32
TORSDOF 20
ENDMDL
MODEL 3
REMARK VINA RESULT:     -11.4      2.318      7.701
REMARK SMILES C[C@@H]1CC[C@H](C)[N@H+]1Cc1cc2c(cc1Cl)C=C(C(=O)OCCOCCOC(=O)c1ccc(-c3c4nc(c(-c5cc(S(=O)(=O)[O-])ccc5F)c5ccc([nH]5)c(-c5cc(S(=O)(=O)[O-])ccc5F)c5nc(c(-c6cc(S(=O)(=O)[O-])ccc6F)c6ccc3[nH]6)C=C5)C=C4)cc1)[C@@H](C(F)(F)F)O2
REMARK SMILES IDX 24 1 23 2 22 3 21 4 20 5 18 6 19 7 17 8 9 9 10 10 14 11
REMARK SMILES IDX 11 12 13 13 15 14 12 15 97 16 16 17 92 18 8 19 7 20 6 21
REMARK SMILES IDX 5 22 4 23 3 24 2 25 1 27 93 28 94 29 95 30 96 31 25 32 26 33
REMARK SMILES IDX 27 34 28 35 29 36 30 37 91 38 31 39 90 40 32 41 33 42 34 43
REMARK SMILES IDX 84 44 35 45 89 46 83 47 85 48 36 49 88 50 82 51 81 52 37 54
REMARK SMILES IDX 69 55 49 56 68 57 50 58 53 59 67 60 86 61 51 62 52 63 66 65
REMARK SMILES IDX 87 66 54 67 38 68 39 69 47 70 40 71 46 72 48 73 45 74 41 75
REMARK SMILES IDX 42 76 43 77 44 78 70 79 71 80 79 81 72 82 78 83 80 84 77 85
REMARK SMILES IDX 73 86 74 87 75 88 76 89 55 90 56 91 64 92 57 93 63 94 65 95
REMARK SMILES IDX 62 96 58 97 59 98 60 99 61 100
REMARK H PARENT 7 26 85 53 53 64
REMARK Flexibility Score: inf
ROOT
ATOM      1  C   UNL A   1      38.833  21.518  26.011  1.00  0.00     0.202 C 
ENDROOT
BRANCH   1   2
ATOM      2  O   UNL A   1      37.451  21.750  25.741  1.00  0.00    -0.374 OA
BRANCH   2   3
ATOM      3  C   UNL A   1      36.833  21.026  24.679  1.00  0.00     0.202 C 
BRANCH   3   4
ATOM      4  C   UNL A   1      35.680  20.081  25.032  1.00  0.00     0.261 C 
BRANCH   4   5
ATOM      5  O   UNL A   1      34.441  20.497  24.436  1.00  0.00    -0.460 OA
BRANCH   5   6
ATOM      6  C   UNL A   1      33.368  20.306  25.235  1.00  0.00     0.338 C 
ATOM      7  O   UNL A   1      33.056  19.274  25.810  1.00  0.00    -0.246 OA
BRANCH   6   8
ATOM      8  C   UNL A   1      32.670  21.579  25.475  1.00  0.00     0.087 C 
ATOM      9  C   UNL A   1      31.223  26.278  24.548  1.00  0.00     0.029 A 
ATOM     10  C   UNL A   1      31.308  25.503  25.734  1.00  0.00     0.058 A 
ATOM     11  C   UNL A   1      31.514  25.634  23.333  1.00  0.00     0.050 A 
ATOM     12  C   UNL A   1      31.650  24.146  25.689  1.00  0.00     0.128 A 
ATOM     13  C   UNL A   1      31.686  24.254  23.279  1.00  0.00     0.033 A 
ATOM     14  Cl  UNL A   1      31.896  26.467  21.864  1.00  0.00    -0.084 Cl
ATOM     15  C   UNL A   1      31.778  23.519  24.455  1.00  0.00     0.019 A 
ATOM     16  O   UNL A   1      31.866  23.487  26.871  1.00  0.00    -0.475 OA
ATOM     17  C   UNL A   1      32.175  22.134  24.365  1.00  0.00     0.027 C 
ATOM     18  C   UNL A   1      32.647  22.241  26.824  1.00  0.00     0.316 C 
BRANCH   9  19
ATOM     19  C   UNL A   1      30.898  27.762  24.646  1.00  0.00     0.301 C 
BRANCH  19  20
ATOM     20  N   UNL A   1      31.958  28.676  25.107  1.00  0.00    -0.327 N 
ATOM     21  C   UNL A   1      33.841  28.917  23.524  1.00  0.00     0.075 C 
ATOM     22  C   UNL A   1      33.340  28.269  24.808  1.00  0.00     0.181 C 
ATOM     23  C   UNL A   1      34.162  28.728  26.013  1.00  0.00     0.071 C 
ATOM     24  C   UNL A   1      33.170  28.656  27.151  1.00  0.00     0.071 C 
ATOM     25  C   UNL A   1      31.873  29.117  26.503  1.00  0.00     0.181 C 
ATOM     26  H   UNL A   1      31.739  29.481  24.519  1.00  0.00     0.348 HD
ATOM     27  C   UNL A   1      31.688  30.632  26.565  1.00  0.00     0.075 C 
ENDBRANCH  19  20
ENDBRANCH   9  19
BRANCH  18  28
ATOM     28  C   UNL A   1      34.067  22.476  27.362  1.00  0.00     0.430 C 
ATOM     29  F   UNL A   1      34.053  23.234  28.482  1.00  0.00    -0.167 F 
ATOM     30  F   UNL A   1      34.669  21.307  27.683  1.00  0.00    -0.167 F 
ATOM     31  F   UNL A   1      34.853  23.101  26.455  1.00  0.00    -0.167 F 
ENDBRANCH  18  28
ENDBRANCH   6   8
ENDBRANCH   5   6
ENDBRANCH   4   5
ENDBRANCH   3   4
ENDBRANCH   2   3
ENDBRANCH   1   2
BRANCH   1  32
ATOM     32  C   UNL A   1      39.420  20.130  25.727  1.00  0.00     0.261 C 
BRANCH  32  33
ATOM     33  O   UNL A   1      40.471  19.775  26.639  1.00  0.00    -0.460 OA
BRANCH  33  34
ATOM     34  C   UNL A   1      41.727  19.824  26.123  1.00  0.00     0.338 C 
ATOM     35  O   UNL A   1      42.272  18.979  25.431  1.00  0.00    -0.246 OA
BRANCH  34  36
ATOM     36  C   UNL A   1      42.267  21.178  26.340  1.00  0.00     0.060 A 
ATOM     37  C   UNL A   1      42.544  22.016  25.260  1.00  0.00     0.016 A 
ATOM     38  C   UNL A   1      42.489  21.609  27.654  1.00  0.00     0.016 A 
ATOM     39  C   UNL A   1      43.046  23.296  25.502  1.00  0.00     0.010 A 
ATOM     40  C   UNL A   1      42.995  22.886  27.893  1.00  0.00     0.010 A 
ATOM     41  C   UNL A   1      43.269  23.742  26.818  1.00  0.00    -0.014 A 
BRANCH  41  42
ATOM     42  C   UNL A   1      43.671  25.148  27.067  1.00  0.00     0.031 A 
ATOM     43  C   UNL A   1      42.695  26.163  27.580  1.00  0.00     0.074 A 
ATOM     44  C   UNL A   1      44.945  25.501  26.809  1.00  0.00     0.049 A 
ATOM     45  N   UNL A   1      42.913  27.404  27.924  1.00  0.00    -0.248 NA
ATOM     46  C   UNL A   1      41.295  25.735  27.718  1.00  0.00     0.031 C 
ATOM     47  C   UNL A   1      45.961  24.599  26.267  1.00  0.00     0.029 A 
ATOM     48  N   UNL A   1      45.604  26.694  26.968  1.00  0.00    -0.354 N 
ATOM     49  C   UNL A   1      41.687  27.907  28.340  1.00  0.00     0.074 A 
ATOM     50  C   UNL A   1      40.716  26.848  28.154  1.00  0.00     0.031 C 
ATOM     51  C   UNL A   1      47.123  25.261  26.169  1.00  0.00     0.029 A 
ATOM     52  C   UNL A   1      46.928  26.643  26.601  1.00  0.00     0.049 A 
ATOM     53  H   UNL A   1      45.170  27.508  27.313  1.00  0.00     0.167 HD
ATOM     54  C   UNL A   1      41.409  29.131  28.849  1.00  0.00     0.034 A 
ATOM     55  C   UNL A   1      47.882  27.598  26.611  1.00  0.00     0.034 A 
ATOM     56  C   UNL A   1      42.395  30.173  29.013  1.00  0.00     0.049 A 
ATOM     57  C   UNL A   1      47.541  28.961  27.156  1.00  0.00     0.074 A 
ATOM     58  C   UNL A   1      42.220  31.430  29.566  1.00  0.00     0.029 A 
ATOM     59  N   UNL A   1      43.724  30.095  28.619  1.00  0.00    -0.354 N 
ATOM     60  N   UNL A   1      46.404  29.387  27.654  1.00  0.00    -0.248 NA
ATOM     61  C   UNL A   1      48.610  29.969  27.162  1.00  0.00     0.031 C 
ATOM     62  C   UNL A   1      43.413  32.138  29.430  1.00  0.00     0.029 A 
ATOM     63  C   UNL A   1      44.367  31.293  28.885  1.00  0.00     0.049 A 
ATOM     64  H   UNL A   1      44.147  29.304  28.213  1.00  0.00     0.167 HD
ATOM     65  C   UNL A   1      46.628  30.699  28.058  1.00  0.00     0.074 A 
ATOM     66  C   UNL A   1      48.017  30.989  27.769  1.00  0.00     0.031 C 
ATOM     67  C   UNL A   1      45.759  31.579  28.616  1.00  0.00     0.034 A 
BRANCH  54  68
ATOM     68  C   UNL A   1      40.000  29.434  29.300  1.00  0.00     0.023 A 
ATOM     69  C   UNL A   1      39.666  29.362  30.667  1.00  0.00     0.031 A 
ATOM     70  C   UNL A   1      38.960  29.622  28.373  1.00  0.00     0.131 A 
ATOM     71  C   UNL A   1      38.323  29.425  31.061  1.00  0.00     0.055 A 
ATOM     72  C   UNL A   1      37.629  29.735  28.774  1.00  0.00     0.041 A 
ATOM     73  F   UNL A   1      39.223  29.691  27.057  1.00  0.00    -0.206 F 
ATOM     74  C   UNL A   1      37.304  29.619  30.123  1.00  0.00     0.022 A 
BRANCH  71  75
ATOM     75  S   UNL A   1      37.839  29.169  32.791  1.00  0.00     0.124 S 
ATOM     76  O   UNL A   1      36.585  29.915  32.864  1.00  0.00    -0.237 OA
ATOM     77  O   UNL A   1      37.706  27.716  32.857  1.00  0.00    -0.237 OA
ATOM     78  O   UNL A   1      38.945  29.737  33.552  1.00  0.00    -0.744 OA
ENDBRANCH  71  75
ENDBRANCH  54  68
BRANCH  55  79
ATOM     79  C   UNL A   1      49.258  27.248  26.148  1.00  0.00     0.023 A 
ATOM     80  C   UNL A   1      49.698  27.611  24.862  1.00  0.00     0.031 A 
ATOM     81  C   UNL A   1      50.102  26.445  26.932  1.00  0.00     0.131 A 
ATOM     82  C   UNL A   1      50.908  27.106  24.370  1.00  0.00     0.055 A 
ATOM     83  C   UNL A   1      51.345  26.010  26.468  1.00  0.00     0.041 A 
ATOM     84  F   UNL A   1      49.721  26.058  28.159  1.00  0.00    -0.206 F 
ATOM     85  C   UNL A   1      51.745  26.324  25.172  1.00  0.00     0.022 A 
BRANCH  82  86
ATOM     86  S   UNL A   1      51.363  27.322  22.627  1.00  0.00     0.124 S 
ATOM     87  O   UNL A   1      51.470  28.772  22.516  1.00  0.00    -0.237 OA
ATOM     88  O   UNL A   1      52.625  26.587  22.557  1.00  0.00    -0.237 OA
ATOM     89  O   UNL A   1      50.252  26.713  21.903  1.00  0.00    -0.744 OA
ENDBRANCH  82  86
ENDBRANCH  55  79
BRANCH  67  90
ATOM     90  C   UNL A   1      46.250  32.962  28.984  1.00  0.00     0.023 A 
ATOM     91  C   UNL A   1      46.374  33.949  27.986  1.00  0.00     0.031 A 
ATOM     92  C   UNL A   1      46.757  33.249  30.263  1.00  0.00     0.131 A 
ATOM     93  C   UNL A   1      47.042  35.147  28.265  1.00  0.00     0.055 A 
ATOM     94  C   UNL A   1      47.369  34.470  30.553  1.00  0.00     0.041 A 
ATOM     95  F   UNL A   1      46.676  32.340  31.249  1.00  0.00    -0.206 F 
ATOM     96  C   UNL A   1      47.531  35.418  29.547  1.00  0.00     0.022 A 
BRANCH  93  97
ATOM     97  S   UNL A   1      47.398  36.349  26.952  1.00  0.00     0.124 S 
ATOM     98  O   UNL A   1      46.614  37.505  27.380  1.00  0.00    -0.237 OA
ATOM     99  O   UNL A   1      48.846  36.502  27.063  1.00  0.00    -0.237 OA
ATOM    100  O   UNL A   1      46.926  35.694  25.737  1.00  0.00    -0.744 OA
ENDBRANCH  93  97
ENDBRANCH  67  90
ENDBRANCH  41  42
ENDBRANCH  34  36
ENDBRANCH  33  34
ENDBRANCH  32  33
ENDBRANCH   1  32
TORSDOF 20
ENDMDL
