MODEL 1
REMARK VINA RESULT:     -10.5      0.000      0.000
REMARK SMILES CCC1CCN(C(=O)NC[C@@H]2CC[C@H](C(=O)OCCOCCOC(=O)c3ccc(-c4c5nc(c(-c6cc(S(=O)(=O)[O-])ccc6F)c6ccc([nH]6)c(-c6cc(S(=O)(=O)[O-])ccc6F)c6nc(c(-c7cc(S(=O)(=O)[O-])ccc7F)c7ccc4[nH]7)C=C6)C=C5)cc3)O2)CC1
REMARK SMILES IDX 20 1 19 2 18 3 17 4 15 5 16 6 14 7 11 8 12 9 89 10 13 11
REMARK SMILES IDX 10 12 9 13 3 14 4 15 91 16 5 17 90 18 6 19 7 20 8 21 2 23
REMARK SMILES IDX 1 24 21 25 22 26 23 27 24 28 25 29 26 30 27 31 88 32 28 33
REMARK SMILES IDX 87 34 29 35 30 36 31 37 81 38 32 39 86 40 80 41 82 42 33 43
REMARK SMILES IDX 85 44 79 45 78 46 34 48 66 49 46 50 65 51 47 52 50 53 64 54
REMARK SMILES IDX 83 55 48 56 49 57 63 59 84 60 51 61 35 62 36 63 44 64 37 65
REMARK SMILES IDX 43 66 45 67 42 68 38 69 39 70 40 71 41 72 67 73 68 74 76 75
REMARK SMILES IDX 69 76 75 77 77 78 74 79 70 80 71 81 72 82 73 83 52 84 53 85
REMARK SMILES IDX 61 86 54 87 60 88 62 89 59 90 55 91 56 92 57 93 58 94
REMARK H PARENT 9 22 82 47 50 58
REMARK Flexibility Score: inf
ROOT
ATOM      1  O   UNL A   1      33.418  30.036  25.865  1.00  0.00    -0.374 OA
ENDROOT
BRANCH   1   2
ATOM      2  C   UNL A   1      33.689  28.658  26.120  1.00  0.00     0.202 C 
BRANCH   2   3
ATOM      3  C   UNL A   1      32.732  27.633  25.505  1.00  0.00     0.261 C 
BRANCH   3   4
ATOM      4  O   UNL A   1      33.292  26.953  24.367  1.00  0.00    -0.461 OA
BRANCH   4   5
ATOM      5  C   UNL A   1      33.050  27.529  23.159  1.00  0.00     0.335 C 
ATOM      6  O   UNL A   1      33.485  28.620  22.801  1.00  0.00    -0.249 OA
BRANCH   5   7
ATOM      7  C   UNL A   1      32.130  26.687  22.265  1.00  0.00     0.228 C 
ATOM      8  C   UNL A   1      31.148  24.697  23.019  1.00  0.00     0.138 C 
ATOM      9  C   UNL A   1      32.457  24.333  22.333  1.00  0.00     0.037 C 
ATOM     10  O   UNL A   1      31.059  26.132  23.034  1.00  0.00    -0.361 OA
ATOM     11  C   UNL A   1      32.749  25.543  21.484  1.00  0.00     0.047 C 
BRANCH   8  12
ATOM     12  C   UNL A   1      30.946  24.088  24.422  1.00  0.00     0.149 C 
BRANCH  12  13
ATOM     13  N   UNL A   1      32.134  24.126  25.265  1.00  0.00    -0.335 N 
ATOM     14  C   UNL A   1      33.576  19.452  24.240  1.00  0.00    -0.008 C 
ATOM     15  C   UNL A   1      34.668  20.273  24.965  1.00  0.00     0.025 C 
ATOM     16  C   UNL A   1      32.407  20.381  23.879  1.00  0.00     0.025 C 
ATOM     17  C   UNL A   1      34.115  21.133  26.111  1.00  0.00     0.121 C 
ATOM     18  C   UNL A   1      31.898  21.108  25.111  1.00  0.00     0.121 C 
ATOM     19  N   UNL A   1      32.959  21.924  25.669  1.00  0.00    -0.325 N 
ATOM     20  C   UNL A   1      33.009  23.273  25.818  1.00  0.00     0.317 C 
ATOM     21  O   UNL A   1      33.895  23.820  26.482  1.00  0.00    -0.249 OA
ATOM     22  H   UNL A   1      32.363  25.055  25.498  1.00  0.00     0.165 HD
BRANCH  14  23
ATOM     23  C   UNL A   1      33.187  18.205  25.069  1.00  0.00     0.000 C 
ATOM     24  C   UNL A   1      33.305  16.868  24.347  1.00  0.00     0.004 C 
ENDBRANCH  14  23
ENDBRANCH  12  13
ENDBRANCH   8  12
ENDBRANCH   5   7
ENDBRANCH   4   5
ENDBRANCH   3   4
ENDBRANCH   2   3
ENDBRANCH   1   2
BRANCH   1  25
ATOM     25  C   UNL A   1      32.068  30.475  25.990  1.00  0.00     0.202 C 
BRANCH  25  26
ATOM     26  C   UNL A   1      31.827  31.895  26.524  1.00  0.00     0.261 C 
BRANCH  26  27
ATOM     27  O   UNL A   1      32.455  32.143  27.796  1.00  0.00    -0.460 OA
BRANCH  27  28
ATOM     28  C   UNL A   1      33.432  33.084  27.769  1.00  0.00     0.338 C 
ATOM     29  O   UNL A   1      33.281  34.289  27.591  1.00  0.00    -0.246 OA
BRANCH  28  30
ATOM     30  C   UNL A   1      34.731  32.509  28.156  1.00  0.00     0.060 A 
ATOM     31  C   UNL A   1      34.735  31.218  28.702  1.00  0.00     0.016 A 
ATOM     32  C   UNL A   1      35.910  33.255  28.094  1.00  0.00     0.016 A 
ATOM     33  C   UNL A   1      35.912  30.681  29.221  1.00  0.00     0.010 A 
ATOM     34  C   UNL A   1      37.088  32.716  28.627  1.00  0.00     0.010 A 
ATOM     35  C   UNL A   1      37.090  31.439  29.219  1.00  0.00    -0.014 A 
BRANCH  35  36
ATOM     36  C   UNL A   1      38.283  30.948  29.957  1.00  0.00     0.031 A 
ATOM     37  C   UNL A   1      39.183  29.935  29.303  1.00  0.00     0.074 A 
ATOM     38  C   UNL A   1      38.570  31.410  31.187  1.00  0.00     0.049 A 
ATOM     39  N   UNL A   1      40.237  29.325  29.783  1.00  0.00    -0.248 NA
ATOM     40  C   UNL A   1      38.844  29.557  27.923  1.00  0.00     0.031 C 
ATOM     41  C   UNL A   1      37.797  32.419  31.906  1.00  0.00     0.029 A 
ATOM     42  N   UNL A   1      39.582  31.079  32.054  1.00  0.00    -0.354 N 
ATOM     43  C   UNL A   1      40.681  28.481  28.769  1.00  0.00     0.074 A 
ATOM     44  C   UNL A   1      39.763  28.640  27.661  1.00  0.00     0.031 C 
ATOM     45  C   UNL A   1      38.347  32.610  33.116  1.00  0.00     0.029 A 
ATOM     46  C   UNL A   1      39.486  31.708  33.274  1.00  0.00     0.049 A 
ATOM     47  H   UNL A   1      40.307  30.453  31.826  1.00  0.00     0.167 HD
ATOM     48  C   UNL A   1      41.757  27.655  28.767  1.00  0.00     0.034 A 
ATOM     49  C   UNL A   1      40.208  31.545  34.401  1.00  0.00     0.034 A 
ATOM     50  C   UNL A   1      42.658  27.507  29.884  1.00  0.00     0.049 A 
ATOM     51  C   UNL A   1      41.346  30.554  34.407  1.00  0.00     0.074 A 
ATOM     52  C   UNL A   1      43.807  26.739  29.970  1.00  0.00     0.029 A 
ATOM     53  N   UNL A   1      42.501  28.121  31.120  1.00  0.00    -0.354 N 
ATOM     54  N   UNL A   1      41.775  29.781  33.436  1.00  0.00    -0.248 NA
ATOM     55  C   UNL A   1      42.096  30.411  35.663  1.00  0.00     0.031 C 
ATOM     56  C   UNL A   1      44.296  26.824  31.277  1.00  0.00     0.029 A 
ATOM     57  C   UNL A   1      43.500  27.707  31.989  1.00  0.00     0.049 A 
ATOM     58  H   UNL A   1      41.784  28.757  31.347  1.00  0.00     0.167 HD
ATOM     59  C   UNL A   1      42.854  29.073  33.960  1.00  0.00     0.074 A 
ATOM     60  C   UNL A   1      43.021  29.522  35.326  1.00  0.00     0.031 C 
ATOM     61  C   UNL A   1      43.639  28.140  33.362  1.00  0.00     0.034 A 
BRANCH  48  62
ATOM     62  C   UNL A   1      41.976  26.805  27.538  1.00  0.00     0.023 A 
ATOM     63  C   UNL A   1      41.600  25.451  27.490  1.00  0.00     0.031 A 
ATOM     64  C   UNL A   1      42.602  27.354  26.405  1.00  0.00     0.131 A 
ATOM     65  C   UNL A   1      41.919  24.676  26.363  1.00  0.00     0.055 A 
ATOM     66  C   UNL A   1      42.847  26.598  25.257  1.00  0.00     0.041 A 
ATOM     67  F   UNL A   1      43.003  28.636  26.399  1.00  0.00    -0.206 F 
ATOM     68  C   UNL A   1      42.519  25.246  25.239  1.00  0.00     0.022 A 
BRANCH  65  69
ATOM     69  S   UNL A   1      41.672  22.881  26.447  1.00  0.00     0.124 S 
ATOM     70  O   UNL A   1      40.215  22.780  26.441  1.00  0.00    -0.237 OA
ATOM     71  O   UNL A   1      42.351  22.413  25.243  1.00  0.00    -0.237 OA
ATOM     72  O   UNL A   1      42.309  22.505  27.708  1.00  0.00    -0.744 OA
ENDBRANCH  65  69
ENDBRANCH  48  62
BRANCH  49  73
ATOM     73  C   UNL A   1      39.832  32.282  35.642  1.00  0.00     0.023 A 
ATOM     74  C   UNL A   1      38.914  31.750  36.562  1.00  0.00     0.031 A 
ATOM     75  C   UNL A   1      40.365  33.557  35.903  1.00  0.00     0.131 A 
ATOM     76  C   UNL A   1      38.535  32.505  37.684  1.00  0.00     0.055 A 
ATOM     77  C   UNL A   1      40.023  34.281  37.046  1.00  0.00     0.041 A 
ATOM     78  F   UNL A   1      41.239  34.116  35.051  1.00  0.00    -0.206 F 
ATOM     79  C   UNL A   1      39.095  33.759  37.940  1.00  0.00     0.022 A 
BRANCH  76  80
ATOM     80  S   UNL A   1      37.243  31.852  38.778  1.00  0.00     0.124 S 
ATOM     81  O   UNL A   1      37.843  32.041  40.094  1.00  0.00    -0.237 OA
ATOM     82  O   UNL A   1      36.109  32.713  38.459  1.00  0.00    -0.237 OA
ATOM     83  O   UNL A   1      37.105  30.461  38.350  1.00  0.00    -0.744 OA
ENDBRANCH  76  80
ENDBRANCH  49  73
BRANCH  61  84
ATOM     84  C   UNL A   1      44.764  27.558  34.183  1.00  0.00     0.023 A 
ATOM     85  C   UNL A   1      44.565  26.456  35.033  1.00  0.00     0.031 A 
ATOM     86  C   UNL A   1      46.055  28.112  34.108  1.00  0.00     0.131 A 
ATOM     87  C   UNL A   1      45.631  25.968  35.805  1.00  0.00     0.055 A 
ATOM     88  C   UNL A   1      47.123  27.587  34.837  1.00  0.00     0.041 A 
ATOM     89  F   UNL A   1      46.301  29.167  33.316  1.00  0.00    -0.206 F 
ATOM     90  C   UNL A   1      46.912  26.516  35.700  1.00  0.00     0.022 A 
BRANCH  87  91
ATOM     91  S   UNL A   1      45.307  24.646  37.005  1.00  0.00     0.124 S 
ATOM     92  O   UNL A   1      46.347  24.880  38.002  1.00  0.00    -0.237 OA
ATOM     93  O   UNL A   1      43.941  24.934  37.429  1.00  0.00    -0.237 OA
ATOM     94  O   UNL A   1      45.466  23.423  36.220  1.00  0.00    -0.744 OA
ENDBRANCH  87  91
ENDBRANCH  61  84
ENDBRANCH  35  36
ENDBRANCH  28  30
ENDBRANCH  27  28
ENDBRANCH  26  27
ENDBRANCH  25  26
ENDBRANCH   1  25
TORSDOF 20
ENDMDL
MODEL 2
REMARK VINA RESULT:     -10.4      2.339      2.978
REMARK SMILES CCC1CCN(C(=O)NC[C@@H]2CC[C@H](C(=O)OCCOCCOC(=O)c3ccc(-c4c5nc(c(-c6cc(S(=O)(=O)[O-])ccc6F)c6ccc([nH]6)c(-c6cc(S(=O)(=O)[O-])ccc6F)c6nc(c(-c7cc(S(=O)(=O)[O-])ccc7F)c7ccc4[nH]7)C=C6)C=C5)cc3)O2)CC1
REMARK SMILES IDX 20 1 19 2 18 3 17 4 15 5 16 6 14 7 11 8 12 9 89 10 13 11
REMARK SMILES IDX 10 12 9 13 3 14 4 15 91 16 5 17 90 18 6 19 7 20 8 21 2 23
REMARK SMILES IDX 1 24 21 25 22 26 23 27 24 28 25 29 26 30 27 31 88 32 28 33
REMARK SMILES IDX 87 34 29 35 30 36 31 37 81 38 32 39 86 40 80 41 82 42 33 43
REMARK SMILES IDX 85 44 79 45 78 46 34 48 66 49 46 50 65 51 47 52 50 53 64 54
REMARK SMILES IDX 83 55 48 56 49 57 63 59 84 60 51 61 35 62 36 63 44 64 37 65
REMARK SMILES IDX 43 66 45 67 42 68 38 69 39 70 40 71 41 72 67 73 68 74 76 75
REMARK SMILES IDX 69 76 75 77 77 78 74 79 70 80 71 81 72 82 73 83 52 84 53 85
REMARK SMILES IDX 61 86 54 87 60 88 62 89 59 90 55 91 56 92 57 93 58 94
REMARK H PARENT 9 22 82 47 50 58
REMARK Flexibility Score: inf
ROOT
ATOM      1  O   UNL A   1      32.910  30.943  27.654  1.00  0.00    -0.374 OA
ENDROOT
BRANCH   1   2
ATOM      2  C   UNL A   1      34.227  30.710  27.159  1.00  0.00     0.202 C 
BRANCH   2   3
ATOM      3  C   UNL A   1      34.727  29.262  27.159  1.00  0.00     0.261 C 
BRANCH   3   4
ATOM      4  O   UNL A   1      33.669  28.302  27.323  1.00  0.00    -0.461 OA
BRANCH   4   5
ATOM      5  C   UNL A   1      33.151  27.793  26.173  1.00  0.00     0.335 C 
ATOM      6  O   UNL A   1      33.814  27.338  25.244  1.00  0.00    -0.249 OA
BRANCH   5   7
ATOM      7  C   UNL A   1      31.619  27.871  26.116  1.00  0.00     0.228 C 
ATOM      8  C   UNL A   1      30.287  25.954  25.911  1.00  0.00     0.138 C 
ATOM      9  C   UNL A   1      30.551  26.483  24.508  1.00  0.00     0.037 C 
ATOM     10  O   UNL A   1      31.038  26.772  26.824  1.00  0.00    -0.361 OA
ATOM     11  C   UNL A   1      30.959  27.913  24.750  1.00  0.00     0.047 C 
BRANCH   8  12
ATOM     12  C   UNL A   1      30.566  24.451  26.114  1.00  0.00     0.149 C 
BRANCH  12  13
ATOM     13  N   UNL A   1      30.772  23.710  24.875  1.00  0.00    -0.335 N 
ATOM     14  C   UNL A   1      35.290  21.973  26.118  1.00  0.00    -0.008 C 
ATOM     15  C   UNL A   1      34.698  21.273  24.872  1.00  0.00     0.025 C 
ATOM     16  C   UNL A   1      34.223  22.893  26.730  1.00  0.00     0.025 C 
ATOM     17  C   UNL A   1      34.013  22.247  23.901  1.00  0.00     0.121 C 
ATOM     18  C   UNL A   1      33.687  23.862  25.691  1.00  0.00     0.121 C 
ATOM     19  N   UNL A   1      33.069  23.121  24.607  1.00  0.00    -0.325 N 
ATOM     20  C   UNL A   1      31.775  23.137  24.194  1.00  0.00     0.317 C 
ATOM     21  O   UNL A   1      31.425  22.600  23.139  1.00  0.00    -0.249 OA
ATOM     22  H   UNL A   1      29.920  23.597  24.395  1.00  0.00     0.165 HD
BRANCH  14  23
ATOM     23  C   UNL A   1      36.629  22.666  25.772  1.00  0.00     0.000 C 
ATOM     24  C   UNL A   1      37.720  21.757  25.219  1.00  0.00     0.004 C 
ENDBRANCH  14  23
ENDBRANCH  12  13
ENDBRANCH   8  12
ENDBRANCH   5   7
ENDBRANCH   4   5
ENDBRANCH   3   4
ENDBRANCH   2   3
ENDBRANCH   1   2
BRANCH   1  25
ATOM     25  C   UNL A   1      32.087  31.853  26.931  1.00  0.00     0.202 C 
BRANCH  25  26
ATOM     26  C   UNL A   1      32.351  33.356  27.116  1.00  0.00     0.261 C 
BRANCH  26  27
ATOM     27  O   UNL A   1      32.336  33.773  28.494  1.00  0.00    -0.460 OA
BRANCH  27  28
ATOM     28  C   UNL A   1      33.350  34.605  28.842  1.00  0.00     0.338 C 
ATOM     29  O   UNL A   1      33.292  35.827  28.937  1.00  0.00    -0.246 OA
BRANCH  28  30
ATOM     30  C   UNL A   1      34.534  33.843  29.274  1.00  0.00     0.060 A 
ATOM     31  C   UNL A   1      34.346  32.829  30.222  1.00  0.00     0.016 A 
ATOM     32  C   UNL A   1      35.819  34.185  28.849  1.00  0.00     0.016 A 
ATOM     33  C   UNL A   1      35.446  32.174  30.775  1.00  0.00     0.010 A 
ATOM     34  C   UNL A   1      36.923  33.533  29.416  1.00  0.00     0.010 A 
ATOM     35  C   UNL A   1      36.743  32.547  30.402  1.00  0.00    -0.014 A 
BRANCH  35  36
ATOM     36  C   UNL A   1      37.908  31.996  31.144  1.00  0.00     0.031 A 
ATOM     37  C   UNL A   1      38.720  30.894  30.520  1.00  0.00     0.074 A 
ATOM     38  C   UNL A   1      38.248  32.484  32.351  1.00  0.00     0.049 A 
ATOM     39  N   UNL A   1      39.733  30.226  31.010  1.00  0.00    -0.248 NA
ATOM     40  C   UNL A   1      38.332  30.489  29.160  1.00  0.00     0.031 C 
ATOM     41  C   UNL A   1      37.563  33.575  33.039  1.00  0.00     0.029 A 
ATOM     42  N   UNL A   1      39.246  32.112  33.217  1.00  0.00    -0.354 N 
ATOM     43  C   UNL A   1      40.098  29.313  30.025  1.00  0.00     0.074 A 
ATOM     44  C   UNL A   1      39.177  29.497  28.923  1.00  0.00     0.031 C 
ATOM     45  C   UNL A   1      38.145  33.771  34.233  1.00  0.00     0.029 A 
ATOM     46  C   UNL A   1      39.217  32.793  34.413  1.00  0.00     0.049 A 
ATOM     47  H   UNL A   1      39.919  31.425  33.005  1.00  0.00     0.167 HD
ATOM     48  C   UNL A   1      41.110  28.409  30.042  1.00  0.00     0.034 A 
ATOM     49  C   UNL A   1      39.942  32.620  35.536  1.00  0.00     0.034 A 
ATOM     50  C   UNL A   1      42.014  28.238  31.152  1.00  0.00     0.049 A 
ATOM     51  C   UNL A   1      41.004  31.548  35.567  1.00  0.00     0.074 A 
ATOM     52  C   UNL A   1      43.104  27.390  31.254  1.00  0.00     0.029 A 
ATOM     53  N   UNL A   1      41.923  28.909  32.365  1.00  0.00    -0.354 N 
ATOM     54  N   UNL A   1      41.358  30.708  34.622  1.00  0.00    -0.248 NA
ATOM     55  C   UNL A   1      41.761  31.399  36.817  1.00  0.00     0.031 C 
ATOM     56  C   UNL A   1      43.619  27.489  32.551  1.00  0.00     0.029 A 
ATOM     57  C   UNL A   1      42.902  28.456  33.237  1.00  0.00     0.049 A 
ATOM     58  H   UNL A   1      41.259  29.605  32.576  1.00  0.00     0.167 HD
ATOM     59  C   UNL A   1      42.390  29.942  35.159  1.00  0.00     0.074 A 
ATOM     60  C   UNL A   1      42.612  30.431  36.505  1.00  0.00     0.031 C 
ATOM     61  C   UNL A   1      43.094  28.931  34.589  1.00  0.00     0.034 A 
BRANCH  48  62
ATOM     62  C   UNL A   1      41.245  27.498  28.845  1.00  0.00     0.023 A 
ATOM     63  C   UNL A   1      42.245  27.685  27.874  1.00  0.00     0.031 A 
ATOM     64  C   UNL A   1      40.335  26.443  28.658  1.00  0.00     0.131 A 
ATOM     65  C   UNL A   1      42.264  26.876  26.726  1.00  0.00     0.055 A 
ATOM     66  C   UNL A   1      40.408  25.592  27.553  1.00  0.00     0.041 A 
ATOM     67  F   UNL A   1      39.346  26.228  29.541  1.00  0.00    -0.206 F 
ATOM     68  C   UNL A   1      41.367  25.817  26.571  1.00  0.00     0.022 A 
BRANCH  65  69
ATOM     69  S   UNL A   1      43.386  27.319  25.371  1.00  0.00     0.124 S 
ATOM     70  O   UNL A   1      44.298  28.249  26.031  1.00  0.00    -0.237 OA
ATOM     71  O   UNL A   1      43.950  26.028  24.993  1.00  0.00    -0.237 OA
ATOM     72  O   UNL A   1      42.500  27.927  24.379  1.00  0.00    -0.744 OA
ENDBRANCH  65  69
ENDBRANCH  48  62
BRANCH  49  73
ATOM     73  C   UNL A   1      39.641  33.431  36.751  1.00  0.00     0.023 A 
ATOM     74  C   UNL A   1      38.913  32.899  37.826  1.00  0.00     0.031 A 
ATOM     75  C   UNL A   1      40.052  34.774  36.832  1.00  0.00     0.131 A 
ATOM     76  C   UNL A   1      38.592  33.715  38.924  1.00  0.00     0.055 A 
ATOM     77  C   UNL A   1      39.774  35.566  37.946  1.00  0.00     0.041 A 
ATOM     78  F   UNL A   1      40.743  35.335  35.826  1.00  0.00    -0.206 F 
ATOM     79  C   UNL A   1      39.031  35.040  38.998  1.00  0.00     0.022 A 
BRANCH  76  80
ATOM     80  S   UNL A   1      37.531  33.041  40.231  1.00  0.00     0.124 S 
ATOM     81  O   UNL A   1      37.538  34.123  41.209  1.00  0.00    -0.237 OA
ATOM     82  O   UNL A   1      36.274  32.824  39.522  1.00  0.00    -0.237 OA
ATOM     83  O   UNL A   1      38.228  31.824  40.643  1.00  0.00    -0.744 OA
ENDBRANCH  76  80
ENDBRANCH  49  73
BRANCH  61  84
ATOM     84  C   UNL A   1      44.186  28.299  35.419  1.00  0.00     0.023 A 
ATOM     85  C   UNL A   1      45.513  28.760  35.367  1.00  0.00     0.031 A 
ATOM     86  C   UNL A   1      43.891  27.225  36.278  1.00  0.00     0.131 A 
ATOM     87  C   UNL A   1      46.504  28.122  36.130  1.00  0.00     0.055 A 
ATOM     88  C   UNL A   1      44.871  26.631  37.074  1.00  0.00     0.041 A 
ATOM     89  F   UNL A   1      42.642  26.742  36.365  1.00  0.00    -0.206 F 
ATOM     90  C   UNL A   1      46.188  27.071  36.995  1.00  0.00     0.022 A 
BRANCH  87  91
ATOM     91  S   UNL A   1      48.232  28.638  35.925  1.00  0.00     0.124 S 
ATOM     92  O   UNL A   1      48.872  28.019  37.081  1.00  0.00    -0.237 OA
ATOM     93  O   UNL A   1      48.577  28.073  34.625  1.00  0.00    -0.237 OA
ATOM     94  O   UNL A   1      48.161  30.098  35.965  1.00  0.00    -0.744 OA
ENDBRANCH  87  91
ENDBRANCH  61  84
ENDBRANCH  35  36
ENDBRANCH  28  30
ENDBRANCH  27  28
ENDBRANCH  26  27
ENDBRANCH  25  26
ENDBRANCH   1  25
TORSDOF 20
ENDMDL
MODEL 3
REMARK VINA RESULT:     -10.4      2.447      8.481
REMARK SMILES CCC1CCN(C(=O)NC[C@@H]2CC[C@H](C(=O)OCCOCCOC(=O)c3ccc(-c4c5nc(c(-c6cc(S(=O)(=O)[O-])ccc6F)c6ccc([nH]6)c(-c6cc(S(=O)(=O)[O-])ccc6F)c6nc(c(-c7cc(S(=O)(=O)[O-])ccc7F)c7ccc4[nH]7)C=C6)C=C5)cc3)O2)CC1
REMARK SMILES IDX 20 1 19 2 18 3 17 4 15 5 16 6 14 7 11 8 12 9 89 10 13 11
REMARK SMILES IDX 10 12 9 13 3 14 4 15 91 16 5 17 90 18 6 19 7 20 8 21 2 23
REMARK SMILES IDX 1 24 21 25 22 26 23 27 24 28 25 29 26 30 27 31 88 32 28 33
REMARK SMILES IDX 87 34 29 35 30 36 31 37 81 38 32 39 86 40 80 41 82 42 33 43
REMARK SMILES IDX 85 44 79 45 78 46 34 48 66 49 46 50 65 51 47 52 50 53 64 54
REMARK SMILES IDX 83 55 48 56 49 57 63 59 84 60 51 61 35 62 36 63 44 64 37 65
REMARK SMILES IDX 43 66 45 67 42 68 38 69 39 70 40 71 41 72 67 73 68 74 76 75
REMARK SMILES IDX 69 76 75 77 77 78 74 79 70 80 71 81 72 82 73 83 52 84 53 85
REMARK SMILES IDX 61 86 54 87 60 88 62 89 59 90 55 91 56 92 57 93 58 94
REMARK H PARENT 9 22 82 47 50 58
REMARK Flexibility Score: inf
ROOT
ATOM      1  O   UNL A   1      31.416  31.203  26.247  1.00  0.00    -0.374 OA
ENDROOT
BRANCH   1   2
ATOM      2  C   UNL A   1      31.687  29.818  26.036  1.00  0.00     0.202 C 
BRANCH   2   3
ATOM      3  C   UNL A   1      31.789  28.929  27.280  1.00  0.00     0.261 C 
BRANCH   3   4
ATOM      4  O   UNL A   1      32.903  28.020  27.231  1.00  0.00    -0.461 OA
BRANCH   4   5
ATOM      5  C   UNL A   1      32.748  26.940  26.420  1.00  0.00     0.335 C 
ATOM      6  O   UNL A   1      31.841  26.117  26.511  1.00  0.00    -0.249 OA
BRANCH   5   7
ATOM      7  C   UNL A   1      33.858  26.813  25.367  1.00  0.00     0.228 C 
ATOM      8  C   UNL A   1      33.383  26.654  23.078  1.00  0.00     0.138 C 
ATOM      9  C   UNL A   1      33.484  25.237  23.626  1.00  0.00     0.037 C 
ATOM     10  O   UNL A   1      33.516  27.553  24.192  1.00  0.00    -0.361 OA
ATOM     11  C   UNL A   1      34.248  25.419  24.911  1.00  0.00     0.047 C 
BRANCH   8  12
ATOM     12  C   UNL A   1      32.122  26.950  22.241  1.00  0.00     0.149 C 
BRANCH  12  13
ATOM     13  N   UNL A   1      30.888  26.428  22.816  1.00  0.00    -0.335 N 
ATOM     14  C   UNL A   1      28.221  30.582  22.040  1.00  0.00    -0.008 C 
ATOM     15  C   UNL A   1      27.345  29.370  22.434  1.00  0.00     0.025 C 
ATOM     16  C   UNL A   1      29.666  30.108  21.824  1.00  0.00     0.025 C 
ATOM     17  C   UNL A   1      27.953  28.529  23.567  1.00  0.00     0.121 C 
ATOM     18  C   UNL A   1      30.177  29.365  23.046  1.00  0.00     0.121 C 
ATOM     19  N   UNL A   1      29.354  28.194  23.284  1.00  0.00    -0.325 N 
ATOM     20  C   UNL A   1      29.712  26.884  23.270  1.00  0.00     0.317 C 
ATOM     21  O   UNL A   1      28.952  26.000  23.676  1.00  0.00    -0.249 OA
ATOM     22  H   UNL A   1      30.932  25.448  22.894  1.00  0.00     0.165 HD
BRANCH  14  23
ATOM     23  C   UNL A   1      28.057  31.731  23.063  1.00  0.00     0.000 C 
ATOM     24  C   UNL A   1      28.821  33.011  22.748  1.00  0.00     0.004 C 
ENDBRANCH  14  23
ENDBRANCH  12  13
ENDBRANCH   8  12
ENDBRANCH   5   7
ENDBRANCH   4   5
ENDBRANCH   3   4
ENDBRANCH   2   3
ENDBRANCH   1   2
BRANCH   1  25
ATOM     25  C   UNL A   1      32.322  31.932  27.070  1.00  0.00     0.202 C 
BRANCH  25  26
ATOM     26  C   UNL A   1      32.173  33.461  27.112  1.00  0.00     0.261 C 
BRANCH  26  27
ATOM     27  O   UNL A   1      32.561  34.038  28.373  1.00  0.00    -0.460 OA
BRANCH  27  28
ATOM     28  C   UNL A   1      33.765  34.663  28.360  1.00  0.00     0.338 C 
ATOM     29  O   UNL A   1      33.962  35.867  28.225  1.00  0.00    -0.246 OA
BRANCH  28  30
ATOM     30  C   UNL A   1      34.850  33.728  28.704  1.00  0.00     0.060 A 
ATOM     31  C   UNL A   1      34.521  32.603  29.472  1.00  0.00     0.016 A 
ATOM     32  C   UNL A   1      36.181  34.001  28.383  1.00  0.00     0.016 A 
ATOM     33  C   UNL A   1      35.525  31.764  29.952  1.00  0.00     0.010 A 
ATOM     34  C   UNL A   1      37.189  33.161  28.876  1.00  0.00     0.010 A 
ATOM     35  C   UNL A   1      36.869  32.057  29.687  1.00  0.00    -0.014 A 
BRANCH  35  36
ATOM     36  C   UNL A   1      37.939  31.283  30.370  1.00  0.00     0.031 A 
ATOM     37  C   UNL A   1      38.229  31.557  31.821  1.00  0.00     0.074 A 
ATOM     38  C   UNL A   1      38.632  30.338  29.711  1.00  0.00     0.049 A 
ATOM     39  N   UNL A   1      39.154  31.051  32.595  1.00  0.00    -0.248 NA
ATOM     40  C   UNL A   1      37.359  32.541  32.484  1.00  0.00     0.031 C 
ATOM     41  C   UNL A   1      38.416  29.956  28.318  1.00  0.00     0.029 A 
ATOM     42  N   UNL A   1      39.670  29.538  30.123  1.00  0.00    -0.354 N 
ATOM     43  C   UNL A   1      38.987  31.661  33.835  1.00  0.00     0.074 A 
ATOM     44  C   UNL A   1      37.890  32.595  33.697  1.00  0.00     0.031 C 
ATOM     45  C   UNL A   1      39.309  29.011  27.981  1.00  0.00     0.029 A 
ATOM     46  C   UNL A   1      40.187  28.750  29.120  1.00  0.00     0.049 A 
ATOM     47  H   UNL A   1      40.011  29.528  31.047  1.00  0.00     0.167 HD
ATOM     48  C   UNL A   1      39.684  31.454  34.980  1.00  0.00     0.034 A 
ATOM     49  C   UNL A   1      41.267  27.944  29.110  1.00  0.00     0.034 A 
ATOM     50  C   UNL A   1      40.778  30.521  35.097  1.00  0.00     0.049 A 
ATOM     51  C   UNL A   1      42.086  27.798  30.371  1.00  0.00     0.074 A 
ATOM     52  C   UNL A   1      41.519  30.196  36.221  1.00  0.00     0.029 A 
ATOM     53  N   UNL A   1      41.307  29.778  34.048  1.00  0.00    -0.354 N 
ATOM     54  N   UNL A   1      41.904  28.358  31.544  1.00  0.00    -0.248 NA
ATOM     55  C   UNL A   1      43.256  26.912  30.303  1.00  0.00     0.031 C 
ATOM     56  C   UNL A   1      42.542  29.323  35.836  1.00  0.00     0.029 A 
ATOM     57  C   UNL A   1      42.395  29.039  34.488  1.00  0.00     0.049 A 
ATOM     58  H   UNL A   1      40.960  29.777  33.127  1.00  0.00     0.167 HD
ATOM     59  C   UNL A   1      42.927  27.879  32.358  1.00  0.00     0.074 A 
ATOM     60  C   UNL A   1      43.713  26.972  31.546  1.00  0.00     0.031 C 
ATOM     61  C   UNL A   1      43.190  28.160  33.660  1.00  0.00     0.034 A 
BRANCH  48  62
ATOM     62  C   UNL A   1      39.320  32.301  36.176  1.00  0.00     0.023 A 
ATOM     63  C   UNL A   1      39.928  33.545  36.423  1.00  0.00     0.031 A 
ATOM     64  C   UNL A   1      38.369  31.839  37.103  1.00  0.00     0.131 A 
ATOM     65  C   UNL A   1      39.631  34.247  37.603  1.00  0.00     0.055 A 
ATOM     66  C   UNL A   1      38.021  32.577  38.235  1.00  0.00     0.041 A 
ATOM     67  F   UNL A   1      37.771  30.648  36.932  1.00  0.00    -0.206 F 
ATOM     68  C   UNL A   1      38.666  33.782  38.498  1.00  0.00     0.022 A 
BRANCH  65  69
ATOM     69  S   UNL A   1      40.632  35.701  38.023  1.00  0.00     0.124 S 
ATOM     70  O   UNL A   1      41.961  35.285  37.581  1.00  0.00    -0.237 OA
ATOM     71  O   UNL A   1      39.998  36.756  37.240  1.00  0.00    -0.237 OA
ATOM     72  O   UNL A   1      40.474  35.817  39.471  1.00  0.00    -0.744 OA
ENDBRANCH  65  69
ENDBRANCH  48  62
BRANCH  49  73
ATOM     73  C   UNL A   1      41.686  27.271  27.847  1.00  0.00     0.023 A 
ATOM     74  C   UNL A   1      41.577  25.882  27.685  1.00  0.00     0.031 A 
ATOM     75  C   UNL A   1      42.240  28.018  26.792  1.00  0.00     0.131 A 
ATOM     76  C   UNL A   1      42.044  25.278  26.505  1.00  0.00     0.055 A 
ATOM     77  C   UNL A   1      42.657  27.419  25.602  1.00  0.00     0.041 A 
ATOM     78  F   UNL A   1      42.377  29.349  26.900  1.00  0.00    -0.206 F 
ATOM     79  C   UNL A   1      42.569  26.039  25.458  1.00  0.00     0.022 A 
BRANCH  76  80
ATOM     80  S   UNL A   1      42.019  23.468  26.383  1.00  0.00     0.124 S 
ATOM     81  O   UNL A   1      40.588  23.189  26.377  1.00  0.00    -0.237 OA
ATOM     82  O   UNL A   1      42.725  23.238  25.126  1.00  0.00    -0.237 OA
ATOM     83  O   UNL A   1      42.733  23.035  27.583  1.00  0.00    -0.744 OA
ENDBRANCH  76  80
ENDBRANCH  49  73
BRANCH  61  84
ATOM     84  C   UNL A   1      44.369  27.458  34.291  1.00  0.00     0.023 A 
ATOM     85  C   UNL A   1      44.246  26.186  34.875  1.00  0.00     0.031 A 
ATOM     86  C   UNL A   1      45.635  28.071  34.301  1.00  0.00     0.131 A 
ATOM     87  C   UNL A   1      45.359  25.584  35.481  1.00  0.00     0.055 A 
ATOM     88  C   UNL A   1      46.751  27.444  34.857  1.00  0.00     0.041 A 
ATOM     89  F   UNL A   1      45.810  29.287  33.761  1.00  0.00    -0.206 F 
ATOM     90  C   UNL A   1      46.615  26.198  35.461  1.00  0.00     0.022 A 
BRANCH  87  91
ATOM     91  S   UNL A   1      45.134  24.012  36.361  1.00  0.00     0.124 S 
ATOM     92  O   UNL A   1      44.717  24.464  37.685  1.00  0.00    -0.237 OA
ATOM     93  O   UNL A   1      44.109  23.349  35.562  1.00  0.00    -0.237 OA
ATOM     94  O   UNL A   1      46.458  23.395  36.306  1.00  0.00    -0.744 OA
ENDBRANCH  87  91
ENDBRANCH  61  84
ENDBRANCH  35  36
ENDBRANCH  28  30
ENDBRANCH  27  28
ENDBRANCH  26  27
ENDBRANCH  25  26
ENDBRANCH   1  25
TORSDOF 20
ENDMDL
