MODEL 1
REMARK VINA RESULT:     -12.4      0.000      0.000
REMARK SMILES Cc1ccc(-c2nc(NC(=O)[C@H]3[C@@H](C(=O)OCCOCCOC(=O)c4ccc(-c5c6nc(c(-c7cc(S(=O)(=O)[O-])ccc7F)c7ccc([nH]7)c(-c7cc(S(=O)(=O)[O-])ccc7F)c7nc(c(-c8cc(S(=O)(=O)[O-])ccc8F)c8ccc5[nH]8)C=C7)C=C6)cc4)[C@@H]4CC[C@H]3O4)sc2C)cc1
REMARK SMILES IDX 19 1 18 2 17 3 16 4 14 5 15 6 13 7 12 8 91 9 88 10 90 11
REMARK SMILES IDX 92 12 89 13 10 14 9 15 11 17 8 18 6 19 7 20 94 21 93 22
REMARK SMILES IDX 95 23 5 24 1 25 2 26 3 27 97 28 4 29 96 30 20 31 21 32 22 33
REMARK SMILES IDX 23 34 24 35 25 36 26 37 87 38 27 39 86 40 28 41 29 42 30 43
REMARK SMILES IDX 80 44 31 45 85 46 79 47 81 48 32 49 84 50 78 51 77 52 33 54
REMARK SMILES IDX 65 55 45 56 64 57 46 58 49 59 63 60 82 61 47 62 48 63 62 65
REMARK SMILES IDX 83 66 50 67 34 68 35 69 43 70 36 71 42 72 44 73 41 74 37 75
REMARK SMILES IDX 38 76 39 77 40 78 66 79 67 80 75 81 68 82 74 83 76 84 73 85
REMARK SMILES IDX 69 86 70 87 71 88 72 89 51 90 52 91 60 92 53 93 59 94 61 95
REMARK SMILES IDX 58 96 54 97 55 98 56 99 57 100
REMARK H PARENT 9 16 81 53 49 64
REMARK Flexibility Score: inf
ROOT
ATOM      1  O   UNL A   1      37.491  23.458  25.895  1.00  0.00    -0.374 OA
ENDROOT
BRANCH   1   2
ATOM      2  C   UNL A   1      36.945  22.448  25.033  1.00  0.00     0.202 C 
BRANCH   2   3
ATOM      3  C   UNL A   1      35.995  23.041  23.945  1.00  0.00     0.261 C 
BRANCH   3   4
ATOM      4  O   UNL A   1      35.073  24.196  24.138  1.00  0.00    -0.463 OA
BRANCH   4   5
ATOM      5  C   UNL A   1      34.450  24.910  25.108  1.00  0.00     0.312 C 
ATOM      6  O   UNL A   1      34.392  24.545  26.285  1.00  0.00    -0.252 OA
BRANCH   5   7
ATOM      7  C   UNL A   1      33.961  26.264  24.809  1.00  0.00     0.143 C 
ATOM      8  C   UNL A   1      32.959  26.730  25.790  1.00  0.00     0.124 C 
ATOM      9  C   UNL A   1      32.380  27.913  25.012  1.00  0.00     0.132 C 
ATOM     10  C   UNL A   1      33.176  26.579  23.491  1.00  0.00     0.133 C 
ATOM     11  C   UNL A   1      33.369  28.797  24.203  1.00  0.00     0.035 C 
ATOM     12  O   UNL A   1      31.861  27.089  23.932  1.00  0.00    -0.373 OA
ATOM     13  C   UNL A   1      33.615  27.930  22.949  1.00  0.00     0.036 C 
BRANCH   8  14
ATOM     14  C   UNL A   1      31.730  25.802  26.095  1.00  0.00     0.232 C 
ATOM     15  N   UNL A   1      31.436  24.501  25.798  1.00  0.00    -0.302 N 
ATOM     16  H   UNL A   1      30.730  24.223  26.424  1.00  0.00     0.172 HD
ATOM     17  O   UNL A   1      30.945  26.302  26.936  1.00  0.00    -0.274 OA
BRANCH  15  18
ATOM     18  C   UNL A   1      31.704  23.409  24.995  1.00  0.00     0.190 A 
ATOM     19  C   UNL A   1      32.164  21.244  24.592  1.00  0.00     0.086 A 
ATOM     20  N   UNL A   1      31.826  22.210  25.540  1.00  0.00    -0.220 NA
ATOM     21  C   UNL A   1      31.945  21.663  23.295  1.00  0.00     0.031 A 
ATOM     22  S   UNL A   1      31.558  23.372  23.301  1.00  0.00    -0.101 S 
ATOM     23  C   UNL A   1      32.090  20.901  22.029  1.00  0.00     0.059 C 
BRANCH  19  24
ATOM     24  C   UNL A   1      32.916  20.025  25.004  1.00  0.00     0.001 A 
ATOM     25  C   UNL A   1      35.615  15.788  25.282  1.00  0.00     0.044 C 
ATOM     26  C   UNL A   1      34.888  16.951  24.619  1.00  0.00    -0.051 A 
ATOM     27  C   UNL A   1      35.702  18.549  24.771  1.00  0.00     0.004 A 
ATOM     28  C   UNL A   1      33.084  16.853  24.601  1.00  0.00     0.004 A 
ATOM     29  C   UNL A   1      34.715  20.083  24.896  1.00  0.00     0.010 A 
ATOM     30  C   UNL A   1      32.109  18.382  24.961  1.00  0.00     0.010 A 
ENDBRANCH  19  24
ENDBRANCH  15  18
ENDBRANCH   8  14
ENDBRANCH   5   7
ENDBRANCH   4   5
ENDBRANCH   3   4
ENDBRANCH   2   3
ENDBRANCH   1   2
BRANCH   1  31
ATOM     31  C   UNL A   1      38.813  23.306  26.419  1.00  0.00     0.202 C 
BRANCH  31  32
ATOM     32  C   UNL A   1      39.439  21.910  26.419  1.00  0.00     0.261 C 
BRANCH  32  33
ATOM     33  O   UNL A   1      40.714  21.861  25.742  1.00  0.00    -0.460 OA
BRANCH  33  34
ATOM     34  C   UNL A   1      41.769  21.381  26.467  1.00  0.00     0.338 C 
ATOM     35  O   UNL A   1      42.088  20.207  26.520  1.00  0.00    -0.246 OA
BRANCH  34  36
ATOM     36  C   UNL A   1      42.422  22.491  27.228  1.00  0.00     0.060 A 
ATOM     37  C   UNL A   1      42.626  22.488  28.618  1.00  0.00     0.016 A 
ATOM     38  C   UNL A   1      42.528  23.681  26.560  1.00  0.00     0.016 A 
ATOM     39  C   UNL A   1      42.817  23.716  29.320  1.00  0.00     0.010 A 
ATOM     40  C   UNL A   1      42.271  24.800  27.302  1.00  0.00     0.010 A 
ATOM     41  C   UNL A   1      42.564  24.938  28.667  1.00  0.00    -0.014 A 
BRANCH  41  42
ATOM     42  C   UNL A   1      42.374  26.492  29.329  1.00  0.00     0.031 A 
ATOM     43  C   UNL A   1      40.581  27.627  29.735  1.00  0.00     0.074 A 
ATOM     44  C   UNL A   1      43.806  26.666  29.680  1.00  0.00     0.049 A 
ATOM     45  N   UNL A   1      40.339  28.987  29.575  1.00  0.00    -0.248 NA
ATOM     46  C   UNL A   1      39.075  27.317  30.395  1.00  0.00     0.031 C 
ATOM     47  C   UNL A   1      44.457  27.404  30.830  1.00  0.00     0.029 A 
ATOM     48  N   UNL A   1      44.968  26.448  28.902  1.00  0.00    -0.354 N 
ATOM     49  C   UNL A   1      39.525  29.526  30.512  1.00  0.00     0.074 A 
ATOM     50  C   UNL A   1      38.637  28.475  30.887  1.00  0.00     0.031 C 
ATOM     51  C   UNL A   1      45.672  27.838  30.556  1.00  0.00     0.029 A 
ATOM     52  C   UNL A   1      46.006  27.297  29.291  1.00  0.00     0.049 A 
ATOM     53  H   UNL A   1      45.036  25.782  28.180  1.00  0.00     0.167 HD
ATOM     54  C   UNL A   1      39.762  30.775  31.006  1.00  0.00     0.034 A 
ATOM     55  C   UNL A   1      46.974  27.887  28.579  1.00  0.00     0.034 A 
ATOM     56  C   UNL A   1      41.182  31.244  30.905  1.00  0.00     0.049 A 
ATOM     57  C   UNL A   1      46.603  29.356  28.486  1.00  0.00     0.074 A 
ATOM     58  C   UNL A   1      42.156  31.442  31.878  1.00  0.00     0.029 A 
ATOM     59  N   UNL A   1      41.868  31.400  29.688  1.00  0.00    -0.354 N 
ATOM     60  N   UNL A   1      45.406  29.815  28.821  1.00  0.00    -0.248 NA
ATOM     61  C   UNL A   1      47.520  30.424  28.117  1.00  0.00     0.031 C 
ATOM     62  C   UNL A   1      43.426  31.613  31.245  1.00  0.00     0.029 A 
ATOM     63  C   UNL A   1      43.251  31.600  29.867  1.00  0.00     0.049 A 
ATOM     64  H   UNL A   1      41.430  31.373  28.807  1.00  0.00     0.167 HD
ATOM     65  C   UNL A   1      45.359  31.173  28.661  1.00  0.00     0.074 A 
ATOM     66  C   UNL A   1      46.723  31.502  28.245  1.00  0.00     0.031 C 
ATOM     67  C   UNL A   1      44.207  31.923  28.775  1.00  0.00     0.034 A 
BRANCH  54  68
ATOM     68  C   UNL A   1      38.704  31.444  31.851  1.00  0.00     0.023 A 
ATOM     69  C   UNL A   1      37.629  32.124  31.261  1.00  0.00     0.031 A 
ATOM     70  C   UNL A   1      38.642  31.313  33.261  1.00  0.00     0.131 A 
ATOM     71  C   UNL A   1      36.606  32.677  32.056  1.00  0.00     0.055 A 
ATOM     72  C   UNL A   1      37.691  31.955  34.054  1.00  0.00     0.041 A 
ATOM     73  F   UNL A   1      39.465  30.491  33.932  1.00  0.00    -0.206 F 
ATOM     74  C   UNL A   1      36.657  32.642  33.449  1.00  0.00     0.022 A 
BRANCH  71  75
ATOM     75  S   UNL A   1      35.125  33.326  31.241  1.00  0.00     0.124 S 
ATOM     76  O   UNL A   1      34.076  32.464  31.775  1.00  0.00    -0.237 OA
ATOM     77  O   UNL A   1      35.117  34.713  31.691  1.00  0.00    -0.237 OA
ATOM     78  O   UNL A   1      35.414  33.141  29.820  1.00  0.00    -0.744 OA
ENDBRANCH  71  75
ENDBRANCH  54  68
BRANCH  55  79
ATOM     79  C   UNL A   1      47.844  26.887  27.921  1.00  0.00     0.023 A 
ATOM     80  C   UNL A   1      47.191  25.869  27.160  1.00  0.00     0.031 A 
ATOM     81  C   UNL A   1      49.112  27.297  27.482  1.00  0.00     0.131 A 
ATOM     82  C   UNL A   1      47.744  25.410  25.946  1.00  0.00     0.055 A 
ATOM     83  C   UNL A   1      49.646  26.851  26.265  1.00  0.00     0.041 A 
ATOM     84  F   UNL A   1      49.736  28.309  28.102  1.00  0.00    -0.206 F 
ATOM     85  C   UNL A   1      48.951  25.934  25.478  1.00  0.00     0.022 A 
BRANCH  82  86
ATOM     86  S   UNL A   1      46.773  24.366  24.794  1.00  0.00     0.124 S 
ATOM     87  O   UNL A   1      47.554  24.457  23.566  1.00  0.00    -0.237 OA
ATOM     88  O   UNL A   1      46.749  23.058  25.445  1.00  0.00    -0.237 OA
ATOM     89  O   UNL A   1      45.472  25.034  24.769  1.00  0.00    -0.744 OA
ENDBRANCH  82  86
ENDBRANCH  55  79
BRANCH  67  90
ATOM     90  C   UNL A   1      44.006  33.158  27.910  1.00  0.00     0.023 A 
ATOM     91  C   UNL A   1      44.032  34.460  28.441  1.00  0.00     0.031 A 
ATOM     92  C   UNL A   1      43.895  33.092  26.504  1.00  0.00     0.131 A 
ATOM     93  C   UNL A   1      43.828  35.594  27.643  1.00  0.00     0.055 A 
ATOM     94  C   UNL A   1      43.798  34.228  25.694  1.00  0.00     0.041 A 
ATOM     95  F   UNL A   1      43.908  31.930  25.841  1.00  0.00    -0.206 F 
ATOM     96  C   UNL A   1      43.737  35.490  26.262  1.00  0.00     0.022 A 
BRANCH  93  97
ATOM     97  S   UNL A   1      43.607  37.185  28.478  1.00  0.00     0.124 S 
ATOM     98  O   UNL A   1      43.912  38.129  27.406  1.00  0.00    -0.237 OA
ATOM     99  O   UNL A   1      42.209  37.131  28.892  1.00  0.00    -0.237 OA
ATOM    100  O   UNL A   1      44.582  37.141  29.564  1.00  0.00    -0.744 OA
ENDBRANCH  93  97
ENDBRANCH  67  90
ENDBRANCH  41  42
ENDBRANCH  34  36
ENDBRANCH  33  34
ENDBRANCH  32  33
ENDBRANCH  31  32
ENDBRANCH   1  31
TORSDOF 20
ENDMDL
MODEL 2
REMARK VINA RESULT:     -12.2      3.907     10.002
REMARK SMILES Cc1ccc(-c2nc(NC(=O)[C@H]3[C@@H](C(=O)OCCOCCOC(=O)c4ccc(-c5c6nc(c(-c7cc(S(=O)(=O)[O-])ccc7F)c7ccc([nH]7)c(-c7cc(S(=O)(=O)[O-])ccc7F)c7nc(c(-c8cc(S(=O)(=O)[O-])ccc8F)c8ccc5[nH]8)C=C7)C=C6)cc4)[C@@H]4CC[C@H]3O4)sc2C)cc1
REMARK SMILES IDX 19 1 18 2 17 3 16 4 14 5 15 6 13 7 12 8 91 9 88 10 90 11
REMARK SMILES IDX 92 12 89 13 10 14 9 15 11 17 8 18 6 19 7 20 94 21 93 22
REMARK SMILES IDX 95 23 5 24 1 25 2 26 3 27 97 28 4 29 96 30 20 31 21 32 22 33
REMARK SMILES IDX 23 34 24 35 25 36 26 37 87 38 27 39 86 40 28 41 29 42 30 43
REMARK SMILES IDX 80 44 31 45 85 46 79 47 81 48 32 49 84 50 78 51 77 52 33 54
REMARK SMILES IDX 65 55 45 56 64 57 46 58 49 59 63 60 82 61 47 62 48 63 62 65
REMARK SMILES IDX 83 66 50 67 34 68 35 69 43 70 36 71 42 72 44 73 41 74 37 75
REMARK SMILES IDX 38 76 39 77 40 78 66 79 67 80 75 81 68 82 74 83 76 84 73 85
REMARK SMILES IDX 69 86 70 87 71 88 72 89 51 90 52 91 60 92 53 93 59 94 61 95
REMARK SMILES IDX 58 96 54 97 55 98 56 99 57 100
REMARK H PARENT 9 16 81 53 49 64
REMARK Flexibility Score: inf
ROOT
ATOM      1  O   UNL A   1      34.628  30.196  27.628  1.00  0.00    -0.374 OA
ENDROOT
BRANCH   1   2
ATOM      2  C   UNL A   1      34.573  28.975  26.876  1.00  0.00     0.202 C 
BRANCH   2   3
ATOM      3  C   UNL A   1      33.230  28.207  27.082  1.00  0.00     0.261 C 
BRANCH   3   4
ATOM      4  O   UNL A   1      32.515  27.418  26.039  1.00  0.00    -0.463 OA
BRANCH   4   5
ATOM      5  C   UNL A   1      31.270  27.042  25.655  1.00  0.00     0.312 C 
ATOM      6  O   UNL A   1      30.608  26.188  26.250  1.00  0.00    -0.252 OA
BRANCH   5   7
ATOM      7  C   UNL A   1      30.584  27.790  24.591  1.00  0.00     0.143 C 
ATOM      8  C   UNL A   1      30.639  27.093  23.289  1.00  0.00     0.124 C 
ATOM      9  C   UNL A   1      30.235  28.248  22.371  1.00  0.00     0.132 C 
ATOM     10  C   UNL A   1      31.080  29.203  24.132  1.00  0.00     0.133 C 
ATOM     11  C   UNL A   1      29.115  29.204  22.866  1.00  0.00     0.035 C 
ATOM     12  O   UNL A   1      31.398  29.058  22.697  1.00  0.00    -0.373 OA
ATOM     13  C   UNL A   1      29.881  30.099  23.865  1.00  0.00     0.036 C 
BRANCH   8  14
ATOM     14  C   UNL A   1      32.039  26.621  22.758  1.00  0.00     0.232 C 
ATOM     15  N   UNL A   1      32.753  25.463  22.885  1.00  0.00    -0.302 N 
ATOM     16  H   UNL A   1      33.419  25.462  22.161  1.00  0.00     0.172 HD
ATOM     17  O   UNL A   1      32.513  27.395  21.892  1.00  0.00    -0.274 OA
BRANCH  15  18
ATOM     18  C   UNL A   1      32.942  24.293  23.596  1.00  0.00     0.190 A 
ATOM     19  C   UNL A   1      33.993  22.952  25.065  1.00  0.00     0.086 A 
ATOM     20  N   UNL A   1      33.906  24.224  24.499  1.00  0.00    -0.220 NA
ATOM     21  C   UNL A   1      32.869  22.184  24.838  1.00  0.00     0.031 A 
ATOM     22  S   UNL A   1      31.834  23.006  23.687  1.00  0.00    -0.101 S 
ATOM     23  C   UNL A   1      32.544  20.827  25.348  1.00  0.00     0.059 C 
BRANCH  19  24
ATOM     24  C   UNL A   1      35.291  22.464  25.611  1.00  0.00     0.001 A 
ATOM     25  C   UNL A   1      40.088  21.227  26.487  1.00  0.00     0.044 C 
ATOM     26  C   UNL A   1      38.896  21.779  25.715  1.00  0.00    -0.051 A 
ATOM     27  C   UNL A   1      38.243  23.340  26.328  1.00  0.00     0.004 A 
ATOM     28  C   UNL A   1      37.784  20.554  24.990  1.00  0.00     0.004 A 
ATOM     29  C   UNL A   1      36.455  23.703  26.214  1.00  0.00     0.010 A 
ATOM     30  C   UNL A   1      35.960  20.840  25.097  1.00  0.00     0.010 A 
ENDBRANCH  19  24
ENDBRANCH  15  18
ENDBRANCH   8  14
ENDBRANCH   5   7
ENDBRANCH   4   5
ENDBRANCH   3   4
ENDBRANCH   2   3
ENDBRANCH   1   2
BRANCH   1  31
ATOM     31  C   UNL A   1      33.608  31.184  27.455  1.00  0.00     0.202 C 
BRANCH  31  32
ATOM     32  C   UNL A   1      33.853  32.588  28.011  1.00  0.00     0.261 C 
BRANCH  32  33
ATOM     33  O   UNL A   1      34.010  32.608  29.447  1.00  0.00    -0.460 OA
BRANCH  33  34
ATOM     34  C   UNL A   1      34.574  33.733  29.981  1.00  0.00     0.338 C 
ATOM     35  O   UNL A   1      33.986  34.788  30.137  1.00  0.00    -0.246 OA
BRANCH  34  36
ATOM     36  C   UNL A   1      36.021  33.496  30.276  1.00  0.00     0.060 A 
ATOM     37  C   UNL A   1      37.082  34.001  29.506  1.00  0.00     0.016 A 
ATOM     38  C   UNL A   1      36.284  32.480  31.155  1.00  0.00     0.016 A 
ATOM     39  C   UNL A   1      38.368  33.383  29.558  1.00  0.00     0.010 A 
ATOM     40  C   UNL A   1      37.352  31.687  30.838  1.00  0.00     0.010 A 
ATOM     41  C   UNL A   1      38.513  32.132  30.190  1.00  0.00    -0.014 A 
BRANCH  41  42
ATOM     42  C   UNL A   1      39.804  31.029  30.106  1.00  0.00     0.031 A 
ATOM     43  C   UNL A   1      40.087  29.305  28.835  1.00  0.00     0.074 A 
ATOM     44  C   UNL A   1      40.684  31.779  31.037  1.00  0.00     0.049 A 
ATOM     45  N   UNL A   1      40.637  28.064  29.136  1.00  0.00    -0.248 NA
ATOM     46  C   UNL A   1      39.860  28.942  27.217  1.00  0.00     0.031 C 
ATOM     47  C   UNL A   1      42.190  31.922  31.071  1.00  0.00     0.029 A 
ATOM     48  N   UNL A   1      40.403  32.330  32.311  1.00  0.00    -0.354 N 
ATOM     49  C   UNL A   1      41.341  27.502  28.126  1.00  0.00     0.074 A 
ATOM     50  C   UNL A   1      40.713  27.960  26.931  1.00  0.00     0.031 C 
ATOM     51  C   UNL A   1      42.670  32.153  32.279  1.00  0.00     0.029 A 
ATOM     52  C   UNL A   1      41.545  32.353  33.115  1.00  0.00     0.049 A 
ATOM     53  H   UNL A   1      39.519  32.656  32.592  1.00  0.00     0.167 HD
ATOM     54  C   UNL A   1      42.492  26.814  28.377  1.00  0.00     0.034 A 
ATOM     55  C   UNL A   1      41.694  32.190  34.436  1.00  0.00     0.034 A 
ATOM     56  C   UNL A   1      43.194  27.184  29.648  1.00  0.00     0.049 A 
ATOM     57  C   UNL A   1      42.308  30.816  34.631  1.00  0.00     0.074 A 
ATOM     58  C   UNL A   1      44.385  27.866  29.876  1.00  0.00     0.029 A 
ATOM     59  N   UNL A   1      42.622  27.047  30.925  1.00  0.00    -0.354 N 
ATOM     60  N   UNL A   1      42.378  29.918  33.660  1.00  0.00    -0.248 NA
ATOM     61  C   UNL A   1      42.961  30.362  35.850  1.00  0.00     0.031 C 
ATOM     62  C   UNL A   1      44.469  28.218  31.258  1.00  0.00     0.029 A 
ATOM     63  C   UNL A   1      43.370  27.695  31.927  1.00  0.00     0.049 A 
ATOM     64  H   UNL A   1      41.789  26.551  31.100  1.00  0.00     0.167 HD
ATOM     65  C   UNL A   1      42.998  28.784  34.109  1.00  0.00     0.074 A 
ATOM     66  C   UNL A   1      43.367  29.133  35.481  1.00  0.00     0.031 C 
ATOM     67  C   UNL A   1      43.082  27.614  33.384  1.00  0.00     0.034 A 
BRANCH  54  68
ATOM     68  C   UNL A   1      43.110  25.989  27.274  1.00  0.00     0.023 A 
ATOM     69  C   UNL A   1      44.279  26.409  26.622  1.00  0.00     0.031 A 
ATOM     70  C   UNL A   1      42.649  24.694  26.925  1.00  0.00     0.131 A 
ATOM     71  C   UNL A   1      44.891  25.594  25.650  1.00  0.00     0.055 A 
ATOM     72  C   UNL A   1      43.190  23.938  25.885  1.00  0.00     0.041 A 
ATOM     73  F   UNL A   1      41.694  24.069  27.631  1.00  0.00    -0.206 F 
ATOM     74  C   UNL A   1      44.326  24.387  25.241  1.00  0.00     0.022 A 
BRANCH  71  75
ATOM     75  S   UNL A   1      46.521  26.066  25.020  1.00  0.00     0.124 S 
ATOM     76  O   UNL A   1      46.909  24.888  24.252  1.00  0.00    -0.237 OA
ATOM     77  O   UNL A   1      46.211  27.268  24.254  1.00  0.00    -0.237 OA
ATOM     78  O   UNL A   1      47.299  26.296  26.237  1.00  0.00    -0.744 OA
ENDBRANCH  71  75
ENDBRANCH  54  68
BRANCH  55  79
ATOM     79  C   UNL A   1      40.962  33.231  35.192  1.00  0.00     0.023 A 
ATOM     80  C   UNL A   1      39.664  32.880  35.675  1.00  0.00     0.031 A 
ATOM     81  C   UNL A   1      41.706  34.136  35.963  1.00  0.00     0.131 A 
ATOM     82  C   UNL A   1      39.222  33.321  36.941  1.00  0.00     0.055 A 
ATOM     83  C   UNL A   1      41.269  34.554  37.228  1.00  0.00     0.041 A 
ATOM     84  F   UNL A   1      42.965  34.436  35.609  1.00  0.00    -0.206 F 
ATOM     85  C   UNL A   1      40.044  34.123  37.735  1.00  0.00     0.022 A 
BRANCH  82  86
ATOM     86  S   UNL A   1      37.720  32.617  37.720  1.00  0.00     0.124 S 
ATOM     87  O   UNL A   1      37.927  32.937  39.127  1.00  0.00    -0.237 OA
ATOM     88  O   UNL A   1      36.622  33.317  37.056  1.00  0.00    -0.237 OA
ATOM     89  O   UNL A   1      37.808  31.199  37.373  1.00  0.00    -0.744 OA
ENDBRANCH  82  86
ENDBRANCH  55  79
BRANCH  67  90
ATOM     90  C   UNL A   1      43.051  26.268  34.092  1.00  0.00     0.023 A 
ATOM     91  C   UNL A   1      44.191  25.452  34.209  1.00  0.00     0.031 A 
ATOM     92  C   UNL A   1      41.911  25.796  34.779  1.00  0.00     0.131 A 
ATOM     93  C   UNL A   1      44.153  24.205  34.847  1.00  0.00     0.055 A 
ATOM     94  C   UNL A   1      41.901  24.601  35.507  1.00  0.00     0.041 A 
ATOM     95  F   UNL A   1      40.762  26.480  34.810  1.00  0.00    -0.206 F 
ATOM     96  C   UNL A   1      43.018  23.782  35.523  1.00  0.00     0.022 A 
BRANCH  93  97
ATOM     97  S   UNL A   1      45.603  23.133  34.690  1.00  0.00     0.124 S 
ATOM     98  O   UNL A   1      45.192  22.233  33.615  1.00  0.00    -0.237 OA
ATOM     99  O   UNL A   1      46.660  24.079  34.350  1.00  0.00    -0.237 OA
ATOM    100  O   UNL A   1      45.718  22.515  36.008  1.00  0.00    -0.744 OA
ENDBRANCH  93  97
ENDBRANCH  67  90
ENDBRANCH  41  42
ENDBRANCH  34  36
ENDBRANCH  33  34
ENDBRANCH  32  33
ENDBRANCH  31  32
ENDBRANCH   1  31
TORSDOF 20
ENDMDL
MODEL 3
REMARK VINA RESULT:     -12.0      1.554      4.388
REMARK SMILES Cc1ccc(-c2nc(NC(=O)[C@H]3[C@@H](C(=O)OCCOCCOC(=O)c4ccc(-c5c6nc(c(-c7cc(S(=O)(=O)[O-])ccc7F)c7ccc([nH]7)c(-c7cc(S(=O)(=O)[O-])ccc7F)c7nc(c(-c8cc(S(=O)(=O)[O-])ccc8F)c8ccc5[nH]8)C=C7)C=C6)cc4)[C@@H]4CC[C@H]3O4)sc2C)cc1
REMARK SMILES IDX 19 1 18 2 17 3 16 4 14 5 15 6 13 7 12 8 91 9 88 10 90 11
REMARK SMILES IDX 92 12 89 13 10 14 9 15 11 17 8 18 6 19 7 20 94 21 93 22
REMARK SMILES IDX 95 23 5 24 1 25 2 26 3 27 97 28 4 29 96 30 20 31 21 32 22 33
REMARK SMILES IDX 23 34 24 35 25 36 26 37 87 38 27 39 86 40 28 41 29 42 30 43
REMARK SMILES IDX 80 44 31 45 85 46 79 47 81 48 32 49 84 50 78 51 77 52 33 54
REMARK SMILES IDX 65 55 45 56 64 57 46 58 49 59 63 60 82 61 47 62 48 63 62 65
REMARK SMILES IDX 83 66 50 67 34 68 35 69 43 70 36 71 42 72 44 73 41 74 37 75
REMARK SMILES IDX 38 76 39 77 40 78 66 79 67 80 75 81 68 82 74 83 76 84 73 85
REMARK SMILES IDX 69 86 70 87 71 88 72 89 51 90 52 91 60 92 53 93 59 94 61 95
REMARK SMILES IDX 58 96 54 97 55 98 56 99 57 100
REMARK H PARENT 9 16 81 53 49 64
REMARK Flexibility Score: inf
ROOT
ATOM      1  O   UNL A   1      37.196  23.922  26.156  1.00  0.00    -0.374 OA
ENDROOT
BRANCH   1   2
ATOM      2  C   UNL A   1      36.269  23.032  25.516  1.00  0.00     0.202 C 
BRANCH   2   3
ATOM      3  C   UNL A   1      35.632  23.655  24.233  1.00  0.00     0.261 C 
BRANCH   3   4
ATOM      4  O   UNL A   1      34.685  22.962  23.314  1.00  0.00    -0.463 OA
BRANCH   4   5
ATOM      5  C   UNL A   1      33.429  22.453  23.266  1.00  0.00     0.312 C 
ATOM      6  O   UNL A   1      32.528  22.938  22.576  1.00  0.00    -0.252 OA
BRANCH   5   7
ATOM      7  C   UNL A   1      33.144  21.166  23.919  1.00  0.00     0.143 C 
ATOM      8  C   UNL A   1      32.266  21.316  25.098  1.00  0.00     0.124 C 
ATOM      9  C   UNL A   1      32.492  19.952  25.751  1.00  0.00     0.132 C 
ATOM     10  C   UNL A   1      34.281  20.309  24.570  1.00  0.00     0.133 C 
ATOM     11  C   UNL A   1      32.591  18.714  24.818  1.00  0.00     0.035 C 
ATOM     12  O   UNL A   1      33.908  20.181  25.993  1.00  0.00    -0.373 OA
ATOM     13  C   UNL A   1      34.034  18.837  24.282  1.00  0.00     0.036 C 
BRANCH   8  14
ATOM     14  C   UNL A   1      32.667  22.366  26.195  1.00  0.00     0.232 C 
ATOM     15  N   UNL A   1      32.454  23.708  26.336  1.00  0.00    -0.302 N 
ATOM     16  H   UNL A   1      32.592  23.915  27.288  1.00  0.00     0.172 HD
ATOM     17  O   UNL A   1      33.113  21.828  27.236  1.00  0.00    -0.274 OA
BRANCH  15  18
ATOM     18  C   UNL A   1      32.127  24.899  25.717  1.00  0.00     0.190 A 
ATOM     19  C   UNL A   1      32.465  27.042  25.120  1.00  0.00     0.086 A 
ATOM     20  N   UNL A   1      32.989  25.901  25.730  1.00  0.00    -0.220 NA
ATOM     21  C   UNL A   1      31.354  26.774  24.345  1.00  0.00     0.031 A 
ATOM     22  S   UNL A   1      30.848  25.119  24.618  1.00  0.00    -0.101 S 
ATOM     23  C   UNL A   1      30.579  27.693  23.474  1.00  0.00     0.059 C 
BRANCH  19  24
ATOM     24  C   UNL A   1      32.949  28.393  25.521  1.00  0.00     0.001 A 
ATOM     25  C   UNL A   1      34.218  32.643  27.895  1.00  0.00     0.044 C 
ATOM     26  C   UNL A   1      33.633  31.246  27.728  1.00  0.00    -0.051 A 
ATOM     27  C   UNL A   1      34.843  29.927  27.533  1.00  0.00     0.004 A 
ATOM     28  C   UNL A   1      32.043  31.149  26.876  1.00  0.00     0.004 A 
ATOM     29  C   UNL A   1      34.471  28.477  26.485  1.00  0.00     0.010 A 
ATOM     30  C   UNL A   1      31.780  29.796  25.643  1.00  0.00     0.010 A 
ENDBRANCH  19  24
ENDBRANCH  15  18
ENDBRANCH   8  14
ENDBRANCH   5   7
ENDBRANCH   4   5
ENDBRANCH   3   4
ENDBRANCH   2   3
ENDBRANCH   1   2
BRANCH   1  31
ATOM     31  C   UNL A   1      38.510  23.462  26.483  1.00  0.00     0.202 C 
BRANCH  31  32
ATOM     32  C   UNL A   1      38.945  22.084  25.980  1.00  0.00     0.261 C 
BRANCH  32  33
ATOM     33  O   UNL A   1      40.017  21.509  26.760  1.00  0.00    -0.460 OA
BRANCH  33  34
ATOM     34  C   UNL A   1      41.278  21.639  26.248  1.00  0.00     0.338 C 
ATOM     35  O   UNL A   1      41.743  20.924  25.379  1.00  0.00    -0.246 OA
BRANCH  34  36
ATOM     36  C   UNL A   1      42.013  22.734  26.953  1.00  0.00     0.060 A 
ATOM     37  C   UNL A   1      42.394  22.692  28.305  1.00  0.00     0.016 A 
ATOM     38  C   UNL A   1      42.020  23.945  26.316  1.00  0.00     0.016 A 
ATOM     39  C   UNL A   1      42.663  23.900  29.016  1.00  0.00     0.010 A 
ATOM     40  C   UNL A   1      41.851  25.038  27.121  1.00  0.00     0.010 A 
ATOM     41  C   UNL A   1      42.316  25.138  28.439  1.00  0.00    -0.014 A 
BRANCH  41  42
ATOM     42  C   UNL A   1      42.198  26.669  29.170  1.00  0.00     0.031 A 
ATOM     43  C   UNL A   1      40.457  27.811  29.745  1.00  0.00     0.074 A 
ATOM     44  C   UNL A   1      43.654  26.811  29.423  1.00  0.00     0.049 A 
ATOM     45  N   UNL A   1      40.225  29.178  29.653  1.00  0.00    -0.248 NA
ATOM     46  C   UNL A   1      38.997  27.496  30.501  1.00  0.00     0.031 C 
ATOM     47  C   UNL A   1      44.397  27.495  30.549  1.00  0.00     0.029 A 
ATOM     48  N   UNL A   1      44.754  26.606  28.556  1.00  0.00    -0.354 N 
ATOM     49  C   UNL A   1      39.489  29.692  30.666  1.00  0.00     0.074 A 
ATOM     50  C   UNL A   1      38.613  28.640  31.065  1.00  0.00     0.031 C 
ATOM     51  C   UNL A   1      45.597  27.924  30.205  1.00  0.00     0.029 A 
ATOM     52  C   UNL A   1      45.831  27.427  28.901  1.00  0.00     0.049 A 
ATOM     53  H   UNL A   1      44.760  25.968  27.807  1.00  0.00     0.167 HD
ATOM     54  C   UNL A   1      39.780  30.919  31.187  1.00  0.00     0.034 A 
ATOM     55  C   UNL A   1      46.754  28.031  28.142  1.00  0.00     0.034 A 
ATOM     56  C   UNL A   1      41.196  31.373  31.000  1.00  0.00     0.049 A 
ATOM     57  C   UNL A   1      46.400  29.507  28.131  1.00  0.00     0.074 A 
ATOM     58  C   UNL A   1      42.241  31.521  31.908  1.00  0.00     0.029 A 
ATOM     59  N   UNL A   1      41.797  31.566  29.744  1.00  0.00    -0.354 N 
ATOM     60  N   UNL A   1      45.238  29.968  28.567  1.00  0.00    -0.248 NA
ATOM     61  C   UNL A   1      47.305  30.576  27.736  1.00  0.00     0.031 C 
ATOM     62  C   UNL A   1      43.464  31.699  31.191  1.00  0.00     0.029 A 
ATOM     63  C   UNL A   1      43.192  31.741  29.831  1.00  0.00     0.049 A 
ATOM     64  H   UNL A   1      41.296  31.577  28.896  1.00  0.00     0.167 HD
ATOM     65  C   UNL A   1      45.201  31.332  28.461  1.00  0.00     0.074 A 
ATOM     66  C   UNL A   1      46.537  31.658  27.960  1.00  0.00     0.031 C 
ATOM     67  C   UNL A   1      44.072  32.091  28.685  1.00  0.00     0.034 A 
BRANCH  54  68
ATOM     68  C   UNL A   1      38.796  31.570  32.129  1.00  0.00     0.023 A 
ATOM     69  C   UNL A   1      37.693  32.287  31.643  1.00  0.00     0.031 A 
ATOM     70  C   UNL A   1      38.832  31.385  33.535  1.00  0.00     0.131 A 
ATOM     71  C   UNL A   1      36.738  32.822  32.530  1.00  0.00     0.055 A 
ATOM     72  C   UNL A   1      37.950  32.009  34.417  1.00  0.00     0.041 A 
ATOM     73  F   UNL A   1      39.686  30.526  34.114  1.00  0.00    -0.206 F 
ATOM     74  C   UNL A   1      36.887  32.733  33.913  1.00  0.00     0.022 A 
BRANCH  71  75
ATOM     75  S   UNL A   1      35.214  33.522  31.848  1.00  0.00     0.124 S 
ATOM     76  O   UNL A   1      35.695  34.200  30.649  1.00  0.00    -0.237 OA
ATOM     77  O   UNL A   1      34.403  32.329  31.637  1.00  0.00    -0.237 OA
ATOM     78  O   UNL A   1      34.744  34.407  32.912  1.00  0.00    -0.744 OA
ENDBRANCH  71  75
ENDBRANCH  54  68
BRANCH  55  79
ATOM     79  C   UNL A   1      47.559  27.045  27.388  1.00  0.00     0.023 A 
ATOM     80  C   UNL A   1      47.424  27.060  25.965  1.00  0.00     0.031 A 
ATOM     81  C   UNL A   1      48.809  26.673  27.906  1.00  0.00     0.131 A 
ATOM     82  C   UNL A   1      48.544  26.847  25.132  1.00  0.00     0.055 A 
ATOM     83  C   UNL A   1      49.921  26.483  27.073  1.00  0.00     0.041 A 
ATOM     84  F   UNL A   1      49.023  26.725  29.229  1.00  0.00    -0.206 F 
ATOM     85  C   UNL A   1      49.801  26.601  25.689  1.00  0.00     0.022 A 
BRANCH  82  86
ATOM     86  S   UNL A   1      48.470  27.192  23.334  1.00  0.00     0.124 S 
ATOM     87  O   UNL A   1      49.759  27.828  23.092  1.00  0.00    -0.237 OA
ATOM     88  O   UNL A   1      48.279  25.874  22.734  1.00  0.00    -0.237 OA
ATOM     89  O   UNL A   1      47.301  28.065  23.219  1.00  0.00    -0.744 OA
ENDBRANCH  82  86
ENDBRANCH  55  79
BRANCH  67  90
ATOM     90  C   UNL A   1      43.829  33.361  27.883  1.00  0.00     0.023 A 
ATOM     91  C   UNL A   1      43.808  34.635  28.478  1.00  0.00     0.031 A 
ATOM     92  C   UNL A   1      43.723  33.362  26.475  1.00  0.00     0.131 A 
ATOM     93  C   UNL A   1      43.566  35.799  27.737  1.00  0.00     0.055 A 
ATOM     94  C   UNL A   1      43.588  34.534  25.722  1.00  0.00     0.041 A 
ATOM     95  F   UNL A   1      43.777  32.236  25.754  1.00  0.00    -0.206 F 
ATOM     96  C   UNL A   1      43.480  35.762  26.353  1.00  0.00     0.022 A 
BRANCH  93  97
ATOM     97  S   UNL A   1      43.287  37.338  28.650  1.00  0.00     0.124 S 
ATOM     98  O   UNL A   1      42.029  37.804  28.072  1.00  0.00    -0.237 OA
ATOM     99  O   UNL A   1      43.213  36.874  30.032  1.00  0.00    -0.237 OA
ATOM    100  O   UNL A   1      44.459  38.147  28.326  1.00  0.00    -0.744 OA
ENDBRANCH  93  97
ENDBRANCH  67  90
ENDBRANCH  41  42
ENDBRANCH  34  36
ENDBRANCH  33  34
ENDBRANCH  32  33
ENDBRANCH  31  32
ENDBRANCH   1  31
TORSDOF 20
ENDMDL
