MODEL 1
REMARK VINA RESULT:     -11.4      0.000      0.000
REMARK SMILES CN(C)c1cc(C(F)(F)F)cc(-c2cccc(/C=C/C(=O)OCCOCCOC(=O)c3ccc(-c4c5nc(c(-c6cc(S(=O)(=O)[O-])ccc6F)c6ccc([nH]6)c(-c6cc(S(=O)(=O)[O-])ccc6F)c6nc(c(-c7cc(S(=O)(=O)[O-])ccc7F)c7ccc4[nH]7)C=C6)C=C5)cc3)c2)n1
REMARK SMILES IDX 25 1 24 2 23 3 22 4 20 5 21 6 19 7 18 8 17 9 13 10 14 11
REMARK SMILES IDX 94 12 15 13 16 14 12 15 4 16 5 17 95 18 6 19 11 20 2 21 1 22
REMARK SMILES IDX 3 23 7 24 8 25 9 26 10 27 26 28 27 29 28 30 29 31 30 32
REMARK SMILES IDX 31 33 32 34 93 35 33 36 92 37 34 38 35 39 36 40 86 41 37 42
REMARK SMILES IDX 91 43 85 44 87 45 38 46 90 47 84 48 83 49 39 51 71 52 51 53
REMARK SMILES IDX 70 54 52 55 55 56 69 57 88 58 53 59 54 60 68 62 89 63 56 64
REMARK SMILES IDX 40 65 41 66 49 67 42 68 48 69 50 70 47 71 43 72 44 73 45 74
REMARK SMILES IDX 46 75 72 76 73 77 81 78 74 79 80 80 82 81 79 82 75 83 76 84
REMARK SMILES IDX 77 85 78 86 57 87 58 88 66 89 59 90 65 91 67 92 64 93 60 94
REMARK SMILES IDX 61 95 62 96 63 97
REMARK H PARENT 87 50 55 61
REMARK Flexibility Score: inf
ROOT
ATOM      1  O   UNL A   1      31.460  30.374  25.576  1.00  0.00    -0.374 OA
ENDROOT
BRANCH   1   2
ATOM      2  C   UNL A   1      30.719  29.691  24.565  1.00  0.00     0.202 C 
BRANCH   2   3
ATOM      3  C   UNL A   1      31.467  28.556  23.861  1.00  0.00     0.261 C 
BRANCH   3   4
ATOM      4  O   UNL A   1      30.801  28.172  22.645  1.00  0.00    -0.460 OA
BRANCH   4   5
ATOM      5  C   UNL A   1      31.164  26.973  22.135  1.00  0.00     0.330 C 
ATOM      6  O   UNL A   1      31.273  26.683  20.953  1.00  0.00    -0.247 OA
BRANCH   5   7
ATOM      7  C   UNL A   1      31.519  25.999  23.188  1.00  0.00     0.094 C 
ATOM      8  C   UNL A   1      30.773  24.962  23.600  1.00  0.00     0.015 C 
BRANCH   8   9
ATOM      9  C   UNL A   1      31.186  24.057  24.688  1.00  0.00    -0.025 A 
ATOM     10  C   UNL A   1      32.569  22.170  25.436  1.00  0.00     0.001 A 
ATOM     11  C   UNL A   1      31.984  22.276  26.709  1.00  0.00     0.010 A 
ATOM     12  C   UNL A   1      32.146  23.065  24.433  1.00  0.00     0.018 A 
ATOM     13  C   UNL A   1      31.016  23.244  26.974  1.00  0.00     0.001 A 
ATOM     14  C   UNL A   1      30.615  24.122  25.967  1.00  0.00     0.008 A 
BRANCH  10  15
ATOM     15  C   UNL A   1      33.609  21.163  25.183  1.00  0.00     0.073 A 
ATOM     16  C   UNL A   1      34.070  18.892  24.827  1.00  0.00     0.129 A 
ATOM     17  C   UNL A   1      35.434  19.168  24.797  1.00  0.00     0.060 A 
ATOM     18  N   UNL A   1      33.176  19.887  25.026  1.00  0.00    -0.231 NA
ATOM     19  C   UNL A   1      35.893  20.481  24.946  1.00  0.00     0.061 A 
ATOM     20  C   UNL A   1      34.955  21.495  25.144  1.00  0.00     0.042 A 
BRANCH  16  21
ATOM     21  N   UNL A   1      33.602  17.601  24.622  1.00  0.00    -0.363 N 
ATOM     22  C   UNL A   1      32.241  17.267  25.000  1.00  0.00     0.144 C 
ATOM     23  C   UNL A   1      34.244  16.837  23.565  1.00  0.00     0.144 C 
ENDBRANCH  16  21
BRANCH  19  24
ATOM     24  C   UNL A   1      37.357  20.809  24.886  1.00  0.00     0.416 C 
ATOM     25  F   UNL A   1      38.137  19.700  24.781  1.00  0.00    -0.166 F 
ATOM     26  F   UNL A   1      37.665  21.587  23.810  1.00  0.00    -0.166 F 
ATOM     27  F   UNL A   1      37.810  21.490  25.975  1.00  0.00    -0.166 F 
ENDBRANCH  19  24
ENDBRANCH  10  15
ENDBRANCH   8   9
ENDBRANCH   5   7
ENDBRANCH   4   5
ENDBRANCH   3   4
ENDBRANCH   2   3
ENDBRANCH   1   2
BRANCH   1  28
ATOM     28  C   UNL A   1      31.027  31.697  25.902  1.00  0.00     0.202 C 
BRANCH  28  29
ATOM     29  C   UNL A   1      31.612  32.294  27.188  1.00  0.00     0.261 C 
BRANCH  29  30
ATOM     30  O   UNL A   1      32.685  33.213  26.913  1.00  0.00    -0.460 OA
BRANCH  30  31
ATOM     31  C   UNL A   1      33.253  33.775  28.008  1.00  0.00     0.338 C 
ATOM     32  O   UNL A   1      32.752  34.623  28.738  1.00  0.00    -0.246 OA
BRANCH  31  33
ATOM     33  C   UNL A   1      34.517  33.087  28.334  1.00  0.00     0.060 A 
ATOM     34  C   UNL A   1      34.452  31.719  28.628  1.00  0.00     0.016 A 
ATOM     35  C   UNL A   1      35.734  33.767  28.405  1.00  0.00     0.016 A 
ATOM     36  C   UNL A   1      35.596  31.035  29.038  1.00  0.00     0.010 A 
ATOM     37  C   UNL A   1      36.881  33.081  28.825  1.00  0.00     0.010 A 
ATOM     38  C   UNL A   1      36.812  31.719  29.174  1.00  0.00    -0.014 A 
BRANCH  38  39
ATOM     39  C   UNL A   1      37.967  31.046  29.821  1.00  0.00     0.031 A 
ATOM     40  C   UNL A   1      38.295  31.386  31.251  1.00  0.00     0.074 A 
ATOM     41  C   UNL A   1      38.685  30.117  29.166  1.00  0.00     0.049 A 
ATOM     42  N   UNL A   1      39.280  30.964  32.001  1.00  0.00    -0.248 NA
ATOM     43  C   UNL A   1      37.387  32.329  31.923  1.00  0.00     0.031 C 
ATOM     44  C   UNL A   1      38.424  29.658  27.801  1.00  0.00     0.029 A 
ATOM     45  N   UNL A   1      39.782  29.392  29.559  1.00  0.00    -0.354 N 
ATOM     46  C   UNL A   1      39.106  31.579  33.237  1.00  0.00     0.074 A 
ATOM     47  C   UNL A   1      37.949  32.441  33.117  1.00  0.00     0.031 C 
ATOM     48  C   UNL A   1      39.342  28.732  27.471  1.00  0.00     0.029 A 
ATOM     49  C   UNL A   1      40.279  28.563  28.581  1.00  0.00     0.049 A 
ATOM     50  H   UNL A   1      40.175  29.458  30.460  1.00  0.00     0.167 HD
ATOM     51  C   UNL A   1      39.835  31.429  34.371  1.00  0.00     0.034 A 
ATOM     52  C   UNL A   1      41.378  27.780  28.574  1.00  0.00     0.034 A 
ATOM     53  C   UNL A   1      40.999  30.585  34.473  1.00  0.00     0.049 A 
ATOM     54  C   UNL A   1      42.245  27.724  29.813  1.00  0.00     0.074 A 
ATOM     55  C   UNL A   1      41.828  30.384  35.564  1.00  0.00     0.029 A 
ATOM     56  N   UNL A   1      41.507  29.804  33.443  1.00  0.00    -0.354 N 
ATOM     57  N   UNL A   1      42.077  28.326  30.969  1.00  0.00    -0.248 NA
ATOM     58  C   UNL A   1      43.444  26.878  29.747  1.00  0.00     0.031 C 
ATOM     59  C   UNL A   1      42.866  29.530  35.177  1.00  0.00     0.029 A 
ATOM     60  C   UNL A   1      42.647  29.139  33.867  1.00  0.00     0.049 A 
ATOM     61  H   UNL A   1      41.113  29.733  32.543  1.00  0.00     0.167 HD
ATOM     62  C   UNL A   1      43.128  27.893  31.777  1.00  0.00     0.074 A 
ATOM     63  C   UNL A   1      43.913  26.975  30.981  1.00  0.00     0.031 C 
ATOM     64  C   UNL A   1      43.417  28.221  33.062  1.00  0.00     0.034 A 
BRANCH  51  65
ATOM     65  C   UNL A   1      39.407  32.228  35.577  1.00  0.00     0.023 A 
ATOM     66  C   UNL A   1      38.659  31.646  36.616  1.00  0.00     0.031 A 
ATOM     67  C   UNL A   1      39.734  33.591  35.683  1.00  0.00     0.131 A 
ATOM     68  C   UNL A   1      38.211  32.438  37.685  1.00  0.00     0.055 A 
ATOM     69  C   UNL A   1      39.348  34.356  36.785  1.00  0.00     0.041 A 
ATOM     70  F   UNL A   1      40.425  34.206  34.711  1.00  0.00    -0.206 F 
ATOM     71  C   UNL A   1      38.571  33.784  37.788  1.00  0.00     0.022 A 
BRANCH  68  72
ATOM     72  S   UNL A   1      37.047  31.716  38.872  1.00  0.00     0.124 S 
ATOM     73  O   UNL A   1      36.895  30.361  38.349  1.00  0.00    -0.237 OA
ATOM     74  O   UNL A   1      37.767  31.837  40.134  1.00  0.00    -0.237 OA
ATOM     75  O   UNL A   1      35.861  32.561  38.747  1.00  0.00    -0.744 OA
ENDBRANCH  68  72
ENDBRANCH  51  65
BRANCH  52  76
ATOM     76  C   UNL A   1      41.767  27.014  27.354  1.00  0.00     0.023 A 
ATOM     77  C   UNL A   1      41.577  25.624  27.281  1.00  0.00     0.031 A 
ATOM     78  C   UNL A   1      42.427  27.644  26.283  1.00  0.00     0.131 A 
ATOM     79  C   UNL A   1      42.101  24.902  26.197  1.00  0.00     0.055 A 
ATOM     80  C   UNL A   1      42.889  26.929  25.176  1.00  0.00     0.041 A 
ATOM     81  F   UNL A   1      42.640  28.969  26.301  1.00  0.00    -0.206 F 
ATOM     82  C   UNL A   1      42.744  25.546  25.138  1.00  0.00     0.022 A 
BRANCH  79  83
ATOM     83  S   UNL A   1      42.043  23.089  26.254  1.00  0.00     0.124 S 
ATOM     84  O   UNL A   1      40.612  22.844  26.393  1.00  0.00    -0.237 OA
ATOM     85  O   UNL A   1      42.635  22.728  24.971  1.00  0.00    -0.237 OA
ATOM     86  O   UNL A   1      42.849  22.760  27.427  1.00  0.00    -0.744 OA
ENDBRANCH  79  83
ENDBRANCH  52  76
BRANCH  64  87
ATOM     87  C   UNL A   1      44.596  27.526  33.701  1.00  0.00     0.023 A 
ATOM     88  C   UNL A   1      44.536  26.183  34.110  1.00  0.00     0.031 A 
ATOM     89  C   UNL A   1      45.796  28.230  33.914  1.00  0.00     0.131 A 
ATOM     90  C   UNL A   1      45.634  25.602  34.762  1.00  0.00     0.055 A 
ATOM     91  C   UNL A   1      46.905  27.629  34.510  1.00  0.00     0.041 A 
ATOM     92  F   UNL A   1      45.909  29.515  33.542  1.00  0.00    -0.206 F 
ATOM     93  C   UNL A   1      46.823  26.312  34.951  1.00  0.00     0.022 A 
BRANCH  90  94
ATOM     94  S   UNL A   1      45.459  23.929  35.442  1.00  0.00     0.124 S 
ATOM     95  O   UNL A   1      44.128  23.980  36.038  1.00  0.00    -0.237 OA
ATOM     96  O   UNL A   1      45.593  23.093  34.253  1.00  0.00    -0.237 OA
ATOM     97  O   UNL A   1      46.563  23.828  36.396  1.00  0.00    -0.744 OA
ENDBRANCH  90  94
ENDBRANCH  64  87
ENDBRANCH  38  39
ENDBRANCH  31  33
ENDBRANCH  30  31
ENDBRANCH  29  30
ENDBRANCH  28  29
ENDBRANCH   1  28
TORSDOF 21
ENDMDL
MODEL 2
REMARK VINA RESULT:     -11.4      2.088      2.647
REMARK SMILES CN(C)c1cc(C(F)(F)F)cc(-c2cccc(/C=C/C(=O)OCCOCCOC(=O)c3ccc(-c4c5nc(c(-c6cc(S(=O)(=O)[O-])ccc6F)c6ccc([nH]6)c(-c6cc(S(=O)(=O)[O-])ccc6F)c6nc(c(-c7cc(S(=O)(=O)[O-])ccc7F)c7ccc4[nH]7)C=C6)C=C5)cc3)c2)n1
REMARK SMILES IDX 25 1 24 2 23 3 22 4 20 5 21 6 19 7 18 8 17 9 13 10 14 11
REMARK SMILES IDX 94 12 15 13 16 14 12 15 4 16 5 17 95 18 6 19 11 20 2 21 1 22
REMARK SMILES IDX 3 23 7 24 8 25 9 26 10 27 26 28 27 29 28 30 29 31 30 32
REMARK SMILES IDX 31 33 32 34 93 35 33 36 92 37 34 38 35 39 36 40 86 41 37 42
REMARK SMILES IDX 91 43 85 44 87 45 38 46 90 47 84 48 83 49 39 51 71 52 51 53
REMARK SMILES IDX 70 54 52 55 55 56 69 57 88 58 53 59 54 60 68 62 89 63 56 64
REMARK SMILES IDX 40 65 41 66 49 67 42 68 48 69 50 70 47 71 43 72 44 73 45 74
REMARK SMILES IDX 46 75 72 76 73 77 81 78 74 79 80 80 82 81 79 82 75 83 76 84
REMARK SMILES IDX 77 85 78 86 57 87 58 88 66 89 59 90 65 91 67 92 64 93 60 94
REMARK SMILES IDX 61 95 62 96 63 97
REMARK H PARENT 87 50 55 61
REMARK Flexibility Score: inf
ROOT
ATOM      1  O   UNL A   1      31.469  30.266  25.420  1.00  0.00    -0.374 OA
ENDROOT
BRANCH   1   2
ATOM      2  C   UNL A   1      30.743  29.573  24.404  1.00  0.00     0.202 C 
BRANCH   2   3
ATOM      3  C   UNL A   1      31.501  28.430  23.724  1.00  0.00     0.261 C 
BRANCH   3   4
ATOM      4  O   UNL A   1      30.810  27.977  22.547  1.00  0.00    -0.460 OA
BRANCH   4   5
ATOM      5  C   UNL A   1      31.222  26.789  22.049  1.00  0.00     0.330 C 
ATOM      6  O   UNL A   1      31.403  26.510  20.873  1.00  0.00    -0.247 OA
BRANCH   5   7
ATOM      7  C   UNL A   1      31.534  25.812  23.114  1.00  0.00     0.094 C 
ATOM      8  C   UNL A   1      30.821  24.718  23.426  1.00  0.00     0.015 C 
BRANCH   8   9
ATOM      9  C   UNL A   1      31.182  23.813  24.533  1.00  0.00    -0.025 A 
ATOM     10  C   UNL A   1      32.476  21.882  25.327  1.00  0.00     0.001 A 
ATOM     11  C   UNL A   1      31.879  22.031  26.589  1.00  0.00     0.010 A 
ATOM     12  C   UNL A   1      32.105  22.779  24.305  1.00  0.00     0.018 A 
ATOM     13  C   UNL A   1      30.949  23.041  26.827  1.00  0.00     0.001 A 
ATOM     14  C   UNL A   1      30.598  23.921  25.803  1.00  0.00     0.008 A 
BRANCH  10  15
ATOM     15  C   UNL A   1      33.478  20.830  25.103  1.00  0.00     0.073 A 
ATOM     16  C   UNL A   1      35.761  20.310  25.002  1.00  0.00     0.129 A 
ATOM     17  C   UNL A   1      35.454  19.005  24.626  1.00  0.00     0.060 A 
ATOM     18  N   UNL A   1      34.775  21.207  25.228  1.00  0.00    -0.231 NA
ATOM     19  C   UNL A   1      34.120  18.601  24.505  1.00  0.00     0.061 A 
ATOM     20  C   UNL A   1      33.116  19.539  24.748  1.00  0.00     0.042 A 
BRANCH  16  21
ATOM     21  N   UNL A   1      37.081  20.704  25.182  1.00  0.00    -0.363 N 
ATOM     22  C   UNL A   1      38.152  19.777  24.868  1.00  0.00     0.144 C 
ATOM     23  C   UNL A   1      37.346  22.132  25.117  1.00  0.00     0.144 C 
ENDBRANCH  16  21
BRANCH  19  24
ATOM     24  C   UNL A   1      33.761  17.191  24.132  1.00  0.00     0.416 C 
ATOM     25  F   UNL A   1      32.554  16.811  24.630  1.00  0.00    -0.166 F 
ATOM     26  F   UNL A   1      33.680  17.022  22.783  1.00  0.00    -0.166 F 
ATOM     27  F   UNL A   1      34.660  16.265  24.568  1.00  0.00    -0.166 F 
ENDBRANCH  19  24
ENDBRANCH  10  15
ENDBRANCH   8   9
ENDBRANCH   5   7
ENDBRANCH   4   5
ENDBRANCH   3   4
ENDBRANCH   2   3
ENDBRANCH   1   2
BRANCH   1  28
ATOM     28  C   UNL A   1      31.003  31.574  25.758  1.00  0.00     0.202 C 
BRANCH  28  29
ATOM     29  C   UNL A   1      31.573  32.174  27.049  1.00  0.00     0.261 C 
BRANCH  29  30
ATOM     30  O   UNL A   1      32.667  33.073  26.786  1.00  0.00    -0.460 OA
BRANCH  30  31
ATOM     31  C   UNL A   1      33.222  33.637  27.886  1.00  0.00     0.338 C 
ATOM     32  O   UNL A   1      32.724  34.504  28.595  1.00  0.00    -0.246 OA
BRANCH  31  33
ATOM     33  C   UNL A   1      34.465  32.927  28.247  1.00  0.00     0.060 A 
ATOM     34  C   UNL A   1      34.351  31.592  28.658  1.00  0.00     0.016 A 
ATOM     35  C   UNL A   1      35.709  33.560  28.238  1.00  0.00     0.016 A 
ATOM     36  C   UNL A   1      35.476  30.899  29.105  1.00  0.00     0.010 A 
ATOM     37  C   UNL A   1      36.837  32.864  28.695  1.00  0.00     0.010 A 
ATOM     38  C   UNL A   1      36.720  31.541  29.160  1.00  0.00    -0.014 A 
BRANCH  38  39
ATOM     39  C   UNL A   1      37.860  30.877  29.843  1.00  0.00     0.031 A 
ATOM     40  C   UNL A   1      38.161  31.242  31.273  1.00  0.00     0.074 A 
ATOM     41  C   UNL A   1      38.589  29.935  29.219  1.00  0.00     0.049 A 
ATOM     42  N   UNL A   1      39.130  30.832  32.050  1.00  0.00    -0.248 NA
ATOM     43  C   UNL A   1      37.242  32.199  31.909  1.00  0.00     0.031 C 
ATOM     44  C   UNL A   1      38.355  29.452  27.858  1.00  0.00     0.029 A 
ATOM     45  N   UNL A   1      39.676  29.216  29.647  1.00  0.00    -0.354 N 
ATOM     46  C   UNL A   1      38.933  31.470  33.270  1.00  0.00     0.074 A 
ATOM     47  C   UNL A   1      37.780  32.332  33.112  1.00  0.00     0.031 C 
ATOM     48  C   UNL A   1      39.277  28.519  27.562  1.00  0.00     0.029 A 
ATOM     49  C   UNL A   1      40.192  28.368  28.694  1.00  0.00     0.049 A 
ATOM     50  H   UNL A   1      40.052  29.297  30.554  1.00  0.00     0.167 HD
ATOM     51  C   UNL A   1      39.638  31.339  34.422  1.00  0.00     0.034 A 
ATOM     52  C   UNL A   1      41.288  27.583  28.723  1.00  0.00     0.034 A 
ATOM     53  C   UNL A   1      40.799  30.495  34.561  1.00  0.00     0.049 A 
ATOM     54  C   UNL A   1      42.131  27.548  29.979  1.00  0.00     0.074 A 
ATOM     55  C   UNL A   1      41.605  30.311  35.672  1.00  0.00     0.029 A 
ATOM     56  N   UNL A   1      41.325  29.694  33.556  1.00  0.00    -0.354 N 
ATOM     57  N   UNL A   1      41.941  28.171  31.121  1.00  0.00    -0.248 NA
ATOM     58  C   UNL A   1      43.328  26.698  29.953  1.00  0.00     0.031 C 
ATOM     59  C   UNL A   1      42.649  29.449  35.322  1.00  0.00     0.029 A 
ATOM     60  C   UNL A   1      42.455  29.035  34.014  1.00  0.00     0.049 A 
ATOM     61  H   UNL A   1      40.949  29.608  32.650  1.00  0.00     0.167 HD
ATOM     62  C   UNL A   1      42.975  27.750  31.957  1.00  0.00     0.074 A 
ATOM     63  C   UNL A   1      43.774  26.816  31.194  1.00  0.00     0.031 C 
ATOM     64  C   UNL A   1      43.239  28.101  33.242  1.00  0.00     0.034 A 
BRANCH  51  65
ATOM     65  C   UNL A   1      39.189  32.160  35.604  1.00  0.00     0.023 A 
ATOM     66  C   UNL A   1      39.599  33.495  35.770  1.00  0.00     0.031 A 
ATOM     67  C   UNL A   1      38.355  31.600  36.588  1.00  0.00     0.131 A 
ATOM     68  C   UNL A   1      39.226  34.205  36.921  1.00  0.00     0.055 A 
ATOM     69  C   UNL A   1      37.927  32.335  37.695  1.00  0.00     0.041 A 
ATOM     70  F   UNL A   1      37.951  30.323  36.495  1.00  0.00    -0.206 F 
ATOM     71  C   UNL A   1      38.373  33.641  37.873  1.00  0.00     0.022 A 
BRANCH  68  72
ATOM     72  S   UNL A   1      39.973  35.829  37.220  1.00  0.00     0.124 S 
ATOM     73  O   UNL A   1      39.654  36.533  35.981  1.00  0.00    -0.237 OA
ATOM     74  O   UNL A   1      39.271  36.286  38.414  1.00  0.00    -0.237 OA
ATOM     75  O   UNL A   1      41.390  35.525  37.409  1.00  0.00    -0.744 OA
ENDBRANCH  68  72
ENDBRANCH  51  65
BRANCH  52  76
ATOM     76  C   UNL A   1      41.700  26.794  27.525  1.00  0.00     0.023 A 
ATOM     77  C   UNL A   1      41.490  25.407  27.464  1.00  0.00     0.031 A 
ATOM     78  C   UNL A   1      42.401  27.399  26.465  1.00  0.00     0.131 A 
ATOM     79  C   UNL A   1      42.033  24.661  26.406  1.00  0.00     0.055 A 
ATOM     80  C   UNL A   1      42.883  26.662  25.381  1.00  0.00     0.041 A 
ATOM     81  F   UNL A   1      42.635  28.721  26.473  1.00  0.00    -0.206 F 
ATOM     82  C   UNL A   1      42.716  25.281  25.358  1.00  0.00     0.022 A 
BRANCH  79  83
ATOM     83  S   UNL A   1      41.943  22.850  26.485  1.00  0.00     0.124 S 
ATOM     84  O   UNL A   1      42.423  22.590  27.838  1.00  0.00    -0.237 OA
ATOM     85  O   UNL A   1      40.524  22.609  26.248  1.00  0.00    -0.237 OA
ATOM     86  O   UNL A   1      42.836  22.420  25.412  1.00  0.00    -0.744 OA
ENDBRANCH  79  83
ENDBRANCH  52  76
BRANCH  64  87
ATOM     87  C   UNL A   1      44.403  27.416  33.917  1.00  0.00     0.023 A 
ATOM     88  C   UNL A   1      45.682  27.997  33.965  1.00  0.00     0.031 A 
ATOM     89  C   UNL A   1      44.228  26.152  34.510  1.00  0.00     0.131 A 
ATOM     90  C   UNL A   1      46.749  27.292  34.544  1.00  0.00     0.055 A 
ATOM     91  C   UNL A   1      45.280  25.481  35.135  1.00  0.00     0.041 A 
ATOM     92  F   UNL A   1      43.028  25.550  34.494  1.00  0.00    -0.206 F 
ATOM     93  C   UNL A   1      46.552  26.044  35.142  1.00  0.00     0.022 A 
BRANCH  90  94
ATOM     94  S   UNL A   1      48.420  27.988  34.425  1.00  0.00     0.124 S 
ATOM     95  O   UNL A   1      48.510  28.774  35.651  1.00  0.00    -0.237 OA
ATOM     96  O   UNL A   1      49.253  26.791  34.372  1.00  0.00    -0.237 OA
ATOM     97  O   UNL A   1      48.379  28.768  33.188  1.00  0.00    -0.744 OA
ENDBRANCH  90  94
ENDBRANCH  64  87
ENDBRANCH  38  39
ENDBRANCH  31  33
ENDBRANCH  30  31
ENDBRANCH  29  30
ENDBRANCH  28  29
ENDBRANCH   1  28
TORSDOF 21
ENDMDL
MODEL 3
REMARK VINA RESULT:     -10.8      6.063     10.733
REMARK SMILES CN(C)c1cc(C(F)(F)F)cc(-c2cccc(/C=C/C(=O)OCCOCCOC(=O)c3ccc(-c4c5nc(c(-c6cc(S(=O)(=O)[O-])ccc6F)c6ccc([nH]6)c(-c6cc(S(=O)(=O)[O-])ccc6F)c6nc(c(-c7cc(S(=O)(=O)[O-])ccc7F)c7ccc4[nH]7)C=C6)C=C5)cc3)c2)n1
REMARK SMILES IDX 25 1 24 2 23 3 22 4 20 5 21 6 19 7 18 8 17 9 13 10 14 11
REMARK SMILES IDX 94 12 15 13 16 14 12 15 4 16 5 17 95 18 6 19 11 20 2 21 1 22
REMARK SMILES IDX 3 23 7 24 8 25 9 26 10 27 26 28 27 29 28 30 29 31 30 32
REMARK SMILES IDX 31 33 32 34 93 35 33 36 92 37 34 38 35 39 36 40 86 41 37 42
REMARK SMILES IDX 91 43 85 44 87 45 38 46 90 47 84 48 83 49 39 51 71 52 51 53
REMARK SMILES IDX 70 54 52 55 55 56 69 57 88 58 53 59 54 60 68 62 89 63 56 64
REMARK SMILES IDX 40 65 41 66 49 67 42 68 48 69 50 70 47 71 43 72 44 73 45 74
REMARK SMILES IDX 46 75 72 76 73 77 81 78 74 79 80 80 82 81 79 82 75 83 76 84
REMARK SMILES IDX 77 85 78 86 57 87 58 88 66 89 59 90 65 91 67 92 64 93 60 94
REMARK SMILES IDX 61 95 62 96 63 97
REMARK H PARENT 87 50 55 61
REMARK Flexibility Score: inf
ROOT
ATOM      1  O   UNL A   1      38.389  22.543  25.827  1.00  0.00    -0.374 OA
ENDROOT
BRANCH   1   2
ATOM      2  C   UNL A   1      38.097  23.916  26.089  1.00  0.00     0.202 C 
BRANCH   2   3
ATOM      3  C   UNL A   1      39.082  24.627  27.020  1.00  0.00     0.261 C 
BRANCH   3   4
ATOM      4  O   UNL A   1      40.091  25.327  26.271  1.00  0.00    -0.460 OA
BRANCH   4   5
ATOM      5  C   UNL A   1      40.383  26.573  26.709  1.00  0.00     0.330 C 
ATOM      6  O   UNL A   1      41.144  27.373  26.187  1.00  0.00    -0.247 OA
BRANCH   5   7
ATOM      7  C   UNL A   1      39.598  26.946  27.904  1.00  0.00     0.094 C 
ATOM      8  C   UNL A   1      39.718  28.078  28.616  1.00  0.00     0.015 C 
BRANCH   8   9
ATOM      9  C   UNL A   1      38.919  28.356  29.824  1.00  0.00    -0.025 A 
ATOM     10  C   UNL A   1      37.262  29.765  30.965  1.00  0.00     0.001 A 
ATOM     11  C   UNL A   1      37.401  28.961  32.108  1.00  0.00     0.010 A 
ATOM     12  C   UNL A   1      38.041  29.451  29.833  1.00  0.00     0.018 A 
ATOM     13  C   UNL A   1      38.280  27.880  32.122  1.00  0.00     0.001 A 
ATOM     14  C   UNL A   1      39.039  27.585  30.989  1.00  0.00     0.008 A 
BRANCH  10  15
ATOM     15  C   UNL A   1      36.307  30.882  30.959  1.00  0.00     0.073 A 
ATOM     16  C   UNL A   1      34.915  32.242  29.652  1.00  0.00     0.129 A 
ATOM     17  C   UNL A   1      34.587  32.996  30.775  1.00  0.00     0.060 A 
ATOM     18  N   UNL A   1      35.773  31.202  29.753  1.00  0.00    -0.231 NA
ATOM     19  C   UNL A   1      35.122  32.669  32.026  1.00  0.00     0.061 A 
ATOM     20  C   UNL A   1      36.001  31.589  32.112  1.00  0.00     0.042 A 
BRANCH  16  21
ATOM     21  N   UNL A   1      34.344  32.522  28.417  1.00  0.00    -0.363 N 
ATOM     22  C   UNL A   1      33.887  31.429  27.578  1.00  0.00     0.144 C 
ATOM     23  C   UNL A   1      33.722  33.827  28.270  1.00  0.00     0.144 C 
ENDBRANCH  16  21
BRANCH  19  24
ATOM     24  C   UNL A   1      34.759  33.447  33.259  1.00  0.00     0.416 C 
ATOM     25  F   UNL A   1      33.462  33.267  33.626  1.00  0.00    -0.166 F 
ATOM     26  F   UNL A   1      35.508  33.080  34.336  1.00  0.00    -0.166 F 
ATOM     27  F   UNL A   1      34.934  34.791  33.127  1.00  0.00    -0.166 F 
ENDBRANCH  19  24
ENDBRANCH  10  15
ENDBRANCH   8   9
ENDBRANCH   5   7
ENDBRANCH   4   5
ENDBRANCH   3   4
ENDBRANCH   2   3
ENDBRANCH   1   2
BRANCH   1  28
ATOM     28  C   UNL A   1      39.409  21.943  26.628  1.00  0.00     0.202 C 
BRANCH  28  29
ATOM     29  C   UNL A   1      40.102  20.717  26.021  1.00  0.00     0.261 C 
BRANCH  29  30
ATOM     30  O   UNL A   1      41.291  20.357  26.749  1.00  0.00    -0.460 OA
BRANCH  30  31
ATOM     31  C   UNL A   1      42.457  20.660  26.128  1.00  0.00     0.338 C 
ATOM     32  O   UNL A   1      42.977  20.041  25.206  1.00  0.00    -0.246 OA
BRANCH  31  33
ATOM     33  C   UNL A   1      42.950  21.973  26.586  1.00  0.00     0.060 A 
ATOM     34  C   UNL A   1      42.954  23.022  25.658  1.00  0.00     0.016 A 
ATOM     35  C   UNL A   1      43.450  22.168  27.875  1.00  0.00     0.016 A 
ATOM     36  C   UNL A   1      43.498  24.260  26.003  1.00  0.00     0.010 A 
ATOM     37  C   UNL A   1      44.004  23.409  28.217  1.00  0.00     0.010 A 
ATOM     38  C   UNL A   1      44.059  24.451  27.272  1.00  0.00    -0.014 A 
BRANCH  38  39
ATOM     39  C   UNL A   1      44.834  25.686  27.556  1.00  0.00     0.031 A 
ATOM     40  C   UNL A   1      44.270  26.689  28.527  1.00  0.00     0.074 A 
ATOM     41  C   UNL A   1      46.040  25.893  26.996  1.00  0.00     0.049 A 
ATOM     42  N   UNL A   1      44.743  27.853  28.889  1.00  0.00    -0.248 NA
ATOM     43  C   UNL A   1      43.000  26.325  29.177  1.00  0.00     0.031 C 
ATOM     44  C   UNL A   1      46.719  24.966  26.090  1.00  0.00     0.029 A 
ATOM     45  N   UNL A   1      46.907  26.951  27.104  1.00  0.00    -0.354 N 
ATOM     46  C   UNL A   1      43.837  28.359  29.816  1.00  0.00     0.074 A 
ATOM     47  C   UNL A   1      42.763  27.393  29.922  1.00  0.00     0.031 C 
ATOM     48  C   UNL A   1      47.896  25.502  25.721  1.00  0.00     0.029 A 
ATOM     49  C   UNL A   1      48.036  26.825  26.328  1.00  0.00     0.049 A 
ATOM     50  H   UNL A   1      46.737  27.728  27.684  1.00  0.00     0.167 HD
ATOM     51  C   UNL A   1      43.902  29.513  30.526  1.00  0.00     0.034 A 
ATOM     52  C   UNL A   1      49.050  27.688  26.114  1.00  0.00     0.034 A 
ATOM     53  C   UNL A   1      44.965  30.478  30.396  1.00  0.00     0.049 A 
ATOM     54  C   UNL A   1      49.037  29.024  26.824  1.00  0.00     0.074 A 
ATOM     55  C   UNL A   1      45.113  31.694  31.043  1.00  0.00     0.029 A 
ATOM     56  N   UNL A   1      46.063  30.342  29.557  1.00  0.00    -0.354 N 
ATOM     57  N   UNL A   1      48.164  29.496  27.686  1.00  0.00    -0.248 NA
ATOM     58  C   UNL A   1      50.150  29.939  26.538  1.00  0.00     0.031 C 
ATOM     59  C   UNL A   1      46.265  32.316  30.553  1.00  0.00     0.029 A 
ATOM     60  C   UNL A   1      46.878  31.459  29.654  1.00  0.00     0.049 A 
ATOM     61  H   UNL A   1      46.237  29.564  28.979  1.00  0.00     0.167 HD
ATOM     62  C   UNL A   1      48.651  30.744  28.073  1.00  0.00     0.074 A 
ATOM     63  C   UNL A   1      49.894  30.944  27.361  1.00  0.00     0.031 C 
ATOM     64  C   UNL A   1      48.120  31.642  28.941  1.00  0.00     0.034 A 
BRANCH  51  65
ATOM     65  C   UNL A   1      42.766  29.804  31.476  1.00  0.00     0.023 A 
ATOM     66  C   UNL A   1      42.744  29.276  32.778  1.00  0.00     0.031 A 
ATOM     67  C   UNL A   1      41.684  30.605  31.070  1.00  0.00     0.131 A 
ATOM     68  C   UNL A   1      41.635  29.502  33.607  1.00  0.00     0.055 A 
ATOM     69  C   UNL A   1      40.618  30.888  31.925  1.00  0.00     0.041 A 
ATOM     70  F   UNL A   1      41.639  31.117  29.830  1.00  0.00    -0.206 F 
ATOM     71  C   UNL A   1      40.582  30.325  33.198  1.00  0.00     0.022 A 
BRANCH  68  72
ATOM     72  S   UNL A   1      41.528  28.606  35.179  1.00  0.00     0.124 S 
ATOM     73  O   UNL A   1      41.152  27.268  34.730  1.00  0.00    -0.237 OA
ATOM     74  O   UNL A   1      42.877  28.745  35.715  1.00  0.00    -0.237 OA
ATOM     75  O   UNL A   1      40.488  29.324  35.914  1.00  0.00    -0.744 OA
ENDBRANCH  68  72
ENDBRANCH  51  65
BRANCH  52  76
ATOM     76  C   UNL A   1      50.149  27.360  25.158  1.00  0.00     0.023 A 
ATOM     77  C   UNL A   1      49.985  27.547  23.776  1.00  0.00     0.031 A 
ATOM     78  C   UNL A   1      51.341  26.762  25.603  1.00  0.00     0.131 A 
ATOM     79  C   UNL A   1      50.963  27.078  22.885  1.00  0.00     0.055 A 
ATOM     80  C   UNL A   1      52.341  26.356  24.716  1.00  0.00     0.041 A 
ATOM     81  F   UNL A   1      51.550  26.554  26.913  1.00  0.00    -0.206 F 
ATOM     82  C   UNL A   1      52.146  26.496  23.347  1.00  0.00     0.022 A 
BRANCH  79  83
ATOM     83  S   UNL A   1      50.609  27.124  21.106  1.00  0.00     0.124 S 
ATOM     84  O   UNL A   1      50.678  28.555  20.828  1.00  0.00    -0.237 OA
ATOM     85  O   UNL A   1      51.691  26.311  20.562  1.00  0.00    -0.237 OA
ATOM     86  O   UNL A   1      49.277  26.533  21.010  1.00  0.00    -0.744 OA
ENDBRANCH  79  83
ENDBRANCH  52  76
BRANCH  64  87
ATOM     87  C   UNL A   1      48.924  32.891  29.215  1.00  0.00     0.023 A 
ATOM     88  C   UNL A   1      48.755  34.064  28.460  1.00  0.00     0.031 A 
ATOM     89  C   UNL A   1      49.883  32.899  30.244  1.00  0.00     0.131 A 
ATOM     90  C   UNL A   1      49.573  35.178  28.707  1.00  0.00     0.055 A 
ATOM     91  C   UNL A   1      50.653  34.028  30.523  1.00  0.00     0.041 A 
ATOM     92  F   UNL A   1      50.086  31.806  30.998  1.00  0.00    -0.206 F 
ATOM     93  C   UNL A   1      50.510  35.172  29.743  1.00  0.00     0.022 A 
BRANCH  90  94
ATOM     94  S   UNL A   1      49.458  36.607  27.595  1.00  0.00     0.124 S 
ATOM     95  O   UNL A   1      50.216  36.153  26.435  1.00  0.00    -0.237 OA
ATOM     96  O   UNL A   1      48.017  36.738  27.404  1.00  0.00    -0.237 OA
ATOM     97  O   UNL A   1      50.080  37.687  28.360  1.00  0.00    -0.744 OA
ENDBRANCH  90  94
ENDBRANCH  64  87
ENDBRANCH  38  39
ENDBRANCH  31  33
ENDBRANCH  30  31
ENDBRANCH  29  30
ENDBRANCH  28  29
ENDBRANCH   1  28
TORSDOF 21
ENDMDL
