MODEL 1
REMARK VINA RESULT:     -10.1      0.000      0.000
REMARK SMILES Cc1ccc(C)c(CC(=O)N(CC(=O)OCCOCCOC(=O)c2ccc(-c3c4nc(c(-c5cc(S(=O)(=O)[O-])ccc5F)c5ccc([nH]5)c(-c5cc(S(=O)(=O)[O-])ccc5F)c5nc(c(-c6cc(S(=O)(=O)[O-])ccc6F)c6ccc3[nH]6)C=C5)C=C4)cc2)CC(F)(F)F)c1
REMARK SMILES IDX 17 1 16 2 15 3 13 4 14 5 12 6 11 7 9 8 10 9 8 10 7 11 1 12
REMARK SMILES IDX 2 13 3 14 92 15 4 16 5 17 6 18 87 19 88 20 89 21 90 22 91 23
REMARK SMILES IDX 18 24 19 25 20 26 21 27 22 28 23 29 24 30 25 31 86 32 26 33
REMARK SMILES IDX 85 34 27 35 28 36 29 37 79 38 30 39 84 40 78 41 80 42 31 43
REMARK SMILES IDX 83 44 77 45 76 46 32 48 64 49 44 50 63 51 45 52 48 53 62 54
REMARK SMILES IDX 81 55 46 56 47 57 61 59 82 60 49 61 33 62 34 63 42 64 35 65
REMARK SMILES IDX 41 66 43 67 40 68 36 69 37 70 38 71 39 72 65 73 66 74 74 75
REMARK SMILES IDX 67 76 73 77 75 78 72 79 68 80 69 81 70 82 71 83 50 84 51 85
REMARK SMILES IDX 59 86 52 87 58 88 60 89 57 90 53 91 54 92 55 93 56 94
REMARK H PARENT 80 47 48 58
REMARK Flexibility Score: inf
ROOT
ATOM      1  C   UNL A   1      46.914  19.016  38.864  1.00  0.00     0.202 C 
ENDROOT
BRANCH   1   2
ATOM      2  C   UNL A   1      46.314  17.729  39.383  1.00  0.00     0.261 C 
BRANCH   2   3
ATOM      3  O   UNL A   1      44.894  17.737  39.209  1.00  0.00    -0.462 OA
BRANCH   3   4
ATOM      4  C   UNL A   1      44.149  16.615  39.433  1.00  0.00     0.325 C 
ATOM      5  O   UNL A   1      44.191  15.558  38.864  1.00  0.00    -0.250 OA
BRANCH   4   6
ATOM      6  C   UNL A   1      43.130  16.912  40.520  1.00  0.00     0.242 C 
BRANCH   6   7
ATOM      7  N   UNL A   1      43.362  15.959  41.592  1.00  0.00    -0.322 N 
BRANCH   7   8
ATOM      8  C   UNL A   1      42.394  15.091  42.075  1.00  0.00     0.227 C 
ATOM      9  O   UNL A   1      41.446  14.805  41.334  1.00  0.00    -0.275 OA
BRANCH   8  10
ATOM     10  C   UNL A   1      42.462  14.550  43.519  1.00  0.00     0.136 C 
BRANCH  10  11
ATOM     11  C   UNL A   1      42.979  13.129  43.755  1.00  0.00    -0.035 A 
ATOM     12  C   UNL A   1      46.323  11.545  44.834  1.00  0.00     0.044 C 
ATOM     13  C   UNL A   1      44.882  11.698  44.431  1.00  0.00    -0.051 A 
ATOM     14  C   UNL A   1      44.069  10.571  44.345  1.00  0.00     0.004 A 
ATOM     15  C   UNL A   1      44.318  12.965  44.186  1.00  0.00     0.008 A 
ATOM     16  C   UNL A   1      42.738  10.706  43.961  1.00  0.00     0.004 A 
ATOM     17  C   UNL A   1      42.186  11.967  43.639  1.00  0.00    -0.047 A 
ATOM     18  C   UNL A   1      40.802  11.968  43.058  1.00  0.00     0.044 C 
ENDBRANCH  10  11
ENDBRANCH   8  10
ENDBRANCH   7   8
BRANCH   7  19
ATOM     19  C   UNL A   1      44.611  16.177  42.355  1.00  0.00     0.235 C 
BRANCH  19  20
ATOM     20  C   UNL A   1      44.783  17.504  43.113  1.00  0.00     0.406 C 
ATOM     21  F   UNL A   1      43.612  17.977  43.591  1.00  0.00    -0.169 F 
ATOM     22  F   UNL A   1      45.581  17.303  44.200  1.00  0.00    -0.169 F 
ATOM     23  F   UNL A   1      45.370  18.479  42.393  1.00  0.00    -0.169 F 
ENDBRANCH  19  20
ENDBRANCH   7  19
ENDBRANCH   6   7
ENDBRANCH   4   6
ENDBRANCH   3   4
ENDBRANCH   2   3
ENDBRANCH   1   2
BRANCH   1  24
ATOM     24  O   UNL A   1      46.001  20.020  39.228  1.00  0.00    -0.374 OA
BRANCH  24  25
ATOM     25  C   UNL A   1      46.356  21.368  39.063  1.00  0.00     0.202 C 
BRANCH  25  26
ATOM     26  C   UNL A   1      46.025  21.852  37.655  1.00  0.00     0.261 C 
BRANCH  26  27
ATOM     27  O   UNL A   1      46.419  23.232  37.451  1.00  0.00    -0.460 OA
BRANCH  27  28
ATOM     28  C   UNL A   1      45.386  24.125  37.369  1.00  0.00     0.338 C 
ATOM     29  O   UNL A   1      44.711  24.476  38.323  1.00  0.00    -0.246 OA
BRANCH  28  30
ATOM     30  C   UNL A   1      45.091  24.454  35.940  1.00  0.00     0.060 A 
ATOM     31  C   UNL A   1      46.124  24.910  35.103  1.00  0.00     0.016 A 
ATOM     32  C   UNL A   1      43.760  24.644  35.562  1.00  0.00     0.016 A 
ATOM     33  C   UNL A   1      45.813  25.672  33.964  1.00  0.00     0.010 A 
ATOM     34  C   UNL A   1      43.470  25.525  34.530  1.00  0.00     0.010 A 
ATOM     35  C   UNL A   1      44.486  26.062  33.720  1.00  0.00    -0.014 A 
BRANCH  35  36
ATOM     36  C   UNL A   1      44.042  26.548  32.395  1.00  0.00     0.031 A 
ATOM     37  C   UNL A   1      44.353  25.490  31.426  1.00  0.00     0.074 A 
ATOM     38  C   UNL A   1      43.322  27.622  31.987  1.00  0.00     0.049 A 
ATOM     39  N   UNL A   1      45.368  25.514  30.628  1.00  0.00    -0.248 NA
ATOM     40  C   UNL A   1      43.704  24.173  31.545  1.00  0.00     0.031 C 
ATOM     41  C   UNL A   1      42.949  28.791  32.753  1.00  0.00     0.029 A 
ATOM     42  N   UNL A   1      42.679  27.869  30.795  1.00  0.00    -0.354 N 
ATOM     43  C   UNL A   1      45.224  24.352  29.904  1.00  0.00     0.074 A 
ATOM     44  C   UNL A   1      44.476  23.449  30.733  1.00  0.00     0.031 C 
ATOM     45  C   UNL A   1      41.915  29.447  32.180  1.00  0.00     0.029 A 
ATOM     46  C   UNL A   1      41.681  28.855  30.877  1.00  0.00     0.049 A 
ATOM     47  H   UNL A   1      42.898  27.399  29.959  1.00  0.00     0.167 HD
ATOM     48  C   UNL A   1      45.281  24.411  28.551  1.00  0.00     0.034 A 
ATOM     49  C   UNL A   1      40.798  29.281  29.930  1.00  0.00     0.034 A 
ATOM     50  C   UNL A   1      45.970  25.602  28.092  1.00  0.00     0.049 A 
ATOM     51  C   UNL A   1      41.483  29.090  28.638  1.00  0.00     0.074 A 
ATOM     52  C   UNL A   1      47.145  26.231  28.469  1.00  0.00     0.029 A 
ATOM     53  N   UNL A   1      45.262  26.544  27.380  1.00  0.00    -0.354 N 
ATOM     54  N   UNL A   1      42.530  29.781  28.281  1.00  0.00    -0.248 NA
ATOM     55  C   UNL A   1      41.288  27.839  27.929  1.00  0.00     0.031 C 
ATOM     56  C   UNL A   1      46.882  27.626  28.370  1.00  0.00     0.029 A 
ATOM     57  C   UNL A   1      45.605  27.798  27.835  1.00  0.00     0.049 A 
ATOM     58  H   UNL A   1      44.616  26.352  26.662  1.00  0.00     0.167 HD
ATOM     59  C   UNL A   1      43.367  28.849  27.699  1.00  0.00     0.074 A 
ATOM     60  C   UNL A   1      42.500  27.715  27.384  1.00  0.00     0.031 C 
ATOM     61  C   UNL A   1      44.724  28.960  27.807  1.00  0.00     0.034 A 
BRANCH  48  62
ATOM     62  C   UNL A   1      44.364  23.577  27.700  1.00  0.00     0.023 A 
ATOM     63  C   UNL A   1      44.955  22.770  26.729  1.00  0.00     0.031 A 
ATOM     64  C   UNL A   1      42.948  23.683  27.645  1.00  0.00     0.131 A 
ATOM     65  C   UNL A   1      44.164  22.138  25.757  1.00  0.00     0.055 A 
ATOM     66  C   UNL A   1      42.160  22.974  26.743  1.00  0.00     0.041 A 
ATOM     67  F   UNL A   1      42.249  24.551  28.387  1.00  0.00    -0.206 F 
ATOM     68  C   UNL A   1      42.771  22.208  25.773  1.00  0.00     0.022 A 
BRANCH  65  69
ATOM     69  S   UNL A   1      45.010  21.360  24.369  1.00  0.00     0.124 S 
ATOM     70  O   UNL A   1      44.173  20.186  24.147  1.00  0.00    -0.237 OA
ATOM     71  O   UNL A   1      44.939  22.405  23.354  1.00  0.00    -0.237 OA
ATOM     72  O   UNL A   1      46.344  21.089  24.897  1.00  0.00    -0.744 OA
ENDBRANCH  65  69
ENDBRANCH  48  62
BRANCH  49  73
ATOM     73  C   UNL A   1      39.379  29.740  30.037  1.00  0.00     0.023 A 
ATOM     74  C   UNL A   1      39.009  31.093  29.837  1.00  0.00     0.031 A 
ATOM     75  C   UNL A   1      38.324  28.803  30.052  1.00  0.00     0.131 A 
ATOM     76  C   UNL A   1      37.655  31.452  29.627  1.00  0.00     0.055 A 
ATOM     77  C   UNL A   1      36.987  29.163  29.840  1.00  0.00     0.041 A 
ATOM     78  F   UNL A   1      38.567  27.489  30.186  1.00  0.00    -0.206 F 
ATOM     79  C   UNL A   1      36.648  30.488  29.608  1.00  0.00     0.022 A 
BRANCH  76  80
ATOM     80  S   UNL A   1      37.195  33.173  29.225  1.00  0.00     0.124 S 
ATOM     81  O   UNL A   1      36.444  33.575  30.409  1.00  0.00    -0.237 OA
ATOM     82  O   UNL A   1      38.490  33.815  29.028  1.00  0.00    -0.237 OA
ATOM     83  O   UNL A   1      36.396  33.033  28.007  1.00  0.00    -0.744 OA
ENDBRANCH  76  80
ENDBRANCH  49  73
BRANCH  61  84
ATOM     84  C   UNL A   1      45.344  30.323  28.110  1.00  0.00     0.023 A 
ATOM     85  C   UNL A   1      45.710  31.313  27.166  1.00  0.00     0.031 A 
ATOM     86  C   UNL A   1      45.505  30.653  29.471  1.00  0.00     0.131 A 
ATOM     87  C   UNL A   1      46.205  32.563  27.603  1.00  0.00     0.055 A 
ATOM     88  C   UNL A   1      45.959  31.900  29.899  1.00  0.00     0.041 A 
ATOM     89  F   UNL A   1      45.196  29.761  30.429  1.00  0.00    -0.206 F 
ATOM     90  C   UNL A   1      46.314  32.860  28.965  1.00  0.00     0.022 A 
BRANCH  87  91
ATOM     91  S   UNL A   1      46.789  33.838  26.438  1.00  0.00     0.124 S 
ATOM     92  O   UNL A   1      48.061  33.322  25.943  1.00  0.00    -0.237 OA
ATOM     93  O   UNL A   1      45.708  33.876  25.460  1.00  0.00    -0.237 OA
ATOM     94  O   UNL A   1      46.886  35.033  27.277  1.00  0.00    -0.744 OA
ENDBRANCH  87  91
ENDBRANCH  61  84
ENDBRANCH  35  36
ENDBRANCH  28  30
ENDBRANCH  27  28
ENDBRANCH  26  27
ENDBRANCH  25  26
ENDBRANCH  24  25
ENDBRANCH   1  24
TORSDOF 23
ENDMDL
MODEL 2
REMARK VINA RESULT:     -10.0      8.921     13.767
REMARK SMILES Cc1ccc(C)c(CC(=O)N(CC(=O)OCCOCCOC(=O)c2ccc(-c3c4nc(c(-c5cc(S(=O)(=O)[O-])ccc5F)c5ccc([nH]5)c(-c5cc(S(=O)(=O)[O-])ccc5F)c5nc(c(-c6cc(S(=O)(=O)[O-])ccc6F)c6ccc3[nH]6)C=C5)C=C4)cc2)CC(F)(F)F)c1
REMARK SMILES IDX 17 1 16 2 15 3 13 4 14 5 12 6 11 7 9 8 10 9 8 10 7 11 1 12
REMARK SMILES IDX 2 13 3 14 92 15 4 16 5 17 6 18 87 19 88 20 89 21 90 22 91 23
REMARK SMILES IDX 18 24 19 25 20 26 21 27 22 28 23 29 24 30 25 31 86 32 26 33
REMARK SMILES IDX 85 34 27 35 28 36 29 37 79 38 30 39 84 40 78 41 80 42 31 43
REMARK SMILES IDX 83 44 77 45 76 46 32 48 64 49 44 50 63 51 45 52 48 53 62 54
REMARK SMILES IDX 81 55 46 56 47 57 61 59 82 60 49 61 33 62 34 63 42 64 35 65
REMARK SMILES IDX 41 66 43 67 40 68 36 69 37 70 38 71 39 72 65 73 66 74 74 75
REMARK SMILES IDX 67 76 73 77 75 78 72 79 68 80 69 81 70 82 71 83 50 84 51 85
REMARK SMILES IDX 59 86 52 87 58 88 60 89 57 90 53 91 54 92 55 93 56 94
REMARK H PARENT 80 47 48 58
REMARK Flexibility Score: inf
ROOT
ATOM      1  C   UNL A   1      39.240  21.797  26.108  1.00  0.00     0.202 C 
ENDROOT
BRANCH   1   2
ATOM      2  C   UNL A   1      38.033  21.506  25.246  1.00  0.00     0.261 C 
BRANCH   2   3
ATOM      3  O   UNL A   1      37.385  22.726  24.870  1.00  0.00    -0.462 OA
BRANCH   3   4
ATOM      4  C   UNL A   1      36.529  22.770  23.807  1.00  0.00     0.325 C 
ATOM      5  O   UNL A   1      36.761  23.056  22.664  1.00  0.00    -0.250 OA
BRANCH   4   6
ATOM      6  C   UNL A   1      35.122  22.468  24.299  1.00  0.00     0.242 C 
BRANCH   6   7
ATOM      7  N   UNL A   1      34.231  23.406  23.639  1.00  0.00    -0.322 N 
BRANCH   7   8
ATOM      8  C   UNL A   1      33.956  24.677  24.121  1.00  0.00     0.227 C 
ATOM      9  O   UNL A   1      33.866  25.602  23.306  1.00  0.00    -0.275 OA
BRANCH   8  10
ATOM     10  C   UNL A   1      33.832  24.942  25.637  1.00  0.00     0.136 C 
BRANCH  10  11
ATOM     11  C   UNL A   1      33.160  26.232  26.110  1.00  0.00    -0.035 A 
ATOM     12  C   UNL A   1      34.350  29.725  27.225  1.00  0.00     0.044 C 
ATOM     13  C   UNL A   1      33.455  28.575  26.855  1.00  0.00    -0.051 A 
ATOM     14  C   UNL A   1      32.073  28.739  26.897  1.00  0.00     0.004 A 
ATOM     15  C   UNL A   1      33.981  27.345  26.415  1.00  0.00     0.008 A 
ATOM     16  C   UNL A   1      31.240  27.674  26.566  1.00  0.00     0.004 A 
ATOM     17  C   UNL A   1      31.762  26.414  26.198  1.00  0.00    -0.047 A 
ATOM     18  C   UNL A   1      30.775  25.292  26.048  1.00  0.00     0.044 C 
ENDBRANCH  10  11
ENDBRANCH   8  10
ENDBRANCH   7   8
BRANCH   7  19
ATOM     19  C   UNL A   1      33.387  22.816  22.576  1.00  0.00     0.235 C 
BRANCH  19  20
ATOM     20  C   UNL A   1      32.022  22.225  22.969  1.00  0.00     0.406 C 
ATOM     21  F   UNL A   1      31.065  23.172  23.072  1.00  0.00    -0.169 F 
ATOM     22  F   UNL A   1      31.603  21.369  21.995  1.00  0.00    -0.169 F 
ATOM     23  F   UNL A   1      32.036  21.514  24.112  1.00  0.00    -0.169 F 
ENDBRANCH  19  20
ENDBRANCH   7  19
ENDBRANCH   6   7
ENDBRANCH   4   6
ENDBRANCH   3   4
ENDBRANCH   2   3
ENDBRANCH   1   2
BRANCH   1  24
ATOM     24  O   UNL A   1      39.962  20.592  26.149  1.00  0.00    -0.374 OA
BRANCH  24  25
ATOM     25  C   UNL A   1      41.086  20.489  26.983  1.00  0.00     0.202 C 
BRANCH  25  26
ATOM     26  C   UNL A   1      41.363  21.808  27.694  1.00  0.00     0.261 C 
BRANCH  26  27
ATOM     27  O   UNL A   1      42.623  22.392  27.280  1.00  0.00    -0.460 OA
BRANCH  27  28
ATOM     28  C   UNL A   1      42.519  23.472  26.447  1.00  0.00     0.338 C 
ATOM     29  O   UNL A   1      42.862  23.466  25.276  1.00  0.00    -0.246 OA
BRANCH  28  30
ATOM     30  C   UNL A   1      42.111  24.689  27.217  1.00  0.00     0.060 A 
ATOM     31  C   UNL A   1      41.184  25.587  26.659  1.00  0.00     0.016 A 
ATOM     32  C   UNL A   1      42.905  25.093  28.292  1.00  0.00     0.016 A 
ATOM     33  C   UNL A   1      41.160  26.922  27.095  1.00  0.00     0.010 A 
ATOM     34  C   UNL A   1      42.982  26.443  28.604  1.00  0.00     0.010 A 
ATOM     35  C   UNL A   1      42.123  27.382  28.007  1.00  0.00    -0.014 A 
BRANCH  35  36
ATOM     36  C   UNL A   1      41.950  28.644  28.761  1.00  0.00     0.031 A 
ATOM     37  C   UNL A   1      42.987  29.570  28.289  1.00  0.00     0.074 A 
ATOM     38  C   UNL A   1      40.996  29.101  29.608  1.00  0.00     0.049 A 
ATOM     39  N   UNL A   1      44.077  29.825  28.930  1.00  0.00    -0.248 NA
ATOM     40  C   UNL A   1      42.992  30.008  26.882  1.00  0.00     0.031 C 
ATOM     41  C   UNL A   1      39.923  28.358  30.231  1.00  0.00     0.029 A 
ATOM     42  N   UNL A   1      40.721  30.379  30.042  1.00  0.00    -0.354 N 
ATOM     43  C   UNL A   1      44.701  30.754  28.129  1.00  0.00     0.074 A 
ATOM     44  C   UNL A   1      44.216  30.529  26.796  1.00  0.00     0.031 C 
ATOM     45  C   UNL A   1      38.943  29.181  30.670  1.00  0.00     0.029 A 
ATOM     46  C   UNL A   1      39.419  30.544  30.544  1.00  0.00     0.049 A 
ATOM     47  H   UNL A   1      41.376  31.112  30.003  1.00  0.00     0.167 HD
ATOM     48  C   UNL A   1      45.147  31.907  28.685  1.00  0.00     0.034 A 
ATOM     49  C   UNL A   1      38.786  31.676  30.965  1.00  0.00     0.034 A 
ATOM     50  C   UNL A   1      45.338  31.776  30.118  1.00  0.00     0.049 A 
ATOM     51  C   UNL A   1      39.851  32.552  31.489  1.00  0.00     0.074 A 
ATOM     52  C   UNL A   1      45.925  30.810  30.918  1.00  0.00     0.029 A 
ATOM     53  N   UNL A   1      44.549  32.522  30.962  1.00  0.00    -0.354 N 
ATOM     54  N   UNL A   1      40.533  32.275  32.566  1.00  0.00    -0.248 NA
ATOM     55  C   UNL A   1      40.467  33.507  30.587  1.00  0.00     0.031 C 
ATOM     56  C   UNL A   1      45.114  30.735  32.084  1.00  0.00     0.029 A 
ATOM     57  C   UNL A   1      44.134  31.725  32.006  1.00  0.00     0.049 A 
ATOM     58  H   UNL A   1      44.318  33.472  30.840  1.00  0.00     0.167 HD
ATOM     59  C   UNL A   1      41.833  32.607  32.236  1.00  0.00     0.074 A 
ATOM     60  C   UNL A   1      41.709  33.485  31.074  1.00  0.00     0.031 C 
ATOM     61  C   UNL A   1      42.888  31.902  32.741  1.00  0.00     0.034 A 
BRANCH  48  62
ATOM     62  C   UNL A   1      45.016  33.219  27.961  1.00  0.00     0.023 A 
ATOM     63  C   UNL A   1      46.197  33.876  27.616  1.00  0.00     0.031 A 
ATOM     64  C   UNL A   1      43.815  33.956  27.777  1.00  0.00     0.131 A 
ATOM     65  C   UNL A   1      46.158  35.196  27.142  1.00  0.00     0.055 A 
ATOM     66  C   UNL A   1      43.775  35.227  27.210  1.00  0.00     0.041 A 
ATOM     67  F   UNL A   1      42.624  33.538  28.223  1.00  0.00    -0.206 F 
ATOM     68  C   UNL A   1      44.958  35.867  26.908  1.00  0.00     0.022 A 
BRANCH  65  69
ATOM     69  S   UNL A   1      47.724  36.077  26.998  1.00  0.00     0.124 S 
ATOM     70  O   UNL A   1      47.407  37.333  27.670  1.00  0.00    -0.237 OA
ATOM     71  O   UNL A   1      48.635  35.180  27.702  1.00  0.00    -0.237 OA
ATOM     72  O   UNL A   1      47.926  36.170  25.555  1.00  0.00    -0.744 OA
ENDBRANCH  65  69
ENDBRANCH  48  62
BRANCH  49  73
ATOM     73  C   UNL A   1      37.358  32.106  30.860  1.00  0.00     0.023 A 
ATOM     74  C   UNL A   1      36.676  32.721  31.940  1.00  0.00     0.031 A 
ATOM     75  C   UNL A   1      36.726  32.185  29.601  1.00  0.00     0.131 A 
ATOM     76  C   UNL A   1      35.452  33.402  31.732  1.00  0.00     0.055 A 
ATOM     77  C   UNL A   1      35.517  32.863  29.400  1.00  0.00     0.041 A 
ATOM     78  F   UNL A   1      37.308  31.678  28.503  1.00  0.00    -0.206 F 
ATOM     79  C   UNL A   1      34.883  33.491  30.462  1.00  0.00     0.022 A 
BRANCH  76  80
ATOM     80  S   UNL A   1      34.648  34.317  33.093  1.00  0.00     0.124 S 
ATOM     81  O   UNL A   1      34.633  33.326  34.163  1.00  0.00    -0.237 OA
ATOM     82  O   UNL A   1      35.533  35.461  33.279  1.00  0.00    -0.237 OA
ATOM     83  O   UNL A   1      33.332  34.650  32.544  1.00  0.00    -0.744 OA
ENDBRANCH  76  80
ENDBRANCH  49  73
BRANCH  61  84
ATOM     84  C   UNL A   1      42.705  31.096  34.027  1.00  0.00     0.023 A 
ATOM     85  C   UNL A   1      42.521  29.696  34.126  1.00  0.00     0.031 A 
ATOM     86  C   UNL A   1      42.796  31.813  35.237  1.00  0.00     0.131 A 
ATOM     87  C   UNL A   1      42.442  29.078  35.395  1.00  0.00     0.055 A 
ATOM     88  C   UNL A   1      42.754  31.196  36.487  1.00  0.00     0.041 A 
ATOM     89  F   UNL A   1      42.954  33.148  35.228  1.00  0.00    -0.206 F 
ATOM     90  C   UNL A   1      42.574  29.824  36.571  1.00  0.00     0.022 A 
BRANCH  87  91
ATOM     91  S   UNL A   1      42.104  27.297  35.590  1.00  0.00     0.124 S 
ATOM     92  O   UNL A   1      43.299  26.642  35.071  1.00  0.00    -0.237 OA
ATOM     93  O   UNL A   1      41.903  27.180  37.029  1.00  0.00    -0.237 OA
ATOM     94  O   UNL A   1      40.892  27.102  34.793  1.00  0.00    -0.744 OA
ENDBRANCH  87  91
ENDBRANCH  61  84
ENDBRANCH  35  36
ENDBRANCH  28  30
ENDBRANCH  27  28
ENDBRANCH  26  27
ENDBRANCH  25  26
ENDBRANCH  24  25
ENDBRANCH   1  24
TORSDOF 23
ENDMDL
MODEL 3
REMARK VINA RESULT:     -10.0      7.142     14.324
REMARK SMILES Cc1ccc(C)c(CC(=O)N(CC(=O)OCCOCCOC(=O)c2ccc(-c3c4nc(c(-c5cc(S(=O)(=O)[O-])ccc5F)c5ccc([nH]5)c(-c5cc(S(=O)(=O)[O-])ccc5F)c5nc(c(-c6cc(S(=O)(=O)[O-])ccc6F)c6ccc3[nH]6)C=C5)C=C4)cc2)CC(F)(F)F)c1
REMARK SMILES IDX 17 1 16 2 15 3 13 4 14 5 12 6 11 7 9 8 10 9 8 10 7 11 1 12
REMARK SMILES IDX 2 13 3 14 92 15 4 16 5 17 6 18 87 19 88 20 89 21 90 22 91 23
REMARK SMILES IDX 18 24 19 25 20 26 21 27 22 28 23 29 24 30 25 31 86 32 26 33
REMARK SMILES IDX 85 34 27 35 28 36 29 37 79 38 30 39 84 40 78 41 80 42 31 43
REMARK SMILES IDX 83 44 77 45 76 46 32 48 64 49 44 50 63 51 45 52 48 53 62 54
REMARK SMILES IDX 81 55 46 56 47 57 61 59 82 60 49 61 33 62 34 63 42 64 35 65
REMARK SMILES IDX 41 66 43 67 40 68 36 69 37 70 38 71 39 72 65 73 66 74 74 75
REMARK SMILES IDX 67 76 73 77 75 78 72 79 68 80 69 81 70 82 71 83 50 84 51 85
REMARK SMILES IDX 59 86 52 87 58 88 60 89 57 90 53 91 54 92 55 93 56 94
REMARK H PARENT 80 47 48 58
REMARK Flexibility Score: inf
ROOT
ATOM      1  C   UNL A   1      35.277  20.298  24.988  1.00  0.00     0.202 C 
ENDROOT
BRANCH   1   2
ATOM      2  C   UNL A   1      34.380  20.899  26.047  1.00  0.00     0.261 C 
BRANCH   2   3
ATOM      3  O   UNL A   1      33.937  22.198  25.644  1.00  0.00    -0.462 OA
BRANCH   3   4
ATOM      4  C   UNL A   1      32.631  22.574  25.787  1.00  0.00     0.325 C 
ATOM      5  O   UNL A   1      31.641  21.898  25.708  1.00  0.00    -0.250 OA
BRANCH   4   6
ATOM      6  C   UNL A   1      32.574  24.079  25.994  1.00  0.00     0.242 C 
BRANCH   6   7
ATOM      7  N   UNL A   1      32.114  24.662  24.746  1.00  0.00    -0.322 N 
BRANCH   7   8
ATOM      8  C   UNL A   1      32.947  25.307  23.844  1.00  0.00     0.227 C 
ATOM      9  O   UNL A   1      33.123  24.786  22.737  1.00  0.00    -0.275 OA
BRANCH   8  10
ATOM     10  C   UNL A   1      33.688  26.604  24.235  1.00  0.00     0.136 C 
BRANCH  10  11
ATOM     11  C   UNL A   1      32.871  27.859  24.550  1.00  0.00    -0.035 A 
ATOM     12  C   UNL A   1      29.900  29.705  22.929  1.00  0.00     0.044 C 
ATOM     13  C   UNL A   1      30.993  29.332  23.893  1.00  0.00    -0.051 A 
ATOM     14  C   UNL A   1      31.180  30.091  25.045  1.00  0.00     0.004 A 
ATOM     15  C   UNL A   1      31.803  28.199  23.683  1.00  0.00     0.008 A 
ATOM     16  C   UNL A   1      32.198  29.757  25.934  1.00  0.00     0.004 A 
ATOM     17  C   UNL A   1      33.064  28.667  25.691  1.00  0.00    -0.047 A 
ATOM     18  C   UNL A   1      34.236  28.517  26.617  1.00  0.00     0.044 C 
ENDBRANCH  10  11
ENDBRANCH   8  10
ENDBRANCH   7   8
BRANCH   7  19
ATOM     19  C   UNL A   1      30.646  24.801  24.630  1.00  0.00     0.235 C 
BRANCH  19  20
ATOM     20  C   UNL A   1      29.922  25.757  25.593  1.00  0.00     0.406 C 
ATOM     21  F   UNL A   1      30.784  26.494  26.326  1.00  0.00    -0.169 F 
ATOM     22  F   UNL A   1      29.182  26.648  24.874  1.00  0.00    -0.169 F 
ATOM     23  F   UNL A   1      29.064  25.150  26.435  1.00  0.00    -0.169 F 
ENDBRANCH  19  20
ENDBRANCH   7  19
ENDBRANCH   6   7
ENDBRANCH   4   6
ENDBRANCH   3   4
ENDBRANCH   2   3
ENDBRANCH   1   2
BRANCH   1  24
ATOM     24  O   UNL A   1      36.583  20.635  25.379  1.00  0.00    -0.374 OA
BRANCH  24  25
ATOM     25  C   UNL A   1      37.665  19.886  24.890  1.00  0.00     0.202 C 
BRANCH  25  26
ATOM     26  C   UNL A   1      38.993  20.501  25.316  1.00  0.00     0.261 C 
BRANCH  26  27
ATOM     27  O   UNL A   1      39.937  19.496  25.761  1.00  0.00    -0.460 OA
BRANCH  27  28
ATOM     28  C   UNL A   1      41.234  19.919  25.859  1.00  0.00     0.338 C 
ATOM     29  O   UNL A   1      42.201  19.210  25.631  1.00  0.00    -0.246 OA
BRANCH  28  30
ATOM     30  C   UNL A   1      41.295  21.288  26.460  1.00  0.00     0.060 A 
ATOM     31  C   UNL A   1      41.858  22.346  25.725  1.00  0.00     0.016 A 
ATOM     32  C   UNL A   1      41.127  21.416  27.840  1.00  0.00     0.016 A 
ATOM     33  C   UNL A   1      42.371  23.466  26.400  1.00  0.00     0.010 A 
ATOM     34  C   UNL A   1      41.775  22.448  28.506  1.00  0.00     0.010 A 
ATOM     35  C   UNL A   1      42.416  23.483  27.804  1.00  0.00    -0.014 A 
BRANCH  35  36
ATOM     36  C   UNL A   1      42.608  24.735  28.568  1.00  0.00     0.031 A 
ATOM     37  C   UNL A   1      41.488  25.620  28.227  1.00  0.00     0.074 A 
ATOM     38  C   UNL A   1      43.463  25.106  29.552  1.00  0.00     0.049 A 
ATOM     39  N   UNL A   1      41.569  26.606  27.399  1.00  0.00    -0.248 NA
ATOM     40  C   UNL A   1      40.110  25.220  28.563  1.00  0.00     0.031 C 
ATOM     41  C   UNL A   1      44.651  24.419  30.011  1.00  0.00     0.029 A 
ATOM     42  N   UNL A   1      43.410  26.161  30.436  1.00  0.00    -0.354 N 
ATOM     43  C   UNL A   1      40.304  27.147  27.431  1.00  0.00     0.074 A 
ATOM     44  C   UNL A   1      39.419  26.085  27.819  1.00  0.00     0.031 C 
ATOM     45  C   UNL A   1      45.019  24.839  31.242  1.00  0.00     0.029 A 
ATOM     46  C   UNL A   1      44.205  25.989  31.581  1.00  0.00     0.049 A 
ATOM     47  H   UNL A   1      42.864  26.964  30.279  1.00  0.00     0.167 HD
ATOM     48  C   UNL A   1      40.166  28.481  27.631  1.00  0.00     0.034 A 
ATOM     49  C   UNL A   1      44.318  26.777  32.688  1.00  0.00     0.034 A 
ATOM     50  C   UNL A   1      41.376  29.205  27.293  1.00  0.00     0.049 A 
ATOM     51  C   UNL A   1      44.057  28.151  32.222  1.00  0.00     0.074 A 
ATOM     52  C   UNL A   1      42.253  29.152  26.222  1.00  0.00     0.029 A 
ATOM     53  N   UNL A   1      42.058  29.860  28.293  1.00  0.00    -0.354 N 
ATOM     54  N   UNL A   1      44.861  28.793  31.419  1.00  0.00    -0.248 NA
ATOM     55  C   UNL A   1      42.699  28.657  32.283  1.00  0.00     0.031 C 
ATOM     56  C   UNL A   1      43.547  29.354  26.776  1.00  0.00     0.029 A 
ATOM     57  C   UNL A   1      43.408  29.631  28.137  1.00  0.00     0.049 A 
ATOM     58  H   UNL A   1      41.648  30.403  29.005  1.00  0.00     0.167 HD
ATOM     59  C   UNL A   1      44.014  29.424  30.528  1.00  0.00     0.074 A 
ATOM     60  C   UNL A   1      42.710  29.422  31.189  1.00  0.00     0.031 C 
ATOM     61  C   UNL A   1      44.377  29.611  29.225  1.00  0.00     0.034 A 
BRANCH  48  62
ATOM     62  C   UNL A   1      39.063  29.024  28.499  1.00  0.00     0.023 A 
ATOM     63  C   UNL A   1      39.175  28.820  29.873  1.00  0.00     0.031 A 
ATOM     64  C   UNL A   1      37.819  29.540  28.044  1.00  0.00     0.131 A 
ATOM     65  C   UNL A   1      38.091  29.097  30.720  1.00  0.00     0.055 A 
ATOM     66  C   UNL A   1      36.784  29.909  28.898  1.00  0.00     0.041 A 
ATOM     67  F   UNL A   1      37.490  29.623  26.749  1.00  0.00    -0.206 F 
ATOM     68  C   UNL A   1      36.908  29.667  30.250  1.00  0.00     0.022 A 
BRANCH  65  69
ATOM     69  S   UNL A   1      38.202  28.537  32.429  1.00  0.00     0.124 S 
ATOM     70  O   UNL A   1      36.891  28.920  32.941  1.00  0.00    -0.237 OA
ATOM     71  O   UNL A   1      38.435  27.106  32.258  1.00  0.00    -0.237 OA
ATOM     72  O   UNL A   1      39.330  29.296  32.959  1.00  0.00    -0.744 OA
ENDBRANCH  65  69
ENDBRANCH  48  62
BRANCH  49  73
ATOM     73  C   UNL A   1      44.530  26.433  34.127  1.00  0.00     0.023 A 
ATOM     74  C   UNL A   1      45.184  27.315  35.023  1.00  0.00     0.031 A 
ATOM     75  C   UNL A   1      43.835  25.354  34.714  1.00  0.00     0.131 A 
ATOM     76  C   UNL A   1      45.095  27.125  36.424  1.00  0.00     0.055 A 
ATOM     77  C   UNL A   1      43.748  25.172  36.101  1.00  0.00     0.041 A 
ATOM     78  F   UNL A   1      43.141  24.487  33.961  1.00  0.00    -0.206 F 
ATOM     79  C   UNL A   1      44.363  26.068  36.963  1.00  0.00     0.022 A 
BRANCH  76  80
ATOM     80  S   UNL A   1      45.815  28.342  37.581  1.00  0.00     0.124 S 
ATOM     81  O   UNL A   1      44.922  28.238  38.730  1.00  0.00    -0.237 OA
ATOM     82  O   UNL A   1      47.173  27.846  37.766  1.00  0.00    -0.237 OA
ATOM     83  O   UNL A   1      45.723  29.603  36.843  1.00  0.00    -0.744 OA
ENDBRANCH  76  80
ENDBRANCH  49  73
BRANCH  61  84
ATOM     84  C   UNL A   1      45.859  29.599  28.851  1.00  0.00     0.023 A 
ATOM     85  C   UNL A   1      46.621  28.473  28.456  1.00  0.00     0.031 A 
ATOM     86  C   UNL A   1      46.513  30.848  28.833  1.00  0.00     0.131 A 
ATOM     87  C   UNL A   1      47.970  28.631  28.064  1.00  0.00     0.055 A 
ATOM     88  C   UNL A   1      47.833  31.004  28.411  1.00  0.00     0.041 A 
ATOM     89  F   UNL A   1      45.864  31.963  29.211  1.00  0.00    -0.206 F 
ATOM     90  C   UNL A   1      48.569  29.894  28.027  1.00  0.00     0.022 A 
BRANCH  87  91
ATOM     91  S   UNL A   1      49.033  27.209  27.644  1.00  0.00     0.124 S 
ATOM     92  O   UNL A   1      49.698  27.607  26.408  1.00  0.00    -0.237 OA
ATOM     93  O   UNL A   1      49.895  27.117  28.815  1.00  0.00    -0.237 OA
ATOM     94  O   UNL A   1      48.076  26.110  27.510  1.00  0.00    -0.744 OA
ENDBRANCH  87  91
ENDBRANCH  61  84
ENDBRANCH  35  36
ENDBRANCH  28  30
ENDBRANCH  27  28
ENDBRANCH  26  27
ENDBRANCH  25  26
ENDBRANCH  24  25
ENDBRANCH   1  24
TORSDOF 23
ENDMDL
