MODEL 1
REMARK VINA RESULT:     -11.1      0.000      0.000
REMARK SMILES COc1cccc(-c2ccc(C#N)c(SCC(=O)OCCOCCOC(=O)c3ccc(-c4c5nc(c(-c6cc(S(=O)(=O)[O-])ccc6F)c6ccc([nH]6)c(-c6cc(S(=O)(=O)[O-])ccc6F)c6nc(c(-c7cc(S(=O)(=O)[O-])ccc7F)c7ccc4[nH]7)C=C6)C=C5)cc3)n2)c1
REMARK SMILES IDX 21 1 20 2 19 3 17 4 18 5 16 6 15 7 14 8 8 9 9 10 91 11 10 12
REMARK SMILES IDX 11 13 7 14 3 15 4 16 92 17 5 18 6 19 2 20 1 21 12 22 13 23
REMARK SMILES IDX 22 24 23 25 24 26 25 27 26 28 27 29 28 30 29 31 90 32 30 33
REMARK SMILES IDX 89 34 31 35 32 36 33 37 83 38 34 39 88 40 82 41 84 42 35 43
REMARK SMILES IDX 87 44 81 45 80 46 36 48 68 49 48 50 67 51 49 52 52 53 66 54
REMARK SMILES IDX 85 55 50 56 51 57 65 59 86 60 53 61 37 62 38 63 46 64 39 65
REMARK SMILES IDX 45 66 47 67 44 68 40 69 41 70 42 71 43 72 69 73 70 74 78 75
REMARK SMILES IDX 71 76 77 77 79 78 76 79 72 80 73 81 74 82 75 83 54 84 55 85
REMARK SMILES IDX 63 86 56 87 62 88 64 89 61 90 57 91 58 92 59 93 60 94
REMARK H PARENT 84 47 52 58
REMARK Flexibility Score: inf
ROOT
ATOM      1  C   UNL A   1      30.809  29.129  23.584  1.00  0.00     0.202 C 
ENDROOT
BRANCH   1   2
ATOM      2  C   UNL A   1      30.103  27.766  23.638  1.00  0.00     0.261 C 
BRANCH   2   3
ATOM      3  O   UNL A   1      30.695  26.718  22.831  1.00  0.00    -0.463 OA
BRANCH   3   4
ATOM      4  C   UNL A   1      30.768  25.495  23.426  1.00  0.00     0.316 C 
ATOM      5  O   UNL A   1      31.001  24.456  22.812  1.00  0.00    -0.251 OA
BRANCH   4   6
ATOM      6  C   UNL A   1      30.435  25.452  24.901  1.00  0.00     0.199 C 
BRANCH   6   7
ATOM      7  S   UNL A   1      31.177  24.176  25.954  1.00  0.00    -0.093 SA
BRANCH   7   8
ATOM      8  C   UNL A   1      32.918  23.977  25.598  1.00  0.00     0.115 A 
ATOM      9  C   UNL A   1      34.460  22.205  25.269  1.00  0.00     0.072 A 
ATOM     10  C   UNL A   1      35.537  23.057  25.445  1.00  0.00     0.030 A 
ATOM     11  N   UNL A   1      33.180  22.655  25.343  1.00  0.00    -0.240 NA
ATOM     12  C   UNL A   1      35.286  24.415  25.603  1.00  0.00     0.024 A 
ATOM     13  C   UNL A   1      33.964  24.899  25.646  1.00  0.00     0.084 A 
BRANCH   9  14
ATOM     14  C   UNL A   1      34.671  20.799  24.887  1.00  0.00     0.004 A 
ATOM     15  C   UNL A   1      33.822  18.544  24.491  1.00  0.00     0.119 A 
ATOM     16  C   UNL A   1      35.124  18.044  24.557  1.00  0.00     0.046 A 
ATOM     17  C   UNL A   1      33.595  19.916  24.652  1.00  0.00     0.056 A 
ATOM     18  C   UNL A   1      36.201  18.907  24.739  1.00  0.00     0.005 A 
ATOM     19  C   UNL A   1      35.975  20.275  24.896  1.00  0.00     0.010 A 
BRANCH  15  20
ATOM     20  O   UNL A   1      32.852  17.586  24.369  1.00  0.00    -0.497 OA
ATOM     21  C   UNL A   1      32.473  16.910  25.564  1.00  0.00     0.278 C 
ENDBRANCH  15  20
ENDBRANCH   9  14
BRANCH  13  22
ATOM     22  C   UNL A   1      33.814  26.305  25.783  1.00  0.00     0.102 C 
ATOM     23  N   UNL A   1      33.757  27.462  25.907  1.00  0.00    -0.192 NA
ENDBRANCH  13  22
ENDBRANCH   7   8
ENDBRANCH   6   7
ENDBRANCH   4   6
ENDBRANCH   3   4
ENDBRANCH   2   3
ENDBRANCH   1   2
BRANCH   1  24
ATOM     24  O   UNL A   1      30.678  30.026  24.682  1.00  0.00    -0.374 OA
BRANCH  24  25
ATOM     25  C   UNL A   1      31.781  30.172  25.557  1.00  0.00     0.202 C 
BRANCH  25  26
ATOM     26  C   UNL A   1      31.823  31.371  26.507  1.00  0.00     0.261 C 
BRANCH  26  27
ATOM     27  O   UNL A   1      32.757  31.289  27.570  1.00  0.00    -0.460 OA
BRANCH  27  28
ATOM     28  C   UNL A   1      33.544  32.381  27.659  1.00  0.00     0.338 C 
ATOM     29  O   UNL A   1      33.203  33.550  27.686  1.00  0.00    -0.246 OA
BRANCH  28  30
ATOM     30  C   UNL A   1      34.916  31.933  27.875  1.00  0.00     0.060 A 
ATOM     31  C   UNL A   1      35.135  30.553  27.885  1.00  0.00     0.016 A 
ATOM     32  C   UNL A   1      35.933  32.848  28.155  1.00  0.00     0.016 A 
ATOM     33  C   UNL A   1      36.372  30.073  28.275  1.00  0.00     0.010 A 
ATOM     34  C   UNL A   1      37.177  32.361  28.545  1.00  0.00     0.010 A 
ATOM     35  C   UNL A   1      37.371  30.974  28.666  1.00  0.00    -0.014 A 
BRANCH  35  36
ATOM     36  C   UNL A   1      38.527  30.439  29.413  1.00  0.00     0.031 A 
ATOM     37  C   UNL A   1      38.709  30.867  30.842  1.00  0.00     0.074 A 
ATOM     38  C   UNL A   1      39.317  29.513  28.847  1.00  0.00     0.049 A 
ATOM     39  N   UNL A   1      39.619  30.507  31.706  1.00  0.00    -0.248 NA
ATOM     40  C   UNL A   1      37.731  31.834  31.368  1.00  0.00     0.031 C 
ATOM     41  C   UNL A   1      39.166  28.999  27.484  1.00  0.00     0.029 A 
ATOM     42  N   UNL A   1      40.388  28.829  29.350  1.00  0.00    -0.354 N 
ATOM     43  C   UNL A   1      39.329  31.206  32.872  1.00  0.00     0.074 A 
ATOM     44  C   UNL A   1      38.189  32.049  32.591  1.00  0.00     0.031 C 
ATOM     45  C   UNL A   1      40.108  28.068  27.266  1.00  0.00     0.029 A 
ATOM     46  C   UNL A   1      40.953  27.957  28.452  1.00  0.00     0.049 A 
ATOM     47  H   UNL A   1      40.722  28.949  30.270  1.00  0.00     0.167 HD
ATOM     48  C   UNL A   1      39.954  31.136  34.072  1.00  0.00     0.034 A 
ATOM     49  C   UNL A   1      42.044  27.178  28.576  1.00  0.00     0.034 A 
ATOM     50  C   UNL A   1      41.095  30.287  34.313  1.00  0.00     0.049 A 
ATOM     51  C   UNL A   1      42.777  27.182  29.895  1.00  0.00     0.074 A 
ATOM     52  C   UNL A   1      41.820  30.126  35.479  1.00  0.00     0.029 A 
ATOM     53  N   UNL A   1      41.684  29.461  33.360  1.00  0.00    -0.354 N 
ATOM     54  N   UNL A   1      42.501  27.852  30.992  1.00  0.00    -0.248 NA
ATOM     55  C   UNL A   1      43.955  26.317  29.997  1.00  0.00     0.031 C 
ATOM     56  C   UNL A   1      42.896  29.274  35.209  1.00  0.00     0.029 A 
ATOM     57  C   UNL A   1      42.784  28.818  33.904  1.00  0.00     0.049 A 
ATOM     58  H   UNL A   1      41.365  29.351  32.436  1.00  0.00     0.167 HD
ATOM     59  C   UNL A   1      43.453  27.455  31.928  1.00  0.00     0.074 A 
ATOM     60  C   UNL A   1      44.297  26.481  31.266  1.00  0.00     0.031 C 
ATOM     61  C   UNL A   1      43.613  27.853  33.218  1.00  0.00     0.034 A 
BRANCH  48  62
ATOM     62  C   UNL A   1      39.456  32.042  35.174  1.00  0.00     0.023 A 
ATOM     63  C   UNL A   1      39.922  33.360  35.326  1.00  0.00     0.031 A 
ATOM     64  C   UNL A   1      38.527  31.563  36.115  1.00  0.00     0.131 A 
ATOM     65  C   UNL A   1      39.518  34.124  36.431  1.00  0.00     0.055 A 
ATOM     66  C   UNL A   1      38.060  32.360  37.162  1.00  0.00     0.041 A 
ATOM     67  F   UNL A   1      38.070  30.303  36.045  1.00  0.00    -0.206 F 
ATOM     68  C   UNL A   1      38.567  33.644  37.334  1.00  0.00     0.022 A 
BRANCH  65  69
ATOM     69  S   UNL A   1      40.371  35.690  36.764  1.00  0.00     0.124 S 
ATOM     70  O   UNL A   1      40.144  35.850  38.199  1.00  0.00    -0.237 OA
ATOM     71  O   UNL A   1      41.742  35.395  36.363  1.00  0.00    -0.237 OA
ATOM     72  O   UNL A   1      39.667  36.651  35.918  1.00  0.00    -0.744 OA
ENDBRANCH  65  69
ENDBRANCH  48  62
BRANCH  49  73
ATOM     73  C   UNL A   1      42.522  26.362  27.424  1.00  0.00     0.023 A 
ATOM     74  C   UNL A   1      42.127  25.026  27.263  1.00  0.00     0.031 A 
ATOM     75  C   UNL A   1      43.423  26.900  26.487  1.00  0.00     0.131 A 
ATOM     76  C   UNL A   1      42.672  24.257  26.223  1.00  0.00     0.055 A 
ATOM     77  C   UNL A   1      43.912  26.150  25.416  1.00  0.00     0.041 A 
ATOM     78  F   UNL A   1      43.836  28.174  26.593  1.00  0.00    -0.206 F 
ATOM     79  C   UNL A   1      43.548  24.814  25.289  1.00  0.00     0.022 A 
BRANCH  76  80
ATOM     80  S   UNL A   1      42.300  22.483  26.172  1.00  0.00     0.124 S 
ATOM     81  O   UNL A   1      42.936  22.084  24.922  1.00  0.00    -0.237 OA
ATOM     82  O   UNL A   1      42.933  22.006  27.397  1.00  0.00    -0.237 OA
ATOM     83  O   UNL A   1      40.838  22.443  26.171  1.00  0.00    -0.744 OA
ENDBRANCH  76  80
ENDBRANCH  49  73
BRANCH  61  84
ATOM     84  C   UNL A   1      44.707  27.177  34.011  1.00  0.00     0.023 A 
ATOM     85  C   UNL A   1      44.473  26.014  34.762  1.00  0.00     0.031 A 
ATOM     86  C   UNL A   1      46.004  27.722  34.020  1.00  0.00     0.131 A 
ATOM     87  C   UNL A   1      45.502  25.473  35.547  1.00  0.00     0.055 A 
ATOM     88  C   UNL A   1      47.044  27.133  34.740  1.00  0.00     0.041 A 
ATOM     89  F   UNL A   1      46.284  28.835  33.324  1.00  0.00    -0.206 F 
ATOM     90  C   UNL A   1      46.791  26.011  35.523  1.00  0.00     0.022 A 
BRANCH  87  91
ATOM     91  S   UNL A   1      45.100  24.131  36.699  1.00  0.00     0.124 S 
ATOM     92  O   UNL A   1      46.412  23.792  37.237  1.00  0.00    -0.237 OA
ATOM     93  O   UNL A   1      44.179  24.781  37.626  1.00  0.00    -0.237 OA
ATOM     94  O   UNL A   1      44.499  23.112  35.840  1.00  0.00    -0.744 OA
ENDBRANCH  87  91
ENDBRANCH  61  84
ENDBRANCH  35  36
ENDBRANCH  28  30
ENDBRANCH  27  28
ENDBRANCH  26  27
ENDBRANCH  25  26
ENDBRANCH  24  25
ENDBRANCH   1  24
TORSDOF 22
ENDMDL
MODEL 2
REMARK VINA RESULT:     -10.9      4.842      7.352
REMARK SMILES COc1cccc(-c2ccc(C#N)c(SCC(=O)OCCOCCOC(=O)c3ccc(-c4c5nc(c(-c6cc(S(=O)(=O)[O-])ccc6F)c6ccc([nH]6)c(-c6cc(S(=O)(=O)[O-])ccc6F)c6nc(c(-c7cc(S(=O)(=O)[O-])ccc7F)c7ccc4[nH]7)C=C6)C=C5)cc3)n2)c1
REMARK SMILES IDX 21 1 20 2 19 3 17 4 18 5 16 6 15 7 14 8 8 9 9 10 91 11 10 12
REMARK SMILES IDX 11 13 7 14 3 15 4 16 92 17 5 18 6 19 2 20 1 21 12 22 13 23
REMARK SMILES IDX 22 24 23 25 24 26 25 27 26 28 27 29 28 30 29 31 90 32 30 33
REMARK SMILES IDX 89 34 31 35 32 36 33 37 83 38 34 39 88 40 82 41 84 42 35 43
REMARK SMILES IDX 87 44 81 45 80 46 36 48 68 49 48 50 67 51 49 52 52 53 66 54
REMARK SMILES IDX 85 55 50 56 51 57 65 59 86 60 53 61 37 62 38 63 46 64 39 65
REMARK SMILES IDX 45 66 47 67 44 68 40 69 41 70 42 71 43 72 69 73 70 74 78 75
REMARK SMILES IDX 71 76 77 77 79 78 76 79 72 80 73 81 74 82 75 83 54 84 55 85
REMARK SMILES IDX 63 86 56 87 62 88 64 89 61 90 57 91 58 92 59 93 60 94
REMARK H PARENT 84 47 52 58
REMARK Flexibility Score: inf
ROOT
ATOM      1  C   UNL A   1      35.152  23.349  24.651  1.00  0.00     0.202 C 
ENDROOT
BRANCH   1   2
ATOM      2  C   UNL A   1      34.826  24.599  23.820  1.00  0.00     0.261 C 
BRANCH   2   3
ATOM      3  O   UNL A   1      34.055  24.370  22.615  1.00  0.00    -0.463 OA
BRANCH   3   4
ATOM      4  C   UNL A   1      33.240  25.395  22.241  1.00  0.00     0.316 C 
ATOM      5  O   UNL A   1      33.605  26.567  22.185  1.00  0.00    -0.251 OA
BRANCH   4   6
ATOM      6  C   UNL A   1      31.791  25.035  21.992  1.00  0.00     0.199 C 
BRANCH   6   7
ATOM      7  S   UNL A   1      30.670  24.791  23.396  1.00  0.00    -0.093 SA
BRANCH   7   8
ATOM      8  C   UNL A   1      31.451  23.828  24.684  1.00  0.00     0.115 A 
ATOM      9  C   UNL A   1      31.959  21.552  25.124  1.00  0.00     0.072 A 
ATOM     10  C   UNL A   1      32.183  21.820  26.464  1.00  0.00     0.030 A 
ATOM     11  N   UNL A   1      31.603  22.534  24.255  1.00  0.00    -0.240 NA
ATOM     12  C   UNL A   1      32.131  23.142  26.891  1.00  0.00     0.024 A 
ATOM     13  C   UNL A   1      31.796  24.173  25.991  1.00  0.00     0.084 A 
BRANCH   9  14
ATOM     14  C   UNL A   1      32.209  20.209  24.576  1.00  0.00     0.004 A 
ATOM     15  C   UNL A   1      33.045  17.927  24.819  1.00  0.00     0.119 A 
ATOM     16  C   UNL A   1      33.057  17.786  23.430  1.00  0.00     0.046 A 
ATOM     17  C   UNL A   1      32.620  19.132  25.391  1.00  0.00     0.056 A 
ATOM     18  C   UNL A   1      32.609  18.821  22.613  1.00  0.00     0.005 A 
ATOM     19  C   UNL A   1      32.182  20.020  23.184  1.00  0.00     0.010 A 
BRANCH  15  20
ATOM     20  O   UNL A   1      33.565  16.861  25.502  1.00  0.00    -0.497 OA
ATOM     21  C   UNL A   1      34.818  16.363  25.043  1.00  0.00     0.278 C 
ENDBRANCH  15  20
ENDBRANCH   9  14
BRANCH  13  22
ATOM     22  C   UNL A   1      31.797  25.492  26.519  1.00  0.00     0.102 C 
ATOM     23  N   UNL A   1      31.735  26.564  26.971  1.00  0.00    -0.192 NA
ENDBRANCH  13  22
ENDBRANCH   7   8
ENDBRANCH   6   7
ENDBRANCH   4   6
ENDBRANCH   3   4
ENDBRANCH   2   3
ENDBRANCH   1   2
BRANCH   1  24
ATOM     24  O   UNL A   1      35.096  22.068  24.033  1.00  0.00    -0.374 OA
BRANCH  24  25
ATOM     25  C   UNL A   1      35.856  21.019  24.605  1.00  0.00     0.202 C 
BRANCH  25  26
ATOM     26  C   UNL A   1      36.935  21.361  25.636  1.00  0.00     0.261 C 
BRANCH  26  27
ATOM     27  O   UNL A   1      38.238  21.575  25.123  1.00  0.00    -0.460 OA
BRANCH  27  28
ATOM     28  C   UNL A   1      39.205  21.278  26.016  1.00  0.00     0.338 C 
ATOM     29  O   UNL A   1      39.752  20.206  26.199  1.00  0.00    -0.246 OA
BRANCH  28  30
ATOM     30  C   UNL A   1      39.623  22.520  26.660  1.00  0.00     0.060 A 
ATOM     31  C   UNL A   1      39.001  23.694  26.229  1.00  0.00     0.016 A 
ATOM     32  C   UNL A   1      40.664  22.530  27.590  1.00  0.00     0.016 A 
ATOM     33  C   UNL A   1      39.492  24.912  26.663  1.00  0.00     0.010 A 
ATOM     34  C   UNL A   1      41.154  23.757  28.027  1.00  0.00     0.010 A 
ATOM     35  C   UNL A   1      40.607  24.944  27.511  1.00  0.00    -0.014 A 
BRANCH  35  36
ATOM     36  C   UNL A   1      41.321  26.228  27.660  1.00  0.00     0.031 A 
ATOM     37  C   UNL A   1      40.665  27.317  28.461  1.00  0.00     0.074 A 
ATOM     38  C   UNL A   1      42.566  26.359  27.177  1.00  0.00     0.049 A 
ATOM     39  N   UNL A   1      41.107  28.508  28.759  1.00  0.00    -0.248 NA
ATOM     40  C   UNL A   1      39.325  27.022  28.998  1.00  0.00     0.031 C 
ATOM     41  C   UNL A   1      43.296  25.324  26.443  1.00  0.00     0.029 A 
ATOM     42  N   UNL A   1      43.443  27.406  27.248  1.00  0.00    -0.354 N 
ATOM     43  C   UNL A   1      40.102  29.106  29.511  1.00  0.00     0.074 A 
ATOM     44  C   UNL A   1      39.006  28.166  29.581  1.00  0.00     0.031 C 
ATOM     45  C   UNL A   1      44.520  25.788  26.141  1.00  0.00     0.029 A 
ATOM     46  C   UNL A   1      44.638  27.163  26.617  1.00  0.00     0.049 A 
ATOM     47  H   UNL A   1      43.237  28.253  27.708  1.00  0.00     0.167 HD
ATOM     48  C   UNL A   1      40.105  30.327  30.100  1.00  0.00     0.034 A 
ATOM     49  C   UNL A   1      45.696  27.976  26.431  1.00  0.00     0.034 A 
ATOM     50  C   UNL A   1      41.215  31.242  30.001  1.00  0.00     0.049 A 
ATOM     51  C   UNL A   1      45.641  29.364  27.021  1.00  0.00     0.074 A 
ATOM     52  C   UNL A   1      41.343  32.506  30.546  1.00  0.00     0.029 A 
ATOM     53  N   UNL A   1      42.390  30.990  29.299  1.00  0.00    -0.354 N 
ATOM     54  N   UNL A   1      44.683  29.926  27.725  1.00  0.00    -0.248 NA
ATOM     55  C   UNL A   1      46.811  30.219  26.805  1.00  0.00     0.031 C 
ATOM     56  C   UNL A   1      42.552  33.051  30.102  1.00  0.00     0.029 A 
ATOM     57  C   UNL A   1      43.230  32.089  29.367  1.00  0.00     0.049 A 
ATOM     58  H   UNL A   1      42.594  30.153  28.822  1.00  0.00     0.167 HD
ATOM     59  C   UNL A   1      45.156  31.189  28.069  1.00  0.00     0.074 A 
ATOM     60  C   UNL A   1      46.487  31.295  27.505  1.00  0.00     0.031 C 
ATOM     61  C   UNL A   1      44.553  32.170  28.790  1.00  0.00     0.034 A 
BRANCH  48  62
ATOM     62  C   UNL A   1      38.855  30.752  30.833  1.00  0.00     0.023 A 
ATOM     63  C   UNL A   1      37.740  31.287  30.163  1.00  0.00     0.031 A 
ATOM     64  C   UNL A   1      38.792  30.658  32.235  1.00  0.00     0.131 A 
ATOM     65  C   UNL A   1      36.648  31.776  30.896  1.00  0.00     0.055 A 
ATOM     66  C   UNL A   1      37.665  31.063  32.953  1.00  0.00     0.041 A 
ATOM     67  F   UNL A   1      39.836  30.188  32.935  1.00  0.00    -0.206 F 
ATOM     68  C   UNL A   1      36.590  31.640  32.285  1.00  0.00     0.022 A 
BRANCH  65  69
ATOM     69  S   UNL A   1      35.377  32.736  30.028  1.00  0.00     0.124 S 
ATOM     70  O   UNL A   1      34.481  33.098  31.124  1.00  0.00    -0.237 OA
ATOM     71  O   UNL A   1      36.149  33.827  29.445  1.00  0.00    -0.237 OA
ATOM     72  O   UNL A   1      34.822  31.782  29.069  1.00  0.00    -0.744 OA
ENDBRANCH  65  69
ENDBRANCH  48  62
BRANCH  49  73
ATOM     73  C   UNL A   1      46.868  27.516  25.635  1.00  0.00     0.023 A 
ATOM     74  C   UNL A   1      47.059  27.933  24.310  1.00  0.00     0.031 A 
ATOM     75  C   UNL A   1      47.797  26.611  26.181  1.00  0.00     0.131 A 
ATOM     76  C   UNL A   1      48.120  27.406  23.557  1.00  0.00     0.055 A 
ATOM     77  C   UNL A   1      48.889  26.140  25.450  1.00  0.00     0.041 A 
ATOM     78  F   UNL A   1      47.664  26.178  27.446  1.00  0.00    -0.206 F 
ATOM     79  C   UNL A   1      49.045  26.526  24.123  1.00  0.00     0.022 A 
BRANCH  76  80
ATOM     80  S   UNL A   1      48.211  27.806  21.791  1.00  0.00     0.124 S 
ATOM     81  O   UNL A   1      49.321  28.751  21.760  1.00  0.00    -0.237 OA
ATOM     82  O   UNL A   1      48.465  26.498  21.197  1.00  0.00    -0.237 OA
ATOM     83  O   UNL A   1      46.896  28.376  21.504  1.00  0.00    -0.744 OA
ENDBRANCH  76  80
ENDBRANCH  49  73
BRANCH  61  84
ATOM     84  C   UNL A   1      45.362  33.417  29.061  1.00  0.00     0.023 A 
ATOM     85  C   UNL A   1      45.341  34.521  28.193  1.00  0.00     0.031 A 
ATOM     86  C   UNL A   1      46.177  33.489  30.205  1.00  0.00     0.131 A 
ATOM     87  C   UNL A   1      46.175  35.621  28.446  1.00  0.00     0.055 A 
ATOM     88  C   UNL A   1      46.943  34.619  30.492  1.00  0.00     0.041 A 
ATOM     89  F   UNL A   1      46.240  32.461  31.067  1.00  0.00    -0.206 F 
ATOM     90  C   UNL A   1      46.957  35.686  29.601  1.00  0.00     0.022 A 
BRANCH  87  91
ATOM     91  S   UNL A   1      46.317  36.910  27.178  1.00  0.00     0.124 S 
ATOM     92  O   UNL A   1      45.001  37.536  27.234  1.00  0.00    -0.237 OA
ATOM     93  O   UNL A   1      47.428  37.715  27.675  1.00  0.00    -0.237 OA
ATOM     94  O   UNL A   1      46.595  36.158  25.956  1.00  0.00    -0.744 OA
ENDBRANCH  87  91
ENDBRANCH  61  84
ENDBRANCH  35  36
ENDBRANCH  28  30
ENDBRANCH  27  28
ENDBRANCH  26  27
ENDBRANCH  25  26
ENDBRANCH  24  25
ENDBRANCH   1  24
TORSDOF 22
ENDMDL
MODEL 3
REMARK VINA RESULT:     -10.8      1.146      7.777
REMARK SMILES COc1cccc(-c2ccc(C#N)c(SCC(=O)OCCOCCOC(=O)c3ccc(-c4c5nc(c(-c6cc(S(=O)(=O)[O-])ccc6F)c6ccc([nH]6)c(-c6cc(S(=O)(=O)[O-])ccc6F)c6nc(c(-c7cc(S(=O)(=O)[O-])ccc7F)c7ccc4[nH]7)C=C6)C=C5)cc3)n2)c1
REMARK SMILES IDX 21 1 20 2 19 3 17 4 18 5 16 6 15 7 14 8 8 9 9 10 91 11 10 12
REMARK SMILES IDX 11 13 7 14 3 15 4 16 92 17 5 18 6 19 2 20 1 21 12 22 13 23
REMARK SMILES IDX 22 24 23 25 24 26 25 27 26 28 27 29 28 30 29 31 90 32 30 33
REMARK SMILES IDX 89 34 31 35 32 36 33 37 83 38 34 39 88 40 82 41 84 42 35 43
REMARK SMILES IDX 87 44 81 45 80 46 36 48 68 49 48 50 67 51 49 52 52 53 66 54
REMARK SMILES IDX 85 55 50 56 51 57 65 59 86 60 53 61 37 62 38 63 46 64 39 65
REMARK SMILES IDX 45 66 47 67 44 68 40 69 41 70 42 71 43 72 69 73 70 74 78 75
REMARK SMILES IDX 71 76 77 77 79 78 76 79 72 80 73 81 74 82 75 83 54 84 55 85
REMARK SMILES IDX 63 86 56 87 62 88 64 89 61 90 57 91 58 92 59 93 60 94
REMARK H PARENT 84 47 52 58
REMARK Flexibility Score: inf
ROOT
ATOM      1  C   UNL A   1      30.878  27.590  24.799  1.00  0.00     0.202 C 
ENDROOT
BRANCH   1   2
ATOM      2  C   UNL A   1      30.721  26.812  23.484  1.00  0.00     0.261 C 
BRANCH   2   3
ATOM      3  O   UNL A   1      31.645  27.171  22.427  1.00  0.00    -0.463 OA
BRANCH   3   4
ATOM      4  C   UNL A   1      32.591  26.235  22.136  1.00  0.00     0.316 C 
ATOM      5  O   UNL A   1      33.673  26.503  21.619  1.00  0.00    -0.251 OA
BRANCH   4   6
ATOM      6  C   UNL A   1      32.200  24.794  22.384  1.00  0.00     0.199 C 
BRANCH   6   7
ATOM      7  S   UNL A   1      33.479  23.509  22.423  1.00  0.00    -0.093 SA
BRANCH   7   8
ATOM      8  C   UNL A   1      33.628  22.796  24.055  1.00  0.00     0.115 A 
ATOM      9  C   UNL A   1      33.486  20.654  25.064  1.00  0.00     0.072 A 
ATOM     10  C   UNL A   1      33.366  21.213  26.326  1.00  0.00     0.030 A 
ATOM     11  N   UNL A   1      33.615  21.428  23.956  1.00  0.00    -0.240 NA
ATOM     12  C   UNL A   1      33.480  22.592  26.450  1.00  0.00     0.024 A 
ATOM     13  C   UNL A   1      33.649  23.403  25.311  1.00  0.00     0.084 A 
BRANCH   9  14
ATOM     14  C   UNL A   1      33.587  19.194  24.898  1.00  0.00     0.004 A 
ATOM     15  C   UNL A   1      32.901  16.926  25.488  1.00  0.00     0.119 A 
ATOM     16  C   UNL A   1      34.054  16.423  24.884  1.00  0.00     0.046 A 
ATOM     17  C   UNL A   1      32.665  18.306  25.493  1.00  0.00     0.056 A 
ATOM     18  C   UNL A   1      34.949  17.280  24.250  1.00  0.00     0.005 A 
ATOM     19  C   UNL A   1      34.712  18.655  24.252  1.00  0.00     0.010 A 
BRANCH  15  20
ATOM     20  O   UNL A   1      32.138  15.986  26.126  1.00  0.00    -0.497 OA
ATOM     21  C   UNL A   1      32.340  14.631  25.737  1.00  0.00     0.278 C 
ENDBRANCH  15  20
ENDBRANCH   9  14
BRANCH  13  22
ATOM     22  C   UNL A   1      33.782  24.797  25.547  1.00  0.00     0.102 C 
ATOM     23  N   UNL A   1      33.956  25.937  25.721  1.00  0.00    -0.192 NA
ENDBRANCH  13  22
ENDBRANCH   7   8
ENDBRANCH   6   7
ENDBRANCH   4   6
ENDBRANCH   3   4
ENDBRANCH   2   3
ENDBRANCH   1   2
BRANCH   1  24
ATOM     24  O   UNL A   1      31.810  28.664  24.867  1.00  0.00    -0.374 OA
BRANCH  24  25
ATOM     25  C   UNL A   1      31.306  29.986  24.820  1.00  0.00     0.202 C 
BRANCH  25  26
ATOM     26  C   UNL A   1      31.477  30.890  26.044  1.00  0.00     0.261 C 
BRANCH  26  27
ATOM     27  O   UNL A   1      32.583  30.598  26.881  1.00  0.00    -0.460 OA
BRANCH  27  28
ATOM     28  C   UNL A   1      33.217  31.707  27.313  1.00  0.00     0.338 C 
ATOM     29  O   UNL A   1      32.749  32.817  27.489  1.00  0.00    -0.246 OA
BRANCH  28  30
ATOM     30  C   UNL A   1      34.575  31.332  27.696  1.00  0.00     0.060 A 
ATOM     31  C   UNL A   1      34.836  29.967  27.838  1.00  0.00     0.016 A 
ATOM     32  C   UNL A   1      35.530  32.305  27.997  1.00  0.00     0.016 A 
ATOM     33  C   UNL A   1      36.042  29.567  28.383  1.00  0.00     0.010 A 
ATOM     34  C   UNL A   1      36.744  31.899  28.543  1.00  0.00     0.010 A 
ATOM     35  C   UNL A   1      36.969  30.535  28.794  1.00  0.00    -0.014 A 
BRANCH  35  36
ATOM     36  C   UNL A   1      38.062  30.104  29.689  1.00  0.00     0.031 A 
ATOM     37  C   UNL A   1      39.070  29.125  29.157  1.00  0.00     0.074 A 
ATOM     38  C   UNL A   1      38.194  30.667  30.900  1.00  0.00     0.049 A 
ATOM     39  N   UNL A   1      40.131  28.631  29.736  1.00  0.00    -0.248 NA
ATOM     40  C   UNL A   1      38.853  28.636  27.785  1.00  0.00     0.031 C 
ATOM     41  C   UNL A   1      37.291  31.673  31.462  1.00  0.00     0.029 A 
ATOM     42  N   UNL A   1      39.145  30.488  31.865  1.00  0.00    -0.354 N 
ATOM     43  C   UNL A   1      40.701  27.770  28.805  1.00  0.00     0.074 A 
ATOM     44  C   UNL A   1      39.843  27.771  27.643  1.00  0.00     0.031 C 
ATOM     45  C   UNL A   1      37.742  32.031  32.675  1.00  0.00     0.029 A 
ATOM     46  C   UNL A   1      38.933  31.247  32.990  1.00  0.00     0.049 A 
ATOM     47  H   UNL A   1      39.910  29.875  31.763  1.00  0.00     0.167 HD
ATOM     48  C   UNL A   1      41.848  27.056  28.913  1.00  0.00     0.034 A 
ATOM     49  C   UNL A   1      39.618  31.282  34.149  1.00  0.00     0.034 A 
ATOM     50  C   UNL A   1      42.675  27.074  30.094  1.00  0.00     0.049 A 
ATOM     51  C   UNL A   1      40.844  30.410  34.278  1.00  0.00     0.074 A 
ATOM     52  C   UNL A   1      43.856  26.396  30.331  1.00  0.00     0.029 A 
ATOM     53  N   UNL A   1      42.398  27.806  31.245  1.00  0.00    -0.354 N 
ATOM     54  N   UNL A   1      41.375  29.592  33.396  1.00  0.00    -0.248 NA
ATOM     55  C   UNL A   1      41.569  30.478  35.550  1.00  0.00     0.031 C 
ATOM     56  C   UNL A   1      44.245  26.647  31.651  1.00  0.00     0.029 A 
ATOM     57  C   UNL A   1      43.367  27.567  32.206  1.00  0.00     0.049 A 
ATOM     58  H   UNL A   1      41.626  28.407  31.358  1.00  0.00     0.167 HD
ATOM     59  C   UNL A   1      42.521  29.078  33.996  1.00  0.00     0.074 A 
ATOM     60  C   UNL A   1      42.607  29.690  35.307  1.00  0.00     0.031 C 
ATOM     61  C   UNL A   1      43.425  28.188  33.509  1.00  0.00     0.034 A 
BRANCH  48  62
ATOM     62  C   UNL A   1      42.224  26.159  27.757  1.00  0.00     0.023 A 
ATOM     63  C   UNL A   1      41.745  24.841  27.646  1.00  0.00     0.031 A 
ATOM     64  C   UNL A   1      43.111  26.618  26.766  1.00  0.00     0.131 A 
ATOM     65  C   UNL A   1      42.212  24.008  26.618  1.00  0.00     0.055 A 
ATOM     66  C   UNL A   1      43.502  25.813  25.695  1.00  0.00     0.041 A 
ATOM     67  F   UNL A   1      43.629  27.854  26.834  1.00  0.00    -0.206 F 
ATOM     68  C   UNL A   1      43.065  24.494  25.624  1.00  0.00     0.022 A 
BRANCH  65  69
ATOM     69  S   UNL A   1      41.821  22.238  26.687  1.00  0.00     0.124 S 
ATOM     70  O   UNL A   1      42.655  21.795  27.803  1.00  0.00    -0.237 OA
ATOM     71  O   UNL A   1      40.382  22.242  26.927  1.00  0.00    -0.237 OA
ATOM     72  O   UNL A   1      42.234  21.743  25.376  1.00  0.00    -0.744 OA
ENDBRANCH  65  69
ENDBRANCH  48  62
BRANCH  49  73
ATOM     73  C   UNL A   1      39.151  32.137  35.276  1.00  0.00     0.023 A 
ATOM     74  C   UNL A   1      39.620  33.448  35.439  1.00  0.00     0.031 A 
ATOM     75  C   UNL A   1      38.257  31.633  36.238  1.00  0.00     0.131 A 
ATOM     76  C   UNL A   1      39.235  34.193  36.564  1.00  0.00     0.055 A 
ATOM     77  C   UNL A   1      37.825  32.400  37.321  1.00  0.00     0.041 A 
ATOM     78  F   UNL A   1      37.776  30.382  36.133  1.00  0.00    -0.206 F 
ATOM     79  C   UNL A   1      38.328  33.684  37.497  1.00  0.00     0.022 A 
BRANCH  76  80
ATOM     80  S   UNL A   1      40.022  35.802  36.848  1.00  0.00     0.124 S 
ATOM     81  O   UNL A   1      39.387  36.225  38.091  1.00  0.00    -0.237 OA
ATOM     82  O   UNL A   1      41.432  35.437  36.938  1.00  0.00    -0.237 OA
ATOM     83  O   UNL A   1      39.653  36.574  35.663  1.00  0.00    -0.744 OA
ENDBRANCH  76  80
ENDBRANCH  49  73
BRANCH  61  84
ATOM     84  C   UNL A   1      44.619  27.879  34.382  1.00  0.00     0.023 A 
ATOM     85  C   UNL A   1      44.561  26.927  35.413  1.00  0.00     0.031 A 
ATOM     86  C   UNL A   1      45.831  28.564  34.179  1.00  0.00     0.131 A 
ATOM     87  C   UNL A   1      45.672  26.736  36.248  1.00  0.00     0.055 A 
ATOM     88  C   UNL A   1      46.957  28.311  34.964  1.00  0.00     0.041 A 
ATOM     89  F   UNL A   1      45.943  29.488  33.213  1.00  0.00    -0.206 F 
ATOM     90  C   UNL A   1      46.875  27.405  36.016  1.00  0.00     0.022 A 
BRANCH  87  91
ATOM     91  S   UNL A   1      45.481  25.695  37.721  1.00  0.00     0.124 S 
ATOM     92  O   UNL A   1      45.355  24.365  37.136  1.00  0.00    -0.237 OA
ATOM     93  O   UNL A   1      46.717  25.957  38.450  1.00  0.00    -0.237 OA
ATOM     94  O   UNL A   1      44.268  26.214  38.351  1.00  0.00    -0.744 OA
ENDBRANCH  87  91
ENDBRANCH  61  84
ENDBRANCH  35  36
ENDBRANCH  28  30
ENDBRANCH  27  28
ENDBRANCH  26  27
ENDBRANCH  25  26
ENDBRANCH  24  25
ENDBRANCH   1  24
TORSDOF 22
ENDMDL
