MODEL 1
REMARK VINA RESULT:     -11.8      0.000      0.000
REMARK SMILES Cc1cc2c(c(C)c1Cl)C=C(C(=O)OCCOCCOC(=O)c1ccc(-c3c4nc(c(-c5cc(S(=O)(=O)[O-])ccc5F)c5ccc([nH]5)c(-c5cc(S(=O)(=O)[O-])ccc5F)c5nc(c(-c6cc(S(=O)(=O)[O-])ccc6F)c6ccc3[nH]6)C=C5)C=C4)cc1)[C@@H](C(F)(F)F)O2
REMARK SMILES IDX 18 1 17 2 16 3 15 4 14 5 12 6 13 7 11 8 1 9 2 10 3 11 8 12
REMARK SMILES IDX 4 13 6 14 9 15 5 16 91 17 7 18 10 19 86 20 87 21 88 22 89 23
REMARK SMILES IDX 90 24 19 25 20 26 21 27 22 28 23 29 24 30 85 31 25 32 84 33
REMARK SMILES IDX 26 34 27 35 28 36 78 37 29 38 83 39 77 40 79 41 30 42 82 43
REMARK SMILES IDX 76 44 75 45 31 47 63 48 43 49 62 50 44 51 47 52 61 53 80 54
REMARK SMILES IDX 45 55 46 56 60 58 81 59 48 60 32 61 33 62 41 63 34 64 40 65
REMARK SMILES IDX 42 66 39 67 35 68 36 69 37 70 38 71 64 72 65 73 73 74 66 75
REMARK SMILES IDX 72 76 74 77 71 78 67 79 68 80 69 81 70 82 49 83 50 84 58 85
REMARK SMILES IDX 51 86 57 87 59 88 56 89 52 90 53 91 54 92 55 93
REMARK H PARENT 79 46 47 57
REMARK Flexibility Score: inf
ROOT
ATOM      1  C   UNL A   1      36.660  21.998  23.993  1.00  0.00     0.202 C 
ENDROOT
BRANCH   1   2
ATOM      2  O   UNL A   1      35.264  22.002  24.294  1.00  0.00    -0.374 OA
BRANCH   2   3
ATOM      3  C   UNL A   1      34.766  20.974  25.149  1.00  0.00     0.202 C 
BRANCH   3   4
ATOM      4  C   UNL A   1      34.174  21.421  26.489  1.00  0.00     0.261 C 
BRANCH   4   5
ATOM      5  O   UNL A   1      34.154  22.852  26.608  1.00  0.00    -0.460 OA
BRANCH   5   6
ATOM      6  C   UNL A   1      32.928  23.382  26.820  1.00  0.00     0.338 C 
ATOM      7  O   UNL A   1      32.174  23.147  27.752  1.00  0.00    -0.246 OA
BRANCH   6   8
ATOM      8  C   UNL A   1      32.654  24.425  25.814  1.00  0.00     0.087 C 
ATOM      9  C   UNL A   1      30.413  29.637  22.729  1.00  0.00     0.046 C 
ATOM     10  C   UNL A   1      31.121  28.690  23.659  1.00  0.00    -0.028 A 
ATOM     11  C   UNL A   1      31.378  27.386  23.211  1.00  0.00     0.052 A 
ATOM     12  C   UNL A   1      31.463  29.035  24.982  1.00  0.00     0.047 A 
ATOM     13  C   UNL A   1      31.914  26.428  24.068  1.00  0.00     0.128 A 
ATOM     14  C   UNL A   1      32.049  28.088  25.853  1.00  0.00    -0.021 A 
ATOM     15  Cl  UNL A   1      31.107  30.642  25.543  1.00  0.00    -0.084 Cl
ATOM     16  C   UNL A   1      32.219  26.758  25.392  1.00  0.00     0.022 A 
ATOM     17  O   UNL A   1      32.105  25.192  23.516  1.00  0.00    -0.475 OA
ATOM     18  C   UNL A   1      32.475  28.449  27.256  1.00  0.00     0.047 C 
ATOM     19  C   UNL A   1      32.628  25.679  26.284  1.00  0.00     0.027 C 
ATOM     20  C   UNL A   1      32.393  24.060  24.383  1.00  0.00     0.316 C 
BRANCH  20  21
ATOM     21  C   UNL A   1      31.262  23.033  24.230  1.00  0.00     0.430 C 
ATOM     22  F   UNL A   1      30.599  23.207  23.061  1.00  0.00    -0.167 F 
ATOM     23  F   UNL A   1      31.729  21.764  24.230  1.00  0.00    -0.167 F 
ATOM     24  F   UNL A   1      30.354  23.133  25.228  1.00  0.00    -0.167 F 
ENDBRANCH  20  21
ENDBRANCH   6   8
ENDBRANCH   5   6
ENDBRANCH   4   5
ENDBRANCH   3   4
ENDBRANCH   2   3
ENDBRANCH   1   2
BRANCH   1  25
ATOM     25  C   UNL A   1      37.534  20.936  24.672  1.00  0.00     0.261 C 
BRANCH  25  26
ATOM     26  O   UNL A   1      37.918  21.313  26.006  1.00  0.00    -0.460 OA
BRANCH  26  27
ATOM     27  C   UNL A   1      39.249  21.233  26.253  1.00  0.00     0.338 C 
ATOM     28  O   UNL A   1      40.005  20.331  25.913  1.00  0.00    -0.246 OA
BRANCH  27  29
ATOM     29  C   UNL A   1      39.733  22.493  26.839  1.00  0.00     0.060 A 
ATOM     30  C   UNL A   1      39.171  23.687  26.370  1.00  0.00     0.016 A 
ATOM     31  C   UNL A   1      40.783  22.515  27.761  1.00  0.00     0.016 A 
ATOM     32  C   UNL A   1      39.688  24.912  26.784  1.00  0.00     0.010 A 
ATOM     33  C   UNL A   1      41.309  23.747  28.165  1.00  0.00     0.010 A 
ATOM     34  C   UNL A   1      40.787  24.947  27.651  1.00  0.00    -0.014 A 
BRANCH  34  35
ATOM     35  C   UNL A   1      41.490  26.233  27.878  1.00  0.00     0.031 A 
ATOM     36  C   UNL A   1      40.789  27.312  28.658  1.00  0.00     0.074 A 
ATOM     37  C   UNL A   1      42.750  26.417  27.448  1.00  0.00     0.049 A 
ATOM     38  N   UNL A   1      41.193  28.522  28.947  1.00  0.00    -0.248 NA
ATOM     39  C   UNL A   1      39.456  26.979  29.188  1.00  0.00     0.031 C 
ATOM     40  C   UNL A   1      43.556  25.417  26.747  1.00  0.00     0.029 A 
ATOM     41  N   UNL A   1      43.577  27.506  27.547  1.00  0.00    -0.354 N 
ATOM     42  C   UNL A   1      40.170  29.092  29.697  1.00  0.00     0.074 A 
ATOM     43  C   UNL A   1      39.113  28.108  29.789  1.00  0.00     0.031 C 
ATOM     44  C   UNL A   1      44.767  25.940  26.485  1.00  0.00     0.029 A 
ATOM     45  C   UNL A   1      44.807  27.321  26.963  1.00  0.00     0.049 A 
ATOM     46  H   UNL A   1      43.315  28.343  27.996  1.00  0.00     0.167 HD
ATOM     47  C   UNL A   1      40.122  30.320  30.266  1.00  0.00     0.034 A 
ATOM     48  C   UNL A   1      45.840  28.176  26.813  1.00  0.00     0.034 A 
ATOM     49  C   UNL A   1      41.176  31.296  30.162  1.00  0.00     0.049 A 
ATOM     50  C   UNL A   1      45.718  29.577  27.354  1.00  0.00     0.074 A 
ATOM     51  C   UNL A   1      41.221  32.575  30.688  1.00  0.00     0.029 A 
ATOM     52  N   UNL A   1      42.371  31.104  29.481  1.00  0.00    -0.354 N 
ATOM     53  N   UNL A   1      44.725  30.122  28.019  1.00  0.00    -0.248 NA
ATOM     54  C   UNL A   1      46.852  30.482  27.121  1.00  0.00     0.031 C 
ATOM     55  C   UNL A   1      42.414  33.177  30.275  1.00  0.00     0.029 A 
ATOM     56  C   UNL A   1      43.146  32.251  29.549  1.00  0.00     0.049 A 
ATOM     57  H   UNL A   1      42.630  30.275  29.018  1.00  0.00     0.167 HD
ATOM     58  C   UNL A   1      45.124  31.426  28.299  1.00  0.00     0.074 A 
ATOM     59  C   UNL A   1      46.450  31.585  27.737  1.00  0.00     0.031 C 
ATOM     60  C   UNL A   1      44.457  32.400  28.965  1.00  0.00     0.034 A 
BRANCH  47  61
ATOM     61  C   UNL A   1      38.871  30.691  31.018  1.00  0.00     0.023 A 
ATOM     62  C   UNL A   1      37.775  31.288  30.372  1.00  0.00     0.031 A 
ATOM     63  C   UNL A   1      38.772  30.437  32.396  1.00  0.00     0.131 A 
ATOM     64  C   UNL A   1      36.641  31.648  31.114  1.00  0.00     0.055 A 
ATOM     65  C   UNL A   1      37.616  30.742  33.117  1.00  0.00     0.041 A 
ATOM     66  F   UNL A   1      39.798  29.889  33.065  1.00  0.00    -0.206 F 
ATOM     67  C   UNL A   1      36.544  31.357  32.478  1.00  0.00     0.022 A 
BRANCH  64  68
ATOM     68  S   UNL A   1      35.318  32.576  30.290  1.00  0.00     0.124 S 
ATOM     69  O   UNL A   1      36.000  33.823  29.954  1.00  0.00    -0.237 OA
ATOM     70  O   UNL A   1      34.976  31.712  29.166  1.00  0.00    -0.237 OA
ATOM     71  O   UNL A   1      34.289  32.693  31.320  1.00  0.00    -0.744 OA
ENDBRANCH  64  68
ENDBRANCH  47  61
BRANCH  48  72
ATOM     72  C   UNL A   1      47.067  27.745  26.088  1.00  0.00     0.023 A 
ATOM     73  C   UNL A   1      47.181  27.904  24.699  1.00  0.00     0.031 A 
ATOM     74  C   UNL A   1      48.138  27.152  26.779  1.00  0.00     0.131 A 
ATOM     75  C   UNL A   1      48.335  27.454  24.039  1.00  0.00     0.055 A 
ATOM     76  C   UNL A   1      49.300  26.740  26.124  1.00  0.00     0.041 A 
ATOM     77  F   UNL A   1      48.076  26.979  28.109  1.00  0.00    -0.206 F 
ATOM     78  C   UNL A   1      49.401  26.885  24.744  1.00  0.00     0.022 A 
BRANCH  75  79
ATOM     79  S   UNL A   1      48.418  27.597  22.232  1.00  0.00     0.124 S 
ATOM     80  O   UNL A   1      47.113  28.170  21.921  1.00  0.00    -0.237 OA
ATOM     81  O   UNL A   1      49.567  28.477  22.049  1.00  0.00    -0.237 OA
ATOM     82  O   UNL A   1      48.618  26.218  21.791  1.00  0.00    -0.744 OA
ENDBRANCH  75  79
ENDBRANCH  48  72
BRANCH  60  83
ATOM     83  C   UNL A   1      45.157  33.723  29.145  1.00  0.00     0.023 A 
ATOM     84  C   UNL A   1      44.878  34.819  28.313  1.00  0.00     0.031 A 
ATOM     85  C   UNL A   1      46.086  33.896  30.186  1.00  0.00     0.131 A 
ATOM     86  C   UNL A   1      45.545  36.036  28.517  1.00  0.00     0.055 A 
ATOM     87  C   UNL A   1      46.711  35.122  30.414  1.00  0.00     0.041 A 
ATOM     88  F   UNL A   1      46.385  32.879  31.011  1.00  0.00    -0.206 F 
ATOM     89  C   UNL A   1      46.446  36.199  29.573  1.00  0.00     0.022 A 
BRANCH  86  90
ATOM     90  S   UNL A   1      45.249  37.399  27.358  1.00  0.00     0.124 S 
ATOM     91  O   UNL A   1      46.236  37.130  26.318  1.00  0.00    -0.237 OA
ATOM     92  O   UNL A   1      43.854  37.195  26.980  1.00  0.00    -0.237 OA
ATOM     93  O   UNL A   1      45.503  38.594  28.160  1.00  0.00    -0.744 OA
ENDBRANCH  86  90
ENDBRANCH  60  83
ENDBRANCH  34  35
ENDBRANCH  27  29
ENDBRANCH  26  27
ENDBRANCH  25  26
ENDBRANCH   1  25
TORSDOF 18
ENDMDL
MODEL 2
REMARK VINA RESULT:     -11.6      1.241      1.835
REMARK SMILES Cc1cc2c(c(C)c1Cl)C=C(C(=O)OCCOCCOC(=O)c1ccc(-c3c4nc(c(-c5cc(S(=O)(=O)[O-])ccc5F)c5ccc([nH]5)c(-c5cc(S(=O)(=O)[O-])ccc5F)c5nc(c(-c6cc(S(=O)(=O)[O-])ccc6F)c6ccc3[nH]6)C=C5)C=C4)cc1)[C@@H](C(F)(F)F)O2
REMARK SMILES IDX 18 1 17 2 16 3 15 4 14 5 12 6 13 7 11 8 1 9 2 10 3 11 8 12
REMARK SMILES IDX 4 13 6 14 9 15 5 16 91 17 7 18 10 19 86 20 87 21 88 22 89 23
REMARK SMILES IDX 90 24 19 25 20 26 21 27 22 28 23 29 24 30 85 31 25 32 84 33
REMARK SMILES IDX 26 34 27 35 28 36 78 37 29 38 83 39 77 40 79 41 30 42 82 43
REMARK SMILES IDX 76 44 75 45 31 47 63 48 43 49 62 50 44 51 47 52 61 53 80 54
REMARK SMILES IDX 45 55 46 56 60 58 81 59 48 60 32 61 33 62 41 63 34 64 40 65
REMARK SMILES IDX 42 66 39 67 35 68 36 69 37 70 38 71 64 72 65 73 73 74 66 75
REMARK SMILES IDX 72 76 74 77 71 78 67 79 68 80 69 81 70 82 49 83 50 84 58 85
REMARK SMILES IDX 51 86 57 87 59 88 56 89 52 90 53 91 54 92 55 93
REMARK H PARENT 79 46 47 57
REMARK Flexibility Score: inf
ROOT
ATOM      1  C   UNL A   1      35.239  20.895  25.593  1.00  0.00     0.202 C 
ENDROOT
BRANCH   1   2
ATOM      2  O   UNL A   1      35.178  21.911  26.595  1.00  0.00    -0.374 OA
BRANCH   2   3
ATOM      3  C   UNL A   1      33.945  22.083  27.293  1.00  0.00     0.202 C 
BRANCH   3   4
ATOM      4  C   UNL A   1      32.831  22.825  26.548  1.00  0.00     0.261 C 
BRANCH   4   5
ATOM      5  O   UNL A   1      33.108  24.231  26.444  1.00  0.00    -0.460 OA
BRANCH   5   6
ATOM      6  C   UNL A   1      33.232  24.687  25.177  1.00  0.00     0.338 C 
ATOM      7  O   UNL A   1      33.550  24.043  24.189  1.00  0.00    -0.246 OA
BRANCH   6   8
ATOM      8  C   UNL A   1      32.787  26.091  25.107  1.00  0.00     0.087 C 
ATOM      9  C   UNL A   1      31.243  32.193  26.552  1.00  0.00     0.046 C 
ATOM     10  C   UNL A   1      31.963  30.899  26.282  1.00  0.00    -0.028 A 
ATOM     11  C   UNL A   1      31.357  29.967  25.428  1.00  0.00     0.052 A 
ATOM     12  C   UNL A   1      33.175  30.558  26.912  1.00  0.00     0.047 A 
ATOM     13  C   UNL A   1      31.911  28.703  25.241  1.00  0.00     0.128 A 
ATOM     14  C   UNL A   1      33.777  29.296  26.699  1.00  0.00    -0.021 A 
ATOM     15  Cl  UNL A   1      33.903  31.704  27.999  1.00  0.00    -0.084 Cl
ATOM     16  C   UNL A   1      33.095  28.348  25.895  1.00  0.00     0.022 A 
ATOM     17  O   UNL A   1      31.219  27.881  24.396  1.00  0.00    -0.475 OA
ATOM     18  C   UNL A   1      35.104  28.928  27.319  1.00  0.00     0.047 C 
ATOM     19  C   UNL A   1      33.542  26.964  25.786  1.00  0.00     0.027 C 
ATOM     20  C   UNL A   1      31.550  26.466  24.347  1.00  0.00     0.316 C 
BRANCH  20  21
ATOM     21  C   UNL A   1      30.317  25.664  24.788  1.00  0.00     0.430 C 
ATOM     22  F   UNL A   1      30.300  25.496  26.133  1.00  0.00    -0.167 F 
ATOM     23  F   UNL A   1      29.165  26.288  24.457  1.00  0.00    -0.167 F 
ATOM     24  F   UNL A   1      30.290  24.433  24.227  1.00  0.00    -0.167 F 
ENDBRANCH  20  21
ENDBRANCH   6   8
ENDBRANCH   5   6
ENDBRANCH   4   5
ENDBRANCH   3   4
ENDBRANCH   2   3
ENDBRANCH   1   2
BRANCH   1  25
ATOM     25  C   UNL A   1      36.525  20.788  24.763  1.00  0.00     0.261 C 
BRANCH  25  26
ATOM     26  O   UNL A   1      37.460  21.840  25.062  1.00  0.00    -0.460 OA
BRANCH  26  27
ATOM     27  C   UNL A   1      38.571  21.434  25.723  1.00  0.00     0.338 C 
ATOM     28  O   UNL A   1      39.089  20.325  25.678  1.00  0.00    -0.246 OA
BRANCH  27  29
ATOM     29  C   UNL A   1      39.216  22.581  26.383  1.00  0.00     0.060 A 
ATOM     30  C   UNL A   1      38.681  23.853  26.144  1.00  0.00     0.016 A 
ATOM     31  C   UNL A   1      40.377  22.428  27.145  1.00  0.00     0.016 A 
ATOM     32  C   UNL A   1      39.333  24.985  26.627  1.00  0.00     0.010 A 
ATOM     33  C   UNL A   1      41.037  23.568  27.616  1.00  0.00     0.010 A 
ATOM     34  C   UNL A   1      40.538  24.851  27.329  1.00  0.00    -0.014 A 
BRANCH  34  35
ATOM     35  C   UNL A   1      41.352  26.058  27.608  1.00  0.00     0.031 A 
ATOM     36  C   UNL A   1      40.784  27.120  28.510  1.00  0.00     0.074 A 
ATOM     37  C   UNL A   1      42.597  26.180  27.117  1.00  0.00     0.049 A 
ATOM     38  N   UNL A   1      41.299  28.269  28.864  1.00  0.00    -0.248 NA
ATOM     39  C   UNL A   1      39.461  26.847  29.095  1.00  0.00     0.031 C 
ATOM     40  C   UNL A   1      43.280  25.181  26.294  1.00  0.00     0.029 A 
ATOM     41  N   UNL A   1      43.513  27.192  27.247  1.00  0.00    -0.354 N 
ATOM     42  C   UNL A   1      40.368  28.853  29.717  1.00  0.00     0.074 A 
ATOM     43  C   UNL A   1      39.242  27.947  29.799  1.00  0.00     0.031 C 
ATOM     44  C   UNL A   1      44.512  25.631  25.998  1.00  0.00     0.029 A 
ATOM     45  C   UNL A   1      44.690  26.962  26.575  1.00  0.00     0.049 A 
ATOM     46  H   UNL A   1      43.344  28.007  27.773  1.00  0.00     0.167 HD
ATOM     47  C   UNL A   1      40.451  30.032  30.378  1.00  0.00     0.034 A 
ATOM     48  C   UNL A   1      45.777  27.746  26.427  1.00  0.00     0.034 A 
ATOM     49  C   UNL A   1      41.571  30.931  30.283  1.00  0.00     0.049 A 
ATOM     50  C   UNL A   1      45.798  29.105  27.079  1.00  0.00     0.074 A 
ATOM     51  C   UNL A   1      41.747  32.156  30.901  1.00  0.00     0.029 A 
ATOM     52  N   UNL A   1      42.707  30.705  29.517  1.00  0.00    -0.354 N 
ATOM     53  N   UNL A   1      44.891  29.668  27.843  1.00  0.00    -0.248 NA
ATOM     54  C   UNL A   1      46.987  29.937  26.845  1.00  0.00     0.031 C 
ATOM     55  C   UNL A   1      42.960  32.698  30.462  1.00  0.00     0.029 A 
ATOM     56  C   UNL A   1      43.574  31.780  29.624  1.00  0.00     0.049 A 
ATOM     57  H   UNL A   1      42.873  29.898  28.978  1.00  0.00     0.167 HD
ATOM     58  C   UNL A   1      45.407  30.911  28.196  1.00  0.00     0.074 A 
ATOM     59  C   UNL A   1      46.708  31.015  27.566  1.00  0.00     0.031 C 
ATOM     60  C   UNL A   1      44.858  31.877  28.973  1.00  0.00     0.034 A 
BRANCH  47  61
ATOM     61  C   UNL A   1      39.276  30.434  31.232  1.00  0.00     0.023 A 
ATOM     62  C   UNL A   1      38.302  31.332  30.765  1.00  0.00     0.031 A 
ATOM     63  C   UNL A   1      39.128  29.907  32.526  1.00  0.00     0.131 A 
ATOM     64  C   UNL A   1      37.241  31.707  31.603  1.00  0.00     0.055 A 
ATOM     65  C   UNL A   1      38.038  30.236  33.332  1.00  0.00     0.041 A 
ATOM     66  F   UNL A   1      40.043  29.062  33.027  1.00  0.00    -0.206 F 
ATOM     67  C   UNL A   1      37.089  31.147  32.874  1.00  0.00     0.022 A 
BRANCH  64  68
ATOM     68  S   UNL A   1      36.101  33.000  31.040  1.00  0.00     0.124 S 
ATOM     69  O   UNL A   1      34.805  32.361  31.253  1.00  0.00    -0.237 OA
ATOM     70  O   UNL A   1      36.418  34.112  31.930  1.00  0.00    -0.237 OA
ATOM     71  O   UNL A   1      36.471  33.198  29.641  1.00  0.00    -0.744 OA
ENDBRANCH  64  68
ENDBRANCH  47  61
BRANCH  48  72
ATOM     72  C   UNL A   1      46.924  27.283  25.597  1.00  0.00     0.023 A 
ATOM     73  C   UNL A   1      47.097  27.740  24.282  1.00  0.00     0.031 A 
ATOM     74  C   UNL A   1      47.854  26.362  26.109  1.00  0.00     0.131 A 
ATOM     75  C   UNL A   1      48.167  27.257  23.513  1.00  0.00     0.055 A 
ATOM     76  C   UNL A   1      48.939  25.913  25.353  1.00  0.00     0.041 A 
ATOM     77  F   UNL A   1      47.731  25.896  27.362  1.00  0.00    -0.206 F 
ATOM     78  C   UNL A   1      49.096  26.357  24.043  1.00  0.00     0.022 A 
BRANCH  75  79
ATOM     79  S   UNL A   1      48.317  27.802  21.789  1.00  0.00     0.124 S 
ATOM     80  O   UNL A   1      48.627  26.549  21.109  1.00  0.00    -0.237 OA
ATOM     81  O   UNL A   1      46.996  28.365  21.531  1.00  0.00    -0.237 OA
ATOM     82  O   UNL A   1      49.407  28.776  21.834  1.00  0.00    -0.744 OA
ENDBRANCH  75  79
ENDBRANCH  48  72
BRANCH  60  83
ATOM     83  C   UNL A   1      45.670  33.124  29.209  1.00  0.00     0.023 A 
ATOM     84  C   UNL A   1      45.534  34.255  28.387  1.00  0.00     0.031 A 
ATOM     85  C   UNL A   1      46.564  33.193  30.293  1.00  0.00     0.131 A 
ATOM     86  C   UNL A   1      46.303  35.399  28.643  1.00  0.00     0.055 A 
ATOM     87  C   UNL A   1      47.290  34.351  30.572  1.00  0.00     0.041 A 
ATOM     88  F   UNL A   1      46.728  32.140  31.110  1.00  0.00    -0.206 F 
ATOM     89  C   UNL A   1      47.166  35.460  29.740  1.00  0.00     0.022 A 
BRANCH  86  90
ATOM     90  S   UNL A   1      46.189  36.801  27.499  1.00  0.00     0.124 S 
ATOM     91  O   UNL A   1      45.165  36.346  26.565  1.00  0.00    -0.237 OA
ATOM     92  O   UNL A   1      45.804  37.899  28.381  1.00  0.00    -0.237 OA
ATOM     93  O   UNL A   1      47.537  36.901  26.942  1.00  0.00    -0.744 OA
ENDBRANCH  86  90
ENDBRANCH  60  83
ENDBRANCH  34  35
ENDBRANCH  27  29
ENDBRANCH  26  27
ENDBRANCH  25  26
ENDBRANCH   1  25
TORSDOF 18
ENDMDL
MODEL 3
REMARK VINA RESULT:     -11.6      1.416      7.561
REMARK SMILES Cc1cc2c(c(C)c1Cl)C=C(C(=O)OCCOCCOC(=O)c1ccc(-c3c4nc(c(-c5cc(S(=O)(=O)[O-])ccc5F)c5ccc([nH]5)c(-c5cc(S(=O)(=O)[O-])ccc5F)c5nc(c(-c6cc(S(=O)(=O)[O-])ccc6F)c6ccc3[nH]6)C=C5)C=C4)cc1)[C@@H](C(F)(F)F)O2
REMARK SMILES IDX 18 1 17 2 16 3 15 4 14 5 12 6 13 7 11 8 1 9 2 10 3 11 8 12
REMARK SMILES IDX 4 13 6 14 9 15 5 16 91 17 7 18 10 19 86 20 87 21 88 22 89 23
REMARK SMILES IDX 90 24 19 25 20 26 21 27 22 28 23 29 24 30 85 31 25 32 84 33
REMARK SMILES IDX 26 34 27 35 28 36 78 37 29 38 83 39 77 40 79 41 30 42 82 43
REMARK SMILES IDX 76 44 75 45 31 47 63 48 43 49 62 50 44 51 47 52 61 53 80 54
REMARK SMILES IDX 45 55 46 56 60 58 81 59 48 60 32 61 33 62 41 63 34 64 40 65
REMARK SMILES IDX 42 66 39 67 35 68 36 69 37 70 38 71 64 72 65 73 73 74 66 75
REMARK SMILES IDX 72 76 74 77 71 78 67 79 68 80 69 81 70 82 49 83 50 84 58 85
REMARK SMILES IDX 51 86 57 87 59 88 56 89 52 90 53 91 54 92 55 93
REMARK H PARENT 79 46 47 57
REMARK Flexibility Score: inf
ROOT
ATOM      1  C   UNL A   1      36.431  20.017  24.919  1.00  0.00     0.202 C 
ENDROOT
BRANCH   1   2
ATOM      2  O   UNL A   1      35.925  21.224  25.488  1.00  0.00    -0.374 OA
BRANCH   2   3
ATOM      3  C   UNL A   1      34.520  21.311  25.724  1.00  0.00     0.202 C 
BRANCH   3   4
ATOM      4  C   UNL A   1      34.082  21.957  27.042  1.00  0.00     0.261 C 
BRANCH   4   5
ATOM      5  O   UNL A   1      33.865  23.369  26.892  1.00  0.00    -0.460 OA
BRANCH   5   6
ATOM      6  C   UNL A   1      32.564  23.737  26.851  1.00  0.00     0.338 C 
ATOM      7  O   UNL A   1      31.683  23.417  27.633  1.00  0.00    -0.246 OA
BRANCH   6   8
ATOM      8  C   UNL A   1      32.358  24.723  25.773  1.00  0.00     0.087 C 
ATOM      9  C   UNL A   1      30.265  29.702  22.235  1.00  0.00     0.046 C 
ATOM     10  C   UNL A   1      30.907  28.825  23.275  1.00  0.00    -0.028 A 
ATOM     11  C   UNL A   1      31.252  27.514  22.918  1.00  0.00     0.052 A 
ATOM     12  C   UNL A   1      31.101  29.241  24.607  1.00  0.00     0.047 A 
ATOM     13  C   UNL A   1      31.731  26.616  23.869  1.00  0.00     0.128 A 
ATOM     14  C   UNL A   1      31.629  28.358  25.576  1.00  0.00    -0.021 A 
ATOM     15  Cl  UNL A   1      30.636  30.857  25.052  1.00  0.00    -0.084 Cl
ATOM     16  C   UNL A   1      31.889  27.016  25.199  1.00  0.00     0.022 A 
ATOM     17  O   UNL A   1      32.018  25.365  23.399  1.00  0.00    -0.475 OA
ATOM     18  C   UNL A   1      31.897  28.797  26.996  1.00  0.00     0.047 C 
ATOM     19  C   UNL A   1      32.242  25.994  26.178  1.00  0.00     0.027 C 
ATOM     20  C   UNL A   1      32.256  24.285  24.343  1.00  0.00     0.316 C 
BRANCH  20  21
ATOM     21  C   UNL A   1      31.182  23.209  24.128  1.00  0.00     0.430 C 
ATOM     22  F   UNL A   1      30.126  23.400  24.956  1.00  0.00    -0.167 F 
ATOM     23  F   UNL A   1      30.698  23.225  22.866  1.00  0.00    -0.167 F 
ATOM     24  F   UNL A   1      31.661  21.966  24.365  1.00  0.00    -0.167 F 
ENDBRANCH  20  21
ENDBRANCH   6   8
ENDBRANCH   5   6
ENDBRANCH   4   5
ENDBRANCH   3   4
ENDBRANCH   2   3
ENDBRANCH   1   2
BRANCH   1  25
ATOM     25  C   UNL A   1      37.942  19.766  25.004  1.00  0.00     0.261 C 
BRANCH  25  26
ATOM     26  O   UNL A   1      38.680  20.963  25.307  1.00  0.00    -0.460 OA
BRANCH  26  27
ATOM     27  C   UNL A   1      39.682  20.795  26.205  1.00  0.00     0.338 C 
ATOM     28  O   UNL A   1      40.327  19.773  26.402  1.00  0.00    -0.246 OA
BRANCH  27  29
ATOM     29  C   UNL A   1      40.044  22.088  26.809  1.00  0.00     0.060 A 
ATOM     30  C   UNL A   1      39.345  23.224  26.380  1.00  0.00     0.016 A 
ATOM     31  C   UNL A   1      41.108  22.203  27.706  1.00  0.00     0.016 A 
ATOM     32  C   UNL A   1      39.739  24.488  26.811  1.00  0.00     0.010 A 
ATOM     33  C   UNL A   1      41.509  23.476  28.127  1.00  0.00     0.010 A 
ATOM     34  C   UNL A   1      40.850  24.624  27.653  1.00  0.00    -0.014 A 
BRANCH  34  35
ATOM     35  C   UNL A   1      41.416  25.973  27.893  1.00  0.00     0.031 A 
ATOM     36  C   UNL A   1      42.766  26.304  27.315  1.00  0.00     0.074 A 
ATOM     37  C   UNL A   1      40.718  26.905  28.564  1.00  0.00     0.049 A 
ATOM     38  N   UNL A   1      43.468  27.402  27.426  1.00  0.00    -0.248 NA
ATOM     39  C   UNL A   1      43.404  25.259  26.498  1.00  0.00     0.031 C 
ATOM     40  C   UNL A   1      39.371  26.723  29.104  1.00  0.00     0.029 A 
ATOM     41  N   UNL A   1      41.041  28.196  28.895  1.00  0.00    -0.354 N 
ATOM     42  C   UNL A   1      44.627  27.184  26.689  1.00  0.00     0.074 A 
ATOM     43  C   UNL A   1      44.548  25.837  26.165  1.00  0.00     0.031 C 
ATOM     44  C   UNL A   1      38.981  27.866  29.696  1.00  0.00     0.029 A 
ATOM     45  C   UNL A   1      40.063  28.845  29.610  1.00  0.00     0.049 A 
ATOM     46  H   UNL A   1      41.894  28.620  28.643  1.00  0.00     0.167 HD
ATOM     47  C   UNL A   1      45.657  28.034  26.462  1.00  0.00     0.034 A 
ATOM     48  C   UNL A   1      40.053  30.080  30.152  1.00  0.00     0.034 A 
ATOM     49  C   UNL A   1      45.730  29.369  26.995  1.00  0.00     0.049 A 
ATOM     50  C   UNL A   1      41.260  30.967  29.983  1.00  0.00     0.074 A 
ATOM     51  C   UNL A   1      46.736  30.306  26.837  1.00  0.00     0.029 A 
ATOM     52  N   UNL A   1      44.760  29.959  27.794  1.00  0.00    -0.354 N 
ATOM     53  N   UNL A   1      42.372  30.732  29.326  1.00  0.00    -0.248 NA
ATOM     54  C   UNL A   1      41.214  32.284  30.634  1.00  0.00     0.031 C 
ATOM     55  C   UNL A   1      46.403  31.437  27.590  1.00  0.00     0.029 A 
ATOM     56  C   UNL A   1      45.157  31.234  28.162  1.00  0.00     0.049 A 
ATOM     57  H   UNL A   1      43.913  29.533  28.061  1.00  0.00     0.167 HD
ATOM     58  C   UNL A   1      43.149  31.877  29.469  1.00  0.00     0.074 A 
ATOM     59  C   UNL A   1      42.377  32.806  30.270  1.00  0.00     0.031 C 
ATOM     60  C   UNL A   1      44.385  32.140  28.978  1.00  0.00     0.034 A 
BRANCH  47  61
ATOM     61  C   UNL A   1      46.807  27.526  25.632  1.00  0.00     0.023 A 
ATOM     62  C   UNL A   1      46.987  27.932  24.299  1.00  0.00     0.031 A 
ATOM     63  C   UNL A   1      47.738  26.631  26.186  1.00  0.00     0.131 A 
ATOM     64  C   UNL A   1      48.052  27.411  23.550  1.00  0.00     0.055 A 
ATOM     65  C   UNL A   1      48.831  26.163  25.454  1.00  0.00     0.041 A 
ATOM     66  F   UNL A   1      47.599  26.195  27.448  1.00  0.00    -0.206 F 
ATOM     67  C   UNL A   1      48.990  26.547  24.126  1.00  0.00     0.022 A 
BRANCH  64  68
ATOM     68  S   UNL A   1      48.156  27.812  21.784  1.00  0.00     0.124 S 
ATOM     69  O   UNL A   1      46.811  28.317  21.520  1.00  0.00    -0.237 OA
ATOM     70  O   UNL A   1      49.228  28.800  21.746  1.00  0.00    -0.237 OA
ATOM     71  O   UNL A   1      48.468  26.529  21.159  1.00  0.00    -0.744 OA
ENDBRANCH  64  68
ENDBRANCH  47  61
BRANCH  48  72
ATOM     72  C   UNL A   1      38.874  30.541  30.936  1.00  0.00     0.023 A 
ATOM     73  C   UNL A   1      37.811  31.215  30.316  1.00  0.00     0.031 A 
ATOM     74  C   UNL A   1      38.804  30.325  32.323  1.00  0.00     0.131 A 
ATOM     75  C   UNL A   1      36.730  31.670  31.088  1.00  0.00     0.055 A 
ATOM     76  C   UNL A   1      37.710  30.745  33.081  1.00  0.00     0.041 A 
ATOM     77  F   UNL A   1      39.797  29.683  32.961  1.00  0.00    -0.206 F 
ATOM     78  C   UNL A   1      36.667  31.428  32.464  1.00  0.00     0.022 A 
BRANCH  75  79
ATOM     79  S   UNL A   1      35.411  32.611  30.273  1.00  0.00     0.124 S 
ATOM     80  O   UNL A   1      34.365  32.595  31.290  1.00  0.00    -0.237 OA
ATOM     81  O   UNL A   1      36.057  33.898  30.035  1.00  0.00    -0.237 OA
ATOM     82  O   UNL A   1      35.128  31.829  29.071  1.00  0.00    -0.744 OA
ENDBRANCH  75  79
ENDBRANCH  48  72
BRANCH  60  83
ATOM     83  C   UNL A   1      44.977  33.494  29.272  1.00  0.00     0.023 A 
ATOM     84  C   UNL A   1      45.771  33.717  30.408  1.00  0.00     0.031 A 
ATOM     85  C   UNL A   1      44.772  34.564  28.382  1.00  0.00     0.131 A 
ATOM     86  C   UNL A   1      46.309  34.990  30.643  1.00  0.00     0.055 A 
ATOM     87  C   UNL A   1      45.349  35.816  28.596  1.00  0.00     0.041 A 
ATOM     88  F   UNL A   1      44.022  34.402  27.280  1.00  0.00    -0.206 F 
ATOM     89  C   UNL A   1      46.118  36.035  29.736  1.00  0.00     0.022 A 
BRANCH  86  90
ATOM     90  S   UNL A   1      47.236  35.277  32.176  1.00  0.00     0.124 S 
ATOM     91  O   UNL A   1      48.568  34.806  31.816  1.00  0.00    -0.237 OA
ATOM     92  O   UNL A   1      47.099  36.718  32.363  1.00  0.00    -0.237 OA
ATOM     93  O   UNL A   1      46.532  34.458  33.161  1.00  0.00    -0.744 OA
ENDBRANCH  86  90
ENDBRANCH  60  83
ENDBRANCH  34  35
ENDBRANCH  27  29
ENDBRANCH  26  27
ENDBRANCH  25  26
ENDBRANCH   1  25
TORSDOF 18
ENDMDL
