MODEL 1
REMARK VINA RESULT:     -11.3      0.000      0.000
REMARK SMILES O=C(C[NH+]1CCN(c2ncc(C(F)(F)F)cc2Cl)CC1)OCCOCCOC(=O)c1ccc(-c2c3nc(c(-c4cc(S(=O)(=O)[O-])ccc4F)c4ccc([nH]4)c(-c4cc(S(=O)(=O)[O-])ccc4F)c4nc(c(-c5cc(S(=O)(=O)[O-])ccc5F)c5ccc2[nH]5)C=C4)C=C3)cc1
REMARK SMILES IDX 24 1 23 2 22 3 21 4 2 5 1 6 3 7 4 8 5 9 20 10 6 12 19 13
REMARK SMILES IDX 7 14 8 15 9 16 17 17 10 18 16 19 18 20 11 21 12 22 13 23
REMARK SMILES IDX 14 24 15 25 25 26 26 27 27 28 28 29 29 30 30 31 31 32 92 33
REMARK SMILES IDX 32 34 91 35 33 36 34 37 35 38 85 39 36 40 90 41 84 42 86 43
REMARK SMILES IDX 37 44 89 45 83 46 82 47 38 49 70 50 50 51 69 52 51 53 54 54
REMARK SMILES IDX 68 55 87 56 52 57 53 58 67 60 88 61 55 62 39 63 40 64 48 65
REMARK SMILES IDX 41 66 47 67 49 68 46 69 42 70 43 71 44 72 45 73 71 74 72 75
REMARK SMILES IDX 80 76 73 77 79 78 81 79 78 80 74 81 75 82 76 83 77 84 56 85
REMARK SMILES IDX 57 86 65 87 58 88 64 89 66 90 63 91 59 92 60 93 61 94 62 95
REMARK H PARENT 4 11 86 48 54 59
REMARK Flexibility Score: inf
ROOT
ATOM      1  O   UNL A   1      31.826  30.150  25.506  1.00  0.00    -0.374 OA
ENDROOT
BRANCH   1   2
ATOM      2  C   UNL A   1      32.878  29.327  24.997  1.00  0.00     0.202 C 
BRANCH   2   3
ATOM      3  C   UNL A   1      32.418  27.960  24.493  1.00  0.00     0.261 C 
BRANCH   3   4
ATOM      4  O   UNL A   1      31.212  27.523  25.126  1.00  0.00    -0.459 OA
BRANCH   4   5
ATOM      5  C   UNL A   1      31.163  26.714  26.207  1.00  0.00     0.361 C 
ATOM      6  O   UNL A   1      31.128  27.235  27.327  1.00  0.00    -0.245 OA
BRANCH   5   7
ATOM      7  C   UNL A   1      31.336  25.198  26.087  1.00  0.00     0.386 C 
BRANCH   7   8
ATOM      8  N   UNL A   1      32.675  24.728  25.664  1.00  0.00    -0.323 N 
ATOM      9  C   UNL A   1      33.220  23.660  26.558  1.00  0.00     0.284 C 
ATOM     10  C   UNL A   1      32.588  24.132  24.296  1.00  0.00     0.284 C 
ATOM     11  H   UNL A   1      33.288  25.542  25.696  1.00  0.00     0.348 HD
ATOM     12  C   UNL A   1      32.472  22.308  26.566  1.00  0.00     0.179 C 
ATOM     13  C   UNL A   1      31.862  22.757  24.209  1.00  0.00     0.179 C 
ATOM     14  N   UNL A   1      32.399  21.826  25.192  1.00  0.00    -0.344 N 
BRANCH  14  15
ATOM     15  C   UNL A   1      32.931  20.590  24.935  1.00  0.00     0.147 A 
ATOM     16  N   UNL A   1      32.046  19.559  24.952  1.00  0.00    -0.237 NA
ATOM     17  C   UNL A   1      34.297  20.336  24.748  1.00  0.00     0.084 A 
ATOM     18  C   UNL A   1      32.491  18.294  24.779  1.00  0.00     0.126 A 
ATOM     19  C   UNL A   1      34.736  19.019  24.583  1.00  0.00     0.039 A 
ATOM     20  Cl  UNL A   1      35.527  21.548  24.824  1.00  0.00    -0.080 Cl
ATOM     21  C   UNL A   1      33.821  17.968  24.594  1.00  0.00     0.075 A 
BRANCH  21  22
ATOM     22  C   UNL A   1      34.228  16.542  24.419  1.00  0.00     0.417 C 
ATOM     23  F   UNL A   1      34.282  16.163  23.114  1.00  0.00    -0.166 F 
ATOM     24  F   UNL A   1      35.461  16.288  24.936  1.00  0.00    -0.166 F 
ATOM     25  F   UNL A   1      33.384  15.662  25.029  1.00  0.00    -0.166 F 
ENDBRANCH  21  22
ENDBRANCH  14  15
ENDBRANCH   7   8
ENDBRANCH   5   7
ENDBRANCH   4   5
ENDBRANCH   3   4
ENDBRANCH   2   3
ENDBRANCH   1   2
BRANCH   1  26
ATOM     26  C   UNL A   1      32.001  30.553  26.873  1.00  0.00     0.202 C 
BRANCH  26  27
ATOM     27  C   UNL A   1      32.077  32.072  27.037  1.00  0.00     0.261 C 
BRANCH  27  28
ATOM     28  O   UNL A   1      33.417  32.459  27.359  1.00  0.00    -0.460 OA
BRANCH  28  29
ATOM     29  C   UNL A   1      33.524  33.496  28.227  1.00  0.00     0.338 C 
ATOM     30  O   UNL A   1      32.715  34.390  28.407  1.00  0.00    -0.246 OA
BRANCH  29  31
ATOM     31  C   UNL A   1      34.687  33.236  29.102  1.00  0.00     0.060 A 
ATOM     32  C   UNL A   1      35.849  33.996  28.901  1.00  0.00     0.016 A 
ATOM     33  C   UNL A   1      34.614  32.316  30.152  1.00  0.00     0.016 A 
ATOM     34  C   UNL A   1      36.953  33.819  29.733  1.00  0.00     0.010 A 
ATOM     35  C   UNL A   1      35.716  32.137  30.980  1.00  0.00     0.010 A 
ATOM     36  C   UNL A   1      36.898  32.862  30.753  1.00  0.00    -0.014 A 
BRANCH  36  37
ATOM     37  C   UNL A   1      38.125  32.417  31.443  1.00  0.00     0.031 A 
ATOM     38  C   UNL A   1      38.900  31.298  30.808  1.00  0.00     0.074 A 
ATOM     39  C   UNL A   1      38.483  32.926  32.631  1.00  0.00     0.049 A 
ATOM     40  N   UNL A   1      39.864  30.569  31.296  1.00  0.00    -0.248 NA
ATOM     41  C   UNL A   1      38.492  30.936  29.441  1.00  0.00     0.031 C 
ATOM     42  C   UNL A   1      37.813  34.031  33.314  1.00  0.00     0.029 A 
ATOM     43  N   UNL A   1      39.477  32.544  33.494  1.00  0.00    -0.354 N 
ATOM     44  C   UNL A   1      40.163  29.638  30.306  1.00  0.00     0.074 A 
ATOM     45  C   UNL A   1      39.247  29.877  29.211  1.00  0.00     0.031 C 
ATOM     46  C   UNL A   1      38.394  34.214  34.512  1.00  0.00     0.029 A 
ATOM     47  C   UNL A   1      39.438  33.208  34.697  1.00  0.00     0.049 A 
ATOM     48  H   UNL A   1      40.153  31.863  33.274  1.00  0.00     0.167 HD
ATOM     49  C   UNL A   1      41.114  28.674  30.317  1.00  0.00     0.034 A 
ATOM     50  C   UNL A   1      40.134  32.988  35.831  1.00  0.00     0.034 A 
ATOM     51  C   UNL A   1      41.993  28.452  31.438  1.00  0.00     0.049 A 
ATOM     52  C   UNL A   1      41.148  31.870  35.855  1.00  0.00     0.074 A 
ATOM     53  C   UNL A   1      43.013  27.527  31.567  1.00  0.00     0.029 A 
ATOM     54  N   UNL A   1      41.939  29.156  32.636  1.00  0.00    -0.354 N 
ATOM     55  N   UNL A   1      41.442  31.000  34.915  1.00  0.00    -0.248 NA
ATOM     56  C   UNL A   1      41.929  31.710  37.088  1.00  0.00     0.031 C 
ATOM     57  C   UNL A   1      43.522  27.622  32.867  1.00  0.00     0.029 A 
ATOM     58  C   UNL A   1      42.884  28.665  33.522  1.00  0.00     0.049 A 
ATOM     59  H   UNL A   1      41.318  29.897  32.827  1.00  0.00     0.167 HD
ATOM     60  C   UNL A   1      42.464  30.209  35.431  1.00  0.00     0.074 A 
ATOM     61  C   UNL A   1      42.734  30.706  36.766  1.00  0.00     0.031 C 
ATOM     62  C   UNL A   1      43.131  29.176  34.852  1.00  0.00     0.034 A 
BRANCH  49  63
ATOM     63  C   UNL A   1      41.181  27.764  29.112  1.00  0.00     0.023 A 
ATOM     64  C   UNL A   1      42.176  27.912  28.127  1.00  0.00     0.031 A 
ATOM     65  C   UNL A   1      40.183  26.799  28.895  1.00  0.00     0.131 A 
ATOM     66  C   UNL A   1      42.085  27.191  26.927  1.00  0.00     0.055 A 
ATOM     67  C   UNL A   1      40.157  26.013  27.741  1.00  0.00     0.041 A 
ATOM     68  F   UNL A   1      39.191  26.628  29.783  1.00  0.00    -0.206 F 
ATOM     69  C   UNL A   1      41.097  26.224  26.738  1.00  0.00     0.022 A 
BRANCH  66  70
ATOM     70  S   UNL A   1      43.150  27.686  25.542  1.00  0.00     0.124 S 
ATOM     71  O   UNL A   1      42.189  28.324  24.645  1.00  0.00    -0.237 OA
ATOM     72  O   UNL A   1      44.111  28.574  26.185  1.00  0.00    -0.237 OA
ATOM     73  O   UNL A   1      43.694  26.418  25.059  1.00  0.00    -0.744 OA
ENDBRANCH  66  70
ENDBRANCH  49  63
BRANCH  50  74
ATOM     74  C   UNL A   1      39.855  33.809  37.042  1.00  0.00     0.023 A 
ATOM     75  C   UNL A   1      40.667  34.900  37.385  1.00  0.00     0.031 A 
ATOM     76  C   UNL A   1      38.759  33.512  37.874  1.00  0.00     0.131 A 
ATOM     77  C   UNL A   1      40.383  35.644  38.541  1.00  0.00     0.055 A 
ATOM     78  C   UNL A   1      38.457  34.280  38.999  1.00  0.00     0.041 A 
ATOM     79  F   UNL A   1      37.949  32.481  37.586  1.00  0.00    -0.206 F 
ATOM     80  C   UNL A   1      39.276  35.351  39.342  1.00  0.00     0.022 A 
BRANCH  77  81
ATOM     81  S   UNL A   1      41.509  36.987  39.009  1.00  0.00     0.124 S 
ATOM     82  O   UNL A   1      42.272  37.176  37.781  1.00  0.00    -0.237 OA
ATOM     83  O   UNL A   1      40.578  38.056  39.357  1.00  0.00    -0.237 OA
ATOM     84  O   UNL A   1      42.258  36.428  40.132  1.00  0.00    -0.744 OA
ENDBRANCH  77  81
ENDBRANCH  50  74
BRANCH  62  85
ATOM     85  C   UNL A   1      44.263  28.556  35.634  1.00  0.00     0.023 A 
ATOM     86  C   UNL A   1      44.055  27.520  36.559  1.00  0.00     0.031 A 
ATOM     87  C   UNL A   1      45.581  28.998  35.417  1.00  0.00     0.131 A 
ATOM     88  C   UNL A   1      45.146  26.983  37.260  1.00  0.00     0.055 A 
ATOM     89  C   UNL A   1      46.667  28.423  36.075  1.00  0.00     0.041 A 
ATOM     90  F   UNL A   1      45.834  29.987  34.544  1.00  0.00    -0.206 F 
ATOM     91  C   UNL A   1      46.452  27.415  37.009  1.00  0.00     0.022 A 
BRANCH  88  92
ATOM     92  S   UNL A   1      44.834  25.756  38.559  1.00  0.00     0.124 S 
ATOM     93  O   UNL A   1      44.032  24.763  37.851  1.00  0.00    -0.237 OA
ATOM     94  O   UNL A   1      46.184  25.341  38.928  1.00  0.00    -0.237 OA
ATOM     95  O   UNL A   1      44.119  26.515  39.583  1.00  0.00    -0.744 OA
ENDBRANCH  88  92
ENDBRANCH  62  85
ENDBRANCH  36  37
ENDBRANCH  29  31
ENDBRANCH  28  29
ENDBRANCH  27  28
ENDBRANCH  26  27
ENDBRANCH   1  26
TORSDOF 20
ENDMDL
MODEL 2
REMARK VINA RESULT:     -11.1      6.401      9.627
REMARK SMILES O=C(C[NH+]1CCN(c2ncc(C(F)(F)F)cc2Cl)CC1)OCCOCCOC(=O)c1ccc(-c2c3nc(c(-c4cc(S(=O)(=O)[O-])ccc4F)c4ccc([nH]4)c(-c4cc(S(=O)(=O)[O-])ccc4F)c4nc(c(-c5cc(S(=O)(=O)[O-])ccc5F)c5ccc2[nH]5)C=C4)C=C3)cc1
REMARK SMILES IDX 24 1 23 2 22 3 21 4 2 5 1 6 3 7 4 8 5 9 20 10 6 12 19 13
REMARK SMILES IDX 7 14 8 15 9 16 17 17 10 18 16 19 18 20 11 21 12 22 13 23
REMARK SMILES IDX 14 24 15 25 25 26 26 27 27 28 28 29 29 30 30 31 31 32 92 33
REMARK SMILES IDX 32 34 91 35 33 36 34 37 35 38 85 39 36 40 90 41 84 42 86 43
REMARK SMILES IDX 37 44 89 45 83 46 82 47 38 49 70 50 50 51 69 52 51 53 54 54
REMARK SMILES IDX 68 55 87 56 52 57 53 58 67 60 88 61 55 62 39 63 40 64 48 65
REMARK SMILES IDX 41 66 47 67 49 68 46 69 42 70 43 71 44 72 45 73 71 74 72 75
REMARK SMILES IDX 80 76 73 77 79 78 81 79 78 80 74 81 75 82 76 83 77 84 56 85
REMARK SMILES IDX 57 86 65 87 58 88 64 89 66 90 63 91 59 92 60 93 61 94 62 95
REMARK H PARENT 4 11 86 48 54 59
REMARK Flexibility Score: inf
ROOT
ATOM      1  O   UNL A   1      37.603  21.113  25.445  1.00  0.00    -0.374 OA
ENDROOT
BRANCH   1   2
ATOM      2  C   UNL A   1      36.419  21.569  24.785  1.00  0.00     0.202 C 
BRANCH   2   3
ATOM      3  C   UNL A   1      35.329  22.075  25.728  1.00  0.00     0.261 C 
BRANCH   3   4
ATOM      4  O   UNL A   1      34.065  21.450  25.486  1.00  0.00    -0.459 OA
BRANCH   4   5
ATOM      5  C   UNL A   1      32.984  22.079  24.973  1.00  0.00     0.361 C 
ATOM      6  O   UNL A   1      31.991  21.400  24.692  1.00  0.00    -0.245 OA
BRANCH   5   7
ATOM      7  C   UNL A   1      33.030  23.554  24.565  1.00  0.00     0.386 C 
BRANCH   7   8
ATOM      8  N   UNL A   1      32.152  24.467  25.332  1.00  0.00    -0.323 N 
ATOM      9  C   UNL A   1      32.524  25.906  25.158  1.00  0.00     0.284 C 
ATOM     10  C   UNL A   1      30.744  24.333  24.848  1.00  0.00     0.284 C 
ATOM     11  H   UNL A   1      32.254  24.207  26.312  1.00  0.00     0.348 HD
ATOM     12  C   UNL A   1      32.340  26.508  23.747  1.00  0.00     0.179 C 
ATOM     13  C   UNL A   1      30.461  24.927  23.437  1.00  0.00     0.179 C 
ATOM     14  N   UNL A   1      30.956  26.294  23.343  1.00  0.00    -0.344 N 
BRANCH  14  15
ATOM     15  C   UNL A   1      30.224  27.403  23.011  1.00  0.00     0.147 A 
ATOM     16  N   UNL A   1      30.921  28.407  22.419  1.00  0.00    -0.237 NA
ATOM     17  C   UNL A   1      28.867  27.580  23.318  1.00  0.00     0.084 A 
ATOM     18  C   UNL A   1      30.296  29.569  22.121  1.00  0.00     0.126 A 
ATOM     19  C   UNL A   1      28.245  28.793  23.010  1.00  0.00     0.039 A 
ATOM     20  Cl  UNL A   1      27.909  26.424  24.174  1.00  0.00    -0.080 Cl
ATOM     21  C   UNL A   1      28.965  29.815  22.395  1.00  0.00     0.075 A 
BRANCH  21  22
ATOM     22  C   UNL A   1      28.356  31.131  22.039  1.00  0.00     0.417 C 
ATOM     23  F   UNL A   1      27.437  31.553  22.949  1.00  0.00    -0.166 F 
ATOM     24  F   UNL A   1      29.282  32.124  21.951  1.00  0.00    -0.166 F 
ATOM     25  F   UNL A   1      27.712  31.119  20.837  1.00  0.00    -0.166 F 
ENDBRANCH  21  22
ENDBRANCH  14  15
ENDBRANCH   7   8
ENDBRANCH   5   7
ENDBRANCH   4   5
ENDBRANCH   3   4
ENDBRANCH   2   3
ENDBRANCH   1   2
BRANCH   1  26
ATOM     26  C   UNL A   1      38.098  19.853  24.966  1.00  0.00     0.202 C 
BRANCH  26  27
ATOM     27  C   UNL A   1      39.357  19.392  25.703  1.00  0.00     0.261 C 
BRANCH  27  28
ATOM     28  O   UNL A   1      40.263  20.490  25.848  1.00  0.00    -0.460 OA
BRANCH  28  29
ATOM     29  C   UNL A   1      40.813  20.624  27.081  1.00  0.00     0.338 C 
ATOM     30  O   UNL A   1      41.279  19.738  27.778  1.00  0.00    -0.246 OA
BRANCH  29  31
ATOM     31  C   UNL A   1      40.976  22.068  27.350  1.00  0.00     0.060 A 
ATOM     32  C   UNL A   1      40.178  22.970  26.632  1.00  0.00     0.016 A 
ATOM     33  C   UNL A   1      41.843  22.527  28.347  1.00  0.00     0.016 A 
ATOM     34  C   UNL A   1      40.263  24.338  26.887  1.00  0.00     0.010 A 
ATOM     35  C   UNL A   1      41.931  23.891  28.600  1.00  0.00     0.010 A 
ATOM     36  C   UNL A   1      41.168  24.801  27.849  1.00  0.00    -0.014 A 
BRANCH  36  37
ATOM     37  C   UNL A   1      41.523  26.232  27.929  1.00  0.00     0.031 A 
ATOM     38  C   UNL A   1      42.892  26.625  27.456  1.00  0.00     0.074 A 
ATOM     39  C   UNL A   1      40.694  27.128  28.486  1.00  0.00     0.049 A 
ATOM     40  N   UNL A   1      43.542  27.743  27.617  1.00  0.00    -0.248 NA
ATOM     41  C   UNL A   1      43.639  25.585  26.731  1.00  0.00     0.031 C 
ATOM     42  C   UNL A   1      39.336  26.850  28.949  1.00  0.00     0.029 A 
ATOM     43  N   UNL A   1      40.896  28.448  28.796  1.00  0.00    -0.354 N 
ATOM     44  C   UNL A   1      44.789  27.535  27.038  1.00  0.00     0.074 A 
ATOM     45  C   UNL A   1      44.811  26.170  26.560  1.00  0.00     0.031 C 
ATOM     46  C   UNL A   1      38.838  27.960  29.522  1.00  0.00     0.029 A 
ATOM     47  C   UNL A   1      39.861  29.004  29.508  1.00  0.00     0.049 A 
ATOM     48  H   UNL A   1      41.703  28.948  28.534  1.00  0.00     0.167 HD
ATOM     49  C   UNL A   1      45.819  28.408  26.921  1.00  0.00     0.034 A 
ATOM     50  C   UNL A   1      39.777  30.202  30.120  1.00  0.00     0.034 A 
ATOM     51  C   UNL A   1      45.768  29.754  27.431  1.00  0.00     0.049 A 
ATOM     52  C   UNL A   1      40.954  31.145  30.038  1.00  0.00     0.074 A 
ATOM     53  C   UNL A   1      46.730  30.745  27.357  1.00  0.00     0.029 A 
ATOM     54  N   UNL A   1      44.695  30.294  28.132  1.00  0.00    -0.354 N 
ATOM     55  N   UNL A   1      42.127  30.954  29.478  1.00  0.00    -0.248 NA
ATOM     56  C   UNL A   1      40.792  32.463  30.663  1.00  0.00     0.031 C 
ATOM     57  C   UNL A   1      46.270  31.853  28.077  1.00  0.00     0.029 A 
ATOM     58  C   UNL A   1      44.984  31.590  28.525  1.00  0.00     0.049 A 
ATOM     59  H   UNL A   1      43.851  29.822  28.322  1.00  0.00     0.167 HD
ATOM     60  C   UNL A   1      42.833  32.141  29.655  1.00  0.00     0.074 A 
ATOM     61  C   UNL A   1      41.952  33.040  30.375  1.00  0.00     0.031 C 
ATOM     62  C   UNL A   1      44.088  32.466  29.248  1.00  0.00     0.034 A 
BRANCH  49  63
ATOM     63  C   UNL A   1      47.088  27.888  26.284  1.00  0.00     0.023 A 
ATOM     64  C   UNL A   1      47.378  28.110  24.925  1.00  0.00     0.031 A 
ATOM     65  C   UNL A   1      47.972  27.080  27.018  1.00  0.00     0.131 A 
ATOM     66  C   UNL A   1      48.453  27.441  24.320  1.00  0.00     0.055 A 
ATOM     67  C   UNL A   1      49.098  26.499  26.433  1.00  0.00     0.041 A 
ATOM     68  F   UNL A   1      47.736  26.808  28.311  1.00  0.00    -0.206 F 
ATOM     69  C   UNL A   1      49.331  26.658  25.071  1.00  0.00     0.022 A 
BRANCH  66  70
ATOM     70  S   UNL A   1      48.562  27.446  22.508  1.00  0.00     0.124 S 
ATOM     71  O   UNL A   1      49.848  28.104  22.291  1.00  0.00    -0.237 OA
ATOM     72  O   UNL A   1      48.509  26.025  22.185  1.00  0.00    -0.237 OA
ATOM     73  O   UNL A   1      47.396  28.225  22.097  1.00  0.00    -0.744 OA
ENDBRANCH  66  70
ENDBRANCH  49  63
BRANCH  50  74
ATOM     74  C   UNL A   1      38.558  30.551  30.902  1.00  0.00     0.023 A 
ATOM     75  C   UNL A   1      37.517  31.300  30.334  1.00  0.00     0.031 A 
ATOM     76  C   UNL A   1      38.416  30.128  32.237  1.00  0.00     0.131 A 
ATOM     77  C   UNL A   1      36.388  31.622  31.104  1.00  0.00     0.055 A 
ATOM     78  C   UNL A   1      37.273  30.414  32.985  1.00  0.00     0.041 A 
ATOM     79  F   UNL A   1      39.382  29.403  32.825  1.00  0.00    -0.206 F 
ATOM     80  C   UNL A   1      36.252  31.173  32.420  1.00  0.00     0.022 A 
BRANCH  77  81
ATOM     81  S   UNL A   1      35.106  32.674  30.370  1.00  0.00     0.124 S 
ATOM     82  O   UNL A   1      35.881  33.837  29.951  1.00  0.00    -0.237 OA
ATOM     83  O   UNL A   1      34.592  31.825  29.300  1.00  0.00    -0.237 OA
ATOM     84  O   UNL A   1      34.180  32.905  31.476  1.00  0.00    -0.744 OA
ENDBRANCH  77  81
ENDBRANCH  50  74
BRANCH  62  85
ATOM     85  C   UNL A   1      44.559  33.875  29.512  1.00  0.00     0.023 A 
ATOM     86  C   UNL A   1      44.339  34.921  28.601  1.00  0.00     0.031 A 
ATOM     87  C   UNL A   1      45.215  34.173  30.721  1.00  0.00     0.131 A 
ATOM     88  C   UNL A   1      44.803  36.212  28.899  1.00  0.00     0.055 A 
ATOM     89  C   UNL A   1      45.623  35.469  31.036  1.00  0.00     0.041 A 
ATOM     90  F   UNL A   1      45.452  33.209  31.625  1.00  0.00    -0.206 F 
ATOM     91  C   UNL A   1      45.426  36.496  30.118  1.00  0.00     0.022 A 
BRANCH  88  92
ATOM     92  S   UNL A   1      44.644  37.510  27.642  1.00  0.00     0.124 S 
ATOM     93  O   UNL A   1      43.372  37.170  27.014  1.00  0.00    -0.237 OA
ATOM     94  O   UNL A   1      44.653  38.728  28.447  1.00  0.00    -0.237 OA
ATOM     95  O   UNL A   1      45.823  37.318  26.799  1.00  0.00    -0.744 OA
ENDBRANCH  88  92
ENDBRANCH  62  85
ENDBRANCH  36  37
ENDBRANCH  29  31
ENDBRANCH  28  29
ENDBRANCH  27  28
ENDBRANCH  26  27
ENDBRANCH   1  26
TORSDOF 20
ENDMDL
MODEL 3
REMARK VINA RESULT:     -11.1      1.946      2.233
REMARK SMILES O=C(C[NH+]1CCN(c2ncc(C(F)(F)F)cc2Cl)CC1)OCCOCCOC(=O)c1ccc(-c2c3nc(c(-c4cc(S(=O)(=O)[O-])ccc4F)c4ccc([nH]4)c(-c4cc(S(=O)(=O)[O-])ccc4F)c4nc(c(-c5cc(S(=O)(=O)[O-])ccc5F)c5ccc2[nH]5)C=C4)C=C3)cc1
REMARK SMILES IDX 24 1 23 2 22 3 21 4 2 5 1 6 3 7 4 8 5 9 20 10 6 12 19 13
REMARK SMILES IDX 7 14 8 15 9 16 17 17 10 18 16 19 18 20 11 21 12 22 13 23
REMARK SMILES IDX 14 24 15 25 25 26 26 27 27 28 28 29 29 30 30 31 31 32 92 33
REMARK SMILES IDX 32 34 91 35 33 36 34 37 35 38 85 39 36 40 90 41 84 42 86 43
REMARK SMILES IDX 37 44 89 45 83 46 82 47 38 49 70 50 50 51 69 52 51 53 54 54
REMARK SMILES IDX 68 55 87 56 52 57 53 58 67 60 88 61 55 62 39 63 40 64 48 65
REMARK SMILES IDX 41 66 47 67 49 68 46 69 42 70 43 71 44 72 45 73 71 74 72 75
REMARK SMILES IDX 80 76 73 77 79 78 81 79 78 80 74 81 75 82 76 83 77 84 56 85
REMARK SMILES IDX 57 86 65 87 58 88 64 89 66 90 63 91 59 92 60 93 61 94 62 95
REMARK H PARENT 4 11 86 48 54 59
REMARK Flexibility Score: inf
ROOT
ATOM      1  O   UNL A   1      31.883  30.228  25.864  1.00  0.00    -0.374 OA
ENDROOT
BRANCH   1   2
ATOM      2  C   UNL A   1      32.833  29.402  25.187  1.00  0.00     0.202 C 
BRANCH   2   3
ATOM      3  C   UNL A   1      32.215  28.252  24.393  1.00  0.00     0.261 C 
BRANCH   3   4
ATOM      4  O   UNL A   1      31.030  27.738  25.010  1.00  0.00    -0.459 OA
BRANCH   4   5
ATOM      5  C   UNL A   1      31.013  26.758  25.939  1.00  0.00     0.361 C 
ATOM      6  O   UNL A   1      31.033  27.081  27.132  1.00  0.00    -0.245 OA
BRANCH   5   7
ATOM      7  C   UNL A   1      31.158  25.283  25.556  1.00  0.00     0.386 C 
BRANCH   7   8
ATOM      8  N   UNL A   1      32.362  24.592  26.073  1.00  0.00    -0.323 N 
ATOM      9  C   UNL A   1      32.047  23.264  26.684  1.00  0.00     0.284 C 
ATOM     10  C   UNL A   1      33.309  24.327  24.946  1.00  0.00     0.284 C 
ATOM     11  H   UNL A   1      32.762  25.205  26.782  1.00  0.00     0.348 HD
ATOM     12  C   UNL A   1      31.518  22.167  25.733  1.00  0.00     0.179 C 
ATOM     13  C   UNL A   1      32.864  23.222  23.944  1.00  0.00     0.179 C 
ATOM     14  N   UNL A   1      32.480  22.007  24.650  1.00  0.00    -0.344 N 
BRANCH  14  15
ATOM     15  C   UNL A   1      33.007  20.757  24.462  1.00  0.00     0.147 A 
ATOM     16  N   UNL A   1      32.175  19.854  23.882  1.00  0.00    -0.237 NA
ATOM     17  C   UNL A   1      34.278  20.356  24.899  1.00  0.00     0.084 A 
ATOM     18  C   UNL A   1      32.584  18.575  23.721  1.00  0.00     0.126 A 
ATOM     19  C   UNL A   1      34.676  19.027  24.733  1.00  0.00     0.039 A 
ATOM     20  Cl  UNL A   1      35.375  21.382  25.755  1.00  0.00    -0.080 Cl
ATOM     21  C   UNL A   1      33.819  18.109  24.129  1.00  0.00     0.075 A 
BRANCH  21  22
ATOM     22  C   UNL A   1      34.188  16.677  23.921  1.00  0.00     0.417 C 
ATOM     23  F   UNL A   1      35.249  16.287  24.676  1.00  0.00    -0.166 F 
ATOM     24  F   UNL A   1      33.171  15.828  24.235  1.00  0.00    -0.166 F 
ATOM     25  F   UNL A   1      34.522  16.389  22.631  1.00  0.00    -0.166 F 
ENDBRANCH  21  22
ENDBRANCH  14  15
ENDBRANCH   7   8
ENDBRANCH   5   7
ENDBRANCH   4   5
ENDBRANCH   3   4
ENDBRANCH   2   3
ENDBRANCH   1   2
BRANCH   1  26
ATOM     26  C   UNL A   1      32.390  30.865  27.046  1.00  0.00     0.202 C 
BRANCH  26  27
ATOM     27  C   UNL A   1      31.992  32.339  27.142  1.00  0.00     0.261 C 
BRANCH  27  28
ATOM     28  O   UNL A   1      33.165  33.159  27.144  1.00  0.00    -0.460 OA
BRANCH  28  29
ATOM     29  C   UNL A   1      33.251  34.037  28.174  1.00  0.00     0.338 C 
ATOM     30  O   UNL A   1      32.412  34.855  28.515  1.00  0.00    -0.246 OA
BRANCH  29  31
ATOM     31  C   UNL A   1      34.439  33.679  28.978  1.00  0.00     0.060 A 
ATOM     32  C   UNL A   1      35.625  34.395  28.759  1.00  0.00     0.016 A 
ATOM     33  C   UNL A   1      34.371  32.710  29.982  1.00  0.00     0.016 A 
ATOM     34  C   UNL A   1      36.757  34.124  29.527  1.00  0.00     0.010 A 
ATOM     35  C   UNL A   1      35.500  32.437  30.746  1.00  0.00     0.010 A 
ATOM     36  C   UNL A   1      36.703  33.118  30.498  1.00  0.00    -0.014 A 
BRANCH  36  37
ATOM     37  C   UNL A   1      37.939  32.582  31.105  1.00  0.00     0.031 A 
ATOM     38  C   UNL A   1      38.660  31.505  30.348  1.00  0.00     0.074 A 
ATOM     39  C   UNL A   1      38.348  32.975  32.320  1.00  0.00     0.049 A 
ATOM     40  N   UNL A   1      39.618  30.711  30.737  1.00  0.00    -0.248 NA
ATOM     41  C   UNL A   1      38.200  31.276  28.969  1.00  0.00     0.031 C 
ATOM     42  C   UNL A   1      37.732  34.032  33.120  1.00  0.00     0.029 A 
ATOM     43  N   UNL A   1      39.358  32.493  33.112  1.00  0.00    -0.354 N 
ATOM     44  C   UNL A   1      39.859  29.864  29.660  1.00  0.00     0.074 A 
ATOM     45  C   UNL A   1      38.916  30.222  28.622  1.00  0.00     0.031 C 
ATOM     46  C   UNL A   1      38.355  34.093  34.309  1.00  0.00     0.029 A 
ATOM     47  C   UNL A   1      39.376  33.048  34.369  1.00  0.00     0.049 A 
ATOM     48  H   UNL A   1      40.007  31.816  32.810  1.00  0.00     0.167 HD
ATOM     49  C   UNL A   1      40.782  28.879  29.554  1.00  0.00     0.034 A 
ATOM     50  C   UNL A   1      40.100  32.710  35.455  1.00  0.00     0.034 A 
ATOM     51  C   UNL A   1      41.688  28.535  30.620  1.00  0.00     0.049 A 
ATOM     52  C   UNL A   1      41.083  31.569  35.346  1.00  0.00     0.074 A 
ATOM     53  C   UNL A   1      42.685  27.577  30.633  1.00  0.00     0.029 A 
ATOM     54  N   UNL A   1      41.693  29.132  31.877  1.00  0.00    -0.354 N 
ATOM     55  N   UNL A   1      41.321  30.779  34.324  1.00  0.00    -0.248 NA
ATOM     56  C   UNL A   1      41.897  31.280  36.533  1.00  0.00     0.031 C 
ATOM     57  C   UNL A   1      43.238  27.542  31.918  1.00  0.00     0.029 A 
ATOM     58  C   UNL A   1      42.650  28.540  32.683  1.00  0.00     0.049 A 
ATOM     59  H   UNL A   1      41.100  29.868  32.153  1.00  0.00     0.167 HD
ATOM     60  C   UNL A   1      42.336  29.918  34.734  1.00  0.00     0.074 A 
ATOM     61  C   UNL A   1      42.662  30.288  36.098  1.00  0.00     0.031 C 
ATOM     62  C   UNL A   1      42.954  28.924  34.044  1.00  0.00     0.034 A 
BRANCH  49  63
ATOM     63  C   UNL A   1      40.785  28.078  28.272  1.00  0.00     0.023 A 
ATOM     64  C   UNL A   1      40.041  26.890  28.139  1.00  0.00     0.031 A 
ATOM     65  C   UNL A   1      41.615  28.453  27.202  1.00  0.00     0.131 A 
ATOM     66  C   UNL A   1      40.229  26.068  27.018  1.00  0.00     0.055 A 
ATOM     67  C   UNL A   1      41.720  27.679  26.044  1.00  0.00     0.041 A 
ATOM     68  F   UNL A   1      42.371  29.560  27.278  1.00  0.00    -0.206 F 
ATOM     69  C   UNL A   1      41.044  26.467  25.958  1.00  0.00     0.022 A 
BRANCH  66  70
ATOM     70  S   UNL A   1      39.558  24.382  27.064  1.00  0.00     0.124 S 
ATOM     71  O   UNL A   1      40.771  23.577  26.940  1.00  0.00    -0.237 OA
ATOM     72  O   UNL A   1      38.894  24.342  28.362  1.00  0.00    -0.237 OA
ATOM     73  O   UNL A   1      38.669  24.336  25.905  1.00  0.00    -0.744 OA
ENDBRANCH  66  70
ENDBRANCH  49  63
BRANCH  50  74
ATOM     74  C   UNL A   1      39.883  33.427  36.742  1.00  0.00     0.023 A 
ATOM     75  C   UNL A   1      39.109  32.866  37.768  1.00  0.00     0.031 A 
ATOM     76  C   UNL A   1      40.461  34.691  36.966  1.00  0.00     0.131 A 
ATOM     77  C   UNL A   1      38.914  33.575  38.964  1.00  0.00     0.055 A 
ATOM     78  C   UNL A   1      40.300  35.374  38.173  1.00  0.00     0.041 A 
ATOM     79  F   UNL A   1      41.216  35.270  36.018  1.00  0.00    -0.206 F 
ATOM     80  C   UNL A   1      39.515  34.818  39.179  1.00  0.00     0.022 A 
BRANCH  77  81
ATOM     81  S   UNL A   1      37.827  32.864  40.230  1.00  0.00     0.124 S 
ATOM     82  O   UNL A   1      38.380  31.522  40.376  1.00  0.00    -0.237 OA
ATOM     83  O   UNL A   1      38.037  33.771  41.354  1.00  0.00    -0.237 OA
ATOM     84  O   UNL A   1      36.502  32.932  39.619  1.00  0.00    -0.744 OA
ENDBRANCH  77  81
ENDBRANCH  50  74
BRANCH  62  85
ATOM     85  C   UNL A   1      44.092  28.209  34.729  1.00  0.00     0.023 A 
ATOM     86  C   UNL A   1      43.894  27.047  35.494  1.00  0.00     0.031 A 
ATOM     87  C   UNL A   1      45.406  28.690  34.582  1.00  0.00     0.131 A 
ATOM     88  C   UNL A   1      44.990  26.424  36.111  1.00  0.00     0.055 A 
ATOM     89  C   UNL A   1      46.498  28.036  35.151  1.00  0.00     0.041 A 
ATOM     90  F   UNL A   1      45.649  29.798  33.863  1.00  0.00    -0.206 F 
ATOM     91  C   UNL A   1      46.292  26.901  35.928  1.00  0.00     0.022 A 
BRANCH  88  92
ATOM     92  S   UNL A   1      44.690  25.018  37.217  1.00  0.00     0.124 S 
ATOM     93  O   UNL A   1      45.096  23.889  36.387  1.00  0.00    -0.237 OA
ATOM     94  O   UNL A   1      45.557  25.322  38.352  1.00  0.00    -0.237 OA
ATOM     95  O   UNL A   1      43.257  25.100  37.495  1.00  0.00    -0.744 OA
ENDBRANCH  88  92
ENDBRANCH  62  85
ENDBRANCH  36  37
ENDBRANCH  29  31
ENDBRANCH  28  29
ENDBRANCH  27  28
ENDBRANCH  26  27
ENDBRANCH   1  26
TORSDOF 20
ENDMDL
