MODEL 1
REMARK VINA RESULT:     -10.3      0.000      0.000
REMARK SMILES CC(C)(C[NH2+]Cc1ccc2c(c1)OCO2)C(=O)OCCOCCOC(=O)c1ccc(-c2c3nc(c(-c4cc(S(=O)(=O)[O-])ccc4F)c4ccc([nH]4)c(-c4cc(S(=O)(=O)[O-])ccc4F)c4nc(c(-c5cc(S(=O)(=O)[O-])ccc5F)c5ccc2[nH]5)C=C4)C=C3)cc1
REMARK SMILES IDX 20 1 19 2 18 3 16 4 17 5 2 6 1 7 3 8 4 9 5 10 6 13 7 14 8 15
REMARK SMILES IDX 12 16 9 17 11 18 10 19 13 20 15 21 14 22 21 23 22 24 23 25
REMARK SMILES IDX 24 26 25 27 26 28 27 29 28 30 89 31 29 32 88 33 30 34 31 35
REMARK SMILES IDX 32 36 82 37 33 38 87 39 81 40 83 41 34 42 86 43 80 44 79 45
REMARK SMILES IDX 35 47 67 48 47 49 66 50 48 51 51 52 65 53 84 54 49 55 50 56
REMARK SMILES IDX 64 58 85 59 52 60 36 61 37 62 45 63 38 64 44 65 46 66 43 67
REMARK SMILES IDX 39 68 40 69 41 70 42 71 68 72 69 73 77 74 70 75 76 76 78 77
REMARK SMILES IDX 75 78 71 79 72 80 73 81 74 82 53 83 54 84 62 85 55 86 61 87
REMARK SMILES IDX 63 88 60 89 56 90 57 91 58 92 59 93
REMARK H PARENT 5 11 5 12 83 46 51 57
REMARK Flexibility Score: inf
ROOT
ATOM      1  C   UNL A   1      36.463  21.964  24.488  1.00  0.00     0.202 C 
ENDROOT
BRANCH   1   2
ATOM      2  C   UNL A   1      36.434  22.949  23.316  1.00  0.00     0.261 C 
BRANCH   2   3
ATOM      3  O   UNL A   1      35.097  23.165  22.829  1.00  0.00    -0.463 OA
BRANCH   3   4
ATOM      4  C   UNL A   1      34.308  23.955  23.602  1.00  0.00     0.317 C 
ATOM      5  O   UNL A   1      34.714  24.917  24.247  1.00  0.00    -0.251 OA
BRANCH   4   6
ATOM      6  C   UNL A   1      32.852  23.476  23.659  1.00  0.00     0.111 C 
ATOM      7  C   UNL A   1      32.819  22.008  23.196  1.00  0.00     0.029 C 
ATOM      8  C   UNL A   1      32.101  24.338  22.623  1.00  0.00     0.029 C 
BRANCH   6   9
ATOM      9  C   UNL A   1      32.138  23.657  25.035  1.00  0.00     0.279 C 
BRANCH   9  10
ATOM     10  N   UNL A   1      31.110  24.707  25.126  1.00  0.00    -0.342 N 
ATOM     11  H   UNL A   1      30.341  24.361  25.701  1.00  0.00     0.346 HD
ATOM     12  H   UNL A   1      30.806  24.922  24.177  1.00  0.00     0.346 HD
BRANCH  10  13
ATOM     13  C   UNL A   1      31.619  25.954  25.723  1.00  0.00     0.297 C 
BRANCH  13  14
ATOM     14  C   UNL A   1      31.111  27.203  25.023  1.00  0.00     0.010 A 
ATOM     15  C   UNL A   1      31.559  28.489  25.411  1.00  0.00     0.013 A 
ATOM     16  C   UNL A   1      30.183  27.099  23.971  1.00  0.00     0.060 A 
ATOM     17  C   UNL A   1      31.147  29.643  24.737  1.00  0.00     0.051 A 
ATOM     18  C   UNL A   1      29.764  28.260  23.348  1.00  0.00     0.166 A 
ATOM     19  C   UNL A   1      30.245  29.494  23.713  1.00  0.00     0.165 A 
ATOM     20  O   UNL A   1      28.859  28.341  22.335  1.00  0.00    -0.454 OA
ATOM     21  O   UNL A   1      29.719  30.503  22.968  1.00  0.00    -0.454 OA
ATOM     22  C   UNL A   1      28.788  29.770  22.147  1.00  0.00     0.468 C 
ENDBRANCH  13  14
ENDBRANCH  10  13
ENDBRANCH   9  10
ENDBRANCH   6   9
ENDBRANCH   4   6
ENDBRANCH   3   4
ENDBRANCH   2   3
ENDBRANCH   1   2
BRANCH   1  23
ATOM     23  O   UNL A   1      37.428  20.916  24.402  1.00  0.00    -0.374 OA
BRANCH  23  24
ATOM     24  C   UNL A   1      38.223  20.683  25.567  1.00  0.00     0.202 C 
BRANCH  24  25
ATOM     25  C   UNL A   1      39.284  19.585  25.449  1.00  0.00     0.261 C 
BRANCH  25  26
ATOM     26  O   UNL A   1      40.229  19.643  26.535  1.00  0.00    -0.460 OA
BRANCH  26  27
ATOM     27  C   UNL A   1      41.365  20.319  26.253  1.00  0.00     0.338 C 
ATOM     28  O   UNL A   1      42.247  19.975  25.473  1.00  0.00    -0.246 OA
BRANCH  27  29
ATOM     29  C   UNL A   1      41.345  21.658  26.870  1.00  0.00     0.060 A 
ATOM     30  C   UNL A   1      40.938  22.721  26.054  1.00  0.00     0.016 A 
ATOM     31  C   UNL A   1      41.795  21.896  28.172  1.00  0.00     0.016 A 
ATOM     32  C   UNL A   1      41.061  24.032  26.503  1.00  0.00     0.010 A 
ATOM     33  C   UNL A   1      41.921  23.219  28.620  1.00  0.00     0.010 A 
ATOM     34  C   UNL A   1      41.605  24.293  27.767  1.00  0.00    -0.014 A 
BRANCH  34  35
ATOM     35  C   UNL A   1      42.016  25.687  28.082  1.00  0.00     0.031 A 
ATOM     36  C   UNL A   1      43.363  26.169  27.606  1.00  0.00     0.074 A 
ATOM     37  C   UNL A   1      41.168  26.537  28.690  1.00  0.00     0.049 A 
ATOM     38  N   UNL A   1      43.903  27.357  27.703  1.00  0.00    -0.248 NA
ATOM     39  C   UNL A   1      44.212  25.177  26.930  1.00  0.00     0.031 C 
ATOM     40  C   UNL A   1      39.825  26.196  29.158  1.00  0.00     0.029 A 
ATOM     41  N   UNL A   1      41.307  27.865  29.007  1.00  0.00    -0.354 N 
ATOM     42  C   UNL A   1      45.154  27.255  27.101  1.00  0.00     0.074 A 
ATOM     43  C   UNL A   1      45.307  25.879  26.680  1.00  0.00     0.031 C 
ATOM     44  C   UNL A   1      39.264  27.290  29.703  1.00  0.00     0.029 A 
ATOM     45  C   UNL A   1      40.214  28.400  29.647  1.00  0.00     0.049 A 
ATOM     46  H   UNL A   1      42.116  28.386  28.796  1.00  0.00     0.167 HD
ATOM     47  C   UNL A   1      46.085  28.222  26.907  1.00  0.00     0.034 A 
ATOM     48  C   UNL A   1      40.008  29.639  30.138  1.00  0.00     0.034 A 
ATOM     49  C   UNL A   1      45.921  29.591  27.332  1.00  0.00     0.049 A 
ATOM     50  C   UNL A   1      41.080  30.687  29.952  1.00  0.00     0.074 A 
ATOM     51  C   UNL A   1      46.794  30.653  27.174  1.00  0.00     0.029 A 
ATOM     52  N   UNL A   1      44.813  30.087  28.008  1.00  0.00    -0.354 N 
ATOM     53  N   UNL A   1      42.250  30.580  29.365  1.00  0.00    -0.248 NA
ATOM     54  C   UNL A   1      40.792  32.027  30.478  1.00  0.00     0.031 C 
ATOM     55  C   UNL A   1      46.246  31.772  27.813  1.00  0.00     0.029 A 
ATOM     56  C   UNL A   1      44.995  31.431  28.299  1.00  0.00     0.049 A 
ATOM     57  H   UNL A   1      44.015  29.561  28.245  1.00  0.00     0.167 HD
ATOM     58  C   UNL A   1      42.822  31.850  29.423  1.00  0.00     0.074 A 
ATOM     59  C   UNL A   1      41.859  32.706  30.085  1.00  0.00     0.031 C 
ATOM     60  C   UNL A   1      44.030  32.271  28.969  1.00  0.00     0.034 A 
BRANCH  47  61
ATOM     61  C   UNL A   1      47.384  27.814  26.253  1.00  0.00     0.023 A 
ATOM     62  C   UNL A   1      47.587  27.918  24.866  1.00  0.00     0.031 A 
ATOM     63  C   UNL A   1      48.430  27.292  27.035  1.00  0.00     0.131 A 
ATOM     64  C   UNL A   1      48.780  27.448  24.296  1.00  0.00     0.055 A 
ATOM     65  C   UNL A   1      49.645  26.895  26.471  1.00  0.00     0.041 A 
ATOM     66  F   UNL A   1      48.286  27.146  28.362  1.00  0.00    -0.206 F 
ATOM     67  C   UNL A   1      49.821  26.960  25.092  1.00  0.00     0.022 A 
BRANCH  64  68
ATOM     68  S   UNL A   1      48.911  27.365  22.489  1.00  0.00     0.124 S 
ATOM     69  O   UNL A   1      48.518  25.983  22.229  1.00  0.00    -0.237 OA
ATOM     70  O   UNL A   1      47.968  28.390  22.057  1.00  0.00    -0.237 OA
ATOM     71  O   UNL A   1      50.318  27.664  22.232  1.00  0.00    -0.744 OA
ENDBRANCH  64  68
ENDBRANCH  47  61
BRANCH  48  72
ATOM     72  C   UNL A   1      38.757  29.958  30.885  1.00  0.00     0.023 A 
ATOM     73  C   UNL A   1      37.738  30.739  30.315  1.00  0.00     0.031 A 
ATOM     74  C   UNL A   1      38.594  29.536  32.217  1.00  0.00     0.131 A 
ATOM     75  C   UNL A   1      36.631  31.117  31.090  1.00  0.00     0.055 A 
ATOM     76  C   UNL A   1      37.464  29.869  32.967  1.00  0.00     0.041 A 
ATOM     77  F   UNL A   1      39.537  28.787  32.813  1.00  0.00    -0.206 F 
ATOM     78  C   UNL A   1      36.481  30.678  32.408  1.00  0.00     0.022 A 
BRANCH  75  79
ATOM     79  S   UNL A   1      35.427  32.276  30.382  1.00  0.00     0.124 S 
ATOM     80  O   UNL A   1      34.438  32.369  31.450  1.00  0.00    -0.237 OA
ATOM     81  O   UNL A   1      36.245  33.463  30.159  1.00  0.00    -0.237 OA
ATOM     82  O   UNL A   1      34.975  31.597  29.169  1.00  0.00    -0.744 OA
ENDBRANCH  75  79
ENDBRANCH  48  72
BRANCH  60  83
ATOM     83  C   UNL A   1      44.350  33.739  29.134  1.00  0.00     0.023 A 
ATOM     84  C   UNL A   1      43.695  34.731  28.382  1.00  0.00     0.031 A 
ATOM     85  C   UNL A   1      45.346  34.147  30.039  1.00  0.00     0.131 A 
ATOM     86  C   UNL A   1      44.092  36.071  28.496  1.00  0.00     0.055 A 
ATOM     87  C   UNL A   1      45.692  35.491  30.197  1.00  0.00     0.041 A 
ATOM     88  F   UNL A   1      46.005  33.245  30.784  1.00  0.00    -0.206 F 
ATOM     89  C   UNL A   1      45.076  36.460  29.410  1.00  0.00     0.022 A 
BRANCH  86  90
ATOM     90  S   UNL A   1      43.388  37.289  27.351  1.00  0.00     0.124 S 
ATOM     91  O   UNL A   1      44.508  38.203  27.152  1.00  0.00    -0.237 OA
ATOM     92  O   UNL A   1      43.028  36.463  26.203  1.00  0.00    -0.237 OA
ATOM     93  O   UNL A   1      42.258  37.846  28.092  1.00  0.00    -0.744 OA
ENDBRANCH  86  90
ENDBRANCH  60  83
ENDBRANCH  34  35
ENDBRANCH  27  29
ENDBRANCH  26  27
ENDBRANCH  25  26
ENDBRANCH  24  25
ENDBRANCH  23  24
ENDBRANCH   1  23
TORSDOF 21
ENDMDL
MODEL 2
REMARK VINA RESULT:     -10.1      3.003      4.988
REMARK SMILES CC(C)(C[NH2+]Cc1ccc2c(c1)OCO2)C(=O)OCCOCCOC(=O)c1ccc(-c2c3nc(c(-c4cc(S(=O)(=O)[O-])ccc4F)c4ccc([nH]4)c(-c4cc(S(=O)(=O)[O-])ccc4F)c4nc(c(-c5cc(S(=O)(=O)[O-])ccc5F)c5ccc2[nH]5)C=C4)C=C3)cc1
REMARK SMILES IDX 20 1 19 2 18 3 16 4 17 5 2 6 1 7 3 8 4 9 5 10 6 13 7 14 8 15
REMARK SMILES IDX 12 16 9 17 11 18 10 19 13 20 15 21 14 22 21 23 22 24 23 25
REMARK SMILES IDX 24 26 25 27 26 28 27 29 28 30 89 31 29 32 88 33 30 34 31 35
REMARK SMILES IDX 32 36 82 37 33 38 87 39 81 40 83 41 34 42 86 43 80 44 79 45
REMARK SMILES IDX 35 47 67 48 47 49 66 50 48 51 51 52 65 53 84 54 49 55 50 56
REMARK SMILES IDX 64 58 85 59 52 60 36 61 37 62 45 63 38 64 44 65 46 66 43 67
REMARK SMILES IDX 39 68 40 69 41 70 42 71 68 72 69 73 77 74 70 75 76 76 78 77
REMARK SMILES IDX 75 78 71 79 72 80 73 81 74 82 53 83 54 84 62 85 55 86 61 87
REMARK SMILES IDX 63 88 60 89 56 90 57 91 58 92 59 93
REMARK H PARENT 5 11 5 12 83 46 51 57
REMARK Flexibility Score: inf
ROOT
ATOM      1  C   UNL A   1      38.946  21.439  25.768  1.00  0.00     0.202 C 
ENDROOT
BRANCH   1   2
ATOM      2  C   UNL A   1      37.659  21.154  24.988  1.00  0.00     0.261 C 
BRANCH   2   3
ATOM      3  O   UNL A   1      36.531  21.856  25.541  1.00  0.00    -0.463 OA
BRANCH   3   4
ATOM      4  C   UNL A   1      35.775  22.550  24.651  1.00  0.00     0.317 C 
ATOM      5  O   UNL A   1      36.027  22.641  23.453  1.00  0.00    -0.251 OA
BRANCH   4   6
ATOM      6  C   UNL A   1      34.602  23.288  25.307  1.00  0.00     0.111 C 
ATOM      7  C   UNL A   1      34.861  24.800  25.172  1.00  0.00     0.029 C 
ATOM      8  C   UNL A   1      34.668  22.907  26.801  1.00  0.00     0.029 C 
BRANCH   6   9
ATOM      9  C   UNL A   1      33.185  22.903  24.780  1.00  0.00     0.279 C 
BRANCH   9  10
ATOM     10  N   UNL A   1      33.026  21.561  24.196  1.00  0.00    -0.342 N 
ATOM     11  H   UNL A   1      33.947  21.210  23.931  1.00  0.00     0.346 HD
ATOM     12  H   UNL A   1      32.409  21.648  23.389  1.00  0.00     0.346 HD
BRANCH  10  13
ATOM     13  C   UNL A   1      32.407  20.602  25.127  1.00  0.00     0.297 C 
BRANCH  13  14
ATOM     14  C   UNL A   1      32.989  19.202  25.019  1.00  0.00     0.010 A 
ATOM     15  C   UNL A   1      34.277  18.987  24.474  1.00  0.00     0.013 A 
ATOM     16  C   UNL A   1      32.250  18.091  25.465  1.00  0.00     0.060 A 
ATOM     17  C   UNL A   1      34.850  17.713  24.424  1.00  0.00     0.051 A 
ATOM     18  C   UNL A   1      32.825  16.837  25.368  1.00  0.00     0.166 A 
ATOM     19  C   UNL A   1      34.095  16.658  24.874  1.00  0.00     0.165 A 
ATOM     20  O   UNL A   1      32.244  15.661  25.727  1.00  0.00    -0.454 OA
ATOM     21  O   UNL A   1      34.480  15.354  24.877  1.00  0.00    -0.454 OA
ATOM     22  C   UNL A   1      33.273  14.722  25.352  1.00  0.00     0.468 C 
ENDBRANCH  13  14
ENDBRANCH  10  13
ENDBRANCH   9  10
ENDBRANCH   6   9
ENDBRANCH   4   6
ENDBRANCH   3   4
ENDBRANCH   2   3
ENDBRANCH   1   2
BRANCH   1  23
ATOM     23  O   UNL A   1      39.762  20.306  26.066  1.00  0.00    -0.374 OA
BRANCH  23  24
ATOM     24  C   UNL A   1      40.820  20.511  27.006  1.00  0.00     0.202 C 
BRANCH  24  25
ATOM     25  C   UNL A   1      42.243  20.355  26.460  1.00  0.00     0.261 C 
BRANCH  25  26
ATOM     26  O   UNL A   1      43.047  21.518  26.742  1.00  0.00    -0.460 OA
BRANCH  26  27
ATOM     27  C   UNL A   1      42.860  22.548  25.887  1.00  0.00     0.338 C 
ATOM     28  O   UNL A   1      42.814  22.485  24.663  1.00  0.00    -0.246 OA
BRANCH  27  29
ATOM     29  C   UNL A   1      42.517  23.781  26.620  1.00  0.00     0.060 A 
ATOM     30  C   UNL A   1      42.359  24.944  25.857  1.00  0.00     0.016 A 
ATOM     31  C   UNL A   1      42.444  23.834  28.015  1.00  0.00     0.016 A 
ATOM     32  C   UNL A   1      42.213  26.177  26.485  1.00  0.00     0.010 A 
ATOM     33  C   UNL A   1      42.301  25.079  28.645  1.00  0.00     0.010 A 
ATOM     34  C   UNL A   1      42.239  26.260  27.883  1.00  0.00    -0.014 A 
BRANCH  34  35
ATOM     35  C   UNL A   1      42.403  27.600  28.505  1.00  0.00     0.031 A 
ATOM     36  C   UNL A   1      43.795  28.159  28.662  1.00  0.00     0.074 A 
ATOM     37  C   UNL A   1      41.333  28.347  28.831  1.00  0.00     0.049 A 
ATOM     38  N   UNL A   1      44.177  29.327  29.111  1.00  0.00    -0.248 NA
ATOM     39  C   UNL A   1      44.903  27.281  28.257  1.00  0.00     0.031 C 
ATOM     40  C   UNL A   1      39.939  27.930  28.686  1.00  0.00     0.029 A 
ATOM     41  N   UNL A   1      41.251  29.619  29.340  1.00  0.00    -0.354 N 
ATOM     42  C   UNL A   1      45.567  29.324  29.043  1.00  0.00     0.074 A 
ATOM     43  C   UNL A   1      45.961  28.022  28.548  1.00  0.00     0.031 C 
ATOM     44  C   UNL A   1      39.140  28.931  29.098  1.00  0.00     0.029 A 
ATOM     45  C   UNL A   1      39.963  30.047  29.559  1.00  0.00     0.049 A 
ATOM     46  H   UNL A   1      42.043  30.173  29.531  1.00  0.00     0.167 HD
ATOM     47  C   UNL A   1      46.435  30.319  29.353  1.00  0.00     0.034 A 
ATOM     48  C   UNL A   1      39.502  31.203  30.080  1.00  0.00     0.034 A 
ATOM     49  C   UNL A   1      46.030  31.613  29.846  1.00  0.00     0.049 A 
ATOM     50  C   UNL A   1      40.491  32.278  30.463  1.00  0.00     0.074 A 
ATOM     51  C   UNL A   1      46.825  32.696  30.179  1.00  0.00     0.029 A 
ATOM     52  N   UNL A   1      44.717  31.998  30.088  1.00  0.00    -0.354 N 
ATOM     53  N   UNL A   1      41.802  32.268  30.376  1.00  0.00    -0.248 NA
ATOM     54  C   UNL A   1      39.935  33.528  30.996  1.00  0.00     0.031 C 
ATOM     55  C   UNL A   1      46.001  33.709  30.684  1.00  0.00     0.029 A 
ATOM     56  C   UNL A   1      44.684  33.289  30.592  1.00  0.00     0.049 A 
ATOM     57  H   UNL A   1      43.926  31.435  29.924  1.00  0.00     0.167 HD
ATOM     58  C   UNL A   1      42.222  33.522  30.812  1.00  0.00     0.074 A 
ATOM     59  C   UNL A   1      41.025  34.267  31.143  1.00  0.00     0.031 C 
ATOM     60  C   UNL A   1      43.482  34.017  30.927  1.00  0.00     0.034 A 
BRANCH  47  61
ATOM     61  C   UNL A   1      47.910  30.021  29.218  1.00  0.00     0.023 A 
ATOM     62  C   UNL A   1      48.565  30.037  27.974  1.00  0.00     0.031 A 
ATOM     63  C   UNL A   1      48.667  29.694  30.357  1.00  0.00     0.131 A 
ATOM     64  C   UNL A   1      49.917  29.671  27.891  1.00  0.00     0.055 A 
ATOM     65  C   UNL A   1      50.031  29.404  30.277  1.00  0.00     0.041 A 
ATOM     66  F   UNL A   1      48.092  29.639  31.569  1.00  0.00    -0.206 F 
ATOM     67  C   UNL A   1      50.661  29.379  29.037  1.00  0.00     0.022 A 
BRANCH  64  68
ATOM     68  S   UNL A   1      50.663  29.460  26.251  1.00  0.00     0.124 S 
ATOM     69  O   UNL A   1      51.830  28.639  26.563  1.00  0.00    -0.237 OA
ATOM     70  O   UNL A   1      49.600  28.802  25.501  1.00  0.00    -0.237 OA
ATOM     71  O   UNL A   1      50.967  30.828  25.833  1.00  0.00    -0.744 OA
ENDBRANCH  64  68
ENDBRANCH  47  61
BRANCH  48  72
ATOM     72  C   UNL A   1      38.041  31.400  30.307  1.00  0.00     0.023 A 
ATOM     73  C   UNL A   1      37.223  32.014  29.345  1.00  0.00     0.031 A 
ATOM     74  C   UNL A   1      37.454  31.033  31.532  1.00  0.00     0.131 A 
ATOM     75  C   UNL A   1      35.879  32.291  29.644  1.00  0.00     0.055 A 
ATOM     76  C   UNL A   1      36.103  31.260  31.803  1.00  0.00     0.041 A 
ATOM     77  F   UNL A   1      38.189  30.442  32.488  1.00  0.00    -0.206 F 
ATOM     78  C   UNL A   1      35.311  31.907  30.861  1.00  0.00     0.022 A 
BRANCH  75  79
ATOM     79  S   UNL A   1      34.901  33.248  28.451  1.00  0.00     0.124 S 
ATOM     80  O   UNL A   1      34.489  34.393  29.255  1.00  0.00    -0.237 OA
ATOM     81  O   UNL A   1      35.881  33.517  27.405  1.00  0.00    -0.237 OA
ATOM     82  O   UNL A   1      33.829  32.329  28.076  1.00  0.00    -0.744 OA
ENDBRANCH  75  79
ENDBRANCH  48  72
BRANCH  60  83
ATOM     83  C   UNL A   1      43.616  35.450  31.387  1.00  0.00     0.023 A 
ATOM     84  C   UNL A   1      43.693  36.518  30.474  1.00  0.00     0.031 A 
ATOM     85  C   UNL A   1      43.697  35.747  32.758  1.00  0.00     0.131 A 
ATOM     86  C   UNL A   1      43.916  37.822  30.941  1.00  0.00     0.055 A 
ATOM     87  C   UNL A   1      43.853  37.055  33.221  1.00  0.00     0.041 A 
ATOM     88  F   UNL A   1      43.629  34.769  33.676  1.00  0.00    -0.206 F 
ATOM     89  C   UNL A   1      43.982  38.100  32.309  1.00  0.00     0.022 A 
BRANCH  86  90
ATOM     90  S   UNL A   1      44.237  39.136  29.733  1.00  0.00     0.124 S 
ATOM     91  O   UNL A   1      42.927  39.766  29.612  1.00  0.00    -0.237 OA
ATOM     92  O   UNL A   1      45.265  39.928  30.402  1.00  0.00    -0.237 OA
ATOM     93  O   UNL A   1      44.688  38.411  28.547  1.00  0.00    -0.744 OA
ENDBRANCH  86  90
ENDBRANCH  60  83
ENDBRANCH  34  35
ENDBRANCH  27  29
ENDBRANCH  26  27
ENDBRANCH  25  26
ENDBRANCH  24  25
ENDBRANCH  23  24
ENDBRANCH   1  23
TORSDOF 21
ENDMDL
MODEL 3
REMARK VINA RESULT:     -10.0      1.826      2.136
REMARK SMILES CC(C)(C[NH2+]Cc1ccc2c(c1)OCO2)C(=O)OCCOCCOC(=O)c1ccc(-c2c3nc(c(-c4cc(S(=O)(=O)[O-])ccc4F)c4ccc([nH]4)c(-c4cc(S(=O)(=O)[O-])ccc4F)c4nc(c(-c5cc(S(=O)(=O)[O-])ccc5F)c5ccc2[nH]5)C=C4)C=C3)cc1
REMARK SMILES IDX 20 1 19 2 18 3 16 4 17 5 2 6 1 7 3 8 4 9 5 10 6 13 7 14 8 15
REMARK SMILES IDX 12 16 9 17 11 18 10 19 13 20 15 21 14 22 21 23 22 24 23 25
REMARK SMILES IDX 24 26 25 27 26 28 27 29 28 30 89 31 29 32 88 33 30 34 31 35
REMARK SMILES IDX 32 36 82 37 33 38 87 39 81 40 83 41 34 42 86 43 80 44 79 45
REMARK SMILES IDX 35 47 67 48 47 49 66 50 48 51 51 52 65 53 84 54 49 55 50 56
REMARK SMILES IDX 64 58 85 59 52 60 36 61 37 62 45 63 38 64 44 65 46 66 43 67
REMARK SMILES IDX 39 68 40 69 41 70 42 71 68 72 69 73 77 74 70 75 76 76 78 77
REMARK SMILES IDX 75 78 71 79 72 80 73 81 74 82 53 83 54 84 62 85 55 86 61 87
REMARK SMILES IDX 63 88 60 89 56 90 57 91 58 92 59 93
REMARK H PARENT 5 11 5 12 83 46 51 57
REMARK Flexibility Score: inf
ROOT
ATOM      1  C   UNL A   1      34.907  21.197  24.656  1.00  0.00     0.202 C 
ENDROOT
BRANCH   1   2
ATOM      2  C   UNL A   1      33.660  20.370  24.981  1.00  0.00     0.261 C 
BRANCH   2   3
ATOM      3  O   UNL A   1      32.598  21.186  25.507  1.00  0.00    -0.463 OA
BRANCH   3   4
ATOM      4  C   UNL A   1      31.974  21.993  24.609  1.00  0.00     0.317 C 
ATOM      5  O   UNL A   1      31.849  21.732  23.416  1.00  0.00    -0.251 OA
BRANCH   4   6
ATOM      6  C   UNL A   1      31.503  23.318  25.219  1.00  0.00     0.111 C 
ATOM      7  C   UNL A   1      32.718  23.987  25.889  1.00  0.00     0.029 C 
ATOM      8  C   UNL A   1      30.490  22.924  26.314  1.00  0.00     0.029 C 
BRANCH   6   9
ATOM      9  C   UNL A   1      30.785  24.294  24.236  1.00  0.00     0.279 C 
BRANCH   9  10
ATOM     10  N   UNL A   1      31.360  24.436  22.888  1.00  0.00    -0.342 N 
ATOM     11  H   UNL A   1      30.597  24.530  22.217  1.00  0.00     0.346 HD
ATOM     12  H   UNL A   1      31.924  23.605  22.706  1.00  0.00     0.346 HD
BRANCH  10  13
ATOM     13  C   UNL A   1      32.243  25.608  22.765  1.00  0.00     0.297 C 
BRANCH  13  14
ATOM     14  C   UNL A   1      31.552  26.916  23.115  1.00  0.00     0.010 A 
ATOM     15  C   UNL A   1      31.700  27.499  24.396  1.00  0.00     0.013 A 
ATOM     16  C   UNL A   1      30.751  27.572  22.162  1.00  0.00     0.060 A 
ATOM     17  C   UNL A   1      31.121  28.732  24.713  1.00  0.00     0.051 A 
ATOM     18  C   UNL A   1      30.159  28.771  22.515  1.00  0.00     0.166 A 
ATOM     19  C   UNL A   1      30.351  29.339  23.751  1.00  0.00     0.165 A 
ATOM     20  O   UNL A   1      29.340  29.519  21.728  1.00  0.00    -0.454 OA
ATOM     21  O   UNL A   1      29.696  30.522  23.892  1.00  0.00    -0.454 OA
ATOM     22  C   UNL A   1      28.999  30.592  22.632  1.00  0.00     0.468 C 
ENDBRANCH  13  14
ENDBRANCH  10  13
ENDBRANCH   9  10
ENDBRANCH   6   9
ENDBRANCH   4   6
ENDBRANCH   3   4
ENDBRANCH   2   3
ENDBRANCH   1   2
BRANCH   1  23
ATOM     23  O   UNL A   1      36.014  21.038  25.543  1.00  0.00    -0.374 OA
BRANCH  23  24
ATOM     24  C   UNL A   1      37.262  20.673  24.949  1.00  0.00     0.202 C 
BRANCH  24  25
ATOM     25  C   UNL A   1      38.440  20.498  25.913  1.00  0.00     0.261 C 
BRANCH  25  26
ATOM     26  O   UNL A   1      39.575  21.288  25.507  1.00  0.00    -0.460 OA
BRANCH  26  27
ATOM     27  C   UNL A   1      40.610  21.269  26.378  1.00  0.00     0.338 C 
ATOM     28  O   UNL A   1      41.461  20.393  26.485  1.00  0.00    -0.246 OA
BRANCH  27  29
ATOM     29  C   UNL A   1      40.716  22.555  27.092  1.00  0.00     0.060 A 
ATOM     30  C   UNL A   1      40.126  23.666  26.478  1.00  0.00     0.016 A 
ATOM     31  C   UNL A   1      41.447  22.705  28.275  1.00  0.00     0.016 A 
ATOM     32  C   UNL A   1      40.334  24.942  26.993  1.00  0.00     0.010 A 
ATOM     33  C   UNL A   1      41.659  23.992  28.789  1.00  0.00     0.010 A 
ATOM     34  C   UNL A   1      41.148  25.119  28.120  1.00  0.00    -0.014 A 
BRANCH  34  35
ATOM     35  C   UNL A   1      41.606  26.495  28.447  1.00  0.00     0.031 A 
ATOM     36  C   UNL A   1      42.991  26.915  28.027  1.00  0.00     0.074 A 
ATOM     37  C   UNL A   1      40.771  27.385  29.015  1.00  0.00     0.049 A 
ATOM     38  N   UNL A   1      43.579  28.079  28.143  1.00  0.00    -0.248 NA
ATOM     39  C   UNL A   1      43.824  25.883  27.391  1.00  0.00     0.031 C 
ATOM     40  C   UNL A   1      39.397  27.106  29.427  1.00  0.00     0.029 A 
ATOM     41  N   UNL A   1      40.956  28.707  29.333  1.00  0.00    -0.354 N 
ATOM     42  C   UNL A   1      44.849  27.919  27.595  1.00  0.00     0.074 A 
ATOM     43  C   UNL A   1      44.958  26.535  27.185  1.00  0.00     0.031 C 
ATOM     44  C   UNL A   1      38.861  28.227  29.944  1.00  0.00     0.029 A 
ATOM     45  C   UNL A   1      39.861  29.293  29.924  1.00  0.00     0.049 A 
ATOM     46  H   UNL A   1      41.794  29.191  29.155  1.00  0.00     0.167 HD
ATOM     47  C   UNL A   1      45.828  28.843  27.437  1.00  0.00     0.034 A 
ATOM     48  C   UNL A   1      39.689  30.542  30.402  1.00  0.00     0.034 A 
ATOM     49  C   UNL A   1      45.707  30.220  27.850  1.00  0.00     0.049 A 
ATOM     50  C   UNL A   1      40.813  31.542  30.258  1.00  0.00     0.074 A 
ATOM     51  C   UNL A   1      46.632  31.242  27.725  1.00  0.00     0.029 A 
ATOM     52  N   UNL A   1      44.595  30.768  28.476  1.00  0.00    -0.354 N 
ATOM     53  N   UNL A   1      42.001  31.380  29.721  1.00  0.00    -0.248 NA
ATOM     54  C   UNL A   1      40.562  32.896  30.767  1.00  0.00     0.031 C 
ATOM     55  C   UNL A   1      46.108  32.388  28.336  1.00  0.00     0.029 A 
ATOM     56  C   UNL A   1      44.824  32.104  28.770  1.00  0.00     0.049 A 
ATOM     57  H   UNL A   1      43.765  30.279  28.681  1.00  0.00     0.167 HD
ATOM     58  C   UNL A   1      42.625  32.624  29.799  1.00  0.00     0.074 A 
ATOM     59  C   UNL A   1      41.674  33.525  30.417  1.00  0.00     0.031 C 
ATOM     60  C   UNL A   1      43.869  32.990  29.396  1.00  0.00     0.034 A 
BRANCH  47  61
ATOM     61  C   UNL A   1      47.135  28.376  26.840  1.00  0.00     0.023 A 
ATOM     62  C   UNL A   1      47.289  28.153  25.461  1.00  0.00     0.031 A 
ATOM     63  C   UNL A   1      48.240  28.127  27.675  1.00  0.00     0.131 A 
ATOM     64  C   UNL A   1      48.497  27.639  24.965  1.00  0.00     0.055 A 
ATOM     65  C   UNL A   1      49.463  27.686  27.167  1.00  0.00     0.041 A 
ATOM     66  F   UNL A   1      48.145  28.298  29.003  1.00  0.00    -0.206 F 
ATOM     67  C   UNL A   1      49.594  27.427  25.805  1.00  0.00     0.022 A 
BRANCH  64  68
ATOM     68  S   UNL A   1      48.581  27.130  23.226  1.00  0.00     0.124 S 
ATOM     69  O   UNL A   1      48.064  25.765  23.294  1.00  0.00    -0.237 OA
ATOM     70  O   UNL A   1      47.721  28.108  22.569  1.00  0.00    -0.237 OA
ATOM     71  O   UNL A   1      50.003  27.234  22.906  1.00  0.00    -0.744 OA
ENDBRANCH  64  68
ENDBRANCH  47  61
BRANCH  48  72
ATOM     72  C   UNL A   1      38.423  30.920  31.094  1.00  0.00     0.023 A 
ATOM     73  C   UNL A   1      37.374  31.560  30.413  1.00  0.00     0.031 A 
ATOM     74  C   UNL A   1      38.273  30.703  32.476  1.00  0.00     0.131 A 
ATOM     75  C   UNL A   1      36.249  32.006  31.123  1.00  0.00     0.055 A 
ATOM     76  C   UNL A   1      37.127  31.099  33.168  1.00  0.00     0.041 A 
ATOM     77  F   UNL A   1      39.244  30.096  33.177  1.00  0.00    -0.206 F 
ATOM     78  C   UNL A   1      36.113  31.770  32.493  1.00  0.00     0.022 A 
BRANCH  75  79
ATOM     79  S   UNL A   1      34.999  32.989  30.247  1.00  0.00     0.124 S 
ATOM     80  O   UNL A   1      34.089  33.346  31.329  1.00  0.00    -0.237 OA
ATOM     81  O   UNL A   1      35.802  34.076  29.698  1.00  0.00    -0.237 OA
ATOM     82  O   UNL A   1      34.462  32.055  29.261  1.00  0.00    -0.744 OA
ENDBRANCH  75  79
ENDBRANCH  48  72
BRANCH  60  83
ATOM     83  C   UNL A   1      44.246  34.443  29.569  1.00  0.00     0.023 A 
ATOM     84  C   UNL A   1      44.800  34.928  30.768  1.00  0.00     0.031 A 
ATOM     85  C   UNL A   1      44.020  35.361  28.529  1.00  0.00     0.131 A 
ATOM     86  C   UNL A   1      45.044  36.301  30.921  1.00  0.00     0.055 A 
ATOM     87  C   UNL A   1      44.325  36.716  28.663  1.00  0.00     0.041 A 
ATOM     88  F   UNL A   1      43.494  34.955  27.361  1.00  0.00    -0.206 F 
ATOM     89  C   UNL A   1      44.824  37.196  29.871  1.00  0.00     0.022 A 
BRANCH  86  90
ATOM     90  S   UNL A   1      45.541  36.921  32.551  1.00  0.00     0.124 S 
ATOM     91  O   UNL A   1      44.413  37.775  32.909  1.00  0.00    -0.237 OA
ATOM     92  O   UNL A   1      45.678  35.690  33.323  1.00  0.00    -0.237 OA
ATOM     93  O   UNL A   1      46.792  37.628  32.284  1.00  0.00    -0.744 OA
ENDBRANCH  86  90
ENDBRANCH  60  83
ENDBRANCH  34  35
ENDBRANCH  27  29
ENDBRANCH  26  27
ENDBRANCH  25  26
ENDBRANCH  24  25
ENDBRANCH  23  24
ENDBRANCH   1  23
TORSDOF 21
ENDMDL
