MODEL 1
REMARK VINA RESULT:     -11.5      0.000      0.000
REMARK SMILES CC(C)(C)OC(=O)N1CCC2(CC1)C[C@@H](C(=O)OCCOCCOC(=O)c1ccc(-c3c4nc(c(-c5cc(S(=O)(=O)[O-])ccc5F)c5ccc([nH]5)c(-c5cc(S(=O)(=O)[O-])ccc5F)c5nc(c(-c6cc(S(=O)(=O)[O-])ccc6F)c6ccc3[nH]6)C=C5)C=C4)cc1)CO2
REMARK SMILES IDX 22 1 21 2 20 3 19 4 18 5 16 6 17 7 15 8 6 9 7 10 8 11 9 12
REMARK SMILES IDX 13 13 10 14 12 15 11 16 14 17 91 18 90 19 5 20 2 21 1 22
REMARK SMILES IDX 3 23 4 24 23 25 24 26 25 27 26 28 27 29 28 30 89 31 29 32
REMARK SMILES IDX 88 33 30 34 31 35 32 36 82 37 33 38 87 39 81 40 83 41 34 42
REMARK SMILES IDX 86 43 80 44 79 45 35 47 67 48 47 49 66 50 48 51 51 52 65 53
REMARK SMILES IDX 84 54 49 55 50 56 64 58 85 59 52 60 36 61 37 62 45 63 38 64
REMARK SMILES IDX 44 65 46 66 43 67 39 68 40 69 41 70 42 71 68 72 69 73 77 74
REMARK SMILES IDX 70 75 76 76 78 77 75 78 71 79 72 80 73 81 74 82 53 83 54 84
REMARK SMILES IDX 62 85 55 86 61 87 63 88 60 89 56 90 57 91 58 92 59 93
REMARK H PARENT 83 46 51 57
REMARK Flexibility Score: inf
ROOT
ATOM      1  C   UNL A   1      42.652  20.742  26.167  1.00  0.00     0.202 C 
ENDROOT
BRANCH   1   2
ATOM      2  O   UNL A   1      42.076  21.019  27.444  1.00  0.00    -0.374 OA
BRANCH   2   3
ATOM      3  C   UNL A   1      40.772  21.600  27.473  1.00  0.00     0.202 C 
BRANCH   3   4
ATOM      4  C   UNL A   1      40.019  21.645  26.141  1.00  0.00     0.261 C 
BRANCH   4   5
ATOM      5  O   UNL A   1      38.598  21.653  26.351  1.00  0.00    -0.463 OA
BRANCH   5   6
ATOM      6  C   UNL A   1      37.900  22.601  25.682  1.00  0.00     0.311 C 
ATOM      7  O   UNL A   1      37.828  23.782  26.004  1.00  0.00    -0.252 OA
BRANCH   6   8
ATOM      8  C   UNL A   1      37.213  22.077  24.440  1.00  0.00     0.128 C 
ATOM      9  C   UNL A   1      31.038  24.063  24.214  1.00  0.00     0.410 C 
ATOM     10  O   UNL A   1      30.279  23.884  23.268  1.00  0.00    -0.224 OA
ATOM     11  N   UNL A   1      32.068  23.202  24.527  1.00  0.00    -0.308 N 
ATOM     12  C   UNL A   1      32.515  22.229  23.548  1.00  0.00     0.126 C 
ATOM     13  C   UNL A   1      32.863  23.266  25.748  1.00  0.00     0.126 C 
ATOM     14  C   UNL A   1      33.928  22.603  23.107  1.00  0.00     0.057 C 
ATOM     15  C   UNL A   1      34.316  23.605  25.416  1.00  0.00     0.057 C 
ATOM     16  C   UNL A   1      34.880  22.688  24.314  1.00  0.00     0.073 C 
ATOM     17  C   UNL A   1      36.282  23.125  23.869  1.00  0.00     0.053 C 
ATOM     18  O   UNL A   1      35.004  21.363  24.863  1.00  0.00    -0.374 OA
ATOM     19  C   UNL A   1      36.318  20.872  24.609  1.00  0.00     0.176 C 
BRANCH   9  20
ATOM     20  O   UNL A   1      31.022  25.152  25.019  1.00  0.00    -0.444 OA
BRANCH  20  21
ATOM     21  C   UNL A   1      30.920  26.493  24.475  1.00  0.00     0.106 C 
ATOM     22  C   UNL A   1      31.003  27.419  25.697  1.00  0.00     0.056 C 
ATOM     23  C   UNL A   1      29.557  26.655  23.801  1.00  0.00     0.056 C 
ATOM     24  C   UNL A   1      32.071  26.863  23.526  1.00  0.00     0.056 C 
ENDBRANCH  20  21
ENDBRANCH   9  20
ENDBRANCH   6   8
ENDBRANCH   5   6
ENDBRANCH   4   5
ENDBRANCH   3   4
ENDBRANCH   2   3
ENDBRANCH   1   2
BRANCH   1  25
ATOM     25  C   UNL A   1      43.681  21.745  25.624  1.00  0.00     0.261 C 
BRANCH  25  26
ATOM     26  O   UNL A   1      43.077  22.857  24.941  1.00  0.00    -0.460 OA
BRANCH  26  27
ATOM     27  C   UNL A   1      43.785  24.013  25.008  1.00  0.00     0.338 C 
ATOM     28  O   UNL A   1      44.783  24.296  24.368  1.00  0.00    -0.246 OA
BRANCH  27  29
ATOM     29  C   UNL A   1      43.073  25.004  25.840  1.00  0.00     0.060 A 
ATOM     30  C   UNL A   1      43.648  26.276  25.967  1.00  0.00     0.016 A 
ATOM     31  C   UNL A   1      41.923  24.672  26.557  1.00  0.00     0.016 A 
ATOM     32  C   UNL A   1      43.104  27.207  26.850  1.00  0.00     0.010 A 
ATOM     33  C   UNL A   1      41.385  25.603  27.452  1.00  0.00     0.010 A 
ATOM     34  C   UNL A   1      41.993  26.860  27.629  1.00  0.00    -0.014 A 
BRANCH  34  35
ATOM     35  C   UNL A   1      41.571  27.738  28.749  1.00  0.00     0.031 A 
ATOM     36  C   UNL A   1      42.313  27.648  30.054  1.00  0.00     0.074 A 
ATOM     37  C   UNL A   1      40.546  28.595  28.611  1.00  0.00     0.049 A 
ATOM     38  N   UNL A   1      42.061  28.228  31.198  1.00  0.00    -0.248 NA
ATOM     39  C   UNL A   1      43.494  26.772  30.067  1.00  0.00     0.031 C 
ATOM     40  C   UNL A   1      39.783  28.804  27.383  1.00  0.00     0.029 A 
ATOM     41  N   UNL A   1      39.953  29.432  29.525  1.00  0.00    -0.354 N 
ATOM     42  C   UNL A   1      43.039  27.772  32.076  1.00  0.00     0.074 A 
ATOM     43  C   UNL A   1      43.870  26.848  31.334  1.00  0.00     0.031 C 
ATOM     44  C   UNL A   1      38.799  29.687  27.628  1.00  0.00     0.029 A 
ATOM     45  C   UNL A   1      38.836  30.069  29.039  1.00  0.00     0.049 A 
ATOM     46  H   UNL A   1      40.296  29.562  30.438  1.00  0.00     0.167 HD
ATOM     47  C   UNL A   1      43.225  28.099  33.380  1.00  0.00     0.034 A 
ATOM     48  C   UNL A   1      37.922  30.835  29.670  1.00  0.00     0.034 A 
ATOM     49  C   UNL A   1      42.379  29.016  34.103  1.00  0.00     0.049 A 
ATOM     50  C   UNL A   1      38.096  31.125  31.142  1.00  0.00     0.074 A 
ATOM     51  C   UNL A   1      42.495  29.450  35.411  1.00  0.00     0.029 A 
ATOM     52  N   UNL A   1      41.243  29.626  33.584  1.00  0.00    -0.354 N 
ATOM     53  N   UNL A   1      39.033  30.706  31.960  1.00  0.00    -0.248 NA
ATOM     54  C   UNL A   1      37.093  31.994  31.772  1.00  0.00     0.031 C 
ATOM     55  C   UNL A   1      41.389  30.256  35.707  1.00  0.00     0.029 A 
ATOM     56  C   UNL A   1      40.626  30.395  34.558  1.00  0.00     0.049 A 
ATOM     57  H   UNL A   1      40.922  29.525  32.658  1.00  0.00     0.167 HD
ATOM     58  C   UNL A   1      38.749  31.284  33.196  1.00  0.00     0.074 A 
ATOM     59  C   UNL A   1      37.551  32.079  33.014  1.00  0.00     0.031 C 
ATOM     60  C   UNL A   1      39.425  31.177  34.367  1.00  0.00     0.034 A 
BRANCH  47  61
ATOM     61  C   UNL A   1      44.343  27.396  34.114  1.00  0.00     0.023 A 
ATOM     62  C   UNL A   1      44.124  26.224  34.860  1.00  0.00     0.031 A 
ATOM     63  C   UNL A   1      45.640  27.941  34.113  1.00  0.00     0.131 A 
ATOM     64  C   UNL A   1      45.158  25.692  35.647  1.00  0.00     0.055 A 
ATOM     65  C   UNL A   1      46.687  27.356  34.828  1.00  0.00     0.041 A 
ATOM     66  F   UNL A   1      45.907  29.070  33.437  1.00  0.00    -0.206 F 
ATOM     67  C   UNL A   1      46.444  26.236  35.616  1.00  0.00     0.022 A 
BRANCH  64  68
ATOM     68  S   UNL A   1      44.751  24.390  36.843  1.00  0.00     0.124 S 
ATOM     69  O   UNL A   1      44.310  23.308  35.965  1.00  0.00    -0.237 OA
ATOM     70  O   UNL A   1      46.022  24.182  37.526  1.00  0.00    -0.237 OA
ATOM     71  O   UNL A   1      43.694  24.990  37.656  1.00  0.00    -0.744 OA
ENDBRANCH  64  68
ENDBRANCH  47  61
BRANCH  48  72
ATOM     72  C   UNL A   1      36.727  31.321  28.926  1.00  0.00     0.023 A 
ATOM     73  C   UNL A   1      35.723  30.442  28.493  1.00  0.00     0.031 A 
ATOM     74  C   UNL A   1      36.581  32.690  28.635  1.00  0.00     0.131 A 
ATOM     75  C   UNL A   1      34.625  30.941  27.772  1.00  0.00     0.055 A 
ATOM     76  C   UNL A   1      35.467  33.185  27.956  1.00  0.00     0.041 A 
ATOM     77  F   UNL A   1      37.513  33.572  29.030  1.00  0.00    -0.206 F 
ATOM     78  C   UNL A   1      34.484  32.306  27.513  1.00  0.00     0.022 A 
BRANCH  75  79
ATOM     79  S   UNL A   1      33.395  29.768  27.138  1.00  0.00     0.124 S 
ATOM     80  O   UNL A   1      32.170  30.557  27.208  1.00  0.00    -0.237 OA
ATOM     81  O   UNL A   1      33.903  29.490  25.799  1.00  0.00    -0.237 OA
ATOM     82  O   UNL A   1      33.474  28.651  28.076  1.00  0.00    -0.744 OA
ENDBRANCH  75  79
ENDBRANCH  48  72
BRANCH  60  83
ATOM     83  C   UNL A   1      38.921  31.983  35.540  1.00  0.00     0.023 A 
ATOM     84  C   UNL A   1      38.239  31.390  36.616  1.00  0.00     0.031 A 
ATOM     85  C   UNL A   1      39.167  33.368  35.592  1.00  0.00     0.131 A 
ATOM     86  C   UNL A   1      37.802  32.187  37.687  1.00  0.00     0.055 A 
ATOM     87  C   UNL A   1      38.774  34.145  36.681  1.00  0.00     0.041 A 
ATOM     88  F   UNL A   1      39.813  33.984  34.589  1.00  0.00    -0.206 F 
ATOM     89  C   UNL A   1      38.081  33.556  37.735  1.00  0.00     0.022 A 
BRANCH  86  90
ATOM     90  S   UNL A   1      36.817  31.421  39.005  1.00  0.00     0.124 S 
ATOM     91  O   UNL A   1      37.750  31.437  40.128  1.00  0.00    -0.237 OA
ATOM     92  O   UNL A   1      35.676  32.325  39.109  1.00  0.00    -0.237 OA
ATOM     93  O   UNL A   1      36.508  30.094  38.476  1.00  0.00    -0.744 OA
ENDBRANCH  86  90
ENDBRANCH  60  83
ENDBRANCH  34  35
ENDBRANCH  27  29
ENDBRANCH  26  27
ENDBRANCH  25  26
ENDBRANCH   1  25
TORSDOF 19
ENDMDL
MODEL 2
REMARK VINA RESULT:     -11.1      2.140      3.371
REMARK SMILES CC(C)(C)OC(=O)N1CCC2(CC1)C[C@@H](C(=O)OCCOCCOC(=O)c1ccc(-c3c4nc(c(-c5cc(S(=O)(=O)[O-])ccc5F)c5ccc([nH]5)c(-c5cc(S(=O)(=O)[O-])ccc5F)c5nc(c(-c6cc(S(=O)(=O)[O-])ccc6F)c6ccc3[nH]6)C=C5)C=C4)cc1)CO2
REMARK SMILES IDX 22 1 21 2 20 3 19 4 18 5 16 6 17 7 15 8 6 9 7 10 8 11 9 12
REMARK SMILES IDX 13 13 10 14 12 15 11 16 14 17 91 18 90 19 5 20 2 21 1 22
REMARK SMILES IDX 3 23 4 24 23 25 24 26 25 27 26 28 27 29 28 30 89 31 29 32
REMARK SMILES IDX 88 33 30 34 31 35 32 36 82 37 33 38 87 39 81 40 83 41 34 42
REMARK SMILES IDX 86 43 80 44 79 45 35 47 67 48 47 49 66 50 48 51 51 52 65 53
REMARK SMILES IDX 84 54 49 55 50 56 64 58 85 59 52 60 36 61 37 62 45 63 38 64
REMARK SMILES IDX 44 65 46 66 43 67 39 68 40 69 41 70 42 71 68 72 69 73 77 74
REMARK SMILES IDX 70 75 76 76 78 77 75 78 71 79 72 80 73 81 74 82 53 83 54 84
REMARK SMILES IDX 62 85 55 86 61 87 63 88 60 89 56 90 57 91 58 92 59 93
REMARK H PARENT 83 46 51 57
REMARK Flexibility Score: inf
ROOT
ATOM      1  C   UNL A   1      41.926  19.983  25.774  1.00  0.00     0.202 C 
ENDROOT
BRANCH   1   2
ATOM      2  O   UNL A   1      40.716  20.201  26.500  1.00  0.00    -0.374 OA
BRANCH   2   3
ATOM      3  C   UNL A   1      39.634  20.832  25.815  1.00  0.00     0.202 C 
BRANCH   3   4
ATOM      4  C   UNL A   1      39.099  22.125  26.436  1.00  0.00     0.261 C 
BRANCH   4   5
ATOM      5  O   UNL A   1      37.913  22.571  25.757  1.00  0.00    -0.463 OA
BRANCH   5   6
ATOM      6  C   UNL A   1      37.481  23.816  26.066  1.00  0.00     0.311 C 
ATOM      7  O   UNL A   1      38.184  24.717  26.512  1.00  0.00    -0.252 OA
BRANCH   6   8
ATOM      8  C   UNL A   1      36.010  24.030  25.782  1.00  0.00     0.128 C 
ATOM      9  C   UNL A   1      32.977  18.356  24.931  1.00  0.00     0.410 C 
ATOM     10  O   UNL A   1      31.765  18.222  24.799  1.00  0.00    -0.224 OA
ATOM     11  N   UNL A   1      33.658  19.487  24.532  1.00  0.00    -0.308 N 
ATOM     12  C   UNL A   1      32.925  20.707  24.256  1.00  0.00     0.126 C 
ATOM     13  C   UNL A   1      35.110  19.609  24.485  1.00  0.00     0.126 C 
ATOM     14  C   UNL A   1      33.293  21.741  25.318  1.00  0.00     0.057 C 
ATOM     15  C   UNL A   1      35.587  20.651  25.496  1.00  0.00     0.057 C 
ATOM     16  C   UNL A   1      34.813  21.976  25.358  1.00  0.00     0.073 C 
ATOM     17  C   UNL A   1      35.179  22.970  26.469  1.00  0.00     0.053 C 
ATOM     18  O   UNL A   1      35.192  22.582  24.109  1.00  0.00    -0.374 OA
ATOM     19  C   UNL A   1      35.570  23.937  24.340  1.00  0.00     0.176 C 
BRANCH   9  20
ATOM     20  O   UNL A   1      33.788  17.464  25.547  1.00  0.00    -0.444 OA
BRANCH  20  21
ATOM     21  C   UNL A   1      34.174  16.222  24.901  1.00  0.00     0.106 C 
ATOM     22  C   UNL A   1      33.154  15.188  25.399  1.00  0.00     0.056 C 
ATOM     23  C   UNL A   1      35.573  15.829  25.376  1.00  0.00     0.056 C 
ATOM     24  C   UNL A   1      34.086  16.270  23.368  1.00  0.00     0.056 C 
ENDBRANCH  20  21
ENDBRANCH   9  20
ENDBRANCH   6   8
ENDBRANCH   5   6
ENDBRANCH   4   5
ENDBRANCH   3   4
ENDBRANCH   2   3
ENDBRANCH   1   2
BRANCH   1  25
ATOM     25  C   UNL A   1      42.991  21.088  25.827  1.00  0.00     0.261 C 
BRANCH  25  26
ATOM     26  O   UNL A   1      42.648  22.239  25.036  1.00  0.00    -0.460 OA
BRANCH  26  27
ATOM     27  C   UNL A   1      43.474  23.304  25.201  1.00  0.00     0.338 C 
ATOM     28  O   UNL A   1      44.549  23.485  24.656  1.00  0.00    -0.246 OA
BRANCH  27  29
ATOM     29  C   UNL A   1      42.809  24.349  26.004  1.00  0.00     0.060 A 
ATOM     30  C   UNL A   1      43.353  25.641  25.964  1.00  0.00     0.016 A 
ATOM     31  C   UNL A   1      41.739  24.057  26.851  1.00  0.00     0.016 A 
ATOM     32  C   UNL A   1      42.861  26.636  26.807  1.00  0.00     0.010 A 
ATOM     33  C   UNL A   1      41.255  25.054  27.706  1.00  0.00     0.010 A 
ATOM     34  C   UNL A   1      41.837  26.336  27.713  1.00  0.00    -0.014 A 
BRANCH  34  35
ATOM     35  C   UNL A   1      41.490  27.302  28.785  1.00  0.00     0.031 A 
ATOM     36  C   UNL A   1      42.272  27.265  30.069  1.00  0.00     0.074 A 
ATOM     37  C   UNL A   1      40.496  28.192  28.623  1.00  0.00     0.049 A 
ATOM     38  N   UNL A   1      42.083  27.929  31.179  1.00  0.00    -0.248 NA
ATOM     39  C   UNL A   1      43.416  26.342  30.103  1.00  0.00     0.031 C 
ATOM     40  C   UNL A   1      39.701  28.353  27.408  1.00  0.00     0.029 A 
ATOM     41  N   UNL A   1      39.971  29.111  29.497  1.00  0.00    -0.354 N 
ATOM     42  C   UNL A   1      43.072  27.489  32.054  1.00  0.00     0.074 A 
ATOM     43  C   UNL A   1      43.838  26.483  31.349  1.00  0.00     0.031 C 
ATOM     44  C   UNL A   1      38.763  29.291  27.626  1.00  0.00     0.029 A 
ATOM     45  C   UNL A   1      38.865  29.763  29.006  1.00  0.00     0.049 A 
ATOM     46  H   UNL A   1      40.350  29.286  30.389  1.00  0.00     0.167 HD
ATOM     47  C   UNL A   1      43.316  27.891  33.327  1.00  0.00     0.034 A 
ATOM     48  C   UNL A   1      38.005  30.607  29.614  1.00  0.00     0.034 A 
ATOM     49  C   UNL A   1      42.533  28.890  34.014  1.00  0.00     0.049 A 
ATOM     50  C   UNL A   1      38.241  30.985  31.056  1.00  0.00     0.074 A 
ATOM     51  C   UNL A   1      42.712  29.402  35.286  1.00  0.00     0.029 A 
ATOM     52  N   UNL A   1      41.406  29.513  33.492  1.00  0.00    -0.354 N 
ATOM     53  N   UNL A   1      39.188  30.579  31.871  1.00  0.00    -0.248 NA
ATOM     54  C   UNL A   1      37.297  31.935  31.659  1.00  0.00     0.031 C 
ATOM     55  C   UNL A   1      41.651  30.272  35.563  1.00  0.00     0.029 A 
ATOM     56  C   UNL A   1      40.855  30.369  34.432  1.00  0.00     0.049 A 
ATOM     57  H   UNL A   1      41.050  29.366  32.585  1.00  0.00     0.167 HD
ATOM     58  C   UNL A   1      38.970  31.248  33.074  1.00  0.00     0.074 A 
ATOM     59  C   UNL A   1      37.801  32.081  32.877  1.00  0.00     0.031 C 
ATOM     60  C   UNL A   1      39.681  31.188  34.228  1.00  0.00     0.034 A 
BRANCH  47  61
ATOM     61  C   UNL A   1      44.429  27.191  34.070  1.00  0.00     0.023 A 
ATOM     62  C   UNL A   1      44.223  25.975  34.747  1.00  0.00     0.031 A 
ATOM     63  C   UNL A   1      45.704  27.779  34.151  1.00  0.00     0.131 A 
ATOM     64  C   UNL A   1      45.243  25.438  35.547  1.00  0.00     0.055 A 
ATOM     65  C   UNL A   1      46.742  27.194  34.878  1.00  0.00     0.041 A 
ATOM     66  F   UNL A   1      45.956  28.950  33.545  1.00  0.00    -0.206 F 
ATOM     67  C   UNL A   1      46.509  26.026  35.598  1.00  0.00     0.022 A 
BRANCH  64  68
ATOM     68  S   UNL A   1      44.838  24.062  36.658  1.00  0.00     0.124 S 
ATOM     69  O   UNL A   1      45.909  23.114  36.360  1.00  0.00    -0.237 OA
ATOM     70  O   UNL A   1      44.889  24.692  37.972  1.00  0.00    -0.237 OA
ATOM     71  O   UNL A   1      43.508  23.645  36.215  1.00  0.00    -0.744 OA
ENDBRANCH  64  68
ENDBRANCH  47  61
BRANCH  48  72
ATOM     72  C   UNL A   1      36.806  31.094  28.877  1.00  0.00     0.023 A 
ATOM     73  C   UNL A   1      35.845  30.209  28.367  1.00  0.00     0.031 A 
ATOM     74  C   UNL A   1      36.612  32.473  28.671  1.00  0.00     0.131 A 
ATOM     75  C   UNL A   1      34.743  30.711  27.657  1.00  0.00     0.055 A 
ATOM     76  C   UNL A   1      35.492  32.969  28.002  1.00  0.00     0.041 A 
ATOM     77  F   UNL A   1      37.501  33.362  29.142  1.00  0.00    -0.206 F 
ATOM     78  C   UNL A   1      34.553  32.084  27.483  1.00  0.00     0.022 A 
BRANCH  75  79
ATOM     79  S   UNL A   1      33.571  29.536  26.923  1.00  0.00     0.124 S 
ATOM     80  O   UNL A   1      33.391  28.578  28.008  1.00  0.00    -0.237 OA
ATOM     81  O   UNL A   1      32.428  30.393  26.627  1.00  0.00    -0.237 OA
ATOM     82  O   UNL A   1      34.285  29.030  25.753  1.00  0.00    -0.744 OA
ENDBRANCH  75  79
ENDBRANCH  48  72
BRANCH  60  83
ATOM     83  C   UNL A   1      39.251  32.091  35.360  1.00  0.00     0.023 A 
ATOM     84  C   UNL A   1      39.728  33.406  35.487  1.00  0.00     0.031 A 
ATOM     85  C   UNL A   1      38.315  31.629  36.303  1.00  0.00     0.131 A 
ATOM     86  C   UNL A   1      39.287  34.206  36.554  1.00  0.00     0.055 A 
ATOM     87  C   UNL A   1      37.843  32.445  37.331  1.00  0.00     0.041 A 
ATOM     88  F   UNL A   1      37.829  30.380  36.227  1.00  0.00    -0.206 F 
ATOM     89  C   UNL A   1      38.334  33.740  37.465  1.00  0.00     0.022 A 
BRANCH  86  90
ATOM     90  S   UNL A   1      40.009  35.857  36.770  1.00  0.00     0.124 S 
ATOM     91  O   UNL A   1      39.280  36.356  37.932  1.00  0.00    -0.237 OA
ATOM     92  O   UNL A   1      41.420  35.557  36.982  1.00  0.00    -0.237 OA
ATOM     93  O   UNL A   1      39.702  36.533  35.510  1.00  0.00    -0.744 OA
ENDBRANCH  86  90
ENDBRANCH  60  83
ENDBRANCH  34  35
ENDBRANCH  27  29
ENDBRANCH  26  27
ENDBRANCH  25  26
ENDBRANCH   1  25
TORSDOF 19
ENDMDL
MODEL 3
REMARK VINA RESULT:     -10.7      4.900      7.138
REMARK SMILES CC(C)(C)OC(=O)N1CCC2(CC1)C[C@@H](C(=O)OCCOCCOC(=O)c1ccc(-c3c4nc(c(-c5cc(S(=O)(=O)[O-])ccc5F)c5ccc([nH]5)c(-c5cc(S(=O)(=O)[O-])ccc5F)c5nc(c(-c6cc(S(=O)(=O)[O-])ccc6F)c6ccc3[nH]6)C=C5)C=C4)cc1)CO2
REMARK SMILES IDX 22 1 21 2 20 3 19 4 18 5 16 6 17 7 15 8 6 9 7 10 8 11 9 12
REMARK SMILES IDX 13 13 10 14 12 15 11 16 14 17 91 18 90 19 5 20 2 21 1 22
REMARK SMILES IDX 3 23 4 24 23 25 24 26 25 27 26 28 27 29 28 30 89 31 29 32
REMARK SMILES IDX 88 33 30 34 31 35 32 36 82 37 33 38 87 39 81 40 83 41 34 42
REMARK SMILES IDX 86 43 80 44 79 45 35 47 67 48 47 49 66 50 48 51 51 52 65 53
REMARK SMILES IDX 84 54 49 55 50 56 64 58 85 59 52 60 36 61 37 62 45 63 38 64
REMARK SMILES IDX 44 65 46 66 43 67 39 68 40 69 41 70 42 71 68 72 69 73 77 74
REMARK SMILES IDX 70 75 76 76 78 77 75 78 71 79 72 80 73 81 74 82 53 83 54 84
REMARK SMILES IDX 62 85 55 86 61 87 63 88 60 89 56 90 57 91 58 92 59 93
REMARK H PARENT 83 46 51 57
REMARK Flexibility Score: inf
ROOT
ATOM      1  C   UNL A   1      38.225  19.548  24.951  1.00  0.00     0.202 C 
ENDROOT
BRANCH   1   2
ATOM      2  O   UNL A   1      36.866  19.153  24.771  1.00  0.00    -0.374 OA
BRANCH   2   3
ATOM      3  C   UNL A   1      35.850  20.114  25.062  1.00  0.00     0.202 C 
BRANCH   3   4
ATOM      4  C   UNL A   1      34.403  19.648  24.878  1.00  0.00     0.261 C 
BRANCH   4   5
ATOM      5  O   UNL A   1      33.499  20.457  25.649  1.00  0.00    -0.463 OA
BRANCH   5   6
ATOM      6  C   UNL A   1      32.553  21.127  24.951  1.00  0.00     0.311 C 
ATOM      7  O   UNL A   1      31.380  21.248  25.289  1.00  0.00    -0.252 OA
BRANCH   6   8
ATOM      8  C   UNL A   1      33.079  21.765  23.684  1.00  0.00     0.128 C 
ATOM      9  C   UNL A   1      33.198  28.231  24.240  1.00  0.00     0.410 C 
ATOM     10  O   UNL A   1      33.682  28.996  23.413  1.00  0.00    -0.224 OA
ATOM     11  N   UNL A   1      32.651  27.010  23.907  1.00  0.00    -0.308 N 
ATOM     12  C   UNL A   1      32.933  26.425  22.610  1.00  0.00     0.126 C 
ATOM     13  C   UNL A   1      31.891  26.163  24.819  1.00  0.00     0.126 C 
ATOM     14  C   UNL A   1      33.779  25.171  22.820  1.00  0.00     0.057 C 
ATOM     15  C   UNL A   1      32.640  24.856  25.075  1.00  0.00     0.057 C 
ATOM     16  C   UNL A   1      33.074  24.179  23.761  1.00  0.00     0.073 C 
ATOM     17  C   UNL A   1      33.958  22.951  24.016  1.00  0.00     0.053 C 
ATOM     18  O   UNL A   1      31.888  23.713  23.091  1.00  0.00    -0.374 OA
ATOM     19  C   UNL A   1      32.059  22.344  22.734  1.00  0.00     0.176 C 
BRANCH   9  20
ATOM     20  O   UNL A   1      33.206  28.437  25.579  1.00  0.00    -0.444 OA
BRANCH  20  21
ATOM     21  C   UNL A   1      32.342  29.426  26.196  1.00  0.00     0.106 C 
ATOM     22  C   UNL A   1      31.717  28.704  27.398  1.00  0.00     0.056 C 
ATOM     23  C   UNL A   1      31.244  29.814  25.205  1.00  0.00     0.056 C 
ATOM     24  C   UNL A   1      33.093  30.657  26.725  1.00  0.00     0.056 C 
ENDBRANCH  20  21
ENDBRANCH   9  20
ENDBRANCH   6   8
ENDBRANCH   5   6
ENDBRANCH   4   5
ENDBRANCH   3   4
ENDBRANCH   2   3
ENDBRANCH   1   2
BRANCH   1  25
ATOM     25  C   UNL A   1      38.484  20.954  25.513  1.00  0.00     0.261 C 
BRANCH  25  26
ATOM     26  O   UNL A   1      39.883  21.249  25.668  1.00  0.00    -0.460 OA
BRANCH  26  27
ATOM     27  C   UNL A   1      40.330  21.207  26.949  1.00  0.00     0.338 C 
ATOM     28  O   UNL A   1      40.676  20.215  27.569  1.00  0.00    -0.246 OA
BRANCH  27  29
ATOM     29  C   UNL A   1      40.538  22.574  27.466  1.00  0.00     0.060 A 
ATOM     30  C   UNL A   1      39.748  23.598  26.925  1.00  0.00     0.016 A 
ATOM     31  C   UNL A   1      41.545  22.868  28.386  1.00  0.00     0.016 A 
ATOM     32  C   UNL A   1      39.993  24.928  27.264  1.00  0.00     0.010 A 
ATOM     33  C   UNL A   1      41.798  24.204  28.716  1.00  0.00     0.010 A 
ATOM     34  C   UNL A   1      41.048  25.241  28.130  1.00  0.00    -0.014 A 
BRANCH  34  35
ATOM     35  C   UNL A   1      41.480  26.651  28.290  1.00  0.00     0.031 A 
ATOM     36  C   UNL A   1      42.855  27.041  27.822  1.00  0.00     0.074 A 
ATOM     37  C   UNL A   1      40.669  27.568  28.846  1.00  0.00     0.049 A 
ATOM     38  N   UNL A   1      43.490  28.176  27.955  1.00  0.00    -0.248 NA
ATOM     39  C   UNL A   1      43.617  26.000  27.118  1.00  0.00     0.031 C 
ATOM     40  C   UNL A   1      39.301  27.319  29.295  1.00  0.00     0.029 A 
ATOM     41  N   UNL A   1      40.891  28.888  29.152  1.00  0.00    -0.354 N 
ATOM     42  C   UNL A   1      44.737  27.981  27.369  1.00  0.00     0.074 A 
ATOM     43  C   UNL A   1      44.772  26.610  26.907  1.00  0.00     0.031 C 
ATOM     44  C   UNL A   1      38.816  28.443  29.851  1.00  0.00     0.029 A 
ATOM     45  C   UNL A   1      39.854  29.473  29.837  1.00  0.00     0.049 A 
ATOM     46  H   UNL A   1      41.715  29.368  28.903  1.00  0.00     0.167 HD
ATOM     47  C   UNL A   1      45.755  28.867  27.231  1.00  0.00     0.034 A 
ATOM     48  C   UNL A   1      39.767  30.683  30.426  1.00  0.00     0.034 A 
ATOM     49  C   UNL A   1      45.701  30.228  27.708  1.00  0.00     0.049 A 
ATOM     50  C   UNL A   1      40.938  31.632  30.334  1.00  0.00     0.074 A 
ATOM     51  C   UNL A   1      46.655  31.223  27.589  1.00  0.00     0.029 A 
ATOM     52  N   UNL A   1      44.641  30.779  28.417  1.00  0.00    -0.354 N 
ATOM     53  N   UNL A   1      42.107  31.447  29.764  1.00  0.00    -0.248 NA
ATOM     54  C   UNL A   1      40.779  32.951  30.962  1.00  0.00     0.031 C 
ATOM     55  C   UNL A   1      46.207  32.346  28.292  1.00  0.00     0.029 A 
ATOM     56  C   UNL A   1      44.936  32.084  28.780  1.00  0.00     0.049 A 
ATOM     57  H   UNL A   1      43.802  30.310  28.632  1.00  0.00     0.167 HD
ATOM     58  C   UNL A   1      42.810  32.637  29.938  1.00  0.00     0.074 A 
ATOM     59  C   UNL A   1      41.935  33.532  30.669  1.00  0.00     0.031 C 
ATOM     60  C   UNL A   1      44.059  32.964  29.519  1.00  0.00     0.034 A 
BRANCH  47  61
ATOM     61  C   UNL A   1      47.031  28.358  26.602  1.00  0.00     0.023 A 
ATOM     62  C   UNL A   1      47.223  28.347  25.208  1.00  0.00     0.031 A 
ATOM     63  C   UNL A   1      48.051  27.822  27.409  1.00  0.00     0.131 A 
ATOM     64  C   UNL A   1      48.358  27.728  24.663  1.00  0.00     0.055 A 
ATOM     65  C   UNL A   1      49.219  27.286  26.864  1.00  0.00     0.041 A 
ATOM     66  F   UNL A   1      47.917  27.785  28.744  1.00  0.00    -0.206 F 
ATOM     67  C   UNL A   1      49.369  27.220  25.482  1.00  0.00     0.022 A 
BRANCH  64  68
ATOM     68  S   UNL A   1      48.410  27.439  22.873  1.00  0.00     0.124 S 
ATOM     69  O   UNL A   1      49.725  27.972  22.524  1.00  0.00    -0.237 OA
ATOM     70  O   UNL A   1      48.261  25.991  22.783  1.00  0.00    -0.237 OA
ATOM     71  O   UNL A   1      47.279  28.217  22.367  1.00  0.00    -0.744 OA
ENDBRANCH  64  68
ENDBRANCH  47  61
BRANCH  48  72
ATOM     72  C   UNL A   1      38.552  31.036  31.211  1.00  0.00     0.023 A 
ATOM     73  C   UNL A   1      37.448  31.664  30.616  1.00  0.00     0.031 A 
ATOM     74  C   UNL A   1      38.486  30.746  32.587  1.00  0.00     0.131 A 
ATOM     75  C   UNL A   1      36.332  32.001  31.399  1.00  0.00     0.055 A 
ATOM     76  C   UNL A   1      37.358  31.044  33.351  1.00  0.00     0.041 A 
ATOM     77  F   UNL A   1      39.516  30.143  33.203  1.00  0.00    -0.206 F 
ATOM     78  C   UNL A   1      36.274  31.683  32.758  1.00  0.00     0.022 A 
BRANCH  75  79
ATOM     79  S   UNL A   1      34.962  32.902  30.623  1.00  0.00     0.124 S 
ATOM     80  O   UNL A   1      34.589  32.001  29.539  1.00  0.00    -0.237 OA
ATOM     81  O   UNL A   1      34.010  33.013  31.722  1.00  0.00    -0.237 OA
ATOM     82  O   UNL A   1      35.576  34.161  30.206  1.00  0.00    -0.744 OA
ENDBRANCH  75  79
ENDBRANCH  48  72
BRANCH  60  83
ATOM     83  C   UNL A   1      44.541  34.369  29.789  1.00  0.00     0.023 A 
ATOM     84  C   UNL A   1      44.284  35.429  28.903  1.00  0.00     0.031 A 
ATOM     85  C   UNL A   1      45.236  34.651  30.979  1.00  0.00     0.131 A 
ATOM     86  C   UNL A   1      44.747  36.719  29.209  1.00  0.00     0.055 A 
ATOM     87  C   UNL A   1      45.650  35.944  31.300  1.00  0.00     0.041 A 
ATOM     88  F   UNL A   1      45.508  33.674  31.859  1.00  0.00    -0.206 F 
ATOM     89  C   UNL A   1      45.411  36.986  30.410  1.00  0.00     0.022 A 
BRANCH  86  90
ATOM     90  S   UNL A   1      44.512  38.046  27.994  1.00  0.00     0.124 S 
ATOM     91  O   UNL A   1      43.177  37.754  27.481  1.00  0.00    -0.237 OA
ATOM     92  O   UNL A   1      44.634  39.247  28.813  1.00  0.00    -0.237 OA
ATOM     93  O   UNL A   1      45.600  37.835  27.041  1.00  0.00    -0.744 OA
ENDBRANCH  86  90
ENDBRANCH  60  83
ENDBRANCH  34  35
ENDBRANCH  27  29
ENDBRANCH  26  27
ENDBRANCH  25  26
ENDBRANCH   1  25
TORSDOF 19
ENDMDL
