MODEL 1
REMARK VINA RESULT:     -11.7      0.000      0.000
REMARK SMILES Cc1ccc2c(c1C)O[C@@H](C(=O)OCCOCCOC(=O)c1ccc(-c3c4nc(c(-c5cc(S(=O)(=O)[O-])ccc5F)c5ccc([nH]5)c(-c5cc(S(=O)(=O)[O-])ccc5F)c5nc(c(-c6cc(S(=O)(=O)[O-])ccc6F)c6ccc3[nH]6)C=C5)C=C4)cc1)CC2=O
REMARK SMILES IDX 17 1 16 2 15 3 14 4 13 5 11 6 12 7 10 8 1 9 2 10 3 11 7 12
REMARK SMILES IDX 4 13 6 14 8 15 5 16 9 17 86 18 85 19 87 20 18 21 19 22 20 23
REMARK SMILES IDX 21 24 22 25 23 26 84 27 24 28 83 29 25 30 26 31 27 32 77 33
REMARK SMILES IDX 28 34 82 35 76 36 78 37 29 38 81 39 75 40 74 41 30 43 62 44
REMARK SMILES IDX 42 45 61 46 43 47 46 48 60 49 79 50 44 51 45 52 59 54 80 55
REMARK SMILES IDX 47 56 31 57 32 58 40 59 33 60 39 61 41 62 38 63 34 64 35 65
REMARK SMILES IDX 36 66 37 67 63 68 64 69 72 70 65 71 71 72 73 73 70 74 66 75
REMARK SMILES IDX 67 76 68 77 69 78 48 79 49 80 57 81 50 82 56 83 58 84 55 85
REMARK SMILES IDX 51 86 52 87 53 88 54 89
REMARK H PARENT 78 42 46 53
REMARK Flexibility Score: inf
ROOT
ATOM      1  C   UNL A   1      31.707  30.035  25.344  1.00  0.00     0.202 C 
ENDROOT
BRANCH   1   2
ATOM      2  O   UNL A   1      32.929  29.451  24.897  1.00  0.00    -0.374 OA
BRANCH   2   3
ATOM      3  C   UNL A   1      32.966  28.029  24.773  1.00  0.00     0.202 C 
BRANCH   3   4
ATOM      4  C   UNL A   1      31.901  27.255  25.552  1.00  0.00     0.261 C 
BRANCH   4   5
ATOM      5  O   UNL A   1      30.942  26.629  24.680  1.00  0.00    -0.460 OA
BRANCH   5   6
ATOM      6  C   UNL A   1      30.856  25.274  24.755  1.00  0.00     0.347 C 
ATOM      7  O   UNL A   1      30.759  24.634  25.797  1.00  0.00    -0.248 OA
BRANCH   6   8
ATOM      8  C   UNL A   1      30.928  24.603  23.377  1.00  0.00     0.290 C 
ATOM      9  C   UNL A   1      35.096  20.493  25.052  1.00  0.00     0.045 C 
ATOM     10  C   UNL A   1      34.541  21.711  24.363  1.00  0.00    -0.044 A 
ATOM     11  C   UNL A   1      35.445  22.642  23.821  1.00  0.00     0.005 A 
ATOM     12  C   UNL A   1      33.153  21.929  24.230  1.00  0.00    -0.005 A 
ATOM     13  C   UNL A   1      34.992  23.788  23.172  1.00  0.00     0.016 A 
ATOM     14  C   UNL A   1      32.708  23.093  23.577  1.00  0.00     0.134 A 
ATOM     15  C   UNL A   1      32.128  20.990  24.814  1.00  0.00     0.049 C 
ATOM     16  C   UNL A   1      33.622  24.011  23.053  1.00  0.00     0.060 A 
ATOM     17  O   UNL A   1      31.351  23.250  23.456  1.00  0.00    -0.477 OA
ATOM     18  C   UNL A   1      33.120  25.211  22.358  1.00  0.00     0.170 C 
ATOM     19  C   UNL A   1      31.631  25.374  22.276  1.00  0.00     0.138 C 
ATOM     20  O   UNL A   1      33.881  26.008  21.819  1.00  0.00    -0.294 OA
ENDBRANCH   6   8
ENDBRANCH   5   6
ENDBRANCH   4   5
ENDBRANCH   3   4
ENDBRANCH   2   3
ENDBRANCH   1   2
BRANCH   1  21
ATOM     21  C   UNL A   1      31.766  30.856  26.637  1.00  0.00     0.261 C 
BRANCH  21  22
ATOM     22  O   UNL A   1      32.948  30.573  27.404  1.00  0.00    -0.460 OA
BRANCH  22  23
ATOM     23  C   UNL A   1      33.733  31.646  27.655  1.00  0.00     0.338 C 
ATOM     24  O   UNL A   1      33.366  32.801  27.836  1.00  0.00    -0.246 OA
BRANCH  23  25
ATOM     25  C   UNL A   1      35.126  31.229  27.875  1.00  0.00     0.060 A 
ATOM     26  C   UNL A   1      35.372  29.859  28.044  1.00  0.00     0.016 A 
ATOM     27  C   UNL A   1      36.144  32.165  28.062  1.00  0.00     0.016 A 
ATOM     28  C   UNL A   1      36.624  29.423  28.468  1.00  0.00     0.010 A 
ATOM     29  C   UNL A   1      37.394  31.728  28.514  1.00  0.00     0.010 A 
ATOM     30  C   UNL A   1      37.619  30.363  28.766  1.00  0.00    -0.014 A 
BRANCH  30  31
ATOM     31  C   UNL A   1      38.803  29.933  29.546  1.00  0.00     0.031 A 
ATOM     32  C   UNL A   1      39.701  28.879  28.959  1.00  0.00     0.074 A 
ATOM     33  C   UNL A   1      39.092  30.488  30.735  1.00  0.00     0.049 A 
ATOM     34  N   UNL A   1      40.777  28.336  29.464  1.00  0.00    -0.248 NA
ATOM     35  C   UNL A   1      39.344  28.378  27.620  1.00  0.00     0.031 C 
ATOM     36  C   UNL A   1      38.327  31.555  31.372  1.00  0.00     0.029 A 
ATOM     37  N   UNL A   1      40.106  30.219  31.620  1.00  0.00    -0.354 N 
ATOM     38  C   UNL A   1      41.226  27.432  28.508  1.00  0.00     0.074 A 
ATOM     39  C   UNL A   1      40.296  27.482  27.403  1.00  0.00     0.031 C 
ATOM     40  C   UNL A   1      38.889  31.840  32.558  1.00  0.00     0.029 A 
ATOM     41  C   UNL A   1      40.032  30.951  32.780  1.00  0.00     0.049 A 
ATOM     42  H   UNL A   1      40.820  29.564  31.440  1.00  0.00     0.167 HD
ATOM     43  C   UNL A   1      42.318  26.636  28.549  1.00  0.00     0.034 A 
ATOM     44  C   UNL A   1      40.782  30.892  33.900  1.00  0.00     0.034 A 
ATOM     45  C   UNL A   1      43.231  26.582  29.657  1.00  0.00     0.049 A 
ATOM     46  C   UNL A   1      41.945  29.931  33.962  1.00  0.00     0.074 A 
ATOM     47  C   UNL A   1      44.376  25.817  29.783  1.00  0.00     0.029 A 
ATOM     48  N   UNL A   1      43.101  27.309  30.830  1.00  0.00    -0.354 N 
ATOM     49  N   UNL A   1      42.391  29.118  33.033  1.00  0.00    -0.248 NA
ATOM     50  C   UNL A   1      42.709  29.874  35.218  1.00  0.00     0.031 C 
ATOM     51  C   UNL A   1      44.909  26.040  31.053  1.00  0.00     0.029 A 
ATOM     52  C   UNL A   1      44.128  26.987  31.699  1.00  0.00     0.049 A 
ATOM     53  H   UNL A   1      42.385  27.958  31.017  1.00  0.00     0.167 HD
ATOM     54  C   UNL A   1      43.496  28.473  33.581  1.00  0.00     0.074 A 
ATOM     55  C   UNL A   1      43.661  28.998  34.920  1.00  0.00     0.031 C 
ATOM     56  C   UNL A   1      44.299  27.531  33.024  1.00  0.00     0.034 A 
BRANCH  43  57
ATOM     57  C   UNL A   1      42.598  25.747  27.368  1.00  0.00     0.023 A 
ATOM     58  C   UNL A   1      42.131  24.421  27.362  1.00  0.00     0.031 A 
ATOM     59  C   UNL A   1      43.415  26.177  26.309  1.00  0.00     0.131 A 
ATOM     60  C   UNL A   1      42.511  23.558  26.328  1.00  0.00     0.055 A 
ATOM     61  C   UNL A   1      43.765  25.321  25.264  1.00  0.00     0.041 A 
ATOM     62  F   UNL A   1      43.878  27.437  26.272  1.00  0.00    -0.206 F 
ATOM     63  C   UNL A   1      43.320  24.002  25.277  1.00  0.00     0.022 A 
BRANCH  60  64
ATOM     64  S   UNL A   1      41.995  21.820  26.324  1.00  0.00     0.124 S 
ATOM     65  O   UNL A   1      40.569  21.928  26.019  1.00  0.00    -0.237 OA
ATOM     66  O   UNL A   1      42.821  21.261  25.258  1.00  0.00    -0.237 OA
ATOM     67  O   UNL A   1      42.304  21.360  27.673  1.00  0.00    -0.744 OA
ENDBRANCH  60  64
ENDBRANCH  43  57
BRANCH  44  68
ATOM     68  C   UNL A   1      40.449  31.793  35.041  1.00  0.00     0.023 A 
ATOM     69  C   UNL A   1      39.471  31.427  35.983  1.00  0.00     0.031 A 
ATOM     70  C   UNL A   1      41.035  33.064  35.151  1.00  0.00     0.131 A 
ATOM     71  C   UNL A   1      39.057  32.351  36.952  1.00  0.00     0.055 A 
ATOM     72  C   UNL A   1      40.667  33.957  36.160  1.00  0.00     0.041 A 
ATOM     73  F   UNL A   1      41.967  33.458  34.270  1.00  0.00    -0.206 F 
ATOM     74  C   UNL A   1      39.663  33.606  37.059  1.00  0.00     0.022 A 
BRANCH  71  75
ATOM     75  S   UNL A   1      37.653  31.985  38.039  1.00  0.00     0.124 S 
ATOM     76  O   UNL A   1      38.220  32.214  39.365  1.00  0.00    -0.237 OA
ATOM     77  O   UNL A   1      36.670  32.970  37.594  1.00  0.00    -0.237 OA
ATOM     78  O   UNL A   1      37.326  30.597  37.726  1.00  0.00    -0.744 OA
ENDBRANCH  71  75
ENDBRANCH  44  68
BRANCH  56  79
ATOM     79  C   UNL A   1      45.452  26.985  33.826  1.00  0.00     0.023 A 
ATOM     80  C   UNL A   1      45.260  25.867  34.660  1.00  0.00     0.031 A 
ATOM     81  C   UNL A   1      46.669  27.682  33.912  1.00  0.00     0.131 A 
ATOM     82  C   UNL A   1      46.249  25.512  35.585  1.00  0.00     0.055 A 
ATOM     83  C   UNL A   1      47.669  27.296  34.806  1.00  0.00     0.041 A 
ATOM     84  F   UNL A   1      46.893  28.759  33.143  1.00  0.00    -0.206 F 
ATOM     85  C   UNL A   1      47.455  26.215  35.658  1.00  0.00     0.022 A 
BRANCH  82  86
ATOM     86  S   UNL A   1      45.974  24.171  36.777  1.00  0.00     0.124 S 
ATOM     87  O   UNL A   1      44.603  23.767  36.472  1.00  0.00    -0.237 OA
ATOM     88  O   UNL A   1      47.007  23.211  36.400  1.00  0.00    -0.237 OA
ATOM     89  O   UNL A   1      46.154  24.812  38.076  1.00  0.00    -0.744 OA
ENDBRANCH  82  86
ENDBRANCH  56  79
ENDBRANCH  30  31
ENDBRANCH  23  25
ENDBRANCH  22  23
ENDBRANCH  21  22
ENDBRANCH   1  21
TORSDOF 17
ENDMDL
MODEL 2
REMARK VINA RESULT:     -11.6      4.961      9.981
REMARK SMILES Cc1ccc2c(c1C)O[C@@H](C(=O)OCCOCCOC(=O)c1ccc(-c3c4nc(c(-c5cc(S(=O)(=O)[O-])ccc5F)c5ccc([nH]5)c(-c5cc(S(=O)(=O)[O-])ccc5F)c5nc(c(-c6cc(S(=O)(=O)[O-])ccc6F)c6ccc3[nH]6)C=C5)C=C4)cc1)CC2=O
REMARK SMILES IDX 17 1 16 2 15 3 14 4 13 5 11 6 12 7 10 8 1 9 2 10 3 11 7 12
REMARK SMILES IDX 4 13 6 14 8 15 5 16 9 17 86 18 85 19 87 20 18 21 19 22 20 23
REMARK SMILES IDX 21 24 22 25 23 26 84 27 24 28 83 29 25 30 26 31 27 32 77 33
REMARK SMILES IDX 28 34 82 35 76 36 78 37 29 38 81 39 75 40 74 41 30 43 62 44
REMARK SMILES IDX 42 45 61 46 43 47 46 48 60 49 79 50 44 51 45 52 59 54 80 55
REMARK SMILES IDX 47 56 31 57 32 58 40 59 33 60 39 61 41 62 38 63 34 64 35 65
REMARK SMILES IDX 36 66 37 67 63 68 64 69 72 70 65 71 71 72 73 73 70 74 66 75
REMARK SMILES IDX 67 76 68 77 69 78 48 79 49 80 57 81 50 82 56 83 58 84 55 85
REMARK SMILES IDX 51 86 52 87 53 88 54 89
REMARK H PARENT 78 42 46 53
REMARK Flexibility Score: inf
ROOT
ATOM      1  C   UNL A   1      35.541  21.419  25.859  1.00  0.00     0.202 C 
ENDROOT
BRANCH   1   2
ATOM      2  O   UNL A   1      34.351  21.750  25.144  1.00  0.00    -0.374 OA
BRANCH   2   3
ATOM      3  C   UNL A   1      34.506  22.451  23.910  1.00  0.00     0.202 C 
BRANCH   3   4
ATOM      4  C   UNL A   1      34.952  23.911  24.013  1.00  0.00     0.261 C 
BRANCH   4   5
ATOM      5  O   UNL A   1      33.854  24.792  24.316  1.00  0.00    -0.460 OA
BRANCH   5   6
ATOM      6  C   UNL A   1      33.064  25.150  23.270  1.00  0.00     0.347 C 
ATOM      7  O   UNL A   1      33.474  25.467  22.157  1.00  0.00    -0.248 OA
BRANCH   6   8
ATOM      8  C   UNL A   1      31.573  25.154  23.631  1.00  0.00     0.290 C 
ATOM      9  C   UNL A   1      31.648  30.782  25.953  1.00  0.00     0.045 C 
ATOM     10  C   UNL A   1      31.582  29.278  25.952  1.00  0.00    -0.044 A 
ATOM     11  C   UNL A   1      31.751  28.601  27.173  1.00  0.00     0.005 A 
ATOM     12  C   UNL A   1      31.337  28.540  24.774  1.00  0.00    -0.005 A 
ATOM     13  C   UNL A   1      31.701  27.210  27.234  1.00  0.00     0.016 A 
ATOM     14  C   UNL A   1      31.293  27.136  24.849  1.00  0.00     0.134 A 
ATOM     15  C   UNL A   1      31.177  29.199  23.427  1.00  0.00     0.049 C 
ATOM     16  C   UNL A   1      31.473  26.481  26.069  1.00  0.00     0.060 A 
ATOM     17  O   UNL A   1      31.032  26.466  23.681  1.00  0.00    -0.477 OA
ATOM     18  C   UNL A   1      31.402  25.009  26.114  1.00  0.00     0.170 C 
ATOM     19  C   UNL A   1      31.154  24.302  24.815  1.00  0.00     0.138 C 
ATOM     20  O   UNL A   1      31.481  24.392  27.172  1.00  0.00    -0.294 OA
ENDBRANCH   6   8
ENDBRANCH   5   6
ENDBRANCH   4   5
ENDBRANCH   3   4
ENDBRANCH   2   3
ENDBRANCH   1   2
BRANCH   1  21
ATOM     21  C   UNL A   1      36.647  20.711  25.070  1.00  0.00     0.261 C 
BRANCH  21  22
ATOM     22  O   UNL A   1      37.829  21.520  24.950  1.00  0.00    -0.460 OA
BRANCH  22  23
ATOM     23  C   UNL A   1      38.837  21.182  25.786  1.00  0.00     0.338 C 
ATOM     24  O   UNL A   1      39.422  20.107  25.839  1.00  0.00    -0.246 OA
BRANCH  23  25
ATOM     25  C   UNL A   1      39.299  22.357  26.541  1.00  0.00     0.060 A 
ATOM     26  C   UNL A   1      38.751  23.601  26.200  1.00  0.00     0.016 A 
ATOM     27  C   UNL A   1      40.350  22.266  27.456  1.00  0.00     0.016 A 
ATOM     28  C   UNL A   1      39.299  24.770  26.721  1.00  0.00     0.010 A 
ATOM     29  C   UNL A   1      40.916  23.442  27.958  1.00  0.00     0.010 A 
ATOM     30  C   UNL A   1      40.425  24.695  27.551  1.00  0.00    -0.014 A 
BRANCH  30  31
ATOM     31  C   UNL A   1      41.212  25.925  27.807  1.00  0.00     0.031 A 
ATOM     32  C   UNL A   1      40.544  27.062  28.530  1.00  0.00     0.074 A 
ATOM     33  C   UNL A   1      42.499  26.017  27.434  1.00  0.00     0.049 A 
ATOM     34  N   UNL A   1      41.026  28.236  28.846  1.00  0.00    -0.248 NA
ATOM     35  C   UNL A   1      39.152  26.846  28.962  1.00  0.00     0.031 C 
ATOM     36  C   UNL A   1      43.263  24.958  26.782  1.00  0.00     0.029 A 
ATOM     37  N   UNL A   1      43.386  27.059  27.547  1.00  0.00    -0.354 N 
ATOM     38  C   UNL A   1      40.000  28.895  29.513  1.00  0.00     0.074 A 
ATOM     39  C   UNL A   1      38.863  28.003  29.538  1.00  0.00     0.031 C 
ATOM     40  C   UNL A   1      44.503  25.411  26.533  1.00  0.00     0.029 A 
ATOM     41  C   UNL A   1      44.610  26.803  26.977  1.00  0.00     0.049 A 
ATOM     42  H   UNL A   1      43.167  27.908  27.994  1.00  0.00     0.167 HD
ATOM     43  C   UNL A   1      40.010  30.132  30.059  1.00  0.00     0.034 A 
ATOM     44  C   UNL A   1      45.681  27.606  26.810  1.00  0.00     0.034 A 
ATOM     45  C   UNL A   1      41.139  31.019  30.019  1.00  0.00     0.049 A 
ATOM     46  C   UNL A   1      45.639  29.016  27.347  1.00  0.00     0.074 A 
ATOM     47  C   UNL A   1      41.248  32.287  30.560  1.00  0.00     0.029 A 
ATOM     48  N   UNL A   1      42.348  30.740  29.399  1.00  0.00    -0.354 N 
ATOM     49  N   UNL A   1      44.684  29.612  28.021  1.00  0.00    -0.248 NA
ATOM     50  C   UNL A   1      46.815  29.866  27.106  1.00  0.00     0.031 C 
ATOM     51  C   UNL A   1      42.502  32.796  30.220  1.00  0.00     0.029 A 
ATOM     52  C   UNL A   1      43.197  31.825  29.516  1.00  0.00     0.049 A 
ATOM     53  H   UNL A   1      42.567  29.895  28.944  1.00  0.00     0.167 HD
ATOM     54  C   UNL A   1      45.150  30.893  28.303  1.00  0.00     0.074 A 
ATOM     55  C   UNL A   1      46.480  30.984  27.738  1.00  0.00     0.031 C 
ATOM     56  C   UNL A   1      44.530  31.900  28.969  1.00  0.00     0.034 A 
BRANCH  43  57
ATOM     57  C   UNL A   1      38.763  30.618  30.747  1.00  0.00     0.023 A 
ATOM     58  C   UNL A   1      37.842  31.418  30.048  1.00  0.00     0.031 A 
ATOM     59  C   UNL A   1      38.547  30.384  32.115  1.00  0.00     0.131 A 
ATOM     60  C   UNL A   1      36.757  31.981  30.729  1.00  0.00     0.055 A 
ATOM     61  C   UNL A   1      37.446  30.922  32.783  1.00  0.00     0.041 A 
ATOM     62  F   UNL A   1      39.398  29.620  32.820  1.00  0.00    -0.206 F 
ATOM     63  C   UNL A   1      36.551  31.732  32.091  1.00  0.00     0.022 A 
BRANCH  60  64
ATOM     64  S   UNL A   1      35.590  33.081  29.883  1.00  0.00     0.124 S 
ATOM     65  O   UNL A   1      36.459  33.766  28.928  1.00  0.00    -0.237 OA
ATOM     66  O   UNL A   1      34.647  32.131  29.300  1.00  0.00    -0.237 OA
ATOM     67  O   UNL A   1      35.063  33.922  30.952  1.00  0.00    -0.744 OA
ENDBRANCH  60  64
ENDBRANCH  43  57
BRANCH  44  68
ATOM     68  C   UNL A   1      46.884  27.069  26.112  1.00  0.00     0.023 A 
ATOM     69  C   UNL A   1      47.914  26.441  26.836  1.00  0.00     0.031 A 
ATOM     70  C   UNL A   1      47.062  27.258  24.732  1.00  0.00     0.131 A 
ATOM     71  C   UNL A   1      49.105  26.088  26.188  1.00  0.00     0.055 A 
ATOM     72  C   UNL A   1      48.224  26.843  24.078  1.00  0.00     0.041 A 
ATOM     73  F   UNL A   1      46.109  27.858  24.003  1.00  0.00    -0.206 F 
ATOM     74  C   UNL A   1      49.259  26.266  24.810  1.00  0.00     0.022 A 
BRANCH  71  75
ATOM     75  S   UNL A   1      50.526  25.476  27.134  1.00  0.00     0.124 S 
ATOM     76  O   UNL A   1      51.542  25.317  26.098  1.00  0.00    -0.237 OA
ATOM     77  O   UNL A   1      50.748  26.571  28.074  1.00  0.00    -0.237 OA
ATOM     78  O   UNL A   1      50.037  24.237  27.729  1.00  0.00    -0.744 OA
ENDBRANCH  71  75
ENDBRANCH  44  68
BRANCH  56  79
ATOM     79  C   UNL A   1      45.255  33.209  29.156  1.00  0.00     0.023 A 
ATOM     80  C   UNL A   1      45.261  34.161  28.120  1.00  0.00     0.031 A 
ATOM     81  C   UNL A   1      46.088  33.423  30.267  1.00  0.00     0.131 A 
ATOM     82  C   UNL A   1      46.128  35.259  28.189  1.00  0.00     0.055 A 
ATOM     83  C   UNL A   1      46.918  34.542  30.351  1.00  0.00     0.041 A 
ATOM     84  F   UNL A   1      46.121  32.537  31.274  1.00  0.00    -0.206 F 
ATOM     85  C   UNL A   1      46.951  35.458  29.302  1.00  0.00     0.022 A 
BRANCH  82  86
ATOM     86  S   UNL A   1      46.272  36.425  26.807  1.00  0.00     0.124 S 
ATOM     87  O   UNL A   1      46.264  35.530  25.651  1.00  0.00    -0.237 OA
ATOM     88  O   UNL A   1      45.075  37.243  26.971  1.00  0.00    -0.237 OA
ATOM     89  O   UNL A   1      47.540  37.106  27.051  1.00  0.00    -0.744 OA
ENDBRANCH  82  86
ENDBRANCH  56  79
ENDBRANCH  30  31
ENDBRANCH  23  25
ENDBRANCH  22  23
ENDBRANCH  21  22
ENDBRANCH   1  21
TORSDOF 17
ENDMDL
MODEL 3
REMARK VINA RESULT:     -11.4      4.881      7.817
REMARK SMILES Cc1ccc2c(c1C)O[C@@H](C(=O)OCCOCCOC(=O)c1ccc(-c3c4nc(c(-c5cc(S(=O)(=O)[O-])ccc5F)c5ccc([nH]5)c(-c5cc(S(=O)(=O)[O-])ccc5F)c5nc(c(-c6cc(S(=O)(=O)[O-])ccc6F)c6ccc3[nH]6)C=C5)C=C4)cc1)CC2=O
REMARK SMILES IDX 17 1 16 2 15 3 14 4 13 5 11 6 12 7 10 8 1 9 2 10 3 11 7 12
REMARK SMILES IDX 4 13 6 14 8 15 5 16 9 17 86 18 85 19 87 20 18 21 19 22 20 23
REMARK SMILES IDX 21 24 22 25 23 26 84 27 24 28 83 29 25 30 26 31 27 32 77 33
REMARK SMILES IDX 28 34 82 35 76 36 78 37 29 38 81 39 75 40 74 41 30 43 62 44
REMARK SMILES IDX 42 45 61 46 43 47 46 48 60 49 79 50 44 51 45 52 59 54 80 55
REMARK SMILES IDX 47 56 31 57 32 58 40 59 33 60 39 61 41 62 38 63 34 64 35 65
REMARK SMILES IDX 36 66 37 67 63 68 64 69 72 70 65 71 71 72 73 73 70 74 66 75
REMARK SMILES IDX 67 76 68 77 69 78 48 79 49 80 57 81 50 82 56 83 58 84 55 85
REMARK SMILES IDX 51 86 52 87 53 88 54 89
REMARK H PARENT 78 42 46 53
REMARK Flexibility Score: inf
ROOT
ATOM      1  C   UNL A   1      37.244  20.605  24.842  1.00  0.00     0.202 C 
ENDROOT
BRANCH   1   2
ATOM      2  O   UNL A   1      37.277  22.025  24.708  1.00  0.00    -0.374 OA
BRANCH   2   3
ATOM      3  C   UNL A   1      36.701  22.583  23.527  1.00  0.00     0.202 C 
BRANCH   3   4
ATOM      4  C   UNL A   1      35.446  23.434  23.723  1.00  0.00     0.261 C 
BRANCH   4   5
ATOM      5  O   UNL A   1      34.240  22.671  23.534  1.00  0.00    -0.460 OA
BRANCH   5   6
ATOM      6  C   UNL A   1      33.495  22.437  24.647  1.00  0.00     0.347 C 
ATOM      7  O   UNL A   1      33.951  22.277  25.775  1.00  0.00    -0.248 OA
BRANCH   6   8
ATOM      8  C   UNL A   1      31.994  22.357  24.344  1.00  0.00     0.290 C 
ATOM      9  C   UNL A   1      31.443  28.277  23.034  1.00  0.00     0.045 C 
ATOM     10  C   UNL A   1      31.289  27.007  23.828  1.00  0.00    -0.044 A 
ATOM     11  C   UNL A   1      30.888  27.105  25.173  1.00  0.00     0.005 A 
ATOM     12  C   UNL A   1      31.514  25.736  23.258  1.00  0.00    -0.005 A 
ATOM     13  C   UNL A   1      30.730  25.965  25.958  1.00  0.00     0.016 A 
ATOM     14  C   UNL A   1      31.355  24.593  24.064  1.00  0.00     0.134 A 
ATOM     15  C   UNL A   1      31.975  25.559  21.834  1.00  0.00     0.049 C 
ATOM     16  C   UNL A   1      30.965  24.711  25.400  1.00  0.00     0.060 A 
ATOM     17  O   UNL A   1      31.565  23.380  23.458  1.00  0.00    -0.477 OA
ATOM     18  C   UNL A   1      30.790  23.491  26.209  1.00  0.00     0.170 C 
ATOM     19  C   UNL A   1      31.065  22.181  25.531  1.00  0.00     0.138 C 
ATOM     20  O   UNL A   1      30.379  23.538  27.365  1.00  0.00    -0.294 OA
ENDBRANCH   6   8
ENDBRANCH   5   6
ENDBRANCH   4   5
ENDBRANCH   3   4
ENDBRANCH   2   3
ENDBRANCH   1   2
BRANCH   1  21
ATOM     21  C   UNL A   1      38.588  19.900  25.052  1.00  0.00     0.261 C 
BRANCH  21  22
ATOM     22  O   UNL A   1      39.148  20.177  26.346  1.00  0.00    -0.460 OA
BRANCH  22  23
ATOM     23  C   UNL A   1      40.433  20.600  26.331  1.00  0.00     0.338 C 
ATOM     24  O   UNL A   1      41.368  20.095  25.721  1.00  0.00    -0.246 OA
BRANCH  23  25
ATOM     25  C   UNL A   1      40.560  21.897  27.014  1.00  0.00     0.060 A 
ATOM     26  C   UNL A   1      39.788  22.961  26.528  1.00  0.00     0.016 A 
ATOM     27  C   UNL A   1      41.520  22.105  28.006  1.00  0.00     0.016 A 
ATOM     28  C   UNL A   1      40.021  24.255  26.985  1.00  0.00     0.010 A 
ATOM     29  C   UNL A   1      41.771  23.409  28.444  1.00  0.00     0.010 A 
ATOM     30  C   UNL A   1      41.057  24.490  27.897  1.00  0.00    -0.014 A 
BRANCH  30  31
ATOM     31  C   UNL A   1      41.533  25.879  28.103  1.00  0.00     0.031 A 
ATOM     32  C   UNL A   1      42.903  26.245  27.602  1.00  0.00     0.074 A 
ATOM     33  C   UNL A   1      40.755  26.801  28.694  1.00  0.00     0.049 A 
ATOM     34  N   UNL A   1      43.535  27.386  27.685  1.00  0.00    -0.248 NA
ATOM     35  C   UNL A   1      43.657  25.188  26.906  1.00  0.00     0.031 C 
ATOM     36  C   UNL A   1      39.392  26.573  29.164  1.00  0.00     0.029 A 
ATOM     37  N   UNL A   1      41.009  28.114  29.003  1.00  0.00    -0.354 N 
ATOM     38  C   UNL A   1      44.756  27.186  27.053  1.00  0.00     0.074 A 
ATOM     39  C   UNL A   1      44.789  25.811  26.611  1.00  0.00     0.031 C 
ATOM     40  C   UNL A   1      38.934  27.706  29.723  1.00  0.00     0.029 A 
ATOM     41  C   UNL A   1      39.983  28.728  29.680  1.00  0.00     0.049 A 
ATOM     42  H   UNL A   1      41.847  28.572  28.763  1.00  0.00     0.167 HD
ATOM     43  C   UNL A   1      45.758  28.073  26.857  1.00  0.00     0.034 A 
ATOM     44  C   UNL A   1      39.909  29.960  30.224  1.00  0.00     0.034 A 
ATOM     45  C   UNL A   1      45.724  29.436  27.312  1.00  0.00     0.049 A 
ATOM     46  C   UNL A   1      41.076  30.907  30.073  1.00  0.00     0.074 A 
ATOM     47  C   UNL A   1      46.687  30.415  27.145  1.00  0.00     0.029 A 
ATOM     48  N   UNL A   1      44.685  30.010  28.028  1.00  0.00    -0.354 N 
ATOM     49  N   UNL A   1      42.205  30.724  29.430  1.00  0.00    -0.248 NA
ATOM     50  C   UNL A   1      40.965  32.224  30.717  1.00  0.00     0.031 C 
ATOM     51  C   UNL A   1      46.255  31.564  27.807  1.00  0.00     0.029 A 
ATOM     52  C   UNL A   1      44.997  31.321  28.338  1.00  0.00     0.049 A 
ATOM     53  H   UNL A   1      43.850  29.552  28.277  1.00  0.00     0.167 HD
ATOM     54  C   UNL A   1      42.926  31.907  29.571  1.00  0.00     0.074 A 
ATOM     55  C   UNL A   1      42.101  32.805  30.351  1.00  0.00     0.031 C 
ATOM     56  C   UNL A   1      44.159  32.217  29.098  1.00  0.00     0.034 A 
BRANCH  43  57
ATOM     57  C   UNL A   1      46.987  27.610  26.124  1.00  0.00     0.023 A 
ATOM     58  C   UNL A   1      47.126  27.873  24.750  1.00  0.00     0.031 A 
ATOM     59  C   UNL A   1      47.959  26.817  26.757  1.00  0.00     0.131 A 
ATOM     60  C   UNL A   1      48.201  27.322  24.044  1.00  0.00     0.055 A 
ATOM     61  C   UNL A   1      49.046  26.296  26.055  1.00  0.00     0.041 A 
ATOM     62  F   UNL A   1      47.869  26.546  28.070  1.00  0.00    -0.206 F 
ATOM     63  C   UNL A   1      49.164  26.540  24.690  1.00  0.00     0.022 A 
BRANCH  60  64
ATOM     64  S   UNL A   1      48.373  27.574  22.257  1.00  0.00     0.124 S 
ATOM     65  O   UNL A   1      47.129  28.265  21.927  1.00  0.00    -0.237 OA
ATOM     66  O   UNL A   1      49.581  28.390  22.180  1.00  0.00    -0.237 OA
ATOM     67  O   UNL A   1      48.488  26.221  21.723  1.00  0.00    -0.744 OA
ENDBRANCH  60  64
ENDBRANCH  43  57
BRANCH  44  68
ATOM     68  C   UNL A   1      38.667  30.357  30.947  1.00  0.00     0.023 A 
ATOM     69  C   UNL A   1      37.624  31.018  30.272  1.00  0.00     0.031 A 
ATOM     70  C   UNL A   1      38.545  30.165  32.332  1.00  0.00     0.131 A 
ATOM     71  C   UNL A   1      36.537  31.525  30.996  1.00  0.00     0.055 A 
ATOM     72  C   UNL A   1      37.428  30.614  33.040  1.00  0.00     0.041 A 
ATOM     73  F   UNL A   1      39.518  29.546  33.016  1.00  0.00    -0.206 F 
ATOM     74  C   UNL A   1      36.423  31.310  32.372  1.00  0.00     0.022 A 
BRANCH  71  75
ATOM     75  S   UNL A   1      35.290  32.563  30.188  1.00  0.00     0.124 S 
ATOM     76  O   UNL A   1      34.293  32.728  31.242  1.00  0.00    -0.237 OA
ATOM     77  O   UNL A   1      36.066  33.757  29.861  1.00  0.00    -0.237 OA
ATOM     78  O   UNL A   1      34.867  31.766  29.041  1.00  0.00    -0.744 OA
ENDBRANCH  71  75
ENDBRANCH  44  68
BRANCH  56  79
ATOM     79  C   UNL A   1      44.729  33.585  29.379  1.00  0.00     0.023 A 
ATOM     80  C   UNL A   1      44.570  34.618  28.436  1.00  0.00     0.031 A 
ATOM     81  C   UNL A   1      45.583  33.803  30.473  1.00  0.00     0.131 A 
ATOM     82  C   UNL A   1      45.301  35.804  28.575  1.00  0.00     0.055 A 
ATOM     83  C   UNL A   1      46.275  35.004  30.630  1.00  0.00     0.041 A 
ATOM     84  F   UNL A   1      45.772  32.842  31.391  1.00  0.00    -0.206 F 
ATOM     85  C   UNL A   1      46.147  36.006  29.670  1.00  0.00     0.022 A 
BRANCH  82  86
ATOM     86  S   UNL A   1      45.237  37.096  27.303  1.00  0.00     0.124 S 
ATOM     87  O   UNL A   1      45.683  38.275  28.042  1.00  0.00    -0.237 OA
ATOM     88  O   UNL A   1      46.175  36.591  26.306  1.00  0.00    -0.237 OA
ATOM     89  O   UNL A   1      43.835  37.118  26.894  1.00  0.00    -0.744 OA
ENDBRANCH  82  86
ENDBRANCH  56  79
ENDBRANCH  30  31
ENDBRANCH  23  25
ENDBRANCH  22  23
ENDBRANCH  21  22
ENDBRANCH   1  21
TORSDOF 17
ENDMDL
