MODEL 1
REMARK VINA RESULT:     -12.2      0.000      0.000
REMARK SMILES CS(=O)(=O)c1ccc(/C=C(/C(=O)OCCOCCOC(=O)c2ccc(-c3c4nc(c(-c5cc(S(=O)(=O)[O-])ccc5F)c5ccc([nH]5)c(-c5cc(S(=O)(=O)[O-])ccc5F)c5nc(c(-c6cc(S(=O)(=O)[O-])ccc6F)c6ccc3[nH]6)C=C5)C=C4)cc2)c2ccc(O)cc2)cc1
REMARK SMILES IDX 17 1 16 2 15 3 14 4 13 5 11 6 12 7 10 8 9 9 8 10 5 11 6 12
REMARK SMILES IDX 93 13 7 14 92 15 2 16 1 17 3 18 4 19 85 20 86 21 91 22 87 23
REMARK SMILES IDX 90 24 88 25 89 26 18 28 19 29 20 30 21 31 22 32 23 33 84 34
REMARK SMILES IDX 24 35 83 36 25 37 26 38 27 39 77 40 28 41 82 42 76 43 78 44
REMARK SMILES IDX 29 45 81 46 75 47 74 48 30 50 62 51 42 52 61 53 43 54 46 55
REMARK SMILES IDX 60 56 79 57 44 58 45 59 59 61 80 62 47 63 31 64 32 65 40 66
REMARK SMILES IDX 33 67 39 68 41 69 38 70 34 71 35 72 36 73 37 74 63 75 64 76
REMARK SMILES IDX 72 77 65 78 71 79 73 80 70 81 66 82 67 83 68 84 69 85 48 86
REMARK SMILES IDX 49 87 57 88 50 89 56 90 58 91 55 92 51 93 52 94 53 95 54 96
REMARK H PARENT 89 27 78 49 46 60
REMARK Flexibility Score: inf
ROOT
ATOM      1  C   UNL A   1      35.601  20.518  25.005  1.00  0.00     0.202 C 
ENDROOT
BRANCH   1   2
ATOM      2  O   UNL A   1      35.082  21.251  26.110  1.00  0.00    -0.374 OA
BRANCH   2   3
ATOM      3  C   UNL A   1      33.742  20.977  26.515  1.00  0.00     0.202 C 
BRANCH   3   4
ATOM      4  C   UNL A   1      32.612  21.729  25.802  1.00  0.00     0.261 C 
BRANCH   4   5
ATOM      5  O   UNL A   1      32.894  23.136  25.684  1.00  0.00    -0.460 OA
BRANCH   5   6
ATOM      6  C   UNL A   1      32.074  23.942  26.407  1.00  0.00     0.338 C 
ATOM      7  O   UNL A   1      31.742  23.761  27.571  1.00  0.00    -0.246 OA
BRANCH   6   8
ATOM      8  C   UNL A   1      31.695  25.185  25.658  1.00  0.00     0.067 C 
ATOM      9  C   UNL A   1      30.939  25.112  24.536  1.00  0.00     0.024 C 
BRANCH   9  10
ATOM     10  C   UNL A   1      30.258  26.221  23.816  1.00  0.00    -0.025 A 
ATOM     11  C   UNL A   1      28.909  28.522  22.923  1.00  0.00     0.067 A 
ATOM     12  C   UNL A   1      30.264  28.363  22.647  1.00  0.00     0.021 A 
ATOM     13  C   UNL A   1      28.187  27.488  23.519  1.00  0.00     0.021 A 
ATOM     14  C   UNL A   1      30.919  27.201  23.062  1.00  0.00     0.009 A 
ATOM     15  C   UNL A   1      28.865  26.346  23.966  1.00  0.00     0.009 A 
BRANCH  11  16
ATOM     16  S   UNL A   1      28.122  30.062  22.528  1.00  0.00     0.175 S 
ATOM     17  C   UNL A   1      29.281  31.268  23.129  1.00  0.00     0.163 C 
ATOM     18  O   UNL A   1      26.915  30.169  23.324  1.00  0.00    -0.224 OA
ATOM     19  O   UNL A   1      28.075  30.173  21.082  1.00  0.00    -0.224 OA
ENDBRANCH  11  16
ENDBRANCH   9  10
BRANCH   8  20
ATOM     20  C   UNL A   1      32.120  26.458  26.273  1.00  0.00    -0.011 A 
ATOM     21  C   UNL A   1      33.426  26.928  26.054  1.00  0.00     0.013 A 
ATOM     22  C   UNL A   1      31.227  27.236  27.018  1.00  0.00     0.013 A 
ATOM     23  C   UNL A   1      33.819  28.176  26.533  1.00  0.00     0.047 A 
ATOM     24  C   UNL A   1      31.618  28.491  27.490  1.00  0.00     0.047 A 
ATOM     25  C   UNL A   1      32.907  28.953  27.232  1.00  0.00     0.115 A 
BRANCH  25  26
ATOM     26  O   UNL A   1      33.313  30.190  27.638  1.00  0.00    -0.508 OA
ATOM     27  H   UNL A   1      34.131  30.292  28.083  1.00  0.00     0.293 HD
ENDBRANCH  25  26
ENDBRANCH   8  20
ENDBRANCH   6   8
ENDBRANCH   5   6
ENDBRANCH   4   5
ENDBRANCH   3   4
ENDBRANCH   2   3
ENDBRANCH   1   2
BRANCH   1  28
ATOM     28  C   UNL A   1      37.102  20.205  24.964  1.00  0.00     0.261 C 
BRANCH  28  29
ATOM     29  O   UNL A   1      37.931  21.336  25.260  1.00  0.00    -0.460 OA
BRANCH  29  30
ATOM     30  C   UNL A   1      39.042  21.031  25.975  1.00  0.00     0.338 C 
ATOM     31  O   UNL A   1      39.610  19.947  26.022  1.00  0.00    -0.246 OA
BRANCH  30  32
ATOM     32  C   UNL A   1      39.610  22.257  26.559  1.00  0.00     0.060 A 
ATOM     33  C   UNL A   1      39.099  23.482  26.110  1.00  0.00     0.016 A 
ATOM     34  C   UNL A   1      40.653  22.214  27.486  1.00  0.00     0.016 A 
ATOM     35  C   UNL A   1      39.663  24.674  26.554  1.00  0.00     0.010 A 
ATOM     36  C   UNL A   1      41.223  23.415  27.923  1.00  0.00     0.010 A 
ATOM     37  C   UNL A   1      40.752  24.646  27.434  1.00  0.00    -0.014 A 
BRANCH  37  38
ATOM     38  C   UNL A   1      41.493  25.900  27.713  1.00  0.00     0.031 A 
ATOM     39  C   UNL A   1      40.783  27.019  28.423  1.00  0.00     0.074 A 
ATOM     40  C   UNL A   1      42.788  26.022  27.371  1.00  0.00     0.049 A 
ATOM     41  N   UNL A   1      41.216  28.213  28.734  1.00  0.00    -0.248 NA
ATOM     42  C   UNL A   1      39.394  26.755  28.827  1.00  0.00     0.031 C 
ATOM     43  C   UNL A   1      43.588  24.983  26.724  1.00  0.00     0.029 A 
ATOM     44  N   UNL A   1      43.655  27.074  27.516  1.00  0.00    -0.354 N 
ATOM     45  C   UNL A   1      40.151  28.847  29.366  1.00  0.00     0.074 A 
ATOM     46  C   UNL A   1      39.041  27.918  29.354  1.00  0.00     0.031 C 
ATOM     47  C   UNL A   1      44.830  25.455  26.520  1.00  0.00     0.029 A 
ATOM     48  C   UNL A   1      44.900  26.840  26.982  1.00  0.00     0.049 A 
ATOM     49  H   UNL A   1      43.409  27.918  27.959  1.00  0.00     0.167 HD
ATOM     50  C   UNL A   1      40.108  30.088  29.913  1.00  0.00     0.034 A 
ATOM     51  C   UNL A   1      45.963  27.659  26.856  1.00  0.00     0.034 A 
ATOM     52  C   UNL A   1      41.225  31.003  29.904  1.00  0.00     0.049 A 
ATOM     53  C   UNL A   1      45.866  29.068  27.392  1.00  0.00     0.074 A 
ATOM     54  C   UNL A   1      41.302  32.274  30.445  1.00  0.00     0.029 A 
ATOM     55  N   UNL A   1      42.456  30.749  29.311  1.00  0.00    -0.354 N 
ATOM     56  N   UNL A   1      44.858  29.656  27.997  1.00  0.00    -0.248 NA
ATOM     57  C   UNL A   1      47.051  29.919  27.236  1.00  0.00     0.031 C 
ATOM     58  C   UNL A   1      42.545  32.819  30.106  1.00  0.00     0.029 A 
ATOM     59  C   UNL A   1      43.283  31.857  29.436  1.00  0.00     0.049 A 
ATOM     60  H   UNL A   1      42.707  29.908  28.867  1.00  0.00     0.167 HD
ATOM     61  C   UNL A   1      45.303  30.935  28.322  1.00  0.00     0.074 A 
ATOM     62  C   UNL A   1      46.672  31.026  27.857  1.00  0.00     0.031 C 
ATOM     63  C   UNL A   1      44.643  31.941  28.954  1.00  0.00     0.034 A 
BRANCH  50  64
ATOM     64  C   UNL A   1      38.796  30.539  30.508  1.00  0.00     0.023 A 
ATOM     65  C   UNL A   1      37.793  31.144  29.729  1.00  0.00     0.031 A 
ATOM     66  C   UNL A   1      38.559  30.397  31.887  1.00  0.00     0.131 A 
ATOM     67  C   UNL A   1      36.638  31.652  30.345  1.00  0.00     0.055 A 
ATOM     68  C   UNL A   1      37.370  30.827  32.480  1.00  0.00     0.041 A 
ATOM     69  F   UNL A   1      39.487  29.851  32.687  1.00  0.00    -0.206 F 
ATOM     70  C   UNL A   1      36.408  31.475  31.710  1.00  0.00     0.022 A 
BRANCH  67  71
ATOM     71  S   UNL A   1      35.517  32.689  29.364  1.00  0.00     0.124 S 
ATOM     72  O   UNL A   1      34.256  32.520  30.082  1.00  0.00    -0.237 OA
ATOM     73  O   UNL A   1      36.139  34.004  29.463  1.00  0.00    -0.237 OA
ATOM     74  O   UNL A   1      35.556  32.077  28.038  1.00  0.00    -0.744 OA
ENDBRANCH  67  71
ENDBRANCH  50  64
BRANCH  51  75
ATOM     75  C   UNL A   1      47.195  27.192  26.159  1.00  0.00     0.023 A 
ATOM     76  C   UNL A   1      48.193  26.477  26.841  1.00  0.00     0.031 A 
ATOM     77  C   UNL A   1      47.413  27.494  24.802  1.00  0.00     0.131 A 
ATOM     78  C   UNL A   1      49.379  26.127  26.176  1.00  0.00     0.055 A 
ATOM     79  C   UNL A   1      48.570  27.096  24.132  1.00  0.00     0.041 A 
ATOM     80  F   UNL A   1      46.494  28.178  24.102  1.00  0.00    -0.206 F 
ATOM     81  C   UNL A   1      49.568  26.417  24.823  1.00  0.00     0.022 A 
BRANCH  78  82
ATOM     82  S   UNL A   1      50.714  25.353  27.132  1.00  0.00     0.124 S 
ATOM     83  O   UNL A   1      51.159  26.461  27.969  1.00  0.00    -0.237 OA
ATOM     84  O   UNL A   1      50.010  24.273  27.815  1.00  0.00    -0.237 OA
ATOM     85  O   UNL A   1      51.661  24.925  26.106  1.00  0.00    -0.744 OA
ENDBRANCH  78  82
ENDBRANCH  51  75
BRANCH  63  86
ATOM     86  C   UNL A   1      45.416  33.212  29.220  1.00  0.00     0.023 A 
ATOM     87  C   UNL A   1      45.474  34.258  28.282  1.00  0.00     0.031 A 
ATOM     88  C   UNL A   1      46.113  33.373  30.432  1.00  0.00     0.131 A 
ATOM     89  C   UNL A   1      46.257  35.391  28.547  1.00  0.00     0.055 A 
ATOM     90  C   UNL A   1      46.835  34.532  30.718  1.00  0.00     0.041 A 
ATOM     91  F   UNL A   1      46.098  32.406  31.363  1.00  0.00    -0.206 F 
ATOM     92  C   UNL A   1      46.922  35.544  29.766  1.00  0.00     0.022 A 
BRANCH  89  93
ATOM     93  S   UNL A   1      46.481  36.623  27.233  1.00  0.00     0.124 S 
ATOM     94  O   UNL A   1      47.687  37.317  27.672  1.00  0.00    -0.237 OA
ATOM     95  O   UNL A   1      46.622  35.789  26.044  1.00  0.00    -0.237 OA
ATOM     96  O   UNL A   1      45.253  37.415  27.293  1.00  0.00    -0.744 OA
ENDBRANCH  89  93
ENDBRANCH  63  86
ENDBRANCH  37  38
ENDBRANCH  30  32
ENDBRANCH  29  30
ENDBRANCH  28  29
ENDBRANCH   1  28
TORSDOF 21
ENDMDL
MODEL 2
REMARK VINA RESULT:     -12.1      0.580      7.612
REMARK SMILES CS(=O)(=O)c1ccc(/C=C(/C(=O)OCCOCCOC(=O)c2ccc(-c3c4nc(c(-c5cc(S(=O)(=O)[O-])ccc5F)c5ccc([nH]5)c(-c5cc(S(=O)(=O)[O-])ccc5F)c5nc(c(-c6cc(S(=O)(=O)[O-])ccc6F)c6ccc3[nH]6)C=C5)C=C4)cc2)c2ccc(O)cc2)cc1
REMARK SMILES IDX 17 1 16 2 15 3 14 4 13 5 11 6 12 7 10 8 9 9 8 10 5 11 6 12
REMARK SMILES IDX 93 13 7 14 92 15 2 16 1 17 3 18 4 19 85 20 86 21 91 22 87 23
REMARK SMILES IDX 90 24 88 25 89 26 18 28 19 29 20 30 21 31 22 32 23 33 84 34
REMARK SMILES IDX 24 35 83 36 25 37 26 38 27 39 77 40 28 41 82 42 76 43 78 44
REMARK SMILES IDX 29 45 81 46 75 47 74 48 30 50 62 51 42 52 61 53 43 54 46 55
REMARK SMILES IDX 60 56 79 57 44 58 45 59 59 61 80 62 47 63 31 64 32 65 40 66
REMARK SMILES IDX 33 67 39 68 41 69 38 70 34 71 35 72 36 73 37 74 63 75 64 76
REMARK SMILES IDX 72 77 65 78 71 79 73 80 70 81 66 82 67 83 68 84 69 85 48 86
REMARK SMILES IDX 49 87 57 88 50 89 56 90 58 91 55 92 51 93 52 94 53 95 54 96
REMARK H PARENT 89 27 78 49 46 60
REMARK Flexibility Score: inf
ROOT
ATOM      1  C   UNL A   1      36.128  19.962  24.894  1.00  0.00     0.202 C 
ENDROOT
BRANCH   1   2
ATOM      2  O   UNL A   1      35.407  21.188  24.975  1.00  0.00    -0.374 OA
BRANCH   2   3
ATOM      3  C   UNL A   1      34.663  21.442  26.166  1.00  0.00     0.202 C 
BRANCH   3   4
ATOM      4  C   UNL A   1      34.641  22.879  26.700  1.00  0.00     0.261 C 
BRANCH   4   5
ATOM      5  O   UNL A   1      33.954  23.775  25.806  1.00  0.00    -0.460 OA
BRANCH   5   6
ATOM      6  C   UNL A   1      32.686  24.085  26.177  1.00  0.00     0.338 C 
ATOM      7  O   UNL A   1      32.044  23.528  27.058  1.00  0.00    -0.246 OA
BRANCH   6   8
ATOM      8  C   UNL A   1      32.167  25.299  25.465  1.00  0.00     0.067 C 
ATOM      9  C   UNL A   1      31.427  25.175  24.337  1.00  0.00     0.024 C 
BRANCH   9  10
ATOM     10  C   UNL A   1      30.624  26.220  23.649  1.00  0.00    -0.025 A 
ATOM     11  C   UNL A   1      29.080  28.416  22.809  1.00  0.00     0.067 A 
ATOM     12  C   UNL A   1      30.408  28.309  22.407  1.00  0.00     0.021 A 
ATOM     13  C   UNL A   1      28.473  27.376  23.513  1.00  0.00     0.021 A 
ATOM     14  C   UNL A   1      31.158  27.198  22.797  1.00  0.00     0.009 A 
ATOM     15  C   UNL A   1      29.248  26.286  23.932  1.00  0.00     0.009 A 
BRANCH  11  16
ATOM     16  S   UNL A   1      28.182  29.901  22.438  1.00  0.00     0.175 S 
ATOM     17  C   UNL A   1      29.155  31.164  23.223  1.00  0.00     0.163 C 
ATOM     18  O   UNL A   1      26.903  29.837  23.120  1.00  0.00    -0.224 OA
ATOM     19  O   UNL A   1      28.254  30.111  21.004  1.00  0.00    -0.224 OA
ENDBRANCH  11  16
ENDBRANCH   9  10
BRANCH   8  20
ATOM     20  C   UNL A   1      32.442  26.593  26.122  1.00  0.00    -0.011 A 
ATOM     21  C   UNL A   1      33.679  27.225  25.912  1.00  0.00     0.013 A 
ATOM     22  C   UNL A   1      31.468  27.231  26.898  1.00  0.00     0.013 A 
ATOM     23  C   UNL A   1      33.923  28.495  26.432  1.00  0.00     0.047 A 
ATOM     24  C   UNL A   1      31.709  28.507  27.412  1.00  0.00     0.047 A 
ATOM     25  C   UNL A   1      32.930  29.131  27.163  1.00  0.00     0.115 A 
BRANCH  25  26
ATOM     26  O   UNL A   1      33.187  30.394  27.609  1.00  0.00    -0.508 OA
ATOM     27  H   UNL A   1      33.047  30.610  28.510  1.00  0.00     0.293 HD
ENDBRANCH  25  26
ENDBRANCH   8  20
ENDBRANCH   6   8
ENDBRANCH   5   6
ENDBRANCH   4   5
ENDBRANCH   3   4
ENDBRANCH   2   3
ENDBRANCH   1   2
BRANCH   1  28
ATOM     28  C   UNL A   1      37.661  20.003  24.886  1.00  0.00     0.261 C 
BRANCH  28  29
ATOM     29  O   UNL A   1      38.203  21.212  25.433  1.00  0.00    -0.460 OA
BRANCH  29  30
ATOM     30  C   UNL A   1      39.360  21.035  26.117  1.00  0.00     0.338 C 
ATOM     31  O   UNL A   1      40.043  20.018  26.155  1.00  0.00    -0.246 OA
BRANCH  30  32
ATOM     32  C   UNL A   1      39.810  22.319  26.676  1.00  0.00     0.060 A 
ATOM     33  C   UNL A   1      39.187  23.482  26.204  1.00  0.00     0.016 A 
ATOM     34  C   UNL A   1      40.852  22.394  27.603  1.00  0.00     0.016 A 
ATOM     35  C   UNL A   1      39.635  24.730  26.624  1.00  0.00     0.010 A 
ATOM     36  C   UNL A   1      41.306  23.650  28.016  1.00  0.00     0.010 A 
ATOM     37  C   UNL A   1      40.722  24.822  27.503  1.00  0.00    -0.014 A 
BRANCH  37  38
ATOM     38  C   UNL A   1      41.341  26.146  27.757  1.00  0.00     0.031 A 
ATOM     39  C   UNL A   1      42.742  26.396  27.271  1.00  0.00     0.074 A 
ATOM     40  C   UNL A   1      40.651  27.118  28.380  1.00  0.00     0.049 A 
ATOM     41  N   UNL A   1      43.495  27.455  27.414  1.00  0.00    -0.248 NA
ATOM     42  C   UNL A   1      43.379  25.297  26.530  1.00  0.00     0.031 C 
ATOM     43  C   UNL A   1      39.272  27.001  28.850  1.00  0.00     0.029 A 
ATOM     44  N   UNL A   1      41.019  28.392  28.727  1.00  0.00    -0.354 N 
ATOM     45  C   UNL A   1      44.699  27.149  26.787  1.00  0.00     0.074 A 
ATOM     46  C   UNL A   1      44.586  25.791  26.300  1.00  0.00     0.031 C 
ATOM     47  C   UNL A   1      38.912  28.157  29.433  1.00  0.00     0.029 A 
ATOM     48  C   UNL A   1      40.047  29.077  29.416  1.00  0.00     0.049 A 
ATOM     49  H   UNL A   1      41.897  28.779  28.506  1.00  0.00     0.167 HD
ATOM     50  C   UNL A   1      45.792  27.935  26.626  1.00  0.00     0.034 A 
ATOM     51  C   UNL A   1      40.081  30.297  29.990  1.00  0.00     0.034 A 
ATOM     52  C   UNL A   1      45.886  29.285  27.129  1.00  0.00     0.049 A 
ATOM     53  C   UNL A   1      41.340  31.122  29.876  1.00  0.00     0.074 A 
ATOM     54  C   UNL A   1      46.936  30.179  27.007  1.00  0.00     0.029 A 
ATOM     55  N   UNL A   1      44.899  29.931  27.865  1.00  0.00    -0.354 N 
ATOM     56  N   UNL A   1      42.470  30.830  29.272  1.00  0.00    -0.248 NA
ATOM     57  C   UNL A   1      41.326  32.445  30.514  1.00  0.00     0.031 C 
ATOM     58  C   UNL A   1      46.618  31.329  27.738  1.00  0.00     0.029 A 
ATOM     59  C   UNL A   1      45.333  31.195  28.239  1.00  0.00     0.049 A 
ATOM     60  H   UNL A   1      44.021  29.548  28.088  1.00  0.00     0.167 HD
ATOM     61  C   UNL A   1      43.287  31.947  29.430  1.00  0.00     0.074 A 
ATOM     62  C   UNL A   1      42.515  32.920  30.174  1.00  0.00     0.031 C 
ATOM     63  C   UNL A   1      44.557  32.152  28.994  1.00  0.00     0.034 A 
BRANCH  50  64
ATOM     64  C   UNL A   1      46.987  27.328  25.929  1.00  0.00     0.023 A 
ATOM     65  C   UNL A   1      47.989  26.637  26.633  1.00  0.00     0.031 A 
ATOM     66  C   UNL A   1      47.145  27.476  24.539  1.00  0.00     0.131 A 
ATOM     67  C   UNL A   1      49.137  26.190  25.960  1.00  0.00     0.055 A 
ATOM     68  C   UNL A   1      48.249  26.954  23.862  1.00  0.00     0.041 A 
ATOM     69  F   UNL A   1      46.236  28.147  23.815  1.00  0.00    -0.206 F 
ATOM     70  C   UNL A   1      49.262  26.321  24.576  1.00  0.00     0.022 A 
BRANCH  67  71
ATOM     71  S   UNL A   1      50.536  25.581  26.943  1.00  0.00     0.124 S 
ATOM     72  O   UNL A   1      51.491  25.215  25.900  1.00  0.00    -0.237 OA
ATOM     73  O   UNL A   1      50.883  26.745  27.749  1.00  0.00    -0.237 OA
ATOM     74  O   UNL A   1      49.971  24.454  27.682  1.00  0.00    -0.744 OA
ENDBRANCH  67  71
ENDBRANCH  50  64
BRANCH  51  75
ATOM     75  C   UNL A   1      38.907  30.798  30.761  1.00  0.00     0.023 A 
ATOM     76  C   UNL A   1      37.802  31.375  30.116  1.00  0.00     0.031 A 
ATOM     77  C   UNL A   1      38.895  30.748  32.167  1.00  0.00     0.131 A 
ATOM     78  C   UNL A   1      36.752  31.915  30.875  1.00  0.00     0.055 A 
ATOM     79  C   UNL A   1      37.824  31.237  32.916  1.00  0.00     0.041 A 
ATOM     80  F   UNL A   1      39.927  30.210  32.837  1.00  0.00    -0.206 F 
ATOM     81  C   UNL A   1      36.749  31.836  32.270  1.00  0.00     0.022 A 
BRANCH  78  82
ATOM     82  S   UNL A   1      35.423  32.800  30.014  1.00  0.00     0.124 S 
ATOM     83  O   UNL A   1      34.398  32.874  31.050  1.00  0.00    -0.237 OA
ATOM     84  O   UNL A   1      36.073  34.057  29.663  1.00  0.00    -0.237 OA
ATOM     85  O   UNL A   1      35.108  31.926  28.886  1.00  0.00    -0.744 OA
ENDBRANCH  78  82
ENDBRANCH  51  75
BRANCH  63  86
ATOM     86  C   UNL A   1      45.172  33.504  29.273  1.00  0.00     0.023 A 
ATOM     87  C   UNL A   1      44.960  34.608  28.427  1.00  0.00     0.031 A 
ATOM     88  C   UNL A   1      45.991  33.687  30.403  1.00  0.00     0.131 A 
ATOM     89  C   UNL A   1      45.605  35.825  28.693  1.00  0.00     0.055 A 
ATOM     90  C   UNL A   1      46.574  34.920  30.698  1.00  0.00     0.041 A 
ATOM     91  F   UNL A   1      46.233  32.669  31.244  1.00  0.00    -0.206 F 
ATOM     92  C   UNL A   1      46.395  35.994  29.832  1.00  0.00     0.022 A 
BRANCH  89  93
ATOM     93  S   UNL A   1      45.481  37.161  27.471  1.00  0.00     0.124 S 
ATOM     94  O   UNL A   1      46.469  36.755  26.477  1.00  0.00    -0.237 OA
ATOM     95  O   UNL A   1      44.085  37.075  27.055  1.00  0.00    -0.237 OA
ATOM     96  O   UNL A   1      45.826  38.359  28.236  1.00  0.00    -0.744 OA
ENDBRANCH  89  93
ENDBRANCH  63  86
ENDBRANCH  37  38
ENDBRANCH  30  32
ENDBRANCH  29  30
ENDBRANCH  28  29
ENDBRANCH   1  28
TORSDOF 21
ENDMDL
MODEL 3
REMARK VINA RESULT:     -11.9      5.219      8.162
REMARK SMILES CS(=O)(=O)c1ccc(/C=C(/C(=O)OCCOCCOC(=O)c2ccc(-c3c4nc(c(-c5cc(S(=O)(=O)[O-])ccc5F)c5ccc([nH]5)c(-c5cc(S(=O)(=O)[O-])ccc5F)c5nc(c(-c6cc(S(=O)(=O)[O-])ccc6F)c6ccc3[nH]6)C=C5)C=C4)cc2)c2ccc(O)cc2)cc1
REMARK SMILES IDX 17 1 16 2 15 3 14 4 13 5 11 6 12 7 10 8 9 9 8 10 5 11 6 12
REMARK SMILES IDX 93 13 7 14 92 15 2 16 1 17 3 18 4 19 85 20 86 21 91 22 87 23
REMARK SMILES IDX 90 24 88 25 89 26 18 28 19 29 20 30 21 31 22 32 23 33 84 34
REMARK SMILES IDX 24 35 83 36 25 37 26 38 27 39 77 40 28 41 82 42 76 43 78 44
REMARK SMILES IDX 29 45 81 46 75 47 74 48 30 50 62 51 42 52 61 53 43 54 46 55
REMARK SMILES IDX 60 56 79 57 44 58 45 59 59 61 80 62 47 63 31 64 32 65 40 66
REMARK SMILES IDX 33 67 39 68 41 69 38 70 34 71 35 72 36 73 37 74 63 75 64 76
REMARK SMILES IDX 72 77 65 78 71 79 73 80 70 81 66 82 67 83 68 84 69 85 48 86
REMARK SMILES IDX 49 87 57 88 50 89 56 90 58 91 55 92 51 93 52 94 53 95 54 96
REMARK H PARENT 89 27 78 49 46 60
REMARK Flexibility Score: inf
ROOT
ATOM      1  C   UNL A   1      31.519  29.728  25.775  1.00  0.00     0.202 C 
ENDROOT
BRANCH   1   2
ATOM      2  O   UNL A   1      32.035  29.262  24.532  1.00  0.00    -0.374 OA
BRANCH   2   3
ATOM      3  C   UNL A   1      33.453  29.183  24.391  1.00  0.00     0.202 C 
BRANCH   3   4
ATOM      4  C   UNL A   1      34.030  27.960  23.669  1.00  0.00     0.261 C 
BRANCH   4   5
ATOM      5  O   UNL A   1      33.113  26.850  23.671  1.00  0.00    -0.460 OA
BRANCH   5   6
ATOM      6  C   UNL A   1      33.362  25.907  22.728  1.00  0.00     0.338 C 
ATOM      7  O   UNL A   1      33.661  26.125  21.561  1.00  0.00    -0.246 OA
BRANCH   6   8
ATOM      8  C   UNL A   1      33.355  24.519  23.297  1.00  0.00     0.067 C 
ATOM      9  C   UNL A   1      32.254  23.736  23.196  1.00  0.00     0.024 C 
BRANCH   9  10
ATOM     10  C   UNL A   1      32.139  22.277  23.460  1.00  0.00    -0.025 A 
ATOM     11  C   UNL A   1      32.409  19.497  23.796  1.00  0.00     0.067 A 
ATOM     12  C   UNL A   1      32.320  20.324  24.912  1.00  0.00     0.021 A 
ATOM     13  C   UNL A   1      32.230  20.023  22.517  1.00  0.00     0.021 A 
ATOM     14  C   UNL A   1      32.149  21.699  24.738  1.00  0.00     0.009 A 
ATOM     15  C   UNL A   1      32.101  21.409  22.355  1.00  0.00     0.009 A 
BRANCH  11  16
ATOM     16  S   UNL A   1      32.778  17.776  24.023  1.00  0.00     0.175 S 
ATOM     17  C   UNL A   1      34.498  17.792  24.468  1.00  0.00     0.163 C 
ATOM     18  O   UNL A   1      32.656  17.116  22.738  1.00  0.00    -0.224 OA
ATOM     19  O   UNL A   1      32.025  17.314  25.174  1.00  0.00    -0.224 OA
ENDBRANCH  11  16
ENDBRANCH   9  10
BRANCH   8  20
ATOM     20  C   UNL A   1      34.633  24.058  23.876  1.00  0.00    -0.011 A 
ATOM     21  C   UNL A   1      35.513  23.298  23.087  1.00  0.00     0.013 A 
ATOM     22  C   UNL A   1      35.011  24.419  25.173  1.00  0.00     0.013 A 
ATOM     23  C   UNL A   1      36.769  22.941  23.572  1.00  0.00     0.047 A 
ATOM     24  C   UNL A   1      36.275  24.069  25.656  1.00  0.00     0.047 A 
ATOM     25  C   UNL A   1      37.146  23.344  24.845  1.00  0.00     0.115 A 
BRANCH  25  26
ATOM     26  O   UNL A   1      38.403  23.021  25.262  1.00  0.00    -0.508 OA
ATOM     27  H   UNL A   1      38.525  22.563  26.070  1.00  0.00     0.293 HD
ENDBRANCH  25  26
ENDBRANCH   8  20
ENDBRANCH   6   8
ENDBRANCH   5   6
ENDBRANCH   4   5
ENDBRANCH   3   4
ENDBRANCH   2   3
ENDBRANCH   1   2
BRANCH   1  28
ATOM     28  C   UNL A   1      32.053  31.045  26.352  1.00  0.00     0.261 C 
BRANCH  28  29
ATOM     29  O   UNL A   1      32.906  30.867  27.489  1.00  0.00    -0.460 OA
BRANCH  29  30
ATOM     30  C   UNL A   1      33.756  31.900  27.706  1.00  0.00     0.338 C 
ATOM     31  O   UNL A   1      33.464  33.088  27.780  1.00  0.00    -0.246 OA
BRANCH  30  32
ATOM     32  C   UNL A   1      35.092  31.384  28.044  1.00  0.00     0.060 A 
ATOM     33  C   UNL A   1      35.225  30.000  28.214  1.00  0.00     0.016 A 
ATOM     34  C   UNL A   1      36.181  32.236  28.240  1.00  0.00     0.016 A 
ATOM     35  C   UNL A   1      36.441  29.464  28.627  1.00  0.00     0.010 A 
ATOM     36  C   UNL A   1      37.399  31.695  28.665  1.00  0.00     0.010 A 
ATOM     37  C   UNL A   1      37.523  30.312  28.891  1.00  0.00    -0.014 A 
BRANCH  37  38
ATOM     38  C   UNL A   1      38.731  29.764  29.554  1.00  0.00     0.031 A 
ATOM     39  C   UNL A   1      39.102  30.271  30.919  1.00  0.00     0.074 A 
ATOM     40  C   UNL A   1      39.463  28.804  28.960  1.00  0.00     0.049 A 
ATOM     41  N   UNL A   1      40.131  29.968  31.667  1.00  0.00    -0.248 NA
ATOM     42  C   UNL A   1      38.192  31.260  31.515  1.00  0.00     0.031 C 
ATOM     43  C   UNL A   1      39.168  28.205  27.659  1.00  0.00     0.029 A 
ATOM     44  N   UNL A   1      40.607  28.170  29.372  1.00  0.00    -0.354 N 
ATOM     45  C   UNL A   1      39.996  30.734  32.821  1.00  0.00     0.074 A 
ATOM     46  C   UNL A   1      38.809  31.543  32.652  1.00  0.00     0.031 C 
ATOM     47  C   UNL A   1      40.114  27.293  27.377  1.00  0.00     0.029 A 
ATOM     48  C   UNL A   1      41.102  27.275  28.453  1.00  0.00     0.049 A 
ATOM     49  H   UNL A   1      41.034  28.339  30.243  1.00  0.00     0.167 HD
ATOM     50  C   UNL A   1      40.787  30.750  33.923  1.00  0.00     0.034 A 
ATOM     51  C   UNL A   1      42.237  26.548  28.468  1.00  0.00     0.034 A 
ATOM     52  C   UNL A   1      41.974  29.941  34.066  1.00  0.00     0.049 A 
ATOM     53  C   UNL A   1      43.152  26.648  29.666  1.00  0.00     0.074 A 
ATOM     54  C   UNL A   1      42.839  29.862  35.144  1.00  0.00     0.029 A 
ATOM     55  N   UNL A   1      42.473  29.081  33.094  1.00  0.00    -0.354 N 
ATOM     56  N   UNL A   1      43.011  27.366  30.757  1.00  0.00    -0.248 NA
ATOM     57  C   UNL A   1      44.372  25.833  29.638  1.00  0.00     0.031 C 
ATOM     58  C   UNL A   1      43.901  29.022  34.792  1.00  0.00     0.029 A 
ATOM     59  C   UNL A   1      43.655  28.501  33.531  1.00  0.00     0.049 A 
ATOM     60  H   UNL A   1      42.050  28.909  32.222  1.00  0.00     0.167 HD
ATOM     61  C   UNL A   1      44.110  27.063  31.558  1.00  0.00     0.074 A 
ATOM     62  C   UNL A   1      44.894  26.088  30.829  1.00  0.00     0.031 C 
ATOM     63  C   UNL A   1      44.437  27.540  32.787  1.00  0.00     0.034 A 
BRANCH  50  64
ATOM     64  C   UNL A   1      40.422  31.716  35.026  1.00  0.00     0.023 A 
ATOM     65  C   UNL A   1      39.499  31.383  36.033  1.00  0.00     0.031 A 
ATOM     66  C   UNL A   1      40.979  33.008  35.047  1.00  0.00     0.131 A 
ATOM     67  C   UNL A   1      39.104  32.351  36.969  1.00  0.00     0.055 A 
ATOM     68  C   UNL A   1      40.645  33.939  36.033  1.00  0.00     0.041 A 
ATOM     69  F   UNL A   1      41.845  33.395  34.098  1.00  0.00    -0.206 F 
ATOM     70  C   UNL A   1      39.690  33.618  36.992  1.00  0.00     0.022 A 
BRANCH  67  71
ATOM     71  S   UNL A   1      37.698  31.983  38.056  1.00  0.00     0.124 S 
ATOM     72  O   UNL A   1      38.303  32.124  39.379  1.00  0.00    -0.237 OA
ATOM     73  O   UNL A   1      36.734  33.011  37.681  1.00  0.00    -0.237 OA
ATOM     74  O   UNL A   1      37.330  30.617  37.690  1.00  0.00    -0.744 OA
ENDBRANCH  67  71
ENDBRANCH  50  64
BRANCH  51  75
ATOM     75  C   UNL A   1      42.601  25.695  27.300  1.00  0.00     0.023 A 
ATOM     76  C   UNL A   1      42.259  24.334  27.256  1.00  0.00     0.031 A 
ATOM     77  C   UNL A   1      43.339  26.224  26.225  1.00  0.00     0.131 A 
ATOM     78  C   UNL A   1      42.691  23.540  26.182  1.00  0.00     0.055 A 
ATOM     79  C   UNL A   1      43.718  25.443  25.133  1.00  0.00     0.041 A 
ATOM     80  F   UNL A   1      43.694  27.519  26.217  1.00  0.00    -0.206 F 
ATOM     81  C   UNL A   1      43.404  24.088  25.113  1.00  0.00     0.022 A 
BRANCH  78  82
ATOM     82  S   UNL A   1      42.375  21.754  26.240  1.00  0.00     0.124 S 
ATOM     83  O   UNL A   1      43.505  21.230  25.481  1.00  0.00    -0.237 OA
ATOM     84  O   UNL A   1      42.387  21.491  27.675  1.00  0.00    -0.237 OA
ATOM     85  O   UNL A   1      41.072  21.619  25.594  1.00  0.00    -0.744 OA
ENDBRANCH  78  82
ENDBRANCH  51  75
BRANCH  63  86
ATOM     86  C   UNL A   1      45.677  26.974  33.439  1.00  0.00     0.023 A 
ATOM     87  C   UNL A   1      45.661  25.756  34.140  1.00  0.00     0.031 A 
ATOM     88  C   UNL A   1      46.896  27.675  33.362  1.00  0.00     0.131 A 
ATOM     89  C   UNL A   1      46.823  25.304  34.783  1.00  0.00     0.055 A 
ATOM     90  C   UNL A   1      48.065  27.185  33.946  1.00  0.00     0.041 A 
ATOM     91  F   UNL A   1      46.972  28.845  32.709  1.00  0.00    -0.206 F 
ATOM     92  C   UNL A   1      48.029  26.000  34.675  1.00  0.00     0.022 A 
BRANCH  89  93
ATOM     93  S   UNL A   1      46.715  23.842  35.853  1.00  0.00     0.124 S 
ATOM     94  O   UNL A   1      45.637  24.213  36.764  1.00  0.00    -0.237 OA
ATOM     95  O   UNL A   1      46.407  22.781  34.900  1.00  0.00    -0.237 OA
ATOM     96  O   UNL A   1      48.042  23.762  36.462  1.00  0.00    -0.744 OA
ENDBRANCH  89  93
ENDBRANCH  63  86
ENDBRANCH  37  38
ENDBRANCH  30  32
ENDBRANCH  29  30
ENDBRANCH  28  29
ENDBRANCH   1  28
TORSDOF 21
ENDMDL
