MODEL 1
REMARK VINA RESULT:      -9.7      0.000      0.000
REMARK SMILES O=C(OCCOCCOC(=O)[C@@]1([NH2+]C2CC2)CCC[C@@H](n2cncn2)C1)c1ccc(-c2c3nc(c(-c4cc(S(=O)(=O)[O-])ccc4F)c4ccc([nH]4)c(-c4cc(S(=O)(=O)[O-])ccc4F)c4nc(c(-c5cc(S(=O)(=O)[O-])ccc5F)c5ccc2[nH]5)C=C4)C=C3)cc1
REMARK SMILES IDX 5 1 4 2 3 3 2 4 1 5 27 6 28 7 89 8 29 9 88 10 30 11 31 12
REMARK SMILES IDX 32 13 82 14 33 15 87 16 81 17 83 18 34 19 86 20 80 21 79 22
REMARK SMILES IDX 35 24 67 25 47 26 66 27 48 28 51 29 65 30 84 31 49 32 50 33
REMARK SMILES IDX 64 35 85 36 52 37 36 38 37 39 45 40 38 41 44 42 46 43 43 44
REMARK SMILES IDX 39 45 40 46 41 47 42 48 68 49 69 50 77 51 70 52 76 53 78 54
REMARK SMILES IDX 75 55 71 56 72 57 73 58 74 59 53 60 54 61 62 62 55 63 61 64
REMARK SMILES IDX 63 65 60 66 56 67 57 68 58 69 59 70 6 71 7 72 8 73 9 74
REMARK SMILES IDX 10 75 11 76 12 77 17 78 26 79 18 80 20 81 19 82 13 83 14 86
REMARK SMILES IDX 15 87 16 88 21 89 22 90 25 91 23 92 24 93
REMARK H PARENT 83 23 51 34 13 84 13 85
REMARK Flexibility Score: inf
ROOT
ATOM      1  C   UNL A   1      42.439  21.899  25.836  1.00  0.00     0.202 C 
ENDROOT
BRANCH   1   2
ATOM      2  C   UNL A   1      41.949  21.092  27.049  1.00  0.00     0.261 C 
BRANCH   2   3
ATOM      3  O   UNL A   1      40.907  21.765  27.762  1.00  0.00    -0.460 OA
BRANCH   3   4
ATOM      4  C   UNL A   1      40.184  22.822  27.323  1.00  0.00     0.338 C 
ATOM      5  O   UNL A   1      39.116  22.601  26.746  1.00  0.00    -0.246 OA
BRANCH   4   6
ATOM      6  C   UNL A   1      40.577  24.232  27.576  1.00  0.00     0.060 A 
ATOM      7  C   UNL A   1      41.741  24.658  28.212  1.00  0.00     0.016 A 
ATOM      8  C   UNL A   1      39.639  25.197  27.182  1.00  0.00     0.016 A 
ATOM      9  C   UNL A   1      41.814  25.932  28.735  1.00  0.00     0.010 A 
ATOM     10  C   UNL A   1      39.771  26.513  27.590  1.00  0.00     0.010 A 
ATOM     11  C   UNL A   1      40.797  26.845  28.467  1.00  0.00    -0.014 A 
BRANCH  11  12
ATOM     12  C   UNL A   1      40.920  28.159  29.082  1.00  0.00     0.031 A 
ATOM     13  C   UNL A   1      42.030  28.999  28.551  1.00  0.00     0.074 A 
ATOM     14  C   UNL A   1      40.064  28.613  30.015  1.00  0.00     0.049 A 
ATOM     15  N   UNL A   1      43.029  29.513  29.191  1.00  0.00    -0.248 NA
ATOM     16  C   UNL A   1      42.110  29.159  27.089  1.00  0.00     0.031 C 
ATOM     17  C   UNL A   1      38.804  28.014  30.465  1.00  0.00     0.029 A 
ATOM     18  N   UNL A   1      40.093  29.801  30.676  1.00  0.00    -0.354 N 
ATOM     19  C   UNL A   1      43.767  30.221  28.245  1.00  0.00     0.074 A 
ATOM     20  C   UNL A   1      43.246  29.841  26.960  1.00  0.00     0.031 C 
ATOM     21  C   UNL A   1      38.074  28.953  31.102  1.00  0.00     0.029 A 
ATOM     22  C   UNL A   1      38.875  30.158  31.234  1.00  0.00     0.049 A 
ATOM     23  H   UNL A   1      40.902  30.357  30.749  1.00  0.00     0.167 HD
ATOM     24  C   UNL A   1      44.635  31.209  28.595  1.00  0.00     0.034 A 
ATOM     25  C   UNL A   1      38.519  31.387  31.678  1.00  0.00     0.034 A 
ATOM     26  C   UNL A   1      45.064  31.076  29.965  1.00  0.00     0.049 A 
ATOM     27  C   UNL A   1      39.771  32.127  31.975  1.00  0.00     0.074 A 
ATOM     28  C   UNL A   1      45.734  30.093  30.669  1.00  0.00     0.029 A 
ATOM     29  N   UNL A   1      44.495  31.886  30.921  1.00  0.00    -0.354 N 
ATOM     30  N   UNL A   1      40.606  31.776  32.917  1.00  0.00    -0.248 NA
ATOM     31  C   UNL A   1      40.338  32.970  30.933  1.00  0.00     0.031 C 
ATOM     32  C   UNL A   1      45.105  30.065  31.948  1.00  0.00     0.029 A 
ATOM     33  C   UNL A   1      44.138  31.070  31.968  1.00  0.00     0.049 A 
ATOM     34  H   UNL A   1      44.369  32.860  30.866  1.00  0.00     0.167 HD
ATOM     35  C   UNL A   1      41.867  31.988  32.380  1.00  0.00     0.074 A 
ATOM     36  C   UNL A   1      41.639  32.819  31.200  1.00  0.00     0.031 C 
ATOM     37  C   UNL A   1      42.946  31.251  32.778  1.00  0.00     0.034 A 
BRANCH  24  38
ATOM     38  C   UNL A   1      44.856  32.463  27.781  1.00  0.00     0.023 A 
ATOM     39  C   UNL A   1      46.103  32.634  27.151  1.00  0.00     0.031 A 
ATOM     40  C   UNL A   1      44.025  33.608  27.817  1.00  0.00     0.131 A 
ATOM     41  C   UNL A   1      46.503  33.894  26.669  1.00  0.00     0.055 A 
ATOM     42  C   UNL A   1      44.398  34.841  27.275  1.00  0.00     0.041 A 
ATOM     43  F   UNL A   1      42.852  33.633  28.460  1.00  0.00    -0.206 F 
ATOM     44  C   UNL A   1      45.656  34.998  26.724  1.00  0.00     0.022 A 
BRANCH  41  45
ATOM     45  S   UNL A   1      48.221  34.115  26.138  1.00  0.00     0.124 S 
ATOM     46  O   UNL A   1      48.054  34.809  24.866  1.00  0.00    -0.237 OA
ATOM     47  O   UNL A   1      48.774  34.901  27.236  1.00  0.00    -0.237 OA
ATOM     48  O   UNL A   1      48.722  32.745  26.040  1.00  0.00    -0.744 OA
ENDBRANCH  41  45
ENDBRANCH  24  38
BRANCH  25  49
ATOM     49  C   UNL A   1      37.191  32.024  31.472  1.00  0.00     0.023 A 
ATOM     50  C   UNL A   1      36.651  32.250  30.193  1.00  0.00     0.031 A 
ATOM     51  C   UNL A   1      36.329  32.233  32.575  1.00  0.00     0.131 A 
ATOM     52  C   UNL A   1      35.312  32.680  30.057  1.00  0.00     0.055 A 
ATOM     53  C   UNL A   1      35.012  32.672  32.436  1.00  0.00     0.041 A 
ATOM     54  F   UNL A   1      36.714  31.940  33.827  1.00  0.00    -0.206 F 
ATOM     55  C   UNL A   1      34.494  32.892  31.171  1.00  0.00     0.022 A 
BRANCH  52  56
ATOM     56  S   UNL A   1      34.583  32.880  28.402  1.00  0.00     0.124 S 
ATOM     57  O   UNL A   1      35.746  33.222  27.592  1.00  0.00    -0.237 OA
ATOM     58  O   UNL A   1      33.987  31.571  28.163  1.00  0.00    -0.237 OA
ATOM     59  O   UNL A   1      33.618  33.966  28.583  1.00  0.00    -0.744 OA
ENDBRANCH  52  56
ENDBRANCH  25  49
BRANCH  37  60
ATOM     60  C   UNL A   1      42.820  30.374  34.008  1.00  0.00     0.023 A 
ATOM     61  C   UNL A   1      42.269  29.071  34.013  1.00  0.00     0.031 A 
ATOM     62  C   UNL A   1      43.425  30.829  35.194  1.00  0.00     0.131 A 
ATOM     63  C   UNL A   1      42.334  28.283  35.179  1.00  0.00     0.055 A 
ATOM     64  C   UNL A   1      43.502  30.039  36.340  1.00  0.00     0.041 A 
ATOM     65  F   UNL A   1      43.998  32.044  35.243  1.00  0.00    -0.206 F 
ATOM     66  C   UNL A   1      42.952  28.762  36.339  1.00  0.00     0.022 A 
BRANCH  63  67
ATOM     67  S   UNL A   1      41.616  26.607  35.211  1.00  0.00     0.124 S 
ATOM     68  O   UNL A   1      42.723  25.753  34.798  1.00  0.00    -0.237 OA
ATOM     69  O   UNL A   1      41.185  26.474  36.600  1.00  0.00    -0.237 OA
ATOM     70  O   UNL A   1      40.518  26.688  34.244  1.00  0.00    -0.744 OA
ENDBRANCH  63  67
ENDBRANCH  37  60
ENDBRANCH  11  12
ENDBRANCH   4   6
ENDBRANCH   3   4
ENDBRANCH   2   3
ENDBRANCH   1   2
BRANCH   1  71
ATOM     71  O   UNL A   1      43.292  21.256  24.893  1.00  0.00    -0.374 OA
BRANCH  71  72
ATOM     72  C   UNL A   1      44.443  20.556  25.381  1.00  0.00     0.202 C 
BRANCH  72  73
ATOM     73  C   UNL A   1      45.818  21.136  25.052  1.00  0.00     0.261 C 
BRANCH  73  74
ATOM     74  O   UNL A   1      46.054  22.348  25.795  1.00  0.00    -0.459 OA
BRANCH  74  75
ATOM     75  C   UNL A   1      45.978  23.520  25.097  1.00  0.00     0.368 C 
ATOM     76  O   UNL A   1      45.828  23.585  23.883  1.00  0.00    -0.245 OA
BRANCH  75  77
ATOM     77  C   UNL A   1      46.209  24.738  26.036  1.00  0.00     0.196 C 
ATOM     78  C   UNL A   1      45.404  26.007  25.684  1.00  0.00     0.081 C 
ATOM     79  C   UNL A   1      45.677  24.235  27.397  1.00  0.00     0.108 C 
ATOM     80  C   UNL A   1      45.573  27.105  26.736  1.00  0.00     0.009 C 
ATOM     81  C   UNL A   1      45.763  25.266  28.534  1.00  0.00     0.116 C 
ATOM     82  C   UNL A   1      45.144  26.619  28.118  1.00  0.00     0.028 C 
BRANCH  77  83
ATOM     83  N   UNL A   1      47.659  25.028  26.192  1.00  0.00    -0.330 N 
ATOM     84  H   UNL A   1      48.114  24.132  26.369  1.00  0.00     0.347 HD
ATOM     85  H   UNL A   1      47.665  25.732  26.930  1.00  0.00     0.347 HD
BRANCH  83  86
ATOM     86  C   UNL A   1      48.427  25.679  25.127  1.00  0.00     0.183 C 
ATOM     87  C   UNL A   1      48.936  27.087  25.077  1.00  0.00     0.071 C 
ATOM     88  C   UNL A   1      49.876  25.996  25.453  1.00  0.00     0.071 C 
ENDBRANCH  83  86
ENDBRANCH  77  83
BRANCH  81  89
ATOM     89  N   UNL A   1      45.170  24.719  29.756  1.00  0.00    -0.250 N 
ATOM     90  C   UNL A   1      44.503  23.537  29.901  1.00  0.00     0.220 A 
ATOM     91  N   UNL A   1      45.235  25.369  30.933  1.00  0.00    -0.160 NA
ATOM     92  N   UNL A   1      44.088  23.410  31.140  1.00  0.00    -0.224 NA
ATOM     93  C   UNL A   1      44.549  24.549  31.730  1.00  0.00     0.246 A 
ENDBRANCH  81  89
ENDBRANCH  75  77
ENDBRANCH  74  75
ENDBRANCH  73  74
ENDBRANCH  72  73
ENDBRANCH  71  72
ENDBRANCH   1  71
TORSDOF 20
ENDMDL
MODEL 2
REMARK VINA RESULT:      -9.6      4.897     10.887
REMARK SMILES O=C(OCCOCCOC(=O)[C@@]1([NH2+]C2CC2)CCC[C@@H](n2cncn2)C1)c1ccc(-c2c3nc(c(-c4cc(S(=O)(=O)[O-])ccc4F)c4ccc([nH]4)c(-c4cc(S(=O)(=O)[O-])ccc4F)c4nc(c(-c5cc(S(=O)(=O)[O-])ccc5F)c5ccc2[nH]5)C=C4)C=C3)cc1
REMARK SMILES IDX 5 1 4 2 3 3 2 4 1 5 27 6 28 7 89 8 29 9 88 10 30 11 31 12
REMARK SMILES IDX 32 13 82 14 33 15 87 16 81 17 83 18 34 19 86 20 80 21 79 22
REMARK SMILES IDX 35 24 67 25 47 26 66 27 48 28 51 29 65 30 84 31 49 32 50 33
REMARK SMILES IDX 64 35 85 36 52 37 36 38 37 39 45 40 38 41 44 42 46 43 43 44
REMARK SMILES IDX 39 45 40 46 41 47 42 48 68 49 69 50 77 51 70 52 76 53 78 54
REMARK SMILES IDX 75 55 71 56 72 57 73 58 74 59 53 60 54 61 62 62 55 63 61 64
REMARK SMILES IDX 63 65 60 66 56 67 57 68 58 69 59 70 6 71 7 72 8 73 9 74
REMARK SMILES IDX 10 75 11 76 12 77 17 78 26 79 18 80 20 81 19 82 13 83 14 86
REMARK SMILES IDX 15 87 16 88 21 89 22 90 25 91 23 92 24 93
REMARK H PARENT 83 23 51 34 13 84 13 85
REMARK Flexibility Score: inf
ROOT
ATOM      1  C   UNL A   1      31.922  29.976  25.951  1.00  0.00     0.202 C 
ENDROOT
BRANCH   1   2
ATOM      2  C   UNL A   1      32.724  30.396  27.192  1.00  0.00     0.261 C 
BRANCH   2   3
ATOM      3  O   UNL A   1      34.070  30.759  26.870  1.00  0.00    -0.460 OA
BRANCH   3   4
ATOM      4  C   UNL A   1      34.926  31.453  27.657  1.00  0.00     0.338 C 
ATOM      5  O   UNL A   1      34.688  32.644  27.872  1.00  0.00    -0.246 OA
BRANCH   4   6
ATOM      6  C   UNL A   1      36.089  30.826  28.337  1.00  0.00     0.060 A 
ATOM      7  C   UNL A   1      37.018  31.480  29.143  1.00  0.00     0.016 A 
ATOM      8  C   UNL A   1      36.276  29.462  28.073  1.00  0.00     0.016 A 
ATOM      9  C   UNL A   1      38.244  30.902  29.391  1.00  0.00     0.010 A 
ATOM     10  C   UNL A   1      37.453  28.832  28.436  1.00  0.00     0.010 A 
ATOM     11  C   UNL A   1      38.480  29.590  28.986  1.00  0.00    -0.014 A 
BRANCH  11  12
ATOM     12  C   UNL A   1      39.809  29.055  29.246  1.00  0.00     0.031 A 
ATOM     13  C   UNL A   1      40.184  28.977  30.686  1.00  0.00     0.074 A 
ATOM     14  C   UNL A   1      40.621  28.605  28.271  1.00  0.00     0.049 A 
ATOM     15  N   UNL A   1      41.186  29.530  31.289  1.00  0.00    -0.248 NA
ATOM     16  C   UNL A   1      39.231  28.316  31.592  1.00  0.00     0.031 C 
ATOM     17  C   UNL A   1      40.313  28.396  26.854  1.00  0.00     0.029 A 
ATOM     18  N   UNL A   1      41.883  28.113  28.388  1.00  0.00    -0.354 N 
ATOM     19  C   UNL A   1      41.097  29.134  32.621  1.00  0.00     0.074 A 
ATOM     20  C   UNL A   1      39.803  28.526  32.776  1.00  0.00     0.031 C 
ATOM     21  C   UNL A   1      41.246  27.583  26.316  1.00  0.00     0.029 A 
ATOM     22  C   UNL A   1      42.283  27.345  27.305  1.00  0.00     0.049 A 
ATOM     23  H   UNL A   1      42.457  28.286  29.168  1.00  0.00     0.167 HD
ATOM     24  C   UNL A   1      42.167  29.172  33.461  1.00  0.00     0.034 A 
ATOM     25  C   UNL A   1      43.338  26.495  27.263  1.00  0.00     0.034 A 
ATOM     26  C   UNL A   1      43.171  30.096  32.997  1.00  0.00     0.049 A 
ATOM     27  C   UNL A   1      44.283  26.917  28.327  1.00  0.00     0.074 A 
ATOM     28  C   UNL A   1      43.182  31.457  32.752  1.00  0.00     0.029 A 
ATOM     29  N   UNL A   1      44.287  29.602  32.361  1.00  0.00    -0.354 N 
ATOM     30  N   UNL A   1      44.912  28.061  28.317  1.00  0.00    -0.248 NA
ATOM     31  C   UNL A   1      44.178  26.284  29.634  1.00  0.00     0.031 C 
ATOM     32  C   UNL A   1      43.979  31.611  31.579  1.00  0.00     0.029 A 
ATOM     33  C   UNL A   1      44.456  30.350  31.220  1.00  0.00     0.049 A 
ATOM     34  H   UNL A   1      44.854  28.857  32.665  1.00  0.00     0.167 HD
ATOM     35  C   UNL A   1      44.905  28.490  29.635  1.00  0.00     0.074 A 
ATOM     36  C   UNL A   1      44.533  27.311  30.413  1.00  0.00     0.031 C 
ATOM     37  C   UNL A   1      44.932  29.818  29.956  1.00  0.00     0.034 A 
BRANCH  24  38
ATOM     38  C   UNL A   1      42.427  28.147  34.540  1.00  0.00     0.023 A 
ATOM     39  C   UNL A   1      43.145  26.985  34.193  1.00  0.00     0.031 A 
ATOM     40  C   UNL A   1      41.782  28.115  35.799  1.00  0.00     0.131 A 
ATOM     41  C   UNL A   1      43.136  25.854  35.029  1.00  0.00     0.055 A 
ATOM     42  C   UNL A   1      41.834  27.014  36.657  1.00  0.00     0.041 A 
ATOM     43  F   UNL A   1      40.987  29.101  36.231  1.00  0.00    -0.206 F 
ATOM     44  C   UNL A   1      42.489  25.862  36.261  1.00  0.00     0.022 A 
BRANCH  41  45
ATOM     45  S   UNL A   1      43.828  24.303  34.396  1.00  0.00     0.124 S 
ATOM     46  O   UNL A   1      44.069  24.633  32.996  1.00  0.00    -0.237 OA
ATOM     47  O   UNL A   1      45.012  24.141  35.233  1.00  0.00    -0.237 OA
ATOM     48  O   UNL A   1      42.759  23.335  34.633  1.00  0.00    -0.744 OA
ENDBRANCH  41  45
ENDBRANCH  24  38
BRANCH  25  49
ATOM     49  C   UNL A   1      43.337  25.158  26.615  1.00  0.00     0.023 A 
ATOM     50  C   UNL A   1      42.552  24.090  27.086  1.00  0.00     0.031 A 
ATOM     51  C   UNL A   1      43.975  24.978  25.365  1.00  0.00     0.131 A 
ATOM     52  C   UNL A   1      42.442  22.904  26.325  1.00  0.00     0.055 A 
ATOM     53  C   UNL A   1      43.876  23.800  24.625  1.00  0.00     0.041 A 
ATOM     54  F   UNL A   1      44.657  25.976  24.779  1.00  0.00    -0.206 F 
ATOM     55  C   UNL A   1      43.101  22.756  25.101  1.00  0.00     0.022 A 
BRANCH  52  56
ATOM     56  S   UNL A   1      41.351  21.559  26.885  1.00  0.00     0.124 S 
ATOM     57  O   UNL A   1      40.880  22.060  28.170  1.00  0.00    -0.237 OA
ATOM     58  O   UNL A   1      40.364  21.492  25.812  1.00  0.00    -0.237 OA
ATOM     59  O   UNL A   1      42.246  20.405  26.964  1.00  0.00    -0.744 OA
ENDBRANCH  52  56
ENDBRANCH  25  49
BRANCH  37  60
ATOM     60  C   UNL A   1      45.241  30.827  28.867  1.00  0.00     0.023 A 
ATOM     61  C   UNL A   1      46.544  31.250  28.511  1.00  0.00     0.031 A 
ATOM     62  C   UNL A   1      44.174  31.261  28.061  1.00  0.00     0.131 A 
ATOM     63  C   UNL A   1      46.733  32.079  27.388  1.00  0.00     0.055 A 
ATOM     64  C   UNL A   1      44.367  32.068  26.941  1.00  0.00     0.041 A 
ATOM     65  F   UNL A   1      42.916  30.866  28.326  1.00  0.00    -0.206 F 
ATOM     66  C   UNL A   1      45.650  32.484  26.601  1.00  0.00     0.022 A 
BRANCH  63  67
ATOM     67  S   UNL A   1      48.401  32.647  26.921  1.00  0.00     0.124 S 
ATOM     68  O   UNL A   1      48.932  33.205  28.159  1.00  0.00    -0.237 OA
ATOM     69  O   UNL A   1      49.034  31.419  26.447  1.00  0.00    -0.237 OA
ATOM     70  O   UNL A   1      48.142  33.637  25.872  1.00  0.00    -0.744 OA
ENDBRANCH  63  67
ENDBRANCH  37  60
ENDBRANCH  11  12
ENDBRANCH   4   6
ENDBRANCH   3   4
ENDBRANCH   2   3
ENDBRANCH   1   2
BRANCH   1  71
ATOM     71  O   UNL A   1      31.825  28.588  25.643  1.00  0.00    -0.374 OA
BRANCH  71  72
ATOM     72  C   UNL A   1      31.476  27.680  26.695  1.00  0.00     0.202 C 
BRANCH  72  73
ATOM     73  C   UNL A   1      30.935  26.307  26.296  1.00  0.00     0.261 C 
BRANCH  73  74
ATOM     74  O   UNL A   1      31.905  25.277  26.566  1.00  0.00    -0.459 OA
BRANCH  74  75
ATOM     75  C   UNL A   1      31.594  24.015  26.144  1.00  0.00     0.368 C 
ATOM     76  O   UNL A   1      30.636  23.372  26.557  1.00  0.00    -0.245 OA
BRANCH  75  77
ATOM     77  C   UNL A   1      32.669  23.481  25.156  1.00  0.00     0.196 C 
ATOM     78  C   UNL A   1      34.129  23.840  25.508  1.00  0.00     0.081 C 
ATOM     79  C   UNL A   1      32.541  21.947  25.298  1.00  0.00     0.108 C 
ATOM     80  C   UNL A   1      35.130  23.156  24.575  1.00  0.00     0.009 C 
ATOM     81  C   UNL A   1      33.523  21.144  24.430  1.00  0.00     0.116 C 
ATOM     82  C   UNL A   1      34.976  21.638  24.615  1.00  0.00     0.028 C 
BRANCH  77  83
ATOM     83  N   UNL A   1      32.334  23.839  23.753  1.00  0.00    -0.330 N 
ATOM     84  H   UNL A   1      31.343  23.628  23.631  1.00  0.00     0.347 HD
ATOM     85  H   UNL A   1      33.016  23.301  23.219  1.00  0.00     0.347 HD
BRANCH  83  86
ATOM     86  C   UNL A   1      32.534  25.199  23.242  1.00  0.00     0.183 C 
ATOM     87  C   UNL A   1      33.047  25.619  21.899  1.00  0.00     0.071 C 
ATOM     88  C   UNL A   1      31.580  25.643  22.146  1.00  0.00     0.071 C 
ENDBRANCH  83  86
ENDBRANCH  77  83
BRANCH  81  89
ATOM     89  N   UNL A   1      33.370  19.711  24.691  1.00  0.00    -0.250 N 
ATOM     90  C   UNL A   1      34.321  18.738  24.582  1.00  0.00     0.220 A 
ATOM     91  N   UNL A   1      32.201  19.181  25.097  1.00  0.00    -0.160 NA
ATOM     92  N   UNL A   1      33.796  17.570  24.866  1.00  0.00    -0.224 NA
ATOM     93  C   UNL A   1      32.503  17.885  25.166  1.00  0.00     0.246 A 
ENDBRANCH  81  89
ENDBRANCH  75  77
ENDBRANCH  74  75
ENDBRANCH  73  74
ENDBRANCH  72  73
ENDBRANCH  71  72
ENDBRANCH   1  71
TORSDOF 20
ENDMDL
MODEL 3
REMARK VINA RESULT:      -9.4      5.142     11.123
REMARK SMILES O=C(OCCOCCOC(=O)[C@@]1([NH2+]C2CC2)CCC[C@@H](n2cncn2)C1)c1ccc(-c2c3nc(c(-c4cc(S(=O)(=O)[O-])ccc4F)c4ccc([nH]4)c(-c4cc(S(=O)(=O)[O-])ccc4F)c4nc(c(-c5cc(S(=O)(=O)[O-])ccc5F)c5ccc2[nH]5)C=C4)C=C3)cc1
REMARK SMILES IDX 5 1 4 2 3 3 2 4 1 5 27 6 28 7 89 8 29 9 88 10 30 11 31 12
REMARK SMILES IDX 32 13 82 14 33 15 87 16 81 17 83 18 34 19 86 20 80 21 79 22
REMARK SMILES IDX 35 24 67 25 47 26 66 27 48 28 51 29 65 30 84 31 49 32 50 33
REMARK SMILES IDX 64 35 85 36 52 37 36 38 37 39 45 40 38 41 44 42 46 43 43 44
REMARK SMILES IDX 39 45 40 46 41 47 42 48 68 49 69 50 77 51 70 52 76 53 78 54
REMARK SMILES IDX 75 55 71 56 72 57 73 58 74 59 53 60 54 61 62 62 55 63 61 64
REMARK SMILES IDX 63 65 60 66 56 67 57 68 58 69 59 70 6 71 7 72 8 73 9 74
REMARK SMILES IDX 10 75 11 76 12 77 17 78 26 79 18 80 20 81 19 82 13 83 14 86
REMARK SMILES IDX 15 87 16 88 21 89 22 90 25 91 23 92 24 93
REMARK H PARENT 83 23 51 34 13 84 13 85
REMARK Flexibility Score: inf
ROOT
ATOM      1  C   UNL A   1      33.205  29.888  26.517  1.00  0.00     0.202 C 
ENDROOT
BRANCH   1   2
ATOM      2  C   UNL A   1      33.723  31.010  27.430  1.00  0.00     0.261 C 
BRANCH   2   3
ATOM      3  O   UNL A   1      35.138  31.190  27.318  1.00  0.00    -0.460 OA
BRANCH   3   4
ATOM      4  C   UNL A   1      35.950  31.764  28.235  1.00  0.00     0.338 C 
ATOM      5  O   UNL A   1      35.728  32.932  28.564  1.00  0.00    -0.246 OA
BRANCH   4   6
ATOM      6  C   UNL A   1      37.044  31.029  28.921  1.00  0.00     0.060 A 
ATOM      7  C   UNL A   1      38.187  31.594  29.481  1.00  0.00     0.016 A 
ATOM      8  C   UNL A   1      36.913  29.633  28.935  1.00  0.00     0.016 A 
ATOM      9  C   UNL A   1      39.293  30.809  29.730  1.00  0.00     0.010 A 
ATOM     10  C   UNL A   1      37.976  28.832  29.313  1.00  0.00     0.010 A 
ATOM     11  C   UNL A   1      39.201  29.427  29.592  1.00  0.00    -0.014 A 
BRANCH  11  12
ATOM     12  C   UNL A   1      40.416  28.663  29.834  1.00  0.00     0.031 A 
ATOM     13  C   UNL A   1      40.808  28.544  31.267  1.00  0.00     0.074 A 
ATOM     14  C   UNL A   1      41.107  28.055  28.852  1.00  0.00     0.049 A 
ATOM     15  N   UNL A   1      41.909  28.915  31.835  1.00  0.00    -0.248 NA
ATOM     16  C   UNL A   1      39.774  28.085  32.209  1.00  0.00     0.031 C 
ATOM     17  C   UNL A   1      40.730  27.880  27.447  1.00  0.00     0.029 A 
ATOM     18  N   UNL A   1      42.261  27.343  28.952  1.00  0.00    -0.354 N 
ATOM     19  C   UNL A   1      41.783  28.566  33.178  1.00  0.00     0.074 A 
ATOM     20  C   UNL A   1      40.405  28.208  33.375  1.00  0.00     0.031 C 
ATOM     21  C   UNL A   1      41.485  26.901  26.907  1.00  0.00     0.029 A 
ATOM     22  C   UNL A   1      42.487  26.495  27.878  1.00  0.00     0.049 A 
ATOM     23  H   UNL A   1      42.877  27.421  29.716  1.00  0.00     0.167 HD
ATOM     24  C   UNL A   1      42.864  28.424  33.993  1.00  0.00     0.034 A 
ATOM     25  C   UNL A   1      43.367  25.466  27.833  1.00  0.00     0.034 A 
ATOM     26  C   UNL A   1      44.007  29.140  33.486  1.00  0.00     0.049 A 
ATOM     27  C   UNL A   1      44.401  25.727  28.866  1.00  0.00     0.074 A 
ATOM     28  C   UNL A   1      44.260  30.471  33.210  1.00  0.00     0.029 A 
ATOM     29  N   UNL A   1      44.997  28.439  32.837  1.00  0.00    -0.354 N 
ATOM     30  N   UNL A   1      45.227  26.737  28.816  1.00  0.00    -0.248 NA
ATOM     31  C   UNL A   1      44.216  25.148  30.188  1.00  0.00     0.031 C 
ATOM     32  C   UNL A   1      45.041  30.456  32.017  1.00  0.00     0.029 A 
ATOM     33  C   UNL A   1      45.270  29.122  31.676  1.00  0.00     0.049 A 
ATOM     34  H   UNL A   1      45.427  27.609  33.145  1.00  0.00     0.167 HD
ATOM     35  C   UNL A   1      45.332  27.184  30.124  1.00  0.00     0.074 A 
ATOM     36  C   UNL A   1      44.772  26.106  30.936  1.00  0.00     0.031 C 
ATOM     37  C   UNL A   1      45.608  28.490  30.414  1.00  0.00     0.034 A 
BRANCH  24  38
ATOM     38  C   UNL A   1      42.961  27.387  35.089  1.00  0.00     0.023 A 
ATOM     39  C   UNL A   1      43.736  26.237  34.848  1.00  0.00     0.031 A 
ATOM     40  C   UNL A   1      42.125  27.335  36.229  1.00  0.00     0.131 A 
ATOM     41  C   UNL A   1      43.607  25.095  35.660  1.00  0.00     0.055 A 
ATOM     42  C   UNL A   1      42.051  26.224  37.073  1.00  0.00     0.041 A 
ATOM     43  F   UNL A   1      41.261  28.309  36.540  1.00  0.00    -0.206 F 
ATOM     44  C   UNL A   1      42.772  25.083  36.774  1.00  0.00     0.022 A 
BRANCH  41  45
ATOM     45  S   UNL A   1      44.406  23.558  35.128  1.00  0.00     0.124 S 
ATOM     46  O   UNL A   1      45.327  24.039  34.104  1.00  0.00    -0.237 OA
ATOM     47  O   UNL A   1      45.011  23.091  36.371  1.00  0.00    -0.237 OA
ATOM     48  O   UNL A   1      43.292  22.751  34.635  1.00  0.00    -0.744 OA
ENDBRANCH  41  45
ENDBRANCH  24  38
BRANCH  25  49
ATOM     49  C   UNL A   1      43.106  24.140  27.215  1.00  0.00     0.023 A 
ATOM     50  C   UNL A   1      43.909  23.613  26.188  1.00  0.00     0.031 A 
ATOM     51  C   UNL A   1      42.155  23.266  27.794  1.00  0.00     0.131 A 
ATOM     52  C   UNL A   1      43.734  22.274  25.770  1.00  0.00     0.055 A 
ATOM     53  C   UNL A   1      41.977  21.950  27.368  1.00  0.00     0.041 A 
ATOM     54  F   UNL A   1      41.418  23.639  28.852  1.00  0.00    -0.206 F 
ATOM     55  C   UNL A   1      42.772  21.444  26.354  1.00  0.00     0.022 A 
BRANCH  52  56
ATOM     56  S   UNL A   1      44.836  21.561  24.508  1.00  0.00     0.124 S 
ATOM     57  O   UNL A   1      44.379  20.178  24.447  1.00  0.00    -0.237 OA
ATOM     58  O   UNL A   1      44.552  22.391  23.343  1.00  0.00    -0.237 OA
ATOM     59  O   UNL A   1      46.171  21.745  25.078  1.00  0.00    -0.744 OA
ENDBRANCH  52  56
ENDBRANCH  25  49
BRANCH  37  60
ATOM     60  C   UNL A   1      46.069  29.406  29.296  1.00  0.00     0.023 A 
ATOM     61  C   UNL A   1      45.204  30.168  28.475  1.00  0.00     0.031 A 
ATOM     62  C   UNL A   1      47.452  29.625  29.164  1.00  0.00     0.131 A 
ATOM     63  C   UNL A   1      45.738  31.100  27.564  1.00  0.00     0.055 A 
ATOM     64  C   UNL A   1      47.975  30.560  28.273  1.00  0.00     0.041 A 
ATOM     65  F   UNL A   1      48.323  28.957  29.940  1.00  0.00    -0.206 F 
ATOM     66  C   UNL A   1      47.119  31.300  27.465  1.00  0.00     0.022 A 
BRANCH  63  67
ATOM     67  S   UNL A   1      44.643  32.081  26.486  1.00  0.00     0.124 S 
ATOM     68  O   UNL A   1      44.216  33.181  27.342  1.00  0.00    -0.237 OA
ATOM     69  O   UNL A   1      45.525  32.436  25.377  1.00  0.00    -0.237 OA
ATOM     70  O   UNL A   1      43.579  31.138  26.133  1.00  0.00    -0.744 OA
ENDBRANCH  63  67
ENDBRANCH  37  60
ENDBRANCH  11  12
ENDBRANCH   4   6
ENDBRANCH   3   4
ENDBRANCH   2   3
ENDBRANCH   1   2
BRANCH   1  71
ATOM     71  O   UNL A   1      33.024  28.589  27.073  1.00  0.00    -0.374 OA
BRANCH  71  72
ATOM     72  C   UNL A   1      31.721  28.225  27.546  1.00  0.00     0.202 C 
BRANCH  72  73
ATOM     73  C   UNL A   1      31.014  27.063  26.852  1.00  0.00     0.261 C 
BRANCH  73  74
ATOM     74  O   UNL A   1      31.872  25.907  26.785  1.00  0.00    -0.459 OA
BRANCH  74  75
ATOM     75  C   UNL A   1      31.350  24.789  26.199  1.00  0.00     0.368 C 
ATOM     76  O   UNL A   1      30.414  24.147  26.660  1.00  0.00    -0.245 OA
BRANCH  75  77
ATOM     77  C   UNL A   1      32.168  24.394  24.936  1.00  0.00     0.196 C 
ATOM     78  C   UNL A   1      33.599  24.968  24.868  1.00  0.00     0.081 C 
ATOM     79  C   UNL A   1      32.309  22.861  25.078  1.00  0.00     0.108 C 
ATOM     80  C   UNL A   1      34.384  24.415  23.677  1.00  0.00     0.009 C 
ATOM     81  C   UNL A   1      33.110  22.189  23.952  1.00  0.00     0.116 C 
ATOM     82  C   UNL A   1      34.469  22.891  23.728  1.00  0.00     0.028 C 
BRANCH  77  83
ATOM     83  N   UNL A   1      31.401  24.668  23.693  1.00  0.00    -0.330 N 
ATOM     84  H   UNL A   1      30.537  24.130  23.763  1.00  0.00     0.347 HD
ATOM     85  H   UNL A   1      32.070  24.424  22.963  1.00  0.00     0.347 HD
BRANCH  83  86
ATOM     86  C   UNL A   1      31.011  26.032  23.321  1.00  0.00     0.183 C 
ATOM     87  C   UNL A   1      31.862  27.264  23.285  1.00  0.00     0.071 C 
ATOM     88  C   UNL A   1      31.577  26.550  22.011  1.00  0.00     0.071 C 
ENDBRANCH  83  86
ENDBRANCH  77  83
BRANCH  81  89
ATOM     89  N   UNL A   1      33.246  20.756  24.217  1.00  0.00    -0.250 N 
ATOM     90  C   UNL A   1      32.301  19.784  24.051  1.00  0.00     0.220 A 
ATOM     91  N   UNL A   1      34.394  20.220  24.674  1.00  0.00    -0.160 NA
ATOM     92  N   UNL A   1      32.786  18.624  24.428  1.00  0.00    -0.224 NA
ATOM     93  C   UNL A   1      34.058  18.937  24.807  1.00  0.00     0.246 A 
ENDBRANCH  81  89
ENDBRANCH  75  77
ENDBRANCH  74  75
ENDBRANCH  73  74
ENDBRANCH  72  73
ENDBRANCH  71  72
ENDBRANCH   1  71
TORSDOF 20
ENDMDL
