MODEL 1
REMARK VINA RESULT:     -10.8      0.000      0.000
REMARK SMILES Cc1ccc(O[C@H](C)C(=O)Nc2ccsc2C(=O)OCCOCCOC(=O)c2ccc(-c3c4nc(c(-c5cc(S(=O)(=O)[O-])ccc5F)c5ccc([nH]5)c(-c5cc(S(=O)(=O)[O-])ccc5F)c5nc(c(-c6cc(S(=O)(=O)[O-])ccc6F)c6ccc3[nH]6)C=C5)C=C4)cc2)cc1
REMARK SMILES IDX 21 1 20 2 19 3 17 4 18 5 16 6 12 7 13 8 14 9 15 10 11 11
REMARK SMILES IDX 9 12 10 13 7 15 8 16 6 17 5 18 1 19 2 20 3 21 92 22 4 23
REMARK SMILES IDX 91 24 22 25 23 26 24 27 25 28 26 29 27 30 28 31 29 32 90 33
REMARK SMILES IDX 30 34 89 35 31 36 32 37 33 38 83 39 34 40 88 41 82 42 84 43
REMARK SMILES IDX 35 44 87 45 81 46 80 47 36 49 68 50 48 51 67 52 49 53 52 54
REMARK SMILES IDX 66 55 85 56 50 57 51 58 65 60 86 61 53 62 37 63 38 64 46 65
REMARK SMILES IDX 39 66 45 67 47 68 44 69 40 70 41 71 42 72 43 73 69 74 70 75
REMARK SMILES IDX 78 76 71 77 77 78 79 79 76 80 72 81 73 82 74 83 75 84 54 85
REMARK SMILES IDX 55 86 63 87 56 88 62 89 64 90 61 91 57 92 58 93 59 94 60 95
REMARK H PARENT 11 14 84 48 52 59
REMARK Flexibility Score: inf
ROOT
ATOM      1  C   UNL A   1      37.597  23.705  25.996  1.00  0.00     0.202 C 
ENDROOT
BRANCH   1   2
ATOM      2  C   UNL A   1      36.189  24.079  25.707  1.00  0.00     0.261 C 
BRANCH   2   3
ATOM      3  O   UNL A   1      35.499  23.041  24.984  1.00  0.00    -0.459 OA
BRANCH   3   4
ATOM      4  C   UNL A   1      35.015  23.148  23.706  1.00  0.00     0.350 C 
ATOM      5  O   UNL A   1      35.661  23.214  22.685  1.00  0.00    -0.245 OA
BRANCH   4   6
ATOM      6  C   UNL A   1      33.565  23.126  23.814  1.00  0.00     0.136 A 
ATOM      7  C   UNL A   1      32.632  23.568  22.890  1.00  0.00     0.066 A 
ATOM      8  C   UNL A   1      31.307  23.459  23.394  1.00  0.00     0.039 A 
ATOM      9  C   UNL A   1      31.270  22.977  24.681  1.00  0.00     0.068 A 
ATOM     10  S   UNL A   1      32.831  22.625  25.276  1.00  0.00    -0.135 S 
BRANCH   7  11
ATOM     11  N   UNL A   1      32.995  23.959  21.613  1.00  0.00    -0.321 N 
ATOM     12  C   UNL A   1      32.899  25.163  20.990  1.00  0.00     0.265 C 
ATOM     13  O   UNL A   1      32.845  25.164  19.755  1.00  0.00    -0.270 OA
ATOM     14  H   UNL A   1      33.392  23.245  21.065  1.00  0.00     0.170 HD
BRANCH  12  15
ATOM     15  C   UNL A   1      32.802  26.474  21.790  1.00  0.00     0.259 C 
ATOM     16  C   UNL A   1      31.313  26.700  22.003  1.00  0.00     0.064 C 
BRANCH  15  17
ATOM     17  O   UNL A   1      33.755  26.578  22.851  1.00  0.00    -0.481 OA
BRANCH  17  18
ATOM     18  C   UNL A   1      33.628  27.142  24.078  1.00  0.00     0.120 A 
ATOM     19  C   UNL A   1      33.946  29.194  27.874  1.00  0.00     0.044 C 
ATOM     20  C   UNL A   1      33.751  28.538  26.541  1.00  0.00    -0.051 A 
ATOM     21  C   UNL A   1      33.354  27.204  26.487  1.00  0.00     0.007 A 
ATOM     22  C   UNL A   1      34.023  29.200  25.344  1.00  0.00     0.007 A 
ATOM     23  C   UNL A   1      33.263  26.529  25.265  1.00  0.00     0.047 A 
ATOM     24  C   UNL A   1      33.961  28.503  24.127  1.00  0.00     0.047 A 
ENDBRANCH  17  18
ENDBRANCH  15  17
ENDBRANCH  12  15
ENDBRANCH   7  11
ENDBRANCH   4   6
ENDBRANCH   3   4
ENDBRANCH   2   3
ENDBRANCH   1   2
BRANCH   1  25
ATOM     25  O   UNL A   1      37.549  22.290  25.957  1.00  0.00    -0.374 OA
BRANCH  25  26
ATOM     26  C   UNL A   1      38.761  21.623  25.751  1.00  0.00     0.202 C 
BRANCH  26  27
ATOM     27  C   UNL A   1      39.806  22.095  26.757  1.00  0.00     0.261 C 
BRANCH  27  28
ATOM     28  O   UNL A   1      40.821  21.078  26.939  1.00  0.00    -0.460 OA
BRANCH  28  29
ATOM     29  C   UNL A   1      41.986  21.259  26.247  1.00  0.00     0.338 C 
ATOM     30  O   UNL A   1      42.392  20.513  25.371  1.00  0.00    -0.246 OA
BRANCH  29  31
ATOM     31  C   UNL A   1      42.765  22.404  26.809  1.00  0.00     0.060 A 
ATOM     32  C   UNL A   1      42.943  22.545  28.202  1.00  0.00     0.016 A 
ATOM     33  C   UNL A   1      43.028  23.479  25.970  1.00  0.00     0.016 A 
ATOM     34  C   UNL A   1      43.213  23.809  28.762  1.00  0.00     0.010 A 
ATOM     35  C   UNL A   1      43.143  24.730  26.533  1.00  0.00     0.010 A 
ATOM     36  C   UNL A   1      43.216  24.920  27.925  1.00  0.00    -0.014 A 
BRANCH  36  37
ATOM     37  C   UNL A   1      43.240  26.334  28.319  1.00  0.00     0.031 A 
ATOM     38  C   UNL A   1      41.942  27.041  28.315  1.00  0.00     0.074 A 
ATOM     39  C   UNL A   1      44.292  26.899  28.963  1.00  0.00     0.049 A 
ATOM     40  N   UNL A   1      41.816  28.312  28.443  1.00  0.00    -0.248 NA
ATOM     41  C   UNL A   1      40.661  26.374  28.086  1.00  0.00     0.031 C 
ATOM     42  C   UNL A   1      44.263  27.951  29.984  1.00  0.00     0.029 A 
ATOM     43  N   UNL A   1      45.650  26.619  28.856  1.00  0.00    -0.354 N 
ATOM     44  C   UNL A   1      40.492  28.560  28.713  1.00  0.00     0.074 A 
ATOM     45  C   UNL A   1      39.803  27.371  28.296  1.00  0.00     0.031 C 
ATOM     46  C   UNL A   1      45.517  28.355  30.259  1.00  0.00     0.029 A 
ATOM     47  C   UNL A   1      46.404  27.712  29.306  1.00  0.00     0.049 A 
ATOM     48  H   UNL A   1      46.027  25.776  28.514  1.00  0.00     0.167 HD
ATOM     49  C   UNL A   1      40.174  29.676  29.425  1.00  0.00     0.034 A 
ATOM     50  C   UNL A   1      47.351  28.271  28.502  1.00  0.00     0.034 A 
ATOM     51  C   UNL A   1      41.388  30.455  29.742  1.00  0.00     0.049 A 
ATOM     52  C   UNL A   1      46.869  29.666  28.115  1.00  0.00     0.074 A 
ATOM     53  C   UNL A   1      42.106  30.707  30.900  1.00  0.00     0.029 A 
ATOM     54  N   UNL A   1      42.206  30.877  28.704  1.00  0.00    -0.354 N 
ATOM     55  N   UNL A   1      45.723  30.153  28.512  1.00  0.00    -0.248 NA
ATOM     56  C   UNL A   1      47.572  30.599  27.245  1.00  0.00     0.031 C 
ATOM     57  C   UNL A   1      43.353  31.304  30.529  1.00  0.00     0.029 A 
ATOM     58  C   UNL A   1      43.378  31.445  29.152  1.00  0.00     0.049 A 
ATOM     59  H   UNL A   1      41.973  30.780  27.752  1.00  0.00     0.167 HD
ATOM     60  C   UNL A   1      45.476  31.364  27.942  1.00  0.00     0.074 A 
ATOM     61  C   UNL A   1      46.669  31.594  27.134  1.00  0.00     0.031 C 
ATOM     62  C   UNL A   1      44.299  32.027  28.177  1.00  0.00     0.034 A 
BRANCH  49  63
ATOM     63  C   UNL A   1      38.825  29.978  30.051  1.00  0.00     0.023 A 
ATOM     64  C   UNL A   1      38.136  31.121  29.596  1.00  0.00     0.031 A 
ATOM     65  C   UNL A   1      38.160  29.262  31.069  1.00  0.00     0.131 A 
ATOM     66  C   UNL A   1      36.921  31.535  30.168  1.00  0.00     0.055 A 
ATOM     67  C   UNL A   1      36.955  29.680  31.653  1.00  0.00     0.041 A 
ATOM     68  F   UNL A   1      38.595  28.096  31.548  1.00  0.00    -0.206 F 
ATOM     69  C   UNL A   1      36.330  30.828  31.208  1.00  0.00     0.022 A 
BRANCH  66  70
ATOM     70  S   UNL A   1      36.119  33.021  29.521  1.00  0.00     0.124 S 
ATOM     71  O   UNL A   1      36.976  34.081  30.042  1.00  0.00    -0.237 OA
ATOM     72  O   UNL A   1      36.168  32.796  28.081  1.00  0.00    -0.237 OA
ATOM     73  O   UNL A   1      34.781  32.965  30.108  1.00  0.00    -0.744 OA
ENDBRANCH  66  70
ENDBRANCH  49  63
BRANCH  50  74
ATOM     74  C   UNL A   1      47.989  27.219  27.617  1.00  0.00     0.023 A 
ATOM     75  C   UNL A   1      47.734  27.231  26.209  1.00  0.00     0.031 A 
ATOM     76  C   UNL A   1      49.183  26.614  28.048  1.00  0.00     0.131 A 
ATOM     77  C   UNL A   1      48.722  26.784  25.298  1.00  0.00     0.055 A 
ATOM     78  C   UNL A   1      50.159  26.189  27.138  1.00  0.00     0.041 A 
ATOM     79  F   UNL A   1      49.496  26.583  29.351  1.00  0.00    -0.206 F 
ATOM     80  C   UNL A   1      49.948  26.305  25.764  1.00  0.00     0.022 A 
BRANCH  77  81
ATOM     81  S   UNL A   1      48.506  26.960  23.476  1.00  0.00     0.124 S 
ATOM     82  O   UNL A   1      48.270  25.589  23.042  1.00  0.00    -0.237 OA
ATOM     83  O   UNL A   1      47.381  27.885  23.357  1.00  0.00    -0.237 OA
ATOM     84  O   UNL A   1      49.783  27.528  23.043  1.00  0.00    -0.744 OA
ENDBRANCH  77  81
ENDBRANCH  50  74
BRANCH  62  85
ATOM     85  C   UNL A   1      43.890  33.297  27.471  1.00  0.00     0.023 A 
ATOM     86  C   UNL A   1      43.586  34.458  28.180  1.00  0.00     0.031 A 
ATOM     87  C   UNL A   1      43.780  33.391  26.059  1.00  0.00     0.131 A 
ATOM     88  C   UNL A   1      43.365  35.670  27.511  1.00  0.00     0.055 A 
ATOM     89  C   UNL A   1      43.449  34.573  25.397  1.00  0.00     0.041 A 
ATOM     90  F   UNL A   1      44.032  32.361  25.242  1.00  0.00    -0.206 F 
ATOM     91  C   UNL A   1      43.276  35.736  26.123  1.00  0.00     0.022 A 
BRANCH  88  92
ATOM     92  S   UNL A   1      43.322  37.176  28.506  1.00  0.00     0.124 S 
ATOM     93  O   UNL A   1      43.725  36.697  29.823  1.00  0.00    -0.237 OA
ATOM     94  O   UNL A   1      44.300  38.011  27.812  1.00  0.00    -0.237 OA
ATOM     95  O   UNL A   1      41.935  37.620  28.396  1.00  0.00    -0.744 OA
ENDBRANCH  88  92
ENDBRANCH  62  85
ENDBRANCH  36  37
ENDBRANCH  29  31
ENDBRANCH  28  29
ENDBRANCH  27  28
ENDBRANCH  26  27
ENDBRANCH  25  26
ENDBRANCH   1  25
TORSDOF 21
ENDMDL
MODEL 2
REMARK VINA RESULT:     -10.7      4.591     10.323
REMARK SMILES Cc1ccc(O[C@H](C)C(=O)Nc2ccsc2C(=O)OCCOCCOC(=O)c2ccc(-c3c4nc(c(-c5cc(S(=O)(=O)[O-])ccc5F)c5ccc([nH]5)c(-c5cc(S(=O)(=O)[O-])ccc5F)c5nc(c(-c6cc(S(=O)(=O)[O-])ccc6F)c6ccc3[nH]6)C=C5)C=C4)cc2)cc1
REMARK SMILES IDX 21 1 20 2 19 3 17 4 18 5 16 6 12 7 13 8 14 9 15 10 11 11
REMARK SMILES IDX 9 12 10 13 7 15 8 16 6 17 5 18 1 19 2 20 3 21 92 22 4 23
REMARK SMILES IDX 91 24 22 25 23 26 24 27 25 28 26 29 27 30 28 31 29 32 90 33
REMARK SMILES IDX 30 34 89 35 31 36 32 37 33 38 83 39 34 40 88 41 82 42 84 43
REMARK SMILES IDX 35 44 87 45 81 46 80 47 36 49 68 50 48 51 67 52 49 53 52 54
REMARK SMILES IDX 66 55 85 56 50 57 51 58 65 60 86 61 53 62 37 63 38 64 46 65
REMARK SMILES IDX 39 66 45 67 47 68 44 69 40 70 41 71 42 72 43 73 69 74 70 75
REMARK SMILES IDX 78 76 71 77 77 78 79 79 76 80 72 81 73 82 74 83 75 84 54 85
REMARK SMILES IDX 55 86 63 87 56 88 62 89 64 90 61 91 57 92 58 93 59 94 60 95
REMARK H PARENT 11 14 84 48 52 59
REMARK Flexibility Score: inf
ROOT
ATOM      1  C   UNL A   1      31.796  30.166  26.549  1.00  0.00     0.202 C 
ENDROOT
BRANCH   1   2
ATOM      2  C   UNL A   1      32.142  28.888  27.222  1.00  0.00     0.261 C 
BRANCH   2   3
ATOM      3  O   UNL A   1      32.412  27.840  26.270  1.00  0.00    -0.459 OA
BRANCH   3   4
ATOM      4  C   UNL A   1      31.533  26.857  25.900  1.00  0.00     0.350 C 
ATOM      5  O   UNL A   1      30.702  26.321  26.598  1.00  0.00    -0.245 OA
BRANCH   4   6
ATOM      6  C   UNL A   1      31.765  26.609  24.486  1.00  0.00     0.136 A 
ATOM      7  C   UNL A   1      32.929  26.177  23.873  1.00  0.00     0.066 A 
ATOM      8  C   UNL A   1      32.791  26.136  22.458  1.00  0.00     0.039 A 
ATOM      9  C   UNL A   1      31.555  26.565  22.037  1.00  0.00     0.068 A 
ATOM     10  S   UNL A   1      30.545  26.991  23.347  1.00  0.00    -0.135 S 
BRANCH   7  11
ATOM     11  N   UNL A   1      34.026  25.751  24.603  1.00  0.00    -0.321 N 
ATOM     12  C   UNL A   1      34.485  24.501  24.872  1.00  0.00     0.265 C 
ATOM     13  O   UNL A   1      35.170  24.351  25.889  1.00  0.00    -0.270 OA
ATOM     14  H   UNL A   1      34.564  26.478  24.992  1.00  0.00     0.170 HD
BRANCH  12  15
ATOM     15  C   UNL A   1      34.122  23.304  23.974  1.00  0.00     0.259 C 
ATOM     16  C   UNL A   1      35.393  22.990  23.199  1.00  0.00     0.064 C 
BRANCH  15  17
ATOM     17  O   UNL A   1      33.355  22.295  24.636  1.00  0.00    -0.481 OA
BRANCH  17  18
ATOM     18  C   UNL A   1      33.285  20.963  24.394  1.00  0.00     0.120 A 
ATOM     19  C   UNL A   1      33.793  16.788  23.375  1.00  0.00     0.044 C 
ATOM     20  C   UNL A   1      33.590  18.203  23.822  1.00  0.00    -0.051 A 
ATOM     21  C   UNL A   1      32.502  18.926  23.336  1.00  0.00     0.007 A 
ATOM     22  C   UNL A   1      34.498  18.852  24.659  1.00  0.00     0.007 A 
ATOM     23  C   UNL A   1      32.339  20.279  23.649  1.00  0.00     0.047 A 
ATOM     24  C   UNL A   1      34.342  20.219  24.938  1.00  0.00     0.047 A 
ENDBRANCH  17  18
ENDBRANCH  15  17
ENDBRANCH  12  15
ENDBRANCH   7  11
ENDBRANCH   4   6
ENDBRANCH   3   4
ENDBRANCH   2   3
ENDBRANCH   1   2
BRANCH   1  25
ATOM     25  O   UNL A   1      32.633  31.095  27.215  1.00  0.00    -0.374 OA
BRANCH  25  26
ATOM     26  C   UNL A   1      33.817  30.594  27.765  1.00  0.00     0.202 C 
BRANCH  26  27
ATOM     27  C   UNL A   1      34.914  31.655  27.724  1.00  0.00     0.261 C 
BRANCH  27  28
ATOM     28  O   UNL A   1      34.338  32.976  27.862  1.00  0.00    -0.460 OA
BRANCH  28  29
ATOM     29  C   UNL A   1      34.346  33.508  29.122  1.00  0.00     0.338 C 
ATOM     30  O   UNL A   1      33.409  34.101  29.628  1.00  0.00    -0.246 OA
BRANCH  29  31
ATOM     31  C   UNL A   1      35.705  33.396  29.735  1.00  0.00     0.060 A 
ATOM     32  C   UNL A   1      36.857  33.789  29.020  1.00  0.00     0.016 A 
ATOM     33  C   UNL A   1      35.837  32.612  30.874  1.00  0.00     0.016 A 
ATOM     34  C   UNL A   1      38.117  33.252  29.347  1.00  0.00     0.010 A 
ATOM     35  C   UNL A   1      37.039  31.980  31.092  1.00  0.00     0.010 A 
ATOM     36  C   UNL A   1      38.186  32.268  30.328  1.00  0.00    -0.014 A 
BRANCH  36  37
ATOM     37  C   UNL A   1      39.335  31.416  30.660  1.00  0.00     0.031 A 
ATOM     38  C   UNL A   1      39.357  30.072  30.046  1.00  0.00     0.074 A 
ATOM     39  C   UNL A   1      40.474  31.902  31.214  1.00  0.00     0.049 A 
ATOM     40  N   UNL A   1      40.179  29.144  30.380  1.00  0.00    -0.248 NA
ATOM     41  C   UNL A   1      38.393  29.628  29.041  1.00  0.00     0.031 C 
ATOM     42  C   UNL A   1      41.850  31.452  30.984  1.00  0.00     0.029 A 
ATOM     43  N   UNL A   1      40.645  32.957  32.105  1.00  0.00    -0.354 N 
ATOM     44  C   UNL A   1      40.119  28.182  29.401  1.00  0.00     0.074 A 
ATOM     45  C   UNL A   1      38.883  28.434  28.714  1.00  0.00     0.031 C 
ATOM     46  C   UNL A   1      42.683  32.075  31.839  1.00  0.00     0.029 A 
ATOM     47  C   UNL A   1      41.867  32.824  32.779  1.00  0.00     0.049 A 
ATOM     48  H   UNL A   1      40.002  33.690  32.242  1.00  0.00     0.167 HD
ATOM     49  C   UNL A   1      41.217  27.407  29.186  1.00  0.00     0.034 A 
ATOM     50  C   UNL A   1      41.904  32.820  34.140  1.00  0.00     0.034 A 
ATOM     51  C   UNL A   1      42.294  27.755  30.134  1.00  0.00     0.049 A 
ATOM     52  C   UNL A   1      42.311  31.421  34.592  1.00  0.00     0.074 A 
ATOM     53  C   UNL A   1      43.519  28.391  30.022  1.00  0.00     0.029 A 
ATOM     54  N   UNL A   1      42.036  27.693  31.496  1.00  0.00    -0.354 N 
ATOM     55  N   UNL A   1      42.543  30.447  33.752  1.00  0.00    -0.248 NA
ATOM     56  C   UNL A   1      42.449  30.978  35.972  1.00  0.00     0.031 C 
ATOM     57  C   UNL A   1      43.990  28.685  31.341  1.00  0.00     0.029 A 
ATOM     58  C   UNL A   1      43.070  28.198  32.253  1.00  0.00     0.049 A 
ATOM     59  H   UNL A   1      41.205  27.328  31.877  1.00  0.00     0.167 HD
ATOM     60  C   UNL A   1      42.776  29.276  34.404  1.00  0.00     0.074 A 
ATOM     61  C   UNL A   1      42.688  29.661  35.808  1.00  0.00     0.031 C 
ATOM     62  C   UNL A   1      42.986  28.111  33.710  1.00  0.00     0.034 A 
BRANCH  49  63
ATOM     63  C   UNL A   1      41.444  26.496  27.993  1.00  0.00     0.023 A 
ATOM     64  C   UNL A   1      41.650  25.125  28.250  1.00  0.00     0.031 A 
ATOM     65  C   UNL A   1      41.499  26.849  26.628  1.00  0.00     0.131 A 
ATOM     66  C   UNL A   1      41.952  24.212  27.224  1.00  0.00     0.055 A 
ATOM     67  C   UNL A   1      41.815  25.944  25.604  1.00  0.00     0.041 A 
ATOM     68  F   UNL A   1      41.218  28.071  26.176  1.00  0.00    -0.206 F 
ATOM     69  C   UNL A   1      42.050  24.617  25.899  1.00  0.00     0.022 A 
BRANCH  66  70
ATOM     70  S   UNL A   1      42.209  22.475  27.657  1.00  0.00     0.124 S 
ATOM     71  O   UNL A   1      40.873  22.065  28.075  1.00  0.00    -0.237 OA
ATOM     72  O   UNL A   1      42.698  21.913  26.403  1.00  0.00    -0.237 OA
ATOM     73  O   UNL A   1      43.200  22.538  28.731  1.00  0.00    -0.744 OA
ENDBRANCH  66  70
ENDBRANCH  49  63
BRANCH  50  74
ATOM     74  C   UNL A   1      40.815  33.710  34.706  1.00  0.00     0.023 A 
ATOM     75  C   UNL A   1      39.621  33.121  35.230  1.00  0.00     0.031 A 
ATOM     76  C   UNL A   1      41.173  34.978  35.198  1.00  0.00     0.131 A 
ATOM     77  C   UNL A   1      38.929  33.734  36.302  1.00  0.00     0.055 A 
ATOM     78  C   UNL A   1      40.490  35.569  36.268  1.00  0.00     0.041 A 
ATOM     79  F   UNL A   1      42.289  35.583  34.766  1.00  0.00    -0.206 F 
ATOM     80  C   UNL A   1      39.391  34.935  36.846  1.00  0.00     0.022 A 
BRANCH  77  81
ATOM     81  S   UNL A   1      37.500  32.912  37.126  1.00  0.00     0.124 S 
ATOM     82  O   UNL A   1      36.353  33.462  36.416  1.00  0.00    -0.237 OA
ATOM     83  O   UNL A   1      37.769  31.489  36.928  1.00  0.00    -0.237 OA
ATOM     84  O   UNL A   1      37.625  33.344  38.518  1.00  0.00    -0.744 OA
ENDBRANCH  77  81
ENDBRANCH  50  74
BRANCH  62  85
ATOM     85  C   UNL A   1      43.104  26.753  34.357  1.00  0.00     0.023 A 
ATOM     86  C   UNL A   1      44.326  26.084  34.426  1.00  0.00     0.031 A 
ATOM     87  C   UNL A   1      41.997  26.071  34.923  1.00  0.00     0.131 A 
ATOM     88  C   UNL A   1      44.456  24.902  35.167  1.00  0.00     0.055 A 
ATOM     89  C   UNL A   1      42.106  24.838  35.565  1.00  0.00     0.041 A 
ATOM     90  F   UNL A   1      40.758  26.580  34.930  1.00  0.00    -0.206 F 
ATOM     91  C   UNL A   1      43.352  24.261  35.724  1.00  0.00     0.022 A 
BRANCH  88  92
ATOM     92  S   UNL A   1      46.126  24.297  35.486  1.00  0.00     0.124 S 
ATOM     93  O   UNL A   1      46.712  25.380  36.267  1.00  0.00    -0.237 OA
ATOM     94  O   UNL A   1      45.854  23.064  36.222  1.00  0.00    -0.237 OA
ATOM     95  O   UNL A   1      46.686  24.113  34.150  1.00  0.00    -0.744 OA
ENDBRANCH  88  92
ENDBRANCH  62  85
ENDBRANCH  36  37
ENDBRANCH  29  31
ENDBRANCH  28  29
ENDBRANCH  27  28
ENDBRANCH  26  27
ENDBRANCH  25  26
ENDBRANCH   1  25
TORSDOF 21
ENDMDL
MODEL 3
REMARK VINA RESULT:     -10.7      4.472      9.959
REMARK SMILES Cc1ccc(O[C@H](C)C(=O)Nc2ccsc2C(=O)OCCOCCOC(=O)c2ccc(-c3c4nc(c(-c5cc(S(=O)(=O)[O-])ccc5F)c5ccc([nH]5)c(-c5cc(S(=O)(=O)[O-])ccc5F)c5nc(c(-c6cc(S(=O)(=O)[O-])ccc6F)c6ccc3[nH]6)C=C5)C=C4)cc2)cc1
REMARK SMILES IDX 21 1 20 2 19 3 17 4 18 5 16 6 12 7 13 8 14 9 15 10 11 11
REMARK SMILES IDX 9 12 10 13 7 15 8 16 6 17 5 18 1 19 2 20 3 21 92 22 4 23
REMARK SMILES IDX 91 24 22 25 23 26 24 27 25 28 26 29 27 30 28 31 29 32 90 33
REMARK SMILES IDX 30 34 89 35 31 36 32 37 33 38 83 39 34 40 88 41 82 42 84 43
REMARK SMILES IDX 35 44 87 45 81 46 80 47 36 49 68 50 48 51 67 52 49 53 52 54
REMARK SMILES IDX 66 55 85 56 50 57 51 58 65 60 86 61 53 62 37 63 38 64 46 65
REMARK SMILES IDX 39 66 45 67 47 68 44 69 40 70 41 71 42 72 43 73 69 74 70 75
REMARK SMILES IDX 78 76 71 77 77 78 79 79 76 80 72 81 73 82 74 83 75 84 54 85
REMARK SMILES IDX 55 86 63 87 56 88 62 89 64 90 61 91 57 92 58 93 59 94 60 95
REMARK H PARENT 11 14 84 48 52 59
REMARK Flexibility Score: inf
ROOT
ATOM      1  C   UNL A   1      32.653  29.734  25.372  1.00  0.00     0.202 C 
ENDROOT
BRANCH   1   2
ATOM      2  C   UNL A   1      31.398  29.270  24.725  1.00  0.00     0.261 C 
BRANCH   2   3
ATOM      3  O   UNL A   1      30.998  27.973  25.208  1.00  0.00    -0.459 OA
BRANCH   3   4
ATOM      4  C   UNL A   1      31.818  26.882  25.331  1.00  0.00     0.350 C 
ATOM      5  O   UNL A   1      32.237  26.396  26.357  1.00  0.00    -0.245 OA
BRANCH   4   6
ATOM      6  C   UNL A   1      32.057  26.395  23.982  1.00  0.00     0.136 A 
ATOM      7  C   UNL A   1      33.232  25.890  23.450  1.00  0.00     0.066 A 
ATOM      8  C   UNL A   1      33.094  25.596  22.065  1.00  0.00     0.039 A 
ATOM      9  C   UNL A   1      31.847  25.914  21.580  1.00  0.00     0.068 A 
ATOM     10  S   UNL A   1      30.828  26.539  22.799  1.00  0.00    -0.135 S 
BRANCH   7  11
ATOM     11  N   UNL A   1      34.338  25.627  24.239  1.00  0.00    -0.321 N 
ATOM     12  C   UNL A   1      34.886  24.450  24.640  1.00  0.00     0.265 C 
ATOM     13  O   UNL A   1      35.554  24.456  25.679  1.00  0.00    -0.270 OA
ATOM     14  H   UNL A   1      34.809  26.429  24.562  1.00  0.00     0.170 HD
BRANCH  12  15
ATOM     15  C   UNL A   1      34.640  23.145  23.861  1.00  0.00     0.259 C 
ATOM     16  C   UNL A   1      36.021  22.673  23.431  1.00  0.00     0.064 C 
BRANCH  15  17
ATOM     17  O   UNL A   1      33.686  22.275  24.474  1.00  0.00    -0.481 OA
BRANCH  17  18
ATOM     18  C   UNL A   1      33.510  20.938  24.324  1.00  0.00     0.120 A 
ATOM     19  C   UNL A   1      33.671  16.682  23.559  1.00  0.00     0.044 C 
ATOM     20  C   UNL A   1      33.592  18.134  23.921  1.00  0.00    -0.051 A 
ATOM     21  C   UNL A   1      32.534  18.903  23.439  1.00  0.00     0.007 A 
ATOM     22  C   UNL A   1      34.584  18.765  24.672  1.00  0.00     0.007 A 
ATOM     23  C   UNL A   1      32.482  20.282  23.669  1.00  0.00     0.047 A 
ATOM     24  C   UNL A   1      34.538  20.154  24.868  1.00  0.00     0.047 A 
ENDBRANCH  17  18
ENDBRANCH  15  17
ENDBRANCH  12  15
ENDBRANCH   7  11
ENDBRANCH   4   6
ENDBRANCH   3   4
ENDBRANCH   2   3
ENDBRANCH   1   2
BRANCH   1  25
ATOM     25  O   UNL A   1      32.180  30.284  26.589  1.00  0.00    -0.374 OA
BRANCH  25  26
ATOM     26  C   UNL A   1      32.683  31.538  26.952  1.00  0.00     0.202 C 
BRANCH  26  27
ATOM     27  C   UNL A   1      33.749  31.392  28.034  1.00  0.00     0.261 C 
BRANCH  27  28
ATOM     28  O   UNL A   1      35.034  31.100  27.434  1.00  0.00    -0.460 OA
BRANCH  28  29
ATOM     29  C   UNL A   1      35.543  29.854  27.675  1.00  0.00     0.338 C 
ATOM     30  O   UNL A   1      34.886  28.828  27.674  1.00  0.00    -0.246 OA
BRANCH  29  31
ATOM     31  C   UNL A   1      36.978  29.939  28.087  1.00  0.00     0.060 A 
ATOM     32  C   UNL A   1      38.007  29.998  27.123  1.00  0.00     0.016 A 
ATOM     33  C   UNL A   1      37.289  29.636  29.407  1.00  0.00     0.016 A 
ATOM     34  C   UNL A   1      39.313  29.584  27.447  1.00  0.00     0.010 A 
ATOM     35  C   UNL A   1      38.525  29.095  29.675  1.00  0.00     0.010 A 
ATOM     36  C   UNL A   1      39.544  29.039  28.706  1.00  0.00    -0.014 A 
BRANCH  36  37
ATOM     37  C   UNL A   1      40.749  28.339  29.168  1.00  0.00     0.031 A 
ATOM     38  C   UNL A   1      40.881  26.922  28.771  1.00  0.00     0.074 A 
ATOM     39  C   UNL A   1      41.841  28.991  29.642  1.00  0.00     0.049 A 
ATOM     40  N   UNL A   1      41.765  26.121  29.247  1.00  0.00    -0.248 NA
ATOM     41  C   UNL A   1      39.966  26.256  27.845  1.00  0.00     0.031 C 
ATOM     42  C   UNL A   1      43.250  28.616  29.488  1.00  0.00     0.029 A 
ATOM     43  N   UNL A   1      41.920  30.180  30.358  1.00  0.00    -0.354 N 
ATOM     44  C   UNL A   1      41.790  25.018  28.429  1.00  0.00     0.074 A 
ATOM     45  C   UNL A   1      40.548  25.066  27.709  1.00  0.00     0.031 C 
ATOM     46  C   UNL A   1      44.022  29.426  30.237  1.00  0.00     0.029 A 
ATOM     47  C   UNL A   1      43.140  30.247  31.048  1.00  0.00     0.049 A 
ATOM     48  H   UNL A   1      41.222  30.875  30.379  1.00  0.00     0.167 HD
ATOM     49  C   UNL A   1      42.946  24.305  28.340  1.00  0.00     0.034 A 
ATOM     50  C   UNL A   1      43.158  30.457  32.393  1.00  0.00     0.034 A 
ATOM     51  C   UNL A   1      43.981  24.876  29.224  1.00  0.00     0.049 A 
ATOM     52  C   UNL A   1      43.662  29.180  33.058  1.00  0.00     0.074 A 
ATOM     53  C   UNL A   1      45.156  25.579  29.017  1.00  0.00     0.029 A 
ATOM     54  N   UNL A   1      43.709  25.007  30.578  1.00  0.00    -0.354 N 
ATOM     55  N   UNL A   1      43.977  28.108  32.380  1.00  0.00    -0.248 NA
ATOM     56  C   UNL A   1      43.814  28.968  34.490  1.00  0.00     0.031 C 
ATOM     57  C   UNL A   1      45.586  26.108  30.276  1.00  0.00     0.029 A 
ATOM     58  C   UNL A   1      44.692  25.700  31.250  1.00  0.00     0.049 A 
ATOM     59  H   UNL A   1      42.903  24.643  31.011  1.00  0.00     0.167 HD
ATOM     60  C   UNL A   1      44.289  27.073  33.206  1.00  0.00     0.074 A 
ATOM     61  C   UNL A   1      44.153  27.663  34.534  1.00  0.00     0.031 C 
ATOM     62  C   UNL A   1      44.595  25.834  32.703  1.00  0.00     0.034 A 
BRANCH  49  63
ATOM     63  C   UNL A   1      43.257  23.240  27.304  1.00  0.00     0.023 A 
ATOM     64  C   UNL A   1      42.542  22.027  27.381  1.00  0.00     0.031 A 
ATOM     65  C   UNL A   1      44.205  23.293  26.260  1.00  0.00     0.131 A 
ATOM     66  C   UNL A   1      42.813  20.947  26.523  1.00  0.00     0.055 A 
ATOM     67  C   UNL A   1      44.489  22.213  25.412  1.00  0.00     0.041 A 
ATOM     68  F   UNL A   1      44.896  24.391  25.955  1.00  0.00    -0.206 F 
ATOM     69  C   UNL A   1      43.795  21.027  25.544  1.00  0.00     0.022 A 
BRANCH  66  70
ATOM     70  S   UNL A   1      41.847  19.428  26.707  1.00  0.00     0.124 S 
ATOM     71  O   UNL A   1      40.962  19.764  27.818  1.00  0.00    -0.237 OA
ATOM     72  O   UNL A   1      41.223  19.298  25.396  1.00  0.00    -0.237 OA
ATOM     73  O   UNL A   1      42.861  18.419  27.010  1.00  0.00    -0.744 OA
ENDBRANCH  66  70
ENDBRANCH  49  63
BRANCH  50  74
ATOM     74  C   UNL A   1      41.998  31.339  32.811  1.00  0.00     0.023 A 
ATOM     75  C   UNL A   1      40.775  30.737  33.249  1.00  0.00     0.031 A 
ATOM     76  C   UNL A   1      42.275  32.638  33.272  1.00  0.00     0.131 A 
ATOM     77  C   UNL A   1      39.969  31.378  34.222  1.00  0.00     0.055 A 
ATOM     78  C   UNL A   1      41.478  33.256  34.245  1.00  0.00     0.041 A 
ATOM     79  F   UNL A   1      43.411  33.256  32.918  1.00  0.00    -0.206 F 
ATOM     80  C   UNL A   1      40.346  32.616  34.747  1.00  0.00     0.022 A 
BRANCH  77  81
ATOM     81  S   UNL A   1      38.491  30.551  34.948  1.00  0.00     0.124 S 
ATOM     82  O   UNL A   1      38.235  29.461  34.015  1.00  0.00    -0.237 OA
ATOM     83  O   UNL A   1      38.939  30.172  36.286  1.00  0.00    -0.237 OA
ATOM     84  O   UNL A   1      37.483  31.611  34.944  1.00  0.00    -0.744 OA
ENDBRANCH  77  81
ENDBRANCH  50  74
BRANCH  62  85
ATOM     85  C   UNL A   1      44.806  24.606  33.553  1.00  0.00     0.023 A 
ATOM     86  C   UNL A   1      46.060  24.005  33.666  1.00  0.00     0.031 A 
ATOM     87  C   UNL A   1      43.757  23.982  34.278  1.00  0.00     0.131 A 
ATOM     88  C   UNL A   1      46.277  22.967  34.581  1.00  0.00     0.055 A 
ATOM     89  C   UNL A   1      43.953  22.875  35.104  1.00  0.00     0.041 A 
ATOM     90  F   UNL A   1      42.498  24.436  34.266  1.00  0.00    -0.206 F 
ATOM     91  C   UNL A   1      45.231  22.382  35.290  1.00  0.00     0.022 A 
BRANCH  88  92
ATOM     92  S   UNL A   1      47.986  22.488  34.908  1.00  0.00     0.124 S 
ATOM     93  O   UNL A   1      48.744  23.502  34.183  1.00  0.00    -0.237 OA
ATOM     94  O   UNL A   1      48.042  22.580  36.365  1.00  0.00    -0.237 OA
ATOM     95  O   UNL A   1      48.073  21.134  34.367  1.00  0.00    -0.744 OA
ENDBRANCH  88  92
ENDBRANCH  62  85
ENDBRANCH  36  37
ENDBRANCH  29  31
ENDBRANCH  28  29
ENDBRANCH  27  28
ENDBRANCH  26  27
ENDBRANCH  25  26
ENDBRANCH   1  25
TORSDOF 21
ENDMDL
