MODEL 1
REMARK VINA RESULT:     -12.6      0.000      0.000
REMARK SMILES O=C(OCCOCCOC(=O)c1nccnc1C(=O)Nc1ccc2c(c1)OCO2)c1ccc(-c2c3nc(c(-c4cc(S(=O)(=O)[O-])ccc4F)c4ccc([nH]4)c(-c4cc(S(=O)(=O)[O-])ccc4F)c4nc(c(-c5cc(S(=O)(=O)[O-])ccc5F)c5ccc2[nH]5)C=C4)C=C3)cc1
REMARK SMILES IDX 5 1 4 2 3 3 2 4 1 5 30 6 31 7 92 8 32 9 91 10 33 11 34 12
REMARK SMILES IDX 35 13 85 14 36 15 90 16 84 17 86 18 37 19 89 20 83 21 82 22
REMARK SMILES IDX 38 24 70 25 50 26 69 27 51 28 54 29 68 30 87 31 52 32 53 33
REMARK SMILES IDX 67 35 88 36 55 37 39 38 40 39 48 40 41 41 47 42 49 43 46 44
REMARK SMILES IDX 42 45 43 46 44 47 45 48 71 49 72 50 80 51 73 52 79 53 81 54
REMARK SMILES IDX 78 55 74 56 75 57 76 58 77 59 56 60 57 61 65 62 58 63 64 64
REMARK SMILES IDX 66 65 63 66 59 67 60 68 61 69 62 70 6 71 7 72 8 73 9 74
REMARK SMILES IDX 10 75 11 76 12 77 13 78 17 79 14 80 16 81 15 82 18 83 19 84
REMARK SMILES IDX 20 85 21 87 22 88 26 89 23 90 25 91 24 92 27 93 29 94 28 95
REMARK H PARENT 86 23 54 34 20 86
REMARK Flexibility Score: inf
ROOT
ATOM      1  C   UNL A   1      32.566  28.539  24.068  1.00  0.00     0.202 C 
ENDROOT
BRANCH   1   2
ATOM      2  C   UNL A   1      33.282  29.683  24.783  1.00  0.00     0.261 C 
BRANCH   2   3
ATOM      3  O   UNL A   1      32.546  30.112  25.947  1.00  0.00    -0.460 OA
BRANCH   3   4
ATOM      4  C   UNL A   1      32.996  30.989  26.881  1.00  0.00     0.338 C 
ATOM      5  O   UNL A   1      32.347  31.999  27.137  1.00  0.00    -0.246 OA
BRANCH   4   6
ATOM      6  C   UNL A   1      34.299  30.789  27.572  1.00  0.00     0.060 A 
ATOM      7  C   UNL A   1      34.785  29.526  27.900  1.00  0.00     0.016 A 
ATOM      8  C   UNL A   1      35.134  31.886  27.782  1.00  0.00     0.016 A 
ATOM      9  C   UNL A   1      35.997  29.333  28.529  1.00  0.00     0.010 A 
ATOM     10  C   UNL A   1      36.401  31.701  28.354  1.00  0.00     0.010 A 
ATOM     11  C   UNL A   1      36.825  30.420  28.753  1.00  0.00    -0.014 A 
BRANCH  11  12
ATOM     12  C   UNL A   1      38.034  30.205  29.573  1.00  0.00     0.031 A 
ATOM     13  C   UNL A   1      39.147  29.423  28.949  1.00  0.00     0.074 A 
ATOM     14  C   UNL A   1      38.187  30.811  30.766  1.00  0.00     0.049 A 
ATOM     15  N   UNL A   1      40.206  28.899  29.496  1.00  0.00    -0.248 NA
ATOM     16  C   UNL A   1      39.034  29.191  27.499  1.00  0.00     0.031 C 
ATOM     17  C   UNL A   1      37.241  31.758  31.367  1.00  0.00     0.029 A 
ATOM     18  N   UNL A   1      39.209  30.748  31.675  1.00  0.00    -0.354 N 
ATOM     19  C   UNL A   1      40.846  28.208  28.474  1.00  0.00     0.074 A 
ATOM     20  C   UNL A   1      40.055  28.383  27.277  1.00  0.00     0.031 C 
ATOM     21  C   UNL A   1      37.745  32.206  32.528  1.00  0.00     0.029 A 
ATOM     22  C   UNL A   1      38.984  31.493  32.811  1.00  0.00     0.049 A 
ATOM     23  H   UNL A   1      40.027  30.220  31.531  1.00  0.00     0.167 HD
ATOM     24  C   UNL A   1      41.985  27.480  28.553  1.00  0.00     0.034 A 
ATOM     25  C   UNL A   1      39.674  31.533  33.968  1.00  0.00     0.034 A 
ATOM     26  C   UNL A   1      42.738  27.368  29.775  1.00  0.00     0.049 A 
ATOM     27  C   UNL A   1      40.880  30.628  34.077  1.00  0.00     0.074 A 
ATOM     28  C   UNL A   1      43.854  26.600  30.047  1.00  0.00     0.029 A 
ATOM     29  N   UNL A   1      42.443  28.071  30.942  1.00  0.00    -0.354 N 
ATOM     30  N   UNL A   1      41.404  29.838  33.163  1.00  0.00    -0.248 NA
ATOM     31  C   UNL A   1      41.570  30.597  35.369  1.00  0.00     0.031 C 
ATOM     32  C   UNL A   1      44.195  26.795  31.392  1.00  0.00     0.029 A 
ATOM     33  C   UNL A   1      43.344  27.744  31.939  1.00  0.00     0.049 A 
ATOM     34  H   UNL A   1      41.700  28.709  31.042  1.00  0.00     0.167 HD
ATOM     35  C   UNL A   1      42.500  29.232  33.767  1.00  0.00     0.074 A 
ATOM     36  C   UNL A   1      42.571  29.768  35.114  1.00  0.00     0.031 C 
ATOM     37  C   UNL A   1      43.369  28.313  33.269  1.00  0.00     0.034 A 
BRANCH  24  38
ATOM     38  C   UNL A   1      42.366  26.681  27.330  1.00  0.00     0.023 A 
ATOM     39  C   UNL A   1      41.955  25.348  27.147  1.00  0.00     0.031 A 
ATOM     40  C   UNL A   1      43.274  27.220  26.401  1.00  0.00     0.131 A 
ATOM     41  C   UNL A   1      42.539  24.571  26.133  1.00  0.00     0.055 A 
ATOM     42  C   UNL A   1      43.773  26.470  25.335  1.00  0.00     0.041 A 
ATOM     43  F   UNL A   1      43.732  28.475  26.541  1.00  0.00    -0.206 F 
ATOM     44  C   UNL A   1      43.424  25.129  25.209  1.00  0.00     0.022 A 
BRANCH  41  45
ATOM     45  S   UNL A   1      42.280  22.773  26.163  1.00  0.00     0.124 S 
ATOM     46  O   UNL A   1      42.834  22.377  24.869  1.00  0.00    -0.237 OA
ATOM     47  O   UNL A   1      43.042  22.362  27.336  1.00  0.00    -0.237 OA
ATOM     48  O   UNL A   1      40.831  22.636  26.279  1.00  0.00    -0.744 OA
ENDBRANCH  41  45
ENDBRANCH  24  38
BRANCH  25  49
ATOM     49  C   UNL A   1      39.206  32.352  35.129  1.00  0.00     0.023 A 
ATOM     50  C   UNL A   1      39.666  33.663  35.333  1.00  0.00     0.031 A 
ATOM     51  C   UNL A   1      38.333  31.813  36.096  1.00  0.00     0.131 A 
ATOM     52  C   UNL A   1      39.287  34.371  36.488  1.00  0.00     0.055 A 
ATOM     53  C   UNL A   1      37.909  32.543  37.208  1.00  0.00     0.041 A 
ATOM     54  F   UNL A   1      37.869  30.559  35.970  1.00  0.00    -0.206 F 
ATOM     55  C   UNL A   1      38.400  33.827  37.417  1.00  0.00     0.022 A 
BRANCH  52  56
ATOM     56  S   UNL A   1      40.055  35.984  36.815  1.00  0.00     0.124 S 
ATOM     57  O   UNL A   1      39.328  36.424  38.001  1.00  0.00    -0.237 OA
ATOM     58  O   UNL A   1      41.452  35.619  37.016  1.00  0.00    -0.237 OA
ATOM     59  O   UNL A   1      39.780  36.745  35.597  1.00  0.00    -0.744 OA
ENDBRANCH  52  56
ENDBRANCH  25  49
BRANCH  37  60
ATOM     60  C   UNL A   1      44.491  27.890  34.179  1.00  0.00     0.023 A 
ATOM     61  C   UNL A   1      44.388  26.756  35.001  1.00  0.00     0.031 A 
ATOM     62  C   UNL A   1      45.678  28.642  34.224  1.00  0.00     0.131 A 
ATOM     63  C   UNL A   1      45.430  26.441  35.881  1.00  0.00     0.055 A 
ATOM     64  C   UNL A   1      46.740  28.283  35.052  1.00  0.00     0.041 A 
ATOM     65  F   UNL A   1      45.824  29.735  33.457  1.00  0.00    -0.206 F 
ATOM     66  C   UNL A   1      46.614  27.185  35.898  1.00  0.00     0.022 A 
BRANCH  63  67
ATOM     67  S   UNL A   1      45.178  25.104  37.079  1.00  0.00     0.124 S 
ATOM     68  O   UNL A   1      44.519  25.804  38.178  1.00  0.00    -0.237 OA
ATOM     69  O   UNL A   1      44.346  24.168  36.331  1.00  0.00    -0.237 OA
ATOM     70  O   UNL A   1      46.534  24.639  37.364  1.00  0.00    -0.744 OA
ENDBRANCH  63  67
ENDBRANCH  37  60
ENDBRANCH  11  12
ENDBRANCH   4   6
ENDBRANCH   3   4
ENDBRANCH   2   3
ENDBRANCH   1   2
BRANCH   1  71
ATOM     71  O   UNL A   1      31.387  28.941  23.397  1.00  0.00    -0.374 OA
BRANCH  71  72
ATOM     72  C   UNL A   1      30.131  28.492  23.914  1.00  0.00     0.202 C 
BRANCH  72  73
ATOM     73  C   UNL A   1      30.073  26.823  23.953  1.00  0.00     0.261 C 
BRANCH  73  74
ATOM     74  O   UNL A   1      31.603  25.498  24.091  1.00  0.00    -0.458 OA
BRANCH  74  75
ATOM     75  C   UNL A   1      32.766  24.697  23.776  1.00  0.00     0.359 C 
ATOM     76  O   UNL A   1      32.952  24.300  22.626  1.00  0.00    -0.244 OA
BRANCH  75  77
ATOM     77  C   UNL A   1      33.742  24.237  24.860  1.00  0.00     0.179 A 
ATOM     78  N   UNL A   1      35.055  24.466  24.506  1.00  0.00    -0.245 NA
ATOM     79  C   UNL A   1      33.440  23.483  26.009  1.00  0.00     0.161 A 
ATOM     80  C   UNL A   1      36.005  23.908  25.291  1.00  0.00     0.132 A 
ATOM     81  N   UNL A   1      34.432  22.933  26.788  1.00  0.00    -0.247 NA
ATOM     82  C   UNL A   1      35.701  23.150  26.403  1.00  0.00     0.132 A 
BRANCH  79  83
ATOM     83  C   UNL A   1      32.089  23.041  26.472  1.00  0.00     0.276 C 
ATOM     84  O   UNL A   1      31.448  23.733  27.261  1.00  0.00    -0.267 OA
ATOM     85  N   UNL A   1      31.560  21.861  26.029  1.00  0.00    -0.320 N 
ATOM     86  H   UNL A   1      30.667  21.599  26.351  1.00  0.00     0.170 HD
BRANCH  85  87
ATOM     87  C   UNL A   1      32.214  21.017  25.151  1.00  0.00     0.045 A 
ATOM     88  C   UNL A   1      31.915  21.103  23.329  1.00  0.00     0.030 A 
ATOM     89  C   UNL A   1      32.833  19.502  25.902  1.00  0.00     0.076 A 
ATOM     90  C   UNL A   1      32.226  19.624  22.320  1.00  0.00     0.053 A 
ATOM     91  C   UNL A   1      33.132  18.112  24.848  1.00  0.00     0.167 A 
ATOM     92  C   UNL A   1      32.815  18.148  23.135  1.00  0.00     0.165 A 
ATOM     93  O   UNL A   1      33.750  16.940  25.125  1.00  0.00    -0.454 OA
ATOM     94  O   UNL A   1      33.331  17.004  22.614  1.00  0.00    -0.454 OA
ATOM     95  C   UNL A   1      34.014  16.408  23.783  1.00  0.00     0.468 C 
ENDBRANCH  85  87
ENDBRANCH  79  83
ENDBRANCH  75  77
ENDBRANCH  74  75
ENDBRANCH  73  74
ENDBRANCH  72  73
ENDBRANCH  71  72
ENDBRANCH   1  71
TORSDOF 19
ENDMDL
MODEL 2
REMARK VINA RESULT:     -12.4      1.288      1.943
REMARK SMILES O=C(OCCOCCOC(=O)c1nccnc1C(=O)Nc1ccc2c(c1)OCO2)c1ccc(-c2c3nc(c(-c4cc(S(=O)(=O)[O-])ccc4F)c4ccc([nH]4)c(-c4cc(S(=O)(=O)[O-])ccc4F)c4nc(c(-c5cc(S(=O)(=O)[O-])ccc5F)c5ccc2[nH]5)C=C4)C=C3)cc1
REMARK SMILES IDX 5 1 4 2 3 3 2 4 1 5 30 6 31 7 92 8 32 9 91 10 33 11 34 12
REMARK SMILES IDX 35 13 85 14 36 15 90 16 84 17 86 18 37 19 89 20 83 21 82 22
REMARK SMILES IDX 38 24 70 25 50 26 69 27 51 28 54 29 68 30 87 31 52 32 53 33
REMARK SMILES IDX 67 35 88 36 55 37 39 38 40 39 48 40 41 41 47 42 49 43 46 44
REMARK SMILES IDX 42 45 43 46 44 47 45 48 71 49 72 50 80 51 73 52 79 53 81 54
REMARK SMILES IDX 78 55 74 56 75 57 76 58 77 59 56 60 57 61 65 62 58 63 64 64
REMARK SMILES IDX 66 65 63 66 59 67 60 68 61 69 62 70 6 71 7 72 8 73 9 74
REMARK SMILES IDX 10 75 11 76 12 77 13 78 17 79 14 80 16 81 15 82 18 83 19 84
REMARK SMILES IDX 20 85 21 87 22 88 26 89 23 90 25 91 24 92 27 93 29 94 28 95
REMARK H PARENT 86 23 54 34 20 86
REMARK Flexibility Score: inf
ROOT
ATOM      1  C   UNL A   1      31.071  29.503  24.447  1.00  0.00     0.202 C 
ENDROOT
BRANCH   1   2
ATOM      2  C   UNL A   1      31.338  29.956  25.880  1.00  0.00     0.261 C 
BRANCH   2   3
ATOM      3  O   UNL A   1      32.752  30.104  26.125  1.00  0.00    -0.460 OA
BRANCH   3   4
ATOM      4  C   UNL A   1      33.316  31.042  26.930  1.00  0.00     0.338 C 
ATOM      5  O   UNL A   1      32.779  32.139  27.062  1.00  0.00    -0.246 OA
BRANCH   4   6
ATOM      6  C   UNL A   1      34.611  30.798  27.621  1.00  0.00     0.060 A 
ATOM      7  C   UNL A   1      35.111  29.517  27.841  1.00  0.00     0.016 A 
ATOM      8  C   UNL A   1      35.426  31.883  27.943  1.00  0.00     0.016 A 
ATOM      9  C   UNL A   1      36.316  29.285  28.470  1.00  0.00     0.010 A 
ATOM     10  C   UNL A   1      36.687  31.664  28.516  1.00  0.00     0.010 A 
ATOM     11  C   UNL A   1      37.124  30.358  28.805  1.00  0.00    -0.014 A 
BRANCH  11  12
ATOM     12  C   UNL A   1      38.324  30.086  29.622  1.00  0.00     0.031 A 
ATOM     13  C   UNL A   1      39.403  29.263  28.990  1.00  0.00     0.074 A 
ATOM     14  C   UNL A   1      38.504  30.676  30.819  1.00  0.00     0.049 A 
ATOM     15  N   UNL A   1      40.439  28.691  29.531  1.00  0.00    -0.248 NA
ATOM     16  C   UNL A   1      39.279  29.048  27.538  1.00  0.00     0.031 C 
ATOM     17  C   UNL A   1      37.598  31.657  31.429  1.00  0.00     0.029 A 
ATOM     18  N   UNL A   1      39.523  30.563  31.726  1.00  0.00    -0.354 N 
ATOM     19  C   UNL A   1      41.049  27.982  28.502  1.00  0.00     0.074 A 
ATOM     20  C   UNL A   1      40.265  28.200  27.308  1.00  0.00     0.031 C 
ATOM     21  C   UNL A   1      38.122  32.074  32.593  1.00  0.00     0.029 A 
ATOM     22  C   UNL A   1      39.330  31.307  32.868  1.00  0.00     0.049 A 
ATOM     23  H   UNL A   1      40.318  30.003  31.576  1.00  0.00     0.167 HD
ATOM     24  C   UNL A   1      42.157  27.207  28.574  1.00  0.00     0.034 A 
ATOM     25  C   UNL A   1      40.023  31.309  34.025  1.00  0.00     0.034 A 
ATOM     26  C   UNL A   1      42.906  27.054  29.795  1.00  0.00     0.049 A 
ATOM     27  C   UNL A   1      41.190  30.354  34.124  1.00  0.00     0.074 A 
ATOM     28  C   UNL A   1      43.989  26.238  30.059  1.00  0.00     0.029 A 
ATOM     29  N   UNL A   1      42.642  27.759  30.967  1.00  0.00    -0.354 N 
ATOM     30  N   UNL A   1      41.679  29.550  33.204  1.00  0.00    -0.248 NA
ATOM     31  C   UNL A   1      41.879  30.284  35.415  1.00  0.00     0.031 C 
ATOM     32  C   UNL A   1      44.340  26.407  31.404  1.00  0.00     0.029 A 
ATOM     33  C   UNL A   1      43.529  27.387  31.960  1.00  0.00     0.049 A 
ATOM     34  H   UNL A   1      41.926  28.427  31.073  1.00  0.00     0.167 HD
ATOM     35  C   UNL A   1      42.750  28.894  33.801  1.00  0.00     0.074 A 
ATOM     36  C   UNL A   1      42.845  29.416  35.152  1.00  0.00     0.031 C 
ATOM     37  C   UNL A   1      43.579  27.943  33.295  1.00  0.00     0.034 A 
BRANCH  24  38
ATOM     38  C   UNL A   1      42.503  26.403  27.345  1.00  0.00     0.023 A 
ATOM     39  C   UNL A   1      42.031  25.092  27.148  1.00  0.00     0.031 A 
ATOM     40  C   UNL A   1      43.437  26.908  26.422  1.00  0.00     0.131 A 
ATOM     41  C   UNL A   1      42.580  24.298  26.127  1.00  0.00     0.055 A 
ATOM     42  C   UNL A   1      43.903  26.145  25.349  1.00  0.00     0.041 A 
ATOM     43  F   UNL A   1      43.953  28.138  26.575  1.00  0.00    -0.206 F 
ATOM     44  C   UNL A   1      43.492  24.823  25.210  1.00  0.00     0.022 A 
BRANCH  41  45
ATOM     45  S   UNL A   1      42.238  22.514  26.140  1.00  0.00     0.124 S 
ATOM     46  O   UNL A   1      42.904  22.097  27.373  1.00  0.00    -0.237 OA
ATOM     47  O   UNL A   1      40.780  22.470  26.155  1.00  0.00    -0.237 OA
ATOM     48  O   UNL A   1      42.865  22.035  24.910  1.00  0.00    -0.744 OA
ENDBRANCH  41  45
ENDBRANCH  24  38
BRANCH  25  49
ATOM     49  C   UNL A   1      39.590  32.137  35.193  1.00  0.00     0.023 A 
ATOM     50  C   UNL A   1      40.112  33.423  35.411  1.00  0.00     0.031 A 
ATOM     51  C   UNL A   1      38.689  31.631  36.151  1.00  0.00     0.131 A 
ATOM     52  C   UNL A   1      39.764  34.136  36.573  1.00  0.00     0.055 A 
ATOM     53  C   UNL A   1      38.297  32.370  37.270  1.00  0.00     0.041 A 
ATOM     54  F   UNL A   1      38.166  30.403  36.011  1.00  0.00    -0.206 F 
ATOM     55  C   UNL A   1      38.848  33.625  37.493  1.00  0.00     0.022 A 
BRANCH  52  56
ATOM     56  S   UNL A   1      40.607  35.707  36.919  1.00  0.00     0.124 S 
ATOM     57  O   UNL A   1      41.887  35.510  36.246  1.00  0.00    -0.237 OA
ATOM     58  O   UNL A   1      39.704  36.676  36.311  1.00  0.00    -0.237 OA
ATOM     59  O   UNL A   1      40.670  35.745  38.379  1.00  0.00    -0.744 OA
ENDBRANCH  52  56
ENDBRANCH  25  49
BRANCH  37  60
ATOM     60  C   UNL A   1      44.683  27.467  34.200  1.00  0.00     0.023 A 
ATOM     61  C   UNL A   1      44.482  26.434  35.130  1.00  0.00     0.031 A 
ATOM     62  C   UNL A   1      45.954  28.064  34.129  1.00  0.00     0.131 A 
ATOM     63  C   UNL A   1      45.519  26.070  35.998  1.00  0.00     0.055 A 
ATOM     64  C   UNL A   1      47.003  27.651  34.949  1.00  0.00     0.041 A 
ATOM     65  F   UNL A   1      46.195  29.056  33.257  1.00  0.00    -0.206 F 
ATOM     66  C   UNL A   1      46.784  26.659  35.900  1.00  0.00     0.022 A 
BRANCH  63  67
ATOM     67  S   UNL A   1      45.164  24.890  37.326  1.00  0.00     0.124 S 
ATOM     68  O   UNL A   1      44.016  25.510  37.982  1.00  0.00    -0.237 OA
ATOM     69  O   UNL A   1      44.888  23.663  36.587  1.00  0.00    -0.237 OA
ATOM     70  O   UNL A   1      46.396  24.877  38.112  1.00  0.00    -0.744 OA
ENDBRANCH  63  67
ENDBRANCH  37  60
ENDBRANCH  11  12
ENDBRANCH   4   6
ENDBRANCH   3   4
ENDBRANCH   2   3
ENDBRANCH   1   2
BRANCH   1  71
ATOM     71  O   UNL A   1      30.046  30.235  23.803  1.00  0.00    -0.374 OA
BRANCH  71  72
ATOM     72  C   UNL A   1      29.365  29.618  22.705  1.00  0.00     0.202 C 
BRANCH  72  73
ATOM     73  C   UNL A   1      28.679  28.171  23.176  1.00  0.00     0.261 C 
BRANCH  73  74
ATOM     74  O   UNL A   1      29.538  26.338  23.317  1.00  0.00    -0.458 OA
BRANCH  74  75
ATOM     75  C   UNL A   1      30.467  25.271  23.619  1.00  0.00     0.359 C 
ATOM     76  O   UNL A   1      30.196  24.110  23.315  1.00  0.00    -0.244 OA
BRANCH  75  77
ATOM     77  C   UNL A   1      31.756  25.527  24.402  1.00  0.00     0.179 A 
ATOM     78  N   UNL A   1      31.507  26.046  25.655  1.00  0.00    -0.245 NA
ATOM     79  C   UNL A   1      33.073  25.464  23.912  1.00  0.00     0.161 A 
ATOM     80  C   UNL A   1      32.573  26.506  26.348  1.00  0.00     0.132 A 
ATOM     81  N   UNL A   1      34.136  25.938  24.646  1.00  0.00    -0.247 NA
ATOM     82  C   UNL A   1      33.859  26.462  25.852  1.00  0.00     0.132 A 
BRANCH  79  83
ATOM     83  C   UNL A   1      33.510  25.046  22.544  1.00  0.00     0.276 C 
ATOM     84  O   UNL A   1      33.560  25.869  21.631  1.00  0.00    -0.267 OA
ATOM     85  N   UNL A   1      33.848  23.745  22.295  1.00  0.00    -0.320 N 
ATOM     86  H   UNL A   1      34.133  23.502  21.385  1.00  0.00     0.170 HD
BRANCH  85  87
ATOM     87  C   UNL A   1      33.810  22.753  23.257  1.00  0.00     0.045 A 
ATOM     88  C   UNL A   1      35.298  22.340  24.274  1.00  0.00     0.030 A 
ATOM     89  C   UNL A   1      32.506  21.535  23.016  1.00  0.00     0.076 A 
ATOM     90  C   UNL A   1      35.432  20.677  24.994  1.00  0.00     0.053 A 
ATOM     91  C   UNL A   1      32.701  19.945  23.769  1.00  0.00     0.167 A 
ATOM     92  C   UNL A   1      34.113  19.511  24.692  1.00  0.00     0.165 A 
ATOM     93  O   UNL A   1      31.808  18.935  23.888  1.00  0.00    -0.454 OA
ATOM     94  O   UNL A   1      33.850  18.313  25.276  1.00  0.00    -0.454 OA
ATOM     95  C   UNL A   1      32.433  18.094  24.916  1.00  0.00     0.468 C 
ENDBRANCH  85  87
ENDBRANCH  79  83
ENDBRANCH  75  77
ENDBRANCH  74  75
ENDBRANCH  73  74
ENDBRANCH  72  73
ENDBRANCH  71  72
ENDBRANCH   1  71
TORSDOF 19
ENDMDL
MODEL 3
REMARK VINA RESULT:     -12.2      1.527      2.179
REMARK SMILES O=C(OCCOCCOC(=O)c1nccnc1C(=O)Nc1ccc2c(c1)OCO2)c1ccc(-c2c3nc(c(-c4cc(S(=O)(=O)[O-])ccc4F)c4ccc([nH]4)c(-c4cc(S(=O)(=O)[O-])ccc4F)c4nc(c(-c5cc(S(=O)(=O)[O-])ccc5F)c5ccc2[nH]5)C=C4)C=C3)cc1
REMARK SMILES IDX 5 1 4 2 3 3 2 4 1 5 30 6 31 7 92 8 32 9 91 10 33 11 34 12
REMARK SMILES IDX 35 13 85 14 36 15 90 16 84 17 86 18 37 19 89 20 83 21 82 22
REMARK SMILES IDX 38 24 70 25 50 26 69 27 51 28 54 29 68 30 87 31 52 32 53 33
REMARK SMILES IDX 67 35 88 36 55 37 39 38 40 39 48 40 41 41 47 42 49 43 46 44
REMARK SMILES IDX 42 45 43 46 44 47 45 48 71 49 72 50 80 51 73 52 79 53 81 54
REMARK SMILES IDX 78 55 74 56 75 57 76 58 77 59 56 60 57 61 65 62 58 63 64 64
REMARK SMILES IDX 66 65 63 66 59 67 60 68 61 69 62 70 6 71 7 72 8 73 9 74
REMARK SMILES IDX 10 75 11 76 12 77 13 78 17 79 14 80 16 81 15 82 18 83 19 84
REMARK SMILES IDX 20 85 21 87 22 88 26 89 23 90 25 91 24 92 27 93 29 94 28 95
REMARK H PARENT 86 23 54 34 20 86
REMARK Flexibility Score: inf
ROOT
ATOM      1  C   UNL A   1      31.121  28.989  24.956  1.00  0.00     0.202 C 
ENDROOT
BRANCH   1   2
ATOM      2  C   UNL A   1      31.395  30.402  25.467  1.00  0.00     0.261 C 
BRANCH   2   3
ATOM      3  O   UNL A   1      32.764  30.543  25.900  1.00  0.00    -0.460 OA
BRANCH   3   4
ATOM      4  C   UNL A   1      33.184  31.321  26.932  1.00  0.00     0.338 C 
ATOM      5  O   UNL A   1      32.528  32.303  27.267  1.00  0.00    -0.246 OA
BRANCH   4   6
ATOM      6  C   UNL A   1      34.464  31.048  27.640  1.00  0.00     0.060 A 
ATOM      7  C   UNL A   1      34.882  29.758  27.957  1.00  0.00     0.016 A 
ATOM      8  C   UNL A   1      35.347  32.100  27.881  1.00  0.00     0.016 A 
ATOM      9  C   UNL A   1      36.073  29.497  28.603  1.00  0.00     0.010 A 
ATOM     10  C   UNL A   1      36.594  31.845  28.470  1.00  0.00     0.010 A 
ATOM     11  C   UNL A   1      36.949  30.540  28.856  1.00  0.00    -0.014 A 
BRANCH  11  12
ATOM     12  C   UNL A   1      38.132  30.255  29.693  1.00  0.00     0.031 A 
ATOM     13  C   UNL A   1      39.229  29.452  29.066  1.00  0.00     0.074 A 
ATOM     14  C   UNL A   1      38.283  30.817  30.907  1.00  0.00     0.049 A 
ATOM     15  N   UNL A   1      40.256  28.872  29.616  1.00  0.00    -0.248 NA
ATOM     16  C   UNL A   1      39.137  29.270  27.607  1.00  0.00     0.031 C 
ATOM     17  C   UNL A   1      37.359  31.779  31.520  1.00  0.00     0.029 A 
ATOM     18  N   UNL A   1      39.282  30.688  31.833  1.00  0.00    -0.354 N 
ATOM     19  C   UNL A   1      40.892  28.190  28.585  1.00  0.00     0.074 A 
ATOM     20  C   UNL A   1      40.132  28.432  27.379  1.00  0.00     0.031 C 
ATOM     21  C   UNL A   1      37.855  32.171  32.704  1.00  0.00     0.029 A 
ATOM     22  C   UNL A   1      39.061  31.404  32.988  1.00  0.00     0.049 A 
ATOM     23  H   UNL A   1      40.084  30.135  31.688  1.00  0.00     0.167 HD
ATOM     24  C   UNL A   1      42.002  27.419  28.662  1.00  0.00     0.034 A 
ATOM     25  C   UNL A   1      39.729  31.382  34.159  1.00  0.00     0.034 A 
ATOM     26  C   UNL A   1      42.725  27.240  29.895  1.00  0.00     0.049 A 
ATOM     27  C   UNL A   1      40.898  30.431  34.261  1.00  0.00     0.074 A 
ATOM     28  C   UNL A   1      43.806  26.424  30.163  1.00  0.00     0.029 A 
ATOM     29  N   UNL A   1      42.432  27.917  31.078  1.00  0.00    -0.354 N 
ATOM     30  N   UNL A   1      41.412  29.651  33.333  1.00  0.00    -0.248 NA
ATOM     31  C   UNL A   1      41.560  30.334  35.565  1.00  0.00     0.031 C 
ATOM     32  C   UNL A   1      44.127  26.563  31.520  1.00  0.00     0.029 A 
ATOM     33  C   UNL A   1      43.299  27.526  32.081  1.00  0.00     0.049 A 
ATOM     34  H   UNL A   1      41.710  28.579  31.183  1.00  0.00     0.167 HD
ATOM     35  C   UNL A   1      42.473  28.986  33.938  1.00  0.00     0.074 A 
ATOM     36  C   UNL A   1      42.536  29.476  35.303  1.00  0.00     0.031 C 
ATOM     37  C   UNL A   1      43.318  28.051  33.428  1.00  0.00     0.034 A 
BRANCH  24  38
ATOM     38  C   UNL A   1      42.378  26.645  27.422  1.00  0.00     0.023 A 
ATOM     39  C   UNL A   1      41.961  25.318  27.210  1.00  0.00     0.031 A 
ATOM     40  C   UNL A   1      43.288  27.200  26.504  1.00  0.00     0.131 A 
ATOM     41  C   UNL A   1      42.540  24.560  26.178  1.00  0.00     0.055 A 
ATOM     42  C   UNL A   1      43.784  26.471  25.422  1.00  0.00     0.041 A 
ATOM     43  F   UNL A   1      43.753  28.449  26.672  1.00  0.00    -0.206 F 
ATOM     44  C   UNL A   1      43.428  25.134  25.266  1.00  0.00     0.022 A 
BRANCH  41  45
ATOM     45  S   UNL A   1      42.273  22.763  26.169  1.00  0.00     0.124 S 
ATOM     46  O   UNL A   1      40.826  22.682  26.365  1.00  0.00    -0.237 OA
ATOM     47  O   UNL A   1      42.761  22.377  24.850  1.00  0.00    -0.237 OA
ATOM     48  O   UNL A   1      43.074  22.291  27.296  1.00  0.00    -0.744 OA
ENDBRANCH  41  45
ENDBRANCH  24  38
BRANCH  25  49
ATOM     49  C   UNL A   1      39.267  32.181  35.336  1.00  0.00     0.023 A 
ATOM     50  C   UNL A   1      39.688  33.507  35.532  1.00  0.00     0.031 A 
ATOM     51  C   UNL A   1      38.440  31.611  36.325  1.00  0.00     0.131 A 
ATOM     52  C   UNL A   1      39.320  34.198  36.701  1.00  0.00     0.055 A 
ATOM     53  C   UNL A   1      38.024  32.322  37.452  1.00  0.00     0.041 A 
ATOM     54  F   UNL A   1      38.015  30.342  36.207  1.00  0.00    -0.206 F 
ATOM     55  C   UNL A   1      38.477  33.621  37.652  1.00  0.00     0.022 A 
BRANCH  52  56
ATOM     56  S   UNL A   1      40.043  35.834  37.013  1.00  0.00     0.124 S 
ATOM     57  O   UNL A   1      39.674  36.557  35.801  1.00  0.00    -0.237 OA
ATOM     58  O   UNL A   1      39.361  36.239  38.236  1.00  0.00    -0.237 OA
ATOM     59  O   UNL A   1      41.470  35.553  37.161  1.00  0.00    -0.744 OA
ENDBRANCH  52  56
ENDBRANCH  25  49
BRANCH  37  60
ATOM     60  C   UNL A   1      44.404  27.559  34.346  1.00  0.00     0.023 A 
ATOM     61  C   UNL A   1      45.610  28.261  34.508  1.00  0.00     0.031 A 
ATOM     62  C   UNL A   1      44.226  26.364  35.064  1.00  0.00     0.131 A 
ATOM     63  C   UNL A   1      46.619  27.730  35.320  1.00  0.00     0.055 A 
ATOM     64  C   UNL A   1      45.207  25.874  35.925  1.00  0.00     0.041 A 
ATOM     65  F   UNL A   1      43.091  25.656  34.942  1.00  0.00    -0.206 F 
ATOM     66  C   UNL A   1      46.418  26.551  36.045  1.00  0.00     0.022 A 
BRANCH  63  67
ATOM     67  S   UNL A   1      48.237  28.545  35.337  1.00  0.00     0.124 S 
ATOM     68  O   UNL A   1      47.993  29.681  36.222  1.00  0.00    -0.237 OA
ATOM     69  O   UNL A   1      49.107  27.500  35.868  1.00  0.00    -0.237 OA
ATOM     70  O   UNL A   1      48.464  28.887  33.935  1.00  0.00    -0.744 OA
ENDBRANCH  63  67
ENDBRANCH  37  60
ENDBRANCH  11  12
ENDBRANCH   4   6
ENDBRANCH   3   4
ENDBRANCH   2   3
ENDBRANCH   1   2
BRANCH   1  71
ATOM     71  O   UNL A   1      30.608  28.953  23.639  1.00  0.00    -0.374 OA
BRANCH  71  72
ATOM     72  C   UNL A   1      29.961  27.754  23.199  1.00  0.00     0.202 C 
BRANCH  72  73
ATOM     73  C   UNL A   1      30.296  26.490  24.239  1.00  0.00     0.261 C 
BRANCH  73  74
ATOM     74  O   UNL A   1      32.093  25.847  24.926  1.00  0.00    -0.458 OA
BRANCH  74  75
ATOM     75  C   UNL A   1      33.513  25.736  25.177  1.00  0.00     0.359 C 
ATOM     76  O   UNL A   1      34.093  26.591  25.845  1.00  0.00    -0.244 OA
BRANCH  75  77
ATOM     77  C   UNL A   1      34.354  24.623  24.549  1.00  0.00     0.179 A 
ATOM     78  N   UNL A   1      35.465  24.322  25.309  1.00  0.00    -0.245 NA
ATOM     79  C   UNL A   1      34.203  24.065  23.267  1.00  0.00     0.161 A 
ATOM     80  C   UNL A   1      36.387  23.508  24.747  1.00  0.00     0.132 A 
ATOM     81  N   UNL A   1      35.159  23.236  22.726  1.00  0.00    -0.247 NA
ATOM     82  C   UNL A   1      36.242  22.982  23.480  1.00  0.00     0.132 A 
BRANCH  79  83
ATOM     83  C   UNL A   1      33.132  24.371  22.268  1.00  0.00     0.276 C 
ATOM     84  O   UNL A   1      33.261  25.318  21.494  1.00  0.00    -0.267 OA
ATOM     85  N   UNL A   1      32.001  23.608  22.214  1.00  0.00    -0.320 N 
ATOM     86  H   UNL A   1      31.315  23.833  21.545  1.00  0.00     0.170 HD
BRANCH  85  87
ATOM     87  C   UNL A   1      31.769  22.532  23.052  1.00  0.00     0.045 A 
ATOM     88  C   UNL A   1      31.750  22.729  24.890  1.00  0.00     0.030 A 
ATOM     89  C   UNL A   1      32.116  20.928  22.312  1.00  0.00     0.076 A 
ATOM     90  C   UNL A   1      32.120  21.285  25.929  1.00  0.00     0.053 A 
ATOM     91  C   UNL A   1      32.444  19.565  23.393  1.00  0.00     0.167 A 
ATOM     92  C   UNL A   1      32.480  19.730  25.126  1.00  0.00     0.165 A 
ATOM     93  O   UNL A   1      32.556  18.247  23.105  1.00  0.00    -0.454 OA
ATOM     94  O   UNL A   1      32.564  18.476  25.641  1.00  0.00    -0.454 OA
ATOM     95  C   UNL A   1      32.437  17.633  24.433  1.00  0.00     0.468 C 
ENDBRANCH  85  87
ENDBRANCH  79  83
ENDBRANCH  75  77
ENDBRANCH  74  75
ENDBRANCH  73  74
ENDBRANCH  72  73
ENDBRANCH  71  72
ENDBRANCH   1  71
TORSDOF 19
ENDMDL
