MODEL 1
REMARK VINA RESULT:     -11.0      0.000      0.000
REMARK SMILES O=C(C[C@@H]([NH2+]Cc1ccccc1)C(=O)OCCOCCOC(=O)c1ccc(-c2c3nc(c(-c4cc(S(=O)(=O)[O-])ccc4F)c4ccc([nH]4)c(-c4cc(S(=O)(=O)[O-])ccc4F)c4nc(c(-c5cc(S(=O)(=O)[O-])ccc5F)c5ccc2[nH]5)C=C4)C=C3)cc1)Nc1cccc(Cl)c1Cl
REMARK SMILES IDX 18 1 17 2 16 3 15 4 13 5 14 6 4 7 3 8 2 9 1 10 87 11 88 13
REMARK SMILES IDX 89 14 94 15 90 16 92 17 95 18 91 19 93 20 5 21 6 24 7 25
REMARK SMILES IDX 8 26 12 27 9 28 11 29 10 30 19 31 20 32 21 33 22 34 23 35
REMARK SMILES IDX 24 36 25 37 86 38 26 39 85 40 27 41 28 42 29 43 79 44 30 45
REMARK SMILES IDX 84 46 78 47 80 48 31 49 83 50 77 51 76 52 32 54 64 55 44 56
REMARK SMILES IDX 63 57 45 58 48 59 62 60 81 61 46 62 47 63 61 65 82 66 49 67
REMARK SMILES IDX 33 68 34 69 42 70 35 71 41 72 43 73 40 74 36 75 37 76 38 77
REMARK SMILES IDX 39 78 65 79 66 80 74 81 67 82 73 83 75 84 72 85 68 86 69 87
REMARK SMILES IDX 70 88 71 89 50 90 51 91 59 92 52 93 58 94 60 95 57 96 53 97
REMARK SMILES IDX 54 98 55 99 56 100
REMARK H PARENT 87 12 5 22 5 23 80 53 48 64
REMARK Flexibility Score: inf
ROOT
ATOM      1  O   UNL A   1      37.788  21.177  24.583  1.00  0.00    -0.374 OA
ENDROOT
BRANCH   1   2
ATOM      2  C   UNL A   1      37.380  22.199  25.486  1.00  0.00     0.202 C 
BRANCH   2   3
ATOM      3  C   UNL A   1      36.604  23.393  24.918  1.00  0.00     0.261 C 
BRANCH   3   4
ATOM      4  O   UNL A   1      35.334  23.606  25.555  1.00  0.00    -0.459 OA
BRANCH   4   5
ATOM      5  C   UNL A   1      34.340  22.799  25.092  1.00  0.00     0.365 C 
ATOM      6  O   UNL A   1      34.108  22.616  23.900  1.00  0.00    -0.245 OA
BRANCH   5   7
ATOM      7  C   UNL A   1      33.551  22.095  26.213  1.00  0.00     0.303 C 
BRANCH   7   8
ATOM      8  C   UNL A   1      32.020  22.239  26.094  1.00  0.00     0.177 C 
BRANCH   8   9
ATOM      9  C   UNL A   1      31.651  23.710  26.123  1.00  0.00     0.231 C 
ATOM     10  O   UNL A   1      31.196  24.238  27.133  1.00  0.00    -0.274 OA
ATOM     11  N   UNL A   1      31.699  24.287  24.862  1.00  0.00    -0.325 N 
ATOM     12  H   UNL A   1      32.073  23.746  24.129  1.00  0.00     0.169 HD
BRANCH  11  13
ATOM     13  C   UNL A   1      31.253  25.591  24.551  1.00  0.00     0.061 A 
ATOM     14  C   UNL A   1      29.993  25.662  23.933  1.00  0.00     0.028 A 
ATOM     15  C   UNL A   1      31.983  26.775  24.779  1.00  0.00     0.083 A 
ATOM     16  C   UNL A   1      29.426  26.891  23.604  1.00  0.00     0.004 A 
ATOM     17  C   UNL A   1      31.411  28.009  24.419  1.00  0.00     0.061 A 
ATOM     18  Cl  UNL A   1      33.635  26.718  25.311  1.00  0.00    -0.080 Cl
ATOM     19  C   UNL A   1      30.133  28.063  23.848  1.00  0.00     0.022 A 
ATOM     20  Cl  UNL A   1      32.240  29.519  24.609  1.00  0.00    -0.083 Cl
ENDBRANCH  11  13
ENDBRANCH   8   9
ENDBRANCH   7   8
BRANCH   7  21
ATOM     21  N   UNL A   1      33.906  20.646  26.354  1.00  0.00    -0.330 N 
ATOM     22  H   UNL A   1      34.222  20.489  27.310  1.00  0.00     0.347 HD
ATOM     23  H   UNL A   1      34.625  20.459  25.654  1.00  0.00     0.347 HD
BRANCH  21  24
ATOM     24  C   UNL A   1      32.806  19.707  26.076  1.00  0.00     0.298 C 
BRANCH  24  25
ATOM     25  C   UNL A   1      32.866  18.992  24.743  1.00  0.00     0.006 A 
ATOM     26  C   UNL A   1      32.336  19.529  23.558  1.00  0.00     0.009 A 
ATOM     27  C   UNL A   1      33.498  17.740  24.682  1.00  0.00     0.009 A 
ATOM     28  C   UNL A   1      32.373  18.801  22.369  1.00  0.00     0.001 A 
ATOM     29  C   UNL A   1      33.552  17.022  23.487  1.00  0.00     0.001 A 
ATOM     30  C   UNL A   1      32.978  17.548  22.333  1.00  0.00     0.000 A 
ENDBRANCH  24  25
ENDBRANCH  21  24
ENDBRANCH   7  21
ENDBRANCH   5   7
ENDBRANCH   4   5
ENDBRANCH   3   4
ENDBRANCH   2   3
ENDBRANCH   1   2
BRANCH   1  31
ATOM     31  C   UNL A   1      37.871  19.835  25.064  1.00  0.00     0.202 C 
BRANCH  31  32
ATOM     32  C   UNL A   1      39.256  19.279  25.420  1.00  0.00     0.261 C 
BRANCH  32  33
ATOM     33  O   UNL A   1      39.796  19.876  26.615  1.00  0.00    -0.460 OA
BRANCH  33  34
ATOM     34  C   UNL A   1      41.042  20.388  26.473  1.00  0.00     0.338 C 
ATOM     35  O   UNL A   1      41.967  19.901  25.832  1.00  0.00    -0.246 OA
BRANCH  34  36
ATOM     36  C   UNL A   1      41.103  21.754  27.022  1.00  0.00     0.060 A 
ATOM     37  C   UNL A   1      40.541  22.784  26.255  1.00  0.00     0.016 A 
ATOM     38  C   UNL A   1      41.784  22.041  28.206  1.00  0.00     0.016 A 
ATOM     39  C   UNL A   1      40.708  24.112  26.640  1.00  0.00     0.010 A 
ATOM     40  C   UNL A   1      41.959  23.377  28.585  1.00  0.00     0.010 A 
ATOM     41  C   UNL A   1      41.458  24.419  27.781  1.00  0.00    -0.014 A 
BRANCH  41  42
ATOM     42  C   UNL A   1      41.875  25.824  28.015  1.00  0.00     0.031 A 
ATOM     43  C   UNL A   1      43.202  26.284  27.471  1.00  0.00     0.074 A 
ATOM     44  C   UNL A   1      41.067  26.690  28.651  1.00  0.00     0.049 A 
ATOM     45  N   UNL A   1      43.782  27.451  27.567  1.00  0.00    -0.248 NA
ATOM     46  C   UNL A   1      43.975  25.284  26.718  1.00  0.00     0.031 C 
ATOM     47  C   UNL A   1      39.736  26.377  29.169  1.00  0.00     0.029 A 
ATOM     48  N   UNL A   1      41.249  28.014  28.967  1.00  0.00    -0.354 N 
ATOM     49  C   UNL A   1      44.991  27.330  26.888  1.00  0.00     0.074 A 
ATOM     50  C   UNL A   1      45.075  25.961  26.425  1.00  0.00     0.031 C 
ATOM     51  C   UNL A   1      39.223  27.479  29.744  1.00  0.00     0.029 A 
ATOM     52  C   UNL A   1      40.202  28.562  29.668  1.00  0.00     0.049 A 
ATOM     53  H   UNL A   1      42.054  28.522  28.715  1.00  0.00     0.167 HD
ATOM     54  C   UNL A   1      45.937  28.275  26.662  1.00  0.00     0.034 A 
ATOM     55  C   UNL A   1      40.061  29.791  30.206  1.00  0.00     0.034 A 
ATOM     56  C   UNL A   1      45.846  29.632  27.145  1.00  0.00     0.049 A 
ATOM     57  C   UNL A   1      41.170  30.800  30.029  1.00  0.00     0.074 A 
ATOM     58  C   UNL A   1      46.744  30.672  26.977  1.00  0.00     0.029 A 
ATOM     59  N   UNL A   1      44.796  30.136  27.904  1.00  0.00    -0.354 N 
ATOM     60  N   UNL A   1      42.312  30.672  29.391  1.00  0.00    -0.248 NA
ATOM     61  C   UNL A   1      40.968  32.120  30.638  1.00  0.00     0.031 C 
ATOM     62  C   UNL A   1      46.273  31.778  27.693  1.00  0.00     0.029 A 
ATOM     63  C   UNL A   1      45.041  31.459  28.240  1.00  0.00     0.049 A 
ATOM     64  H   UNL A   1      43.995  29.627  28.165  1.00  0.00     0.167 HD
ATOM     65  C   UNL A   1      42.946  31.908  29.495  1.00  0.00     0.074 A 
ATOM     66  C   UNL A   1      42.056  32.767  30.249  1.00  0.00     0.031 C 
ATOM     67  C   UNL A   1      44.150  32.302  29.003  1.00  0.00     0.034 A 
BRANCH  54  68
ATOM     68  C   UNL A   1      47.174  27.845  25.908  1.00  0.00     0.023 A 
ATOM     69  C   UNL A   1      47.320  28.076  24.529  1.00  0.00     0.031 A 
ATOM     70  C   UNL A   1      48.201  27.147  26.569  1.00  0.00     0.131 A 
ATOM     71  C   UNL A   1      48.422  27.543  23.842  1.00  0.00     0.055 A 
ATOM     72  C   UNL A   1      49.336  26.693  25.894  1.00  0.00     0.041 A 
ATOM     73  F   UNL A   1      48.108  26.875  27.881  1.00  0.00    -0.206 F 
ATOM     74  C   UNL A   1      49.443  26.875  24.519  1.00  0.00     0.022 A 
BRANCH  71  75
ATOM     75  S   UNL A   1      48.421  27.598  22.028  1.00  0.00     0.124 S 
ATOM     76  O   UNL A   1      48.601  26.188  21.690  1.00  0.00    -0.237 OA
ATOM     77  O   UNL A   1      47.112  28.166  21.730  1.00  0.00    -0.237 OA
ATOM     78  O   UNL A   1      49.561  28.457  21.711  1.00  0.00    -0.744 OA
ENDBRANCH  71  75
ENDBRANCH  54  68
BRANCH  55  79
ATOM     79  C   UNL A   1      38.844  30.131  30.996  1.00  0.00     0.023 A 
ATOM     80  C   UNL A   1      37.830  30.940  30.459  1.00  0.00     0.031 A 
ATOM     81  C   UNL A   1      38.701  29.688  32.323  1.00  0.00     0.131 A 
ATOM     82  C   UNL A   1      36.737  31.312  31.258  1.00  0.00     0.055 A 
ATOM     83  C   UNL A   1      37.589  30.021  33.098  1.00  0.00     0.041 A 
ATOM     84  F   UNL A   1      39.642  28.913  32.886  1.00  0.00    -0.206 F 
ATOM     85  C   UNL A   1      36.604  30.848  32.568  1.00  0.00     0.022 A 
BRANCH  82  86
ATOM     86  S   UNL A   1      35.522  32.477  30.582  1.00  0.00     0.124 S 
ATOM     87  O   UNL A   1      34.395  32.292  31.489  1.00  0.00    -0.237 OA
ATOM     88  O   UNL A   1      36.230  33.749  30.689  1.00  0.00    -0.237 OA
ATOM     89  O   UNL A   1      35.313  31.997  29.219  1.00  0.00    -0.744 OA
ENDBRANCH  82  86
ENDBRANCH  55  79
BRANCH  67  90
ATOM     90  C   UNL A   1      44.547  33.742  29.225  1.00  0.00     0.023 A 
ATOM     91  C   UNL A   1      44.092  34.777  28.389  1.00  0.00     0.031 A 
ATOM     92  C   UNL A   1      45.406  34.080  30.287  1.00  0.00     0.131 A 
ATOM     93  C   UNL A   1      44.540  36.091  28.596  1.00  0.00     0.055 A 
ATOM     94  C   UNL A   1      45.799  35.397  30.524  1.00  0.00     0.041 A 
ATOM     95  F   UNL A   1      45.872  33.132  31.115  1.00  0.00    -0.206 F 
ATOM     96  C   UNL A   1      45.377  36.409  29.669  1.00  0.00     0.022 A 
BRANCH  93  97
ATOM     97  S   UNL A   1      44.089  37.367  27.389  1.00  0.00     0.124 S 
ATOM     98  O   UNL A   1      43.080  36.684  26.586  1.00  0.00    -0.237 OA
ATOM     99  O   UNL A   1      43.600  38.446  28.243  1.00  0.00    -0.237 OA
ATOM    100  O   UNL A   1      45.346  37.647  26.699  1.00  0.00    -0.744 OA
ENDBRANCH  93  97
ENDBRANCH  67  90
ENDBRANCH  41  42
ENDBRANCH  34  36
ENDBRANCH  33  34
ENDBRANCH  32  33
ENDBRANCH  31  32
ENDBRANCH   1  31
TORSDOF 23
ENDMDL
MODEL 2
REMARK VINA RESULT:     -10.8      1.540      1.866
REMARK SMILES O=C(C[C@@H]([NH2+]Cc1ccccc1)C(=O)OCCOCCOC(=O)c1ccc(-c2c3nc(c(-c4cc(S(=O)(=O)[O-])ccc4F)c4ccc([nH]4)c(-c4cc(S(=O)(=O)[O-])ccc4F)c4nc(c(-c5cc(S(=O)(=O)[O-])ccc5F)c5ccc2[nH]5)C=C4)C=C3)cc1)Nc1cccc(Cl)c1Cl
REMARK SMILES IDX 18 1 17 2 16 3 15 4 13 5 14 6 4 7 3 8 2 9 1 10 87 11 88 13
REMARK SMILES IDX 89 14 94 15 90 16 92 17 95 18 91 19 93 20 5 21 6 24 7 25
REMARK SMILES IDX 8 26 12 27 9 28 11 29 10 30 19 31 20 32 21 33 22 34 23 35
REMARK SMILES IDX 24 36 25 37 86 38 26 39 85 40 27 41 28 42 29 43 79 44 30 45
REMARK SMILES IDX 84 46 78 47 80 48 31 49 83 50 77 51 76 52 32 54 64 55 44 56
REMARK SMILES IDX 63 57 45 58 48 59 62 60 81 61 46 62 47 63 61 65 82 66 49 67
REMARK SMILES IDX 33 68 34 69 42 70 35 71 41 72 43 73 40 74 36 75 37 76 38 77
REMARK SMILES IDX 39 78 65 79 66 80 74 81 67 82 73 83 75 84 72 85 68 86 69 87
REMARK SMILES IDX 70 88 71 89 50 90 51 91 59 92 52 93 58 94 60 95 57 96 53 97
REMARK SMILES IDX 54 98 55 99 56 100
REMARK H PARENT 87 12 5 22 5 23 80 53 48 64
REMARK Flexibility Score: inf
ROOT
ATOM      1  O   UNL A   1      37.672  21.102  24.461  1.00  0.00    -0.374 OA
ENDROOT
BRANCH   1   2
ATOM      2  C   UNL A   1      37.287  22.152  25.341  1.00  0.00     0.202 C 
BRANCH   2   3
ATOM      3  C   UNL A   1      36.398  23.269  24.784  1.00  0.00     0.261 C 
BRANCH   3   4
ATOM      4  O   UNL A   1      35.309  23.622  25.651  1.00  0.00    -0.459 OA
BRANCH   4   5
ATOM      5  C   UNL A   1      34.246  24.179  25.007  1.00  0.00     0.365 C 
ATOM      6  O   UNL A   1      34.327  25.169  24.286  1.00  0.00    -0.245 OA
BRANCH   5   7
ATOM      7  C   UNL A   1      32.925  23.419  25.235  1.00  0.00     0.303 C 
BRANCH   7   8
ATOM      8  C   UNL A   1      31.824  23.744  24.206  1.00  0.00     0.177 C 
BRANCH   8   9
ATOM      9  C   UNL A   1      31.167  25.061  24.574  1.00  0.00     0.231 C 
ATOM     10  O   UNL A   1      30.246  25.116  25.382  1.00  0.00    -0.274 OA
ATOM     11  N   UNL A   1      31.589  26.101  23.757  1.00  0.00    -0.325 N 
ATOM     12  H   UNL A   1      32.330  25.919  23.135  1.00  0.00     0.169 HD
BRANCH  11  13
ATOM     13  C   UNL A   1      31.035  27.401  23.752  1.00  0.00     0.061 A 
ATOM     14  C   UNL A   1      30.104  27.651  22.729  1.00  0.00     0.028 A 
ATOM     15  C   UNL A   1      31.374  28.432  24.650  1.00  0.00     0.083 A 
ATOM     16  C   UNL A   1      29.462  28.884  22.632  1.00  0.00     0.004 A 
ATOM     17  C   UNL A   1      30.738  29.681  24.528  1.00  0.00     0.061 A 
ATOM     18  Cl  UNL A   1      32.689  28.246  25.769  1.00  0.00    -0.080 Cl
ATOM     19  C   UNL A   1      29.777  29.897  23.531  1.00  0.00     0.022 A 
ATOM     20  Cl  UNL A   1      31.115  31.031  25.546  1.00  0.00    -0.083 Cl
ENDBRANCH  11  13
ENDBRANCH   8   9
ENDBRANCH   7   8
BRANCH   7  21
ATOM     21  N   UNL A   1      33.113  21.934  25.312  1.00  0.00    -0.330 N 
ATOM     22  H   UNL A   1      32.973  21.646  26.281  1.00  0.00     0.347 HD
ATOM     23  H   UNL A   1      34.055  21.747  24.967  1.00  0.00     0.347 HD
BRANCH  21  24
ATOM     24  C   UNL A   1      32.200  21.148  24.465  1.00  0.00     0.298 C 
BRANCH  24  25
ATOM     25  C   UNL A   1      32.711  19.794  24.020  1.00  0.00     0.006 A 
ATOM     26  C   UNL A   1      32.244  19.137  22.870  1.00  0.00     0.009 A 
ATOM     27  C   UNL A   1      33.712  19.172  24.783  1.00  0.00     0.009 A 
ATOM     28  C   UNL A   1      32.712  17.865  22.538  1.00  0.00     0.001 A 
ATOM     29  C   UNL A   1      34.195  17.910  24.437  1.00  0.00     0.001 A 
ATOM     30  C   UNL A   1      33.686  17.251  23.321  1.00  0.00     0.000 A 
ENDBRANCH  24  25
ENDBRANCH  21  24
ENDBRANCH   7  21
ENDBRANCH   5   7
ENDBRANCH   4   5
ENDBRANCH   3   4
ENDBRANCH   2   3
ENDBRANCH   1   2
BRANCH   1  31
ATOM     31  C   UNL A   1      37.732  19.770  24.972  1.00  0.00     0.202 C 
BRANCH  31  32
ATOM     32  C   UNL A   1      39.104  19.210  25.371  1.00  0.00     0.261 C 
BRANCH  32  33
ATOM     33  O   UNL A   1      39.602  19.795  26.589  1.00  0.00    -0.460 OA
BRANCH  33  34
ATOM     34  C   UNL A   1      40.875  20.252  26.513  1.00  0.00     0.338 C 
ATOM     35  O   UNL A   1      41.812  19.719  25.929  1.00  0.00    -0.246 OA
BRANCH  34  36
ATOM     36  C   UNL A   1      40.964  21.620  27.053  1.00  0.00     0.060 A 
ATOM     37  C   UNL A   1      40.421  22.656  26.281  1.00  0.00     0.016 A 
ATOM     38  C   UNL A   1      41.652  21.900  28.235  1.00  0.00     0.016 A 
ATOM     39  C   UNL A   1      40.615  23.983  26.657  1.00  0.00     0.010 A 
ATOM     40  C   UNL A   1      41.855  23.235  28.605  1.00  0.00     0.010 A 
ATOM     41  C   UNL A   1      41.373  24.282  27.796  1.00  0.00    -0.014 A 
BRANCH  41  42
ATOM     42  C   UNL A   1      41.819  25.679  28.020  1.00  0.00     0.031 A 
ATOM     43  C   UNL A   1      43.175  26.096  27.517  1.00  0.00     0.074 A 
ATOM     44  C   UNL A   1      41.011  26.578  28.611  1.00  0.00     0.049 A 
ATOM     45  N   UNL A   1      43.782  27.249  27.613  1.00  0.00    -0.248 NA
ATOM     46  C   UNL A   1      43.949  25.062  26.809  1.00  0.00     0.031 C 
ATOM     47  C   UNL A   1      39.655  26.309  29.086  1.00  0.00     0.029 A 
ATOM     48  N   UNL A   1      41.216  27.902  28.910  1.00  0.00    -0.354 N 
ATOM     49  C   UNL A   1      45.011  27.084  26.980  1.00  0.00     0.074 A 
ATOM     50  C   UNL A   1      45.075  25.705  26.544  1.00  0.00     0.031 C 
ATOM     51  C   UNL A   1      39.151  27.434  29.623  1.00  0.00     0.029 A 
ATOM     52  C   UNL A   1      40.160  28.490  29.564  1.00  0.00     0.049 A 
ATOM     53  H   UNL A   1      42.043  28.384  28.679  1.00  0.00     0.167 HD
ATOM     54  C   UNL A   1      45.989  28.000  26.772  1.00  0.00     0.034 A 
ATOM     55  C   UNL A   1      40.033  29.731  30.075  1.00  0.00     0.034 A 
ATOM     56  C   UNL A   1      45.916  29.368  27.228  1.00  0.00     0.049 A 
ATOM     57  C   UNL A   1      41.173  30.708  29.920  1.00  0.00     0.074 A 
ATOM     58  C   UNL A   1      46.848  30.381  27.075  1.00  0.00     0.029 A 
ATOM     59  N   UNL A   1      44.854  29.912  27.940  1.00  0.00    -0.354 N 
ATOM     60  N   UNL A   1      42.333  30.539  29.327  1.00  0.00    -0.248 NA
ATOM     61  C   UNL A   1      40.984  32.044  30.499  1.00  0.00     0.031 C 
ATOM     62  C   UNL A   1      46.381  31.512  27.754  1.00  0.00     0.029 A 
ATOM     63  C   UNL A   1      45.122  31.234  28.261  1.00  0.00     0.049 A 
ATOM     64  H   UNL A   1      44.031  29.429  28.180  1.00  0.00     0.167 HD
ATOM     65  C   UNL A   1      42.996  31.760  29.432  1.00  0.00     0.074 A 
ATOM     66  C   UNL A   1      42.102  32.656  30.138  1.00  0.00     0.031 C 
ATOM     67  C   UNL A   1      44.226  32.114  28.977  1.00  0.00     0.034 A 
BRANCH  54  68
ATOM     68  C   UNL A   1      47.241  27.525  26.072  1.00  0.00     0.023 A 
ATOM     69  C   UNL A   1      48.344  27.023  26.784  1.00  0.00     0.031 A 
ATOM     70  C   UNL A   1      47.351  27.621  24.672  1.00  0.00     0.131 A 
ATOM     71  C   UNL A   1      49.535  26.717  26.106  1.00  0.00     0.055 A 
ATOM     72  C   UNL A   1      48.510  27.236  23.996  1.00  0.00     0.041 A 
ATOM     73  F   UNL A   1      46.340  28.115  23.940  1.00  0.00    -0.206 F 
ATOM     74  C   UNL A   1      49.617  26.796  24.716  1.00  0.00     0.022 A 
BRANCH  71  75
ATOM     75  S   UNL A   1      51.023  26.368  27.085  1.00  0.00     0.124 S 
ATOM     76  O   UNL A   1      50.623  26.839  28.409  1.00  0.00    -0.237 OA
ATOM     77  O   UNL A   1      51.167  24.924  26.935  1.00  0.00    -0.237 OA
ATOM     78  O   UNL A   1      52.057  27.170  26.433  1.00  0.00    -0.744 OA
ENDBRANCH  71  75
ENDBRANCH  54  68
BRANCH  55  79
ATOM     79  C   UNL A   1      38.797  30.117  30.814  1.00  0.00     0.023 A 
ATOM     80  C   UNL A   1      37.773  30.847  30.191  1.00  0.00     0.031 A 
ATOM     81  C   UNL A   1      38.646  29.799  32.176  1.00  0.00     0.131 A 
ATOM     82  C   UNL A   1      36.661  31.269  30.938  1.00  0.00     0.055 A 
ATOM     83  C   UNL A   1      37.516  30.178  32.902  1.00  0.00     0.041 A 
ATOM     84  F   UNL A   1      39.596  29.103  32.821  1.00  0.00    -0.206 F 
ATOM     85  C   UNL A   1      36.520  30.928  32.285  1.00  0.00     0.022 A 
BRANCH  82  86
ATOM     86  S   UNL A   1      35.431  32.336  30.139  1.00  0.00     0.124 S 
ATOM     87  O   UNL A   1      35.071  31.548  28.966  1.00  0.00    -0.237 OA
ATOM     88  O   UNL A   1      34.410  32.448  31.176  1.00  0.00    -0.237 OA
ATOM     89  O   UNL A   1      36.173  33.563  29.864  1.00  0.00    -0.744 OA
ENDBRANCH  82  86
ENDBRANCH  55  79
BRANCH  67  90
ATOM     90  C   UNL A   1      44.653  33.547  29.188  1.00  0.00     0.023 A 
ATOM     91  C   UNL A   1      44.248  34.579  28.324  1.00  0.00     0.031 A 
ATOM     92  C   UNL A   1      45.489  33.881  30.269  1.00  0.00     0.131 A 
ATOM     93  C   UNL A   1      44.723  35.885  28.523  1.00  0.00     0.055 A 
ATOM     94  C   UNL A   1      45.909  35.191  30.498  1.00  0.00     0.041 A 
ATOM     95  F   UNL A   1      45.908  32.935  31.126  1.00  0.00    -0.206 F 
ATOM     96  C   UNL A   1      45.537  36.200  29.615  1.00  0.00     0.022 A 
BRANCH  93  97
ATOM     97  S   UNL A   1      44.339  37.152  27.285  1.00  0.00     0.124 S 
ATOM     98  O   UNL A   1      43.989  38.298  28.119  1.00  0.00    -0.237 OA
ATOM     99  O   UNL A   1      45.595  37.260  26.549  1.00  0.00    -0.237 OA
ATOM    100  O   UNL A   1      43.230  36.572  26.531  1.00  0.00    -0.744 OA
ENDBRANCH  93  97
ENDBRANCH  67  90
ENDBRANCH  41  42
ENDBRANCH  34  36
ENDBRANCH  33  34
ENDBRANCH  32  33
ENDBRANCH  31  32
ENDBRANCH   1  31
TORSDOF 23
ENDMDL
MODEL 3
REMARK VINA RESULT:     -10.8      1.307      7.413
REMARK SMILES O=C(C[C@@H]([NH2+]Cc1ccccc1)C(=O)OCCOCCOC(=O)c1ccc(-c2c3nc(c(-c4cc(S(=O)(=O)[O-])ccc4F)c4ccc([nH]4)c(-c4cc(S(=O)(=O)[O-])ccc4F)c4nc(c(-c5cc(S(=O)(=O)[O-])ccc5F)c5ccc2[nH]5)C=C4)C=C3)cc1)Nc1cccc(Cl)c1Cl
REMARK SMILES IDX 18 1 17 2 16 3 15 4 13 5 14 6 4 7 3 8 2 9 1 10 87 11 88 13
REMARK SMILES IDX 89 14 94 15 90 16 92 17 95 18 91 19 93 20 5 21 6 24 7 25
REMARK SMILES IDX 8 26 12 27 9 28 11 29 10 30 19 31 20 32 21 33 22 34 23 35
REMARK SMILES IDX 24 36 25 37 86 38 26 39 85 40 27 41 28 42 29 43 79 44 30 45
REMARK SMILES IDX 84 46 78 47 80 48 31 49 83 50 77 51 76 52 32 54 64 55 44 56
REMARK SMILES IDX 63 57 45 58 48 59 62 60 81 61 46 62 47 63 61 65 82 66 49 67
REMARK SMILES IDX 33 68 34 69 42 70 35 71 41 72 43 73 40 74 36 75 37 76 38 77
REMARK SMILES IDX 39 78 65 79 66 80 74 81 67 82 73 83 75 84 72 85 68 86 69 87
REMARK SMILES IDX 70 88 71 89 50 90 51 91 59 92 52 93 58 94 60 95 57 96 53 97
REMARK SMILES IDX 54 98 55 99 56 100
REMARK H PARENT 87 12 5 22 5 23 80 53 48 64
REMARK Flexibility Score: inf
ROOT
ATOM      1  O   UNL A   1      37.490  20.818  24.635  1.00  0.00    -0.374 OA
ENDROOT
BRANCH   1   2
ATOM      2  C   UNL A   1      37.607  21.877  25.581  1.00  0.00     0.202 C 
BRANCH   2   3
ATOM      3  C   UNL A   1      36.320  22.542  26.080  1.00  0.00     0.261 C 
BRANCH   3   4
ATOM      4  O   UNL A   1      35.127  21.979  25.513  1.00  0.00    -0.459 OA
BRANCH   4   5
ATOM      5  C   UNL A   1      34.140  21.742  26.420  1.00  0.00     0.365 C 
ATOM      6  O   UNL A   1      34.345  21.339  27.562  1.00  0.00    -0.245 OA
BRANCH   5   7
ATOM      7  C   UNL A   1      32.730  22.069  25.891  1.00  0.00     0.303 C 
BRANCH   7   8
ATOM      8  C   UNL A   1      32.711  23.088  24.735  1.00  0.00     0.177 C 
BRANCH   8   9
ATOM      9  C   UNL A   1      32.634  24.492  25.305  1.00  0.00     0.231 C 
ATOM     10  O   UNL A   1      32.358  24.693  26.483  1.00  0.00    -0.274 OA
ATOM     11  N   UNL A   1      32.708  25.463  24.316  1.00  0.00    -0.325 N 
ATOM     12  H   UNL A   1      32.921  25.165  23.402  1.00  0.00     0.169 HD
BRANCH  11  13
ATOM     13  C   UNL A   1      32.501  26.845  24.522  1.00  0.00     0.061 A 
ATOM     14  C   UNL A   1      33.482  27.489  25.297  1.00  0.00     0.028 A 
ATOM     15  C   UNL A   1      31.396  27.581  24.049  1.00  0.00     0.083 A 
ATOM     16  C   UNL A   1      33.411  28.857  25.547  1.00  0.00     0.004 A 
ATOM     17  C   UNL A   1      31.321  28.957  24.330  1.00  0.00     0.061 A 
ATOM     18  Cl  UNL A   1      30.046  26.783  23.302  1.00  0.00    -0.080 Cl
ATOM     19  C   UNL A   1      32.333  29.591  25.064  1.00  0.00     0.022 A 
ATOM     20  Cl  UNL A   1      29.984  29.944  23.841  1.00  0.00    -0.083 Cl
ENDBRANCH  11  13
ENDBRANCH   8   9
ENDBRANCH   7   8
BRANCH   7  21
ATOM     21  N   UNL A   1      31.960  20.847  25.492  1.00  0.00    -0.330 N 
ATOM     22  H   UNL A   1      30.981  21.112  25.381  1.00  0.00     0.347 HD
ATOM     23  H   UNL A   1      32.112  20.160  26.230  1.00  0.00     0.347 HD
BRANCH  21  24
ATOM     24  C   UNL A   1      32.407  20.213  24.240  1.00  0.00     0.298 C 
BRANCH  24  25
ATOM     25  C   UNL A   1      32.785  18.750  24.337  1.00  0.00     0.006 A 
ATOM     26  C   UNL A   1      33.265  18.007  23.247  1.00  0.00     0.009 A 
ATOM     27  C   UNL A   1      32.666  18.108  25.580  1.00  0.00     0.009 A 
ATOM     28  C   UNL A   1      33.547  16.647  23.382  1.00  0.00     0.001 A 
ATOM     29  C   UNL A   1      32.968  16.754  25.718  1.00  0.00     0.001 A 
ATOM     30  C   UNL A   1      33.397  16.020  24.616  1.00  0.00     0.000 A 
ENDBRANCH  24  25
ENDBRANCH  21  24
ENDBRANCH   7  21
ENDBRANCH   5   7
ENDBRANCH   4   5
ENDBRANCH   3   4
ENDBRANCH   2   3
ENDBRANCH   1   2
BRANCH   1  31
ATOM     31  C   UNL A   1      38.127  19.573  24.922  1.00  0.00     0.202 C 
BRANCH  31  32
ATOM     32  C   UNL A   1      39.237  19.557  25.982  1.00  0.00     0.261 C 
BRANCH  32  33
ATOM     33  O   UNL A   1      40.550  19.447  25.399  1.00  0.00    -0.460 OA
BRANCH  33  34
ATOM     34  C   UNL A   1      41.569  19.620  26.276  1.00  0.00     0.338 C 
ATOM     35  O   UNL A   1      42.430  18.798  26.571  1.00  0.00    -0.246 OA
BRANCH  34  36
ATOM     36  C   UNL A   1      41.654  21.030  26.694  1.00  0.00     0.060 A 
ATOM     37  C   UNL A   1      41.496  22.008  25.704  1.00  0.00     0.016 A 
ATOM     38  C   UNL A   1      41.985  21.389  28.002  1.00  0.00     0.016 A 
ATOM     39  C   UNL A   1      41.725  23.349  26.003  1.00  0.00     0.010 A 
ATOM     40  C   UNL A   1      42.225  22.736  28.298  1.00  0.00     0.010 A 
ATOM     41  C   UNL A   1      42.137  23.716  27.290  1.00  0.00    -0.014 A 
BRANCH  41  42
ATOM     42  C   UNL A   1      42.658  25.087  27.518  1.00  0.00     0.031 A 
ATOM     43  C   UNL A   1      41.766  26.097  28.188  1.00  0.00     0.074 A 
ATOM     44  C   UNL A   1      43.920  25.413  27.186  1.00  0.00     0.049 A 
ATOM     45  N   UNL A   1      41.994  27.352  28.472  1.00  0.00    -0.248 NA
ATOM     46  C   UNL A   1      40.433  25.619  28.589  1.00  0.00     0.031 C 
ATOM     47  C   UNL A   1      44.895  24.504  26.587  1.00  0.00     0.029 A 
ATOM     48  N   UNL A   1      44.596  26.601  27.308  1.00  0.00    -0.354 N 
ATOM     49  C   UNL A   1      40.834  27.819  29.086  1.00  0.00     0.074 A 
ATOM     50  C   UNL A   1      39.892  26.720  29.090  1.00  0.00     0.031 C 
ATOM     51  C   UNL A   1      46.046  25.171  26.389  1.00  0.00     0.029 A 
ATOM     52  C   UNL A   1      45.877  26.560  26.811  1.00  0.00     0.049 A 
ATOM     53  H   UNL A   1      44.201  27.407  27.714  1.00  0.00     0.167 HD
ATOM     54  C   UNL A   1      40.583  29.046  29.606  1.00  0.00     0.034 A 
ATOM     55  C   UNL A   1      46.797  27.538  26.690  1.00  0.00     0.034 A 
ATOM     56  C   UNL A   1      41.528  30.136  29.579  1.00  0.00     0.049 A 
ATOM     57  C   UNL A   1      46.463  28.924  27.187  1.00  0.00     0.074 A 
ATOM     58  C   UNL A   1      41.380  31.421  30.074  1.00  0.00     0.029 A 
ATOM     59  N   UNL A   1      42.796  30.075  29.013  1.00  0.00    -0.354 N 
ATOM     60  N   UNL A   1      45.361  29.356  27.758  1.00  0.00    -0.248 NA
ATOM     61  C   UNL A   1      47.499  29.953  27.027  1.00  0.00     0.031 C 
ATOM     62  C   UNL A   1      42.527  32.153  29.745  1.00  0.00     0.029 A 
ATOM     63  C   UNL A   1      43.426  31.306  29.117  1.00  0.00     0.049 A 
ATOM     64  H   UNL A   1      43.190  29.273  28.599  1.00  0.00     0.167 HD
ATOM     65  C   UNL A   1      45.588  30.698  28.056  1.00  0.00     0.074 A 
ATOM     66  C   UNL A   1      46.932  30.999  27.609  1.00  0.00     0.031 C 
ATOM     67  C   UNL A   1      44.764  31.597  28.655  1.00  0.00     0.034 A 
BRANCH  54  68
ATOM     68  C   UNL A   1      39.210  29.277  30.192  1.00  0.00     0.023 A 
ATOM     69  C   UNL A   1      38.208  29.964  29.483  1.00  0.00     0.031 A 
ATOM     70  C   UNL A   1      38.914  28.850  31.499  1.00  0.00     0.131 A 
ATOM     71  C   UNL A   1      36.992  30.274  30.112  1.00  0.00     0.055 A 
ATOM     72  C   UNL A   1      37.671  29.089  32.089  1.00  0.00     0.041 A 
ATOM     73  F   UNL A   1      39.838  28.211  32.234  1.00  0.00    -0.206 F 
ATOM     74  C   UNL A   1      36.708  29.820  31.401  1.00  0.00     0.022 A 
BRANCH  71  75
ATOM     75  S   UNL A   1      35.852  31.415  29.280  1.00  0.00     0.124 S 
ATOM     76  O   UNL A   1      35.070  31.923  30.405  1.00  0.00    -0.237 OA
ATOM     77  O   UNL A   1      36.761  32.366  28.651  1.00  0.00    -0.237 OA
ATOM     78  O   UNL A   1      35.116  30.552  28.358  1.00  0.00    -0.744 OA
ENDBRANCH  71  75
ENDBRANCH  54  68
BRANCH  55  79
ATOM     79  C   UNL A   1      48.111  27.260  26.042  1.00  0.00     0.023 A 
ATOM     80  C   UNL A   1      48.292  27.433  24.661  1.00  0.00     0.031 A 
ATOM     81  C   UNL A   1      49.193  26.770  26.794  1.00  0.00     0.131 A 
ATOM     82  C   UNL A   1      49.516  27.082  24.068  1.00  0.00     0.055 A 
ATOM     83  C   UNL A   1      50.423  26.468  26.208  1.00  0.00     0.041 A 
ATOM     84  F   UNL A   1      49.072  26.586  28.119  1.00  0.00    -0.206 F 
ATOM     85  C   UNL A   1      50.585  26.613  24.834  1.00  0.00     0.022 A 
BRANCH  82  86
ATOM     86  S   UNL A   1      49.667  27.177  22.263  1.00  0.00     0.124 S 
ATOM     87  O   UNL A   1      49.281  28.559  22.005  1.00  0.00    -0.237 OA
ATOM     88  O   UNL A   1      51.076  26.855  22.060  1.00  0.00    -0.237 OA
ATOM     89  O   UNL A   1      48.725  26.166  21.790  1.00  0.00    -0.744 OA
ENDBRANCH  82  86
ENDBRANCH  55  79
BRANCH  67  90
ATOM     90  C   UNL A   1      45.319  32.979  28.906  1.00  0.00     0.023 A 
ATOM     91  C   UNL A   1      45.130  34.033  27.995  1.00  0.00     0.031 A 
ATOM     92  C   UNL A   1      46.059  33.240  30.074  1.00  0.00     0.131 A 
ATOM     93  C   UNL A   1      45.720  35.284  28.241  1.00  0.00     0.055 A 
ATOM     94  C   UNL A   1      46.591  34.501  30.342  1.00  0.00     0.041 A 
ATOM     95  F   UNL A   1      46.272  32.269  30.977  1.00  0.00    -0.206 F 
ATOM     96  C   UNL A   1      46.435  35.528  29.417  1.00  0.00     0.022 A 
BRANCH  93  97
ATOM     97  S   UNL A   1      45.620  36.563  26.959  1.00  0.00     0.124 S 
ATOM     98  O   UNL A   1      46.312  35.929  25.842  1.00  0.00    -0.237 OA
ATOM     99  O   UNL A   1      44.179  36.735  26.802  1.00  0.00    -0.237 OA
ATOM    100  O   UNL A   1      46.316  37.701  27.555  1.00  0.00    -0.744 OA
ENDBRANCH  93  97
ENDBRANCH  67  90
ENDBRANCH  41  42
ENDBRANCH  34  36
ENDBRANCH  33  34
ENDBRANCH  32  33
ENDBRANCH  31  32
ENDBRANCH   1  31
TORSDOF 23
ENDMDL
