MODEL 1
REMARK VINA RESULT:     -10.0      0.000      0.000
REMARK SMILES O=C(OCCOCCOC(=O)c1cncc(Oc2cc(F)ccc2F)n1)c1ccc(-c2c3nc(c(-c4cc(S(=O)(=O)[O-])ccc4F)c4ccc([nH]4)c(-c4cc(S(=O)(=O)[O-])ccc4F)c4nc(c(-c5cc(S(=O)(=O)[O-])ccc5F)c5ccc2[nH]5)C=C4)C=C3)cc1
REMARK SMILES IDX 5 1 4 2 3 3 2 4 1 5 27 6 28 7 89 8 29 9 88 10 30 11 31 12
REMARK SMILES IDX 32 13 82 14 33 15 87 16 81 17 83 18 34 19 86 20 80 21 79 22
REMARK SMILES IDX 35 24 67 25 47 26 66 27 48 28 51 29 65 30 84 31 49 32 50 33
REMARK SMILES IDX 64 35 85 36 52 37 36 38 37 39 45 40 38 41 44 42 46 43 43 44
REMARK SMILES IDX 39 45 40 46 41 47 42 48 68 49 69 50 77 51 70 52 76 53 78 54
REMARK SMILES IDX 75 55 71 56 72 57 73 58 74 59 53 60 54 61 62 62 55 63 61 64
REMARK SMILES IDX 63 65 60 66 56 67 57 68 58 69 59 70 6 71 7 72 8 73 9 74
REMARK SMILES IDX 10 75 11 76 12 77 13 78 26 79 14 80 16 81 15 82 17 83 18 84
REMARK SMILES IDX 19 85 24 86 20 87 23 88 25 89 21 90 22 91
REMARK H PARENT 83 23 51 34
REMARK Flexibility Score: inf
ROOT
ATOM      1  C   UNL A   1      34.343  34.287  28.413  1.00  0.00     0.202 C 
ENDROOT
BRANCH   1   2
ATOM      2  C   UNL A   1      33.618  33.107  27.762  1.00  0.00     0.261 C 
BRANCH   2   3
ATOM      3  O   UNL A   1      33.933  31.888  28.456  1.00  0.00    -0.460 OA
BRANCH   3   4
ATOM      4  C   UNL A   1      34.516  30.771  27.962  1.00  0.00     0.338 C 
ATOM      5  O   UNL A   1      33.883  30.102  27.144  1.00  0.00    -0.246 OA
BRANCH   4   6
ATOM      6  C   UNL A   1      35.886  30.300  28.339  1.00  0.00     0.060 A 
ATOM      7  C   UNL A   1      37.060  30.604  27.649  1.00  0.00     0.016 A 
ATOM      8  C   UNL A   1      36.001  29.569  29.536  1.00  0.00     0.016 A 
ATOM      9  C   UNL A   1      38.300  30.163  28.088  1.00  0.00     0.010 A 
ATOM     10  C   UNL A   1      37.251  29.154  30.009  1.00  0.00     0.010 A 
ATOM     11  C   UNL A   1      38.404  29.444  29.274  1.00  0.00    -0.014 A 
BRANCH  11  12
ATOM     12  C   UNL A   1      39.737  28.946  29.658  1.00  0.00     0.031 A 
ATOM     13  C   UNL A   1      40.444  29.605  30.800  1.00  0.00     0.074 A 
ATOM     14  C   UNL A   1      40.216  27.833  29.073  1.00  0.00     0.049 A 
ATOM     15  N   UNL A   1      41.610  29.336  31.318  1.00  0.00    -0.248 NA
ATOM     16  C   UNL A   1      39.728  30.711  31.457  1.00  0.00     0.031 C 
ATOM     17  C   UNL A   1      39.523  27.068  28.031  1.00  0.00     0.029 A 
ATOM     18  N   UNL A   1      41.369  27.129  29.290  1.00  0.00    -0.354 N 
ATOM     19  C   UNL A   1      41.778  30.246  32.355  1.00  0.00     0.074 A 
ATOM     20  C   UNL A   1      40.600  31.086  32.379  1.00  0.00     0.031 C 
ATOM     21  C   UNL A   1      40.257  25.989  27.719  1.00  0.00     0.029 A 
ATOM     22  C   UNL A   1      41.497  26.020  28.485  1.00  0.00     0.049 A 
ATOM     23  H   UNL A   1      42.043  27.391  29.957  1.00  0.00     0.167 HD
ATOM     24  C   UNL A   1      42.829  30.364  33.201  1.00  0.00     0.034 A 
ATOM     25  C   UNL A   1      42.520  25.152  28.366  1.00  0.00     0.034 A 
ATOM     26  C   UNL A   1      43.997  29.522  33.120  1.00  0.00     0.049 A 
ATOM     27  C   UNL A   1      43.723  25.369  29.249  1.00  0.00     0.074 A 
ATOM     28  C   UNL A   1      45.169  29.589  33.849  1.00  0.00     0.029 A 
ATOM     29  N   UNL A   1      44.135  28.453  32.240  1.00  0.00    -0.354 N 
ATOM     30  N   UNL A   1      43.911  26.283  30.176  1.00  0.00    -0.248 NA
ATOM     31  C   UNL A   1      44.852  24.450  29.069  1.00  0.00     0.031 C 
ATOM     32  C   UNL A   1      46.037  28.599  33.369  1.00  0.00     0.029 A 
ATOM     33  C   UNL A   1      45.380  27.868  32.389  1.00  0.00     0.049 A 
ATOM     34  H   UNL A   1      43.446  28.156  31.602  1.00  0.00     0.167 HD
ATOM     35  C   UNL A   1      45.177  26.041  30.699  1.00  0.00     0.074 A 
ATOM     36  C   UNL A   1      45.692  24.878  30.000  1.00  0.00     0.031 C 
ATOM     37  C   UNL A   1      45.859  26.715  31.661  1.00  0.00     0.034 A 
BRANCH  24  38
ATOM     38  C   UNL A   1      42.779  31.503  34.190  1.00  0.00     0.023 A 
ATOM     39  C   UNL A   1      42.091  31.397  35.414  1.00  0.00     0.031 A 
ATOM     40  C   UNL A   1      43.337  32.748  33.855  1.00  0.00     0.131 A 
ATOM     41  C   UNL A   1      41.909  32.535  36.215  1.00  0.00     0.055 A 
ATOM     42  C   UNL A   1      43.220  33.858  34.695  1.00  0.00     0.041 A 
ATOM     43  F   UNL A   1      43.976  32.919  32.688  1.00  0.00    -0.206 F 
ATOM     44  C   UNL A   1      42.488  33.760  35.874  1.00  0.00     0.022 A 
BRANCH  41  45
ATOM     45  S   UNL A   1      40.771  32.436  37.625  1.00  0.00     0.124 S 
ATOM     46  O   UNL A   1      39.731  31.550  37.104  1.00  0.00    -0.237 OA
ATOM     47  O   UNL A   1      41.615  31.878  38.676  1.00  0.00    -0.237 OA
ATOM     48  O   UNL A   1      40.354  33.820  37.830  1.00  0.00    -0.744 OA
ENDBRANCH  41  45
ENDBRANCH  24  38
BRANCH  25  49
ATOM     49  C   UNL A   1      42.486  24.066  27.340  1.00  0.00     0.023 A 
ATOM     50  C   UNL A   1      41.884  22.825  27.599  1.00  0.00     0.031 A 
ATOM     51  C   UNL A   1      43.101  24.247  26.086  1.00  0.00     0.131 A 
ATOM     52  C   UNL A   1      41.941  21.803  26.635  1.00  0.00     0.055 A 
ATOM     53  C   UNL A   1      43.107  23.248  25.110  1.00  0.00     0.041 A 
ATOM     54  F   UNL A   1      43.701  25.409  25.783  1.00  0.00    -0.206 F 
ATOM     55  C   UNL A   1      42.535  22.012  25.388  1.00  0.00     0.022 A 
BRANCH  52  56
ATOM     56  S   UNL A   1      41.305  20.159  27.064  1.00  0.00     0.124 S 
ATOM     57  O   UNL A   1      40.359  19.912  25.982  1.00  0.00    -0.237 OA
ATOM     58  O   UNL A   1      42.519  19.351  27.055  1.00  0.00    -0.237 OA
ATOM     59  O   UNL A   1      40.703  20.359  28.382  1.00  0.00    -0.744 OA
ENDBRANCH  52  56
ENDBRANCH  25  49
BRANCH  37  60
ATOM     60  C   UNL A   1      47.221  26.177  32.016  1.00  0.00     0.023 A 
ATOM     61  C   UNL A   1      47.401  25.288  33.089  1.00  0.00     0.031 A 
ATOM     62  C   UNL A   1      48.350  26.572  31.278  1.00  0.00     0.131 A 
ATOM     63  C   UNL A   1      48.693  24.862  33.428  1.00  0.00     0.055 A 
ATOM     64  C   UNL A   1      49.625  26.099  31.585  1.00  0.00     0.041 A 
ATOM     65  F   UNL A   1      48.228  27.420  30.244  1.00  0.00    -0.206 F 
ATOM     66  C   UNL A   1      49.803  25.251  32.674  1.00  0.00     0.022 A 
BRANCH  63  67
ATOM     67  S   UNL A   1      48.911  23.863  34.925  1.00  0.00     0.124 S 
ATOM     68  O   UNL A   1      48.486  24.787  35.972  1.00  0.00    -0.237 OA
ATOM     69  O   UNL A   1      48.026  22.730  34.677  1.00  0.00    -0.237 OA
ATOM     70  O   UNL A   1      50.339  23.546  34.919  1.00  0.00    -0.744 OA
ENDBRANCH  63  67
ENDBRANCH  37  60
ENDBRANCH  11  12
ENDBRANCH   4   6
ENDBRANCH   3   4
ENDBRANCH   2   3
ENDBRANCH   1   2
BRANCH   1  71
ATOM     71  O   UNL A   1      33.558  34.986  29.377  1.00  0.00    -0.374 OA
BRANCH  71  72
ATOM     72  C   UNL A   1      32.958  36.203  28.936  1.00  0.00     0.202 C 
BRANCH  72  73
ATOM     73  C   UNL A   1      33.318  37.318  29.920  1.00  0.00     0.261 C 
BRANCH  73  74
ATOM     74  O   UNL A   1      32.747  36.989  31.201  1.00  0.00    -0.458 OA
BRANCH  74  75
ATOM     75  C   UNL A   1      33.590  37.138  32.262  1.00  0.00     0.358 C 
ATOM     76  O   UNL A   1      33.777  38.150  32.914  1.00  0.00    -0.244 OA
BRANCH  75  77
ATOM     77  C   UNL A   1      34.137  35.800  32.588  1.00  0.00     0.170 A 
ATOM     78  C   UNL A   1      33.273  34.731  32.794  1.00  0.00     0.147 A 
ATOM     79  N   UNL A   1      35.488  35.693  32.756  1.00  0.00    -0.203 NA
ATOM     80  N   UNL A   1      33.711  33.502  33.169  1.00  0.00    -0.257 NA
ATOM     81  C   UNL A   1      35.923  34.472  33.137  1.00  0.00     0.238 A 
ATOM     82  C   UNL A   1      35.055  33.402  33.326  1.00  0.00     0.179 A 
BRANCH  81  83
ATOM     83  O   UNL A   1      37.276  34.214  33.308  1.00  0.00    -0.434 OA
BRANCH  83  84
ATOM     84  C   UNL A   1      38.047  34.104  32.177  1.00  0.00     0.168 A 
ATOM     85  C   UNL A   1      37.472  33.851  30.931  1.00  0.00     0.089 A 
ATOM     86  C   UNL A   1      39.406  34.413  32.261  1.00  0.00     0.166 A 
ATOM     87  C   UNL A   1      38.279  33.865  29.795  1.00  0.00     0.127 A 
ATOM     88  C   UNL A   1      40.205  34.436  31.120  1.00  0.00     0.046 A 
ATOM     89  F   UNL A   1      39.949  34.728  33.445  1.00  0.00    -0.203 F 
ATOM     90  F   UNL A   1      37.728  33.603  28.603  1.00  0.00    -0.207 F 
ATOM     91  C   UNL A   1      39.638  34.155  29.876  1.00  0.00     0.042 A 
ENDBRANCH  83  84
ENDBRANCH  81  83
ENDBRANCH  75  77
ENDBRANCH  74  75
ENDBRANCH  73  74
ENDBRANCH  72  73
ENDBRANCH  71  72
ENDBRANCH   1  71
TORSDOF 19
ENDMDL
MODEL 2
REMARK VINA RESULT:      -9.7      4.006      6.801
REMARK SMILES O=C(OCCOCCOC(=O)c1cncc(Oc2cc(F)ccc2F)n1)c1ccc(-c2c3nc(c(-c4cc(S(=O)(=O)[O-])ccc4F)c4ccc([nH]4)c(-c4cc(S(=O)(=O)[O-])ccc4F)c4nc(c(-c5cc(S(=O)(=O)[O-])ccc5F)c5ccc2[nH]5)C=C4)C=C3)cc1
REMARK SMILES IDX 5 1 4 2 3 3 2 4 1 5 27 6 28 7 89 8 29 9 88 10 30 11 31 12
REMARK SMILES IDX 32 13 82 14 33 15 87 16 81 17 83 18 34 19 86 20 80 21 79 22
REMARK SMILES IDX 35 24 67 25 47 26 66 27 48 28 51 29 65 30 84 31 49 32 50 33
REMARK SMILES IDX 64 35 85 36 52 37 36 38 37 39 45 40 38 41 44 42 46 43 43 44
REMARK SMILES IDX 39 45 40 46 41 47 42 48 68 49 69 50 77 51 70 52 76 53 78 54
REMARK SMILES IDX 75 55 71 56 72 57 73 58 74 59 53 60 54 61 62 62 55 63 61 64
REMARK SMILES IDX 63 65 60 66 56 67 57 68 58 69 59 70 6 71 7 72 8 73 9 74
REMARK SMILES IDX 10 75 11 76 12 77 13 78 26 79 14 80 16 81 15 82 17 83 18 84
REMARK SMILES IDX 19 85 24 86 20 87 23 88 25 89 21 90 22 91
REMARK H PARENT 83 23 51 34
REMARK Flexibility Score: inf
ROOT
ATOM      1  C   UNL A   1      31.833  31.083  26.831  1.00  0.00     0.202 C 
ENDROOT
BRANCH   1   2
ATOM      2  C   UNL A   1      31.813  32.605  26.666  1.00  0.00     0.261 C 
BRANCH   2   3
ATOM      3  O   UNL A   1      32.428  33.233  27.803  1.00  0.00    -0.460 OA
BRANCH   3   4
ATOM      4  C   UNL A   1      33.676  33.749  27.900  1.00  0.00     0.338 C 
ATOM      5  O   UNL A   1      33.873  34.878  27.449  1.00  0.00    -0.246 OA
BRANCH   4   6
ATOM      6  C   UNL A   1      34.833  33.037  28.530  1.00  0.00     0.060 A 
ATOM      7  C   UNL A   1      34.773  31.780  29.132  1.00  0.00     0.016 A 
ATOM      8  C   UNL A   1      36.094  33.650  28.420  1.00  0.00     0.016 A 
ATOM      9  C   UNL A   1      35.902  31.167  29.656  1.00  0.00     0.010 A 
ATOM     10  C   UNL A   1      37.246  33.023  28.909  1.00  0.00     0.010 A 
ATOM     11  C   UNL A   1      37.145  31.779  29.541  1.00  0.00    -0.014 A 
BRANCH  11  12
ATOM     12  C   UNL A   1      38.298  31.113  30.172  1.00  0.00     0.031 A 
ATOM     13  C   UNL A   1      38.600  31.413  31.607  1.00  0.00     0.074 A 
ATOM     14  C   UNL A   1      38.953  30.154  29.494  1.00  0.00     0.049 A 
ATOM     15  N   UNL A   1      39.548  30.944  32.368  1.00  0.00    -0.248 NA
ATOM     16  C   UNL A   1      37.696  32.362  32.276  1.00  0.00     0.031 C 
ATOM     17  C   UNL A   1      38.635  29.724  28.128  1.00  0.00     0.029 A 
ATOM     18  N   UNL A   1      39.992  29.342  29.863  1.00  0.00    -0.354 N 
ATOM     19  C   UNL A   1      39.367  31.550  33.606  1.00  0.00     0.074 A 
ATOM     20  C   UNL A   1      38.228  32.433  33.485  1.00  0.00     0.031 C 
ATOM     21  C   UNL A   1      39.447  28.712  27.786  1.00  0.00     0.029 A 
ATOM     22  C   UNL A   1      40.383  28.466  28.876  1.00  0.00     0.049 A 
ATOM     23  H   UNL A   1      40.418  29.381  30.749  1.00  0.00     0.167 HD
ATOM     24  C   UNL A   1      40.098  31.380  34.734  1.00  0.00     0.034 A 
ATOM     25  C   UNL A   1      41.406  27.589  28.855  1.00  0.00     0.034 A 
ATOM     26  C   UNL A   1      41.246  30.509  34.799  1.00  0.00     0.049 A 
ATOM     27  C   UNL A   1      42.268  27.496  30.089  1.00  0.00     0.074 A 
ATOM     28  C   UNL A   1      42.129  30.311  35.843  1.00  0.00     0.029 A 
ATOM     29  N   UNL A   1      41.670  29.690  33.757  1.00  0.00    -0.354 N 
ATOM     30  N   UNL A   1      42.141  28.131  31.234  1.00  0.00    -0.248 NA
ATOM     31  C   UNL A   1      43.411  26.579  30.032  1.00  0.00     0.031 C 
ATOM     32  C   UNL A   1      43.119  29.419  35.412  1.00  0.00     0.029 A 
ATOM     33  C   UNL A   1      42.815  29.004  34.124  1.00  0.00     0.049 A 
ATOM     34  H   UNL A   1      41.221  29.610  32.884  1.00  0.00     0.167 HD
ATOM     35  C   UNL A   1      43.182  27.681  32.038  1.00  0.00     0.074 A 
ATOM     36  C   UNL A   1      43.909  26.700  31.253  1.00  0.00     0.031 C 
ATOM     37  C   UNL A   1      43.517  28.043  33.303  1.00  0.00     0.034 A 
BRANCH  24  38
ATOM     38  C   UNL A   1      39.722  32.233  35.921  1.00  0.00     0.023 A 
ATOM     39  C   UNL A   1      38.829  31.780  36.910  1.00  0.00     0.031 A 
ATOM     40  C   UNL A   1      40.180  33.559  36.006  1.00  0.00     0.131 A 
ATOM     41  C   UNL A   1      38.360  32.670  37.890  1.00  0.00     0.055 A 
ATOM     42  C   UNL A   1      39.772  34.416  37.029  1.00  0.00     0.041 A 
ATOM     43  F   UNL A   1      41.007  34.057  35.073  1.00  0.00    -0.206 F 
ATOM     44  C   UNL A   1      38.843  33.979  37.968  1.00  0.00     0.022 A 
BRANCH  41  45
ATOM     45  S   UNL A   1      36.992  32.146  38.961  1.00  0.00     0.124 S 
ATOM     46  O   UNL A   1      37.442  32.618  40.268  1.00  0.00    -0.237 OA
ATOM     47  O   UNL A   1      35.851  32.851  38.387  1.00  0.00    -0.237 OA
ATOM     48  O   UNL A   1      36.970  30.694  38.805  1.00  0.00    -0.744 OA
ENDBRANCH  41  45
ENDBRANCH  24  38
BRANCH  25  49
ATOM     49  C   UNL A   1      41.713  26.803  27.623  1.00  0.00     0.023 A 
ATOM     50  C   UNL A   1      41.455  25.425  27.543  1.00  0.00     0.031 A 
ATOM     51  C   UNL A   1      42.316  27.421  26.510  1.00  0.00     0.131 A 
ATOM     52  C   UNL A   1      41.829  24.707  26.394  1.00  0.00     0.055 A 
ATOM     53  C   UNL A   1      42.635  26.714  25.349  1.00  0.00     0.041 A 
ATOM     54  F   UNL A   1      42.595  28.734  26.530  1.00  0.00    -0.206 F 
ATOM     55  C   UNL A   1      42.403  25.345  25.293  1.00  0.00     0.022 A 
BRANCH  52  56
ATOM     56  S   UNL A   1      41.638  22.902  26.391  1.00  0.00     0.124 S 
ATOM     57  O   UNL A   1      40.192  22.754  26.279  1.00  0.00    -0.237 OA
ATOM     58  O   UNL A   1      42.417  22.516  25.218  1.00  0.00    -0.237 OA
ATOM     59  O   UNL A   1      42.208  22.496  27.674  1.00  0.00    -0.744 OA
ENDBRANCH  52  56
ENDBRANCH  25  49
BRANCH  37  60
ATOM     60  C   UNL A   1      44.707  27.343  33.906  1.00  0.00     0.023 A 
ATOM     61  C   UNL A   1      44.591  26.071  34.491  1.00  0.00     0.031 A 
ATOM     62  C   UNL A   1      45.967  27.965  33.905  1.00  0.00     0.131 A 
ATOM     63  C   UNL A   1      45.708  25.482  35.100  1.00  0.00     0.055 A 
ATOM     64  C   UNL A   1      47.086  27.349  34.461  1.00  0.00     0.041 A 
ATOM     65  F   UNL A   1      46.128  29.181  33.358  1.00  0.00    -0.206 F 
ATOM     66  C   UNL A   1      46.957  26.107  35.075  1.00  0.00     0.022 A 
BRANCH  63  67
ATOM     67  S   UNL A   1      45.483  23.926  36.003  1.00  0.00     0.124 S 
ATOM     68  O   UNL A   1      44.078  23.626  35.747  1.00  0.00    -0.237 OA
ATOM     69  O   UNL A   1      46.451  23.047  35.356  1.00  0.00    -0.237 OA
ATOM     70  O   UNL A   1      45.799  24.285  37.385  1.00  0.00    -0.744 OA
ENDBRANCH  63  67
ENDBRANCH  37  60
ENDBRANCH  11  12
ENDBRANCH   4   6
ENDBRANCH   3   4
ENDBRANCH   2   3
ENDBRANCH   1   2
BRANCH   1  71
ATOM     71  O   UNL A   1      33.057  30.475  26.422  1.00  0.00    -0.374 OA
BRANCH  71  72
ATOM     72  C   UNL A   1      32.994  29.082  26.115  1.00  0.00     0.202 C 
BRANCH  72  73
ATOM     73  C   UNL A   1      32.576  28.917  24.653  1.00  0.00     0.261 C 
BRANCH  73  74
ATOM     74  O   UNL A   1      31.446  28.024  24.606  1.00  0.00    -0.458 OA
BRANCH  74  75
ATOM     75  C   UNL A   1      31.628  26.906  23.847  1.00  0.00     0.358 C 
ATOM     76  O   UNL A   1      31.986  26.860  22.683  1.00  0.00    -0.244 OA
BRANCH  75  77
ATOM     77  C   UNL A   1      31.460  25.732  24.735  1.00  0.00     0.170 A 
ATOM     78  C   UNL A   1      30.506  25.761  25.746  1.00  0.00     0.147 A 
ATOM     79  N   UNL A   1      32.322  24.687  24.571  1.00  0.00    -0.203 NA
ATOM     80  N   UNL A   1      30.357  24.748  26.637  1.00  0.00    -0.257 NA
ATOM     81  C   UNL A   1      32.179  23.681  25.462  1.00  0.00     0.238 A 
ATOM     82  C   UNL A   1      31.213  23.709  26.462  1.00  0.00     0.179 A 
BRANCH  81  83
ATOM     83  O   UNL A   1      32.966  22.540  25.389  1.00  0.00    -0.434 OA
BRANCH  83  84
ATOM     84  C   UNL A   1      34.307  22.710  25.146  1.00  0.00     0.168 A 
ATOM     85  C   UNL A   1      34.829  22.592  23.858  1.00  0.00     0.089 A 
ATOM     86  C   UNL A   1      35.122  23.168  26.182  1.00  0.00     0.166 A 
ATOM     87  C   UNL A   1      36.174  22.888  23.640  1.00  0.00     0.127 A 
ATOM     88  C   UNL A   1      36.463  23.473  25.956  1.00  0.00     0.046 A 
ATOM     89  F   UNL A   1      34.608  23.353  27.406  1.00  0.00    -0.203 F 
ATOM     90  F   UNL A   1      36.677  22.755  22.406  1.00  0.00    -0.207 F 
ATOM     91  C   UNL A   1      36.995  23.328  24.674  1.00  0.00     0.042 A 
ENDBRANCH  83  84
ENDBRANCH  81  83
ENDBRANCH  75  77
ENDBRANCH  74  75
ENDBRANCH  73  74
ENDBRANCH  72  73
ENDBRANCH  71  72
ENDBRANCH   1  71
TORSDOF 19
ENDMDL
MODEL 3
REMARK VINA RESULT:      -9.7      1.688      7.817
REMARK SMILES O=C(OCCOCCOC(=O)c1cncc(Oc2cc(F)ccc2F)n1)c1ccc(-c2c3nc(c(-c4cc(S(=O)(=O)[O-])ccc4F)c4ccc([nH]4)c(-c4cc(S(=O)(=O)[O-])ccc4F)c4nc(c(-c5cc(S(=O)(=O)[O-])ccc5F)c5ccc2[nH]5)C=C4)C=C3)cc1
REMARK SMILES IDX 5 1 4 2 3 3 2 4 1 5 27 6 28 7 89 8 29 9 88 10 30 11 31 12
REMARK SMILES IDX 32 13 82 14 33 15 87 16 81 17 83 18 34 19 86 20 80 21 79 22
REMARK SMILES IDX 35 24 67 25 47 26 66 27 48 28 51 29 65 30 84 31 49 32 50 33
REMARK SMILES IDX 64 35 85 36 52 37 36 38 37 39 45 40 38 41 44 42 46 43 43 44
REMARK SMILES IDX 39 45 40 46 41 47 42 48 68 49 69 50 77 51 70 52 76 53 78 54
REMARK SMILES IDX 75 55 71 56 72 57 73 58 74 59 53 60 54 61 62 62 55 63 61 64
REMARK SMILES IDX 63 65 60 66 56 67 57 68 58 69 59 70 6 71 7 72 8 73 9 74
REMARK SMILES IDX 10 75 11 76 12 77 13 78 26 79 14 80 16 81 15 82 17 83 18 84
REMARK SMILES IDX 19 85 24 86 20 87 23 88 25 89 21 90 22 91
REMARK H PARENT 83 23 51 34
REMARK Flexibility Score: inf
ROOT
ATOM      1  C   UNL A   1      34.220  34.248  28.353  1.00  0.00     0.202 C 
ENDROOT
BRANCH   1   2
ATOM      2  C   UNL A   1      33.515  33.037  27.738  1.00  0.00     0.261 C 
BRANCH   2   3
ATOM      3  O   UNL A   1      33.943  31.830  28.391  1.00  0.00    -0.460 OA
BRANCH   3   4
ATOM      4  C   UNL A   1      34.644  30.798  27.865  1.00  0.00     0.338 C 
ATOM      5  O   UNL A   1      34.209  30.264  26.844  1.00  0.00    -0.246 OA
BRANCH   4   6
ATOM      6  C   UNL A   1      35.920  30.268  28.441  1.00  0.00     0.060 A 
ATOM      7  C   UNL A   1      36.047  29.657  29.689  1.00  0.00     0.016 A 
ATOM      8  C   UNL A   1      37.058  30.310  27.615  1.00  0.00     0.016 A 
ATOM      9  C   UNL A   1      37.260  29.152  30.135  1.00  0.00     0.010 A 
ATOM     10  C   UNL A   1      38.276  29.766  28.038  1.00  0.00     0.010 A 
ATOM     11  C   UNL A   1      38.378  29.195  29.310  1.00  0.00    -0.014 A 
BRANCH  11  12
ATOM     12  C   UNL A   1      39.654  28.702  29.859  1.00  0.00     0.031 A 
ATOM     13  C   UNL A   1      40.381  27.623  29.121  1.00  0.00     0.074 A 
ATOM     14  C   UNL A   1      40.198  29.328  30.919  1.00  0.00     0.049 A 
ATOM     15  N   UNL A   1      41.513  27.043  29.405  1.00  0.00    -0.248 NA
ATOM     16  C   UNL A   1      39.747  27.144  27.881  1.00  0.00     0.031 C 
ATOM     17  C   UNL A   1      39.598  30.469  31.618  1.00  0.00     0.029 A 
ATOM     18  N   UNL A   1      41.384  29.126  31.571  1.00  0.00    -0.354 N 
ATOM     19  C   UNL A   1      41.726  26.119  28.389  1.00  0.00     0.074 A 
ATOM     20  C   UNL A   1      40.595  26.205  27.492  1.00  0.00     0.031 C 
ATOM     21  C   UNL A   1      40.434  30.878  32.586  1.00  0.00     0.029 A 
ATOM     22  C   UNL A   1      41.591  29.992  32.620  1.00  0.00     0.049 A 
ATOM     23  H   UNL A   1      42.027  28.427  31.314  1.00  0.00     0.167 HD
ATOM     24  C   UNL A   1      42.774  25.275  28.234  1.00  0.00     0.034 A 
ATOM     25  C   UNL A   1      42.592  30.036  33.520  1.00  0.00     0.034 A 
ATOM     26  C   UNL A   1      43.867  25.204  29.172  1.00  0.00     0.049 A 
ATOM     27  C   UNL A   1      43.695  29.016  33.384  1.00  0.00     0.074 A 
ATOM     28  C   UNL A   1      44.943  24.337  29.189  1.00  0.00     0.029 A 
ATOM     29  N   UNL A   1      44.013  26.042  30.274  1.00  0.00    -0.354 N 
ATOM     30  N   UNL A   1      43.852  28.089  32.465  1.00  0.00    -0.248 NA
ATOM     31  C   UNL A   1      44.748  29.039  34.404  1.00  0.00     0.031 C 
ATOM     32  C   UNL A   1      45.706  24.612  30.332  1.00  0.00     0.029 A 
ATOM     33  C   UNL A   1      45.146  25.697  30.990  1.00  0.00     0.049 A 
ATOM     34  H   UNL A   1      43.398  26.774  30.510  1.00  0.00     0.167 HD
ATOM     35  C   UNL A   1      45.030  27.425  32.790  1.00  0.00     0.074 A 
ATOM     36  C   UNL A   1      45.553  28.079  33.975  1.00  0.00     0.031 C 
ATOM     37  C   UNL A   1      45.626  26.370  32.177  1.00  0.00     0.034 A 
BRANCH  24  38
ATOM     38  C   UNL A   1      42.706  24.316  27.070  1.00  0.00     0.023 A 
ATOM     39  C   UNL A   1      42.033  23.084  27.160  1.00  0.00     0.031 A 
ATOM     40  C   UNL A   1      43.415  24.594  25.889  1.00  0.00     0.131 A 
ATOM     41  C   UNL A   1      42.154  22.143  26.124  1.00  0.00     0.055 A 
ATOM     42  C   UNL A   1      43.465  23.686  24.829  1.00  0.00     0.041 A 
ATOM     43  F   UNL A   1      44.102  25.739  25.758  1.00  0.00    -0.206 F 
ATOM     44  C   UNL A   1      42.848  22.445  24.951  1.00  0.00     0.022 A 
BRANCH  41  45
ATOM     45  S   UNL A   1      41.530  20.461  26.398  1.00  0.00     0.124 S 
ATOM     46  O   UNL A   1      41.964  20.204  27.769  1.00  0.00    -0.237 OA
ATOM     47  O   UNL A   1      40.093  20.620  26.203  1.00  0.00    -0.237 OA
ATOM     48  O   UNL A   1      42.213  19.670  25.377  1.00  0.00    -0.744 OA
ENDBRANCH  41  45
ENDBRANCH  24  38
BRANCH  25  49
ATOM     49  C   UNL A   1      42.560  31.010  34.652  1.00  0.00     0.023 A 
ATOM     50  C   UNL A   1      43.084  32.306  34.525  1.00  0.00     0.031 A 
ATOM     51  C   UNL A   1      42.035  30.637  35.905  1.00  0.00     0.131 A 
ATOM     52  C   UNL A   1      43.104  33.167  35.636  1.00  0.00     0.055 A 
ATOM     53  C   UNL A   1      42.007  31.514  36.990  1.00  0.00     0.041 A 
ATOM     54  F   UNL A   1      41.528  29.408  36.090  1.00  0.00    -0.206 F 
ATOM     55  C   UNL A   1      42.556  32.784  36.862  1.00  0.00     0.022 A 
BRANCH  52  56
ATOM     56  S   UNL A   1      43.941  34.771  35.486  1.00  0.00     0.124 S 
ATOM     57  O   UNL A   1      43.801  35.308  36.834  1.00  0.00    -0.237 OA
ATOM     58  O   UNL A   1      45.288  34.375  35.088  1.00  0.00    -0.237 OA
ATOM     59  O   UNL A   1      43.169  35.463  34.456  1.00  0.00    -0.744 OA
ENDBRANCH  52  56
ENDBRANCH  25  49
BRANCH  37  60
ATOM     60  C   UNL A   1      46.922  25.893  32.776  1.00  0.00     0.023 A 
ATOM     61  C   UNL A   1      48.161  26.383  32.329  1.00  0.00     0.031 A 
ATOM     62  C   UNL A   1      46.915  24.928  33.798  1.00  0.00     0.131 A 
ATOM     63  C   UNL A   1      49.348  25.865  32.867  1.00  0.00     0.055 A 
ATOM     64  C   UNL A   1      48.097  24.460  34.369  1.00  0.00     0.041 A 
ATOM     65  F   UNL A   1      45.756  24.430  34.259  1.00  0.00    -0.206 F 
ATOM     66  C   UNL A   1      49.323  24.918  33.894  1.00  0.00     0.022 A 
BRANCH  63  67
ATOM     67  S   UNL A   1      50.927  26.384  32.142  1.00  0.00     0.124 S 
ATOM     68  O   UNL A   1      51.891  25.672  32.975  1.00  0.00    -0.237 OA
ATOM     69  O   UNL A   1      50.807  25.916  30.765  1.00  0.00    -0.237 OA
ATOM     70  O   UNL A   1      50.917  27.836  32.306  1.00  0.00    -0.744 OA
ENDBRANCH  63  67
ENDBRANCH  37  60
ENDBRANCH  11  12
ENDBRANCH   4   6
ENDBRANCH   3   4
ENDBRANCH   2   3
ENDBRANCH   1   2
BRANCH   1  71
ATOM     71  O   UNL A   1      33.440  34.935  29.329  1.00  0.00    -0.374 OA
BRANCH  71  72
ATOM     72  C   UNL A   1      32.908  36.199  28.932  1.00  0.00     0.202 C 
BRANCH  72  73
ATOM     73  C   UNL A   1      33.405  37.272  29.903  1.00  0.00     0.261 C 
BRANCH  73  74
ATOM     74  O   UNL A   1      32.783  37.044  31.182  1.00  0.00    -0.458 OA
BRANCH  74  75
ATOM     75  C   UNL A   1      33.618  37.152  32.254  1.00  0.00     0.358 C 
ATOM     76  O   UNL A   1      33.847  38.155  32.907  1.00  0.00    -0.244 OA
BRANCH  75  77
ATOM     77  C   UNL A   1      34.091  35.788  32.589  1.00  0.00     0.170 A 
ATOM     78  C   UNL A   1      33.171  34.762  32.771  1.00  0.00     0.147 A 
ATOM     79  N   UNL A   1      35.430  35.616  32.790  1.00  0.00    -0.203 NA
ATOM     80  N   UNL A   1      33.539  33.513  33.153  1.00  0.00    -0.257 NA
ATOM     81  C   UNL A   1      35.795  34.374  33.178  1.00  0.00     0.238 A 
ATOM     82  C   UNL A   1      34.872  33.347  33.343  1.00  0.00     0.179 A 
BRANCH  81  83
ATOM     83  O   UNL A   1      37.129  34.049  33.382  1.00  0.00    -0.434 OA
BRANCH  83  84
ATOM     84  C   UNL A   1      37.927  33.924  32.271  1.00  0.00     0.168 A 
ATOM     85  C   UNL A   1      37.394  33.548  31.037  1.00  0.00     0.089 A 
ATOM     86  C   UNL A   1      39.257  34.337  32.352  1.00  0.00     0.166 A 
ATOM     87  C   UNL A   1      38.219  33.548  29.913  1.00  0.00     0.127 A 
ATOM     88  C   UNL A   1      40.074  34.345  31.222  1.00  0.00     0.046 A 
ATOM     89  F   UNL A   1      39.755  34.768  33.520  1.00  0.00    -0.203 F 
ATOM     90  F   UNL A   1      37.710  33.170  28.734  1.00  0.00    -0.207 F 
ATOM     91  C   UNL A   1      39.551  33.943  29.992  1.00  0.00     0.042 A 
ENDBRANCH  83  84
ENDBRANCH  81  83
ENDBRANCH  75  77
ENDBRANCH  74  75
ENDBRANCH  73  74
ENDBRANCH  72  73
ENDBRANCH  71  72
ENDBRANCH   1  71
TORSDOF 19
ENDMDL
