MODEL 1
REMARK VINA RESULT:     -11.8      0.000      0.000
REMARK SMILES Cc1cc([N+](=O)[O-])ccc1-c1ccc(/C=C/C(=O)Nc2ccc(O)c(C(=O)OCCOCCOC(=O)c3ccc(-c4c5nc(c(-c6cc(S(=O)(=O)[O-])ccc6F)c6ccc([nH]6)c(-c6cc(S(=O)(=O)[O-])ccc6F)c6nc(c(-c7cc(S(=O)(=O)[O-])ccc7F)c7ccc4[nH]7)C=C6)C=C5)cc3)c2)o1
REMARK SMILES IDX 30 1 29 2 28 3 26 4 27 5 25 6 20 7 21 8 100 9 22 10 23 11
REMARK SMILES IDX 19 12 17 13 18 14 16 16 15 17 14 18 11 19 12 20 101 21 13 22
REMARK SMILES IDX 10 23 1 24 2 25 3 26 4 27 9 28 8 29 5 30 6 31 7 32 24 33
REMARK SMILES IDX 31 35 32 36 33 37 34 38 35 39 36 40 37 41 38 42 99 43 39 44
REMARK SMILES IDX 98 45 40 46 41 47 42 48 92 49 43 50 97 51 91 52 93 53 44 54
REMARK SMILES IDX 96 55 90 56 89 57 45 59 77 60 57 61 76 62 58 63 61 64 75 65
REMARK SMILES IDX 94 66 59 67 60 68 74 70 95 71 62 72 46 73 47 74 55 75 48 76
REMARK SMILES IDX 54 77 56 78 53 79 49 80 50 81 51 82 52 83 78 84 79 85 87 86
REMARK SMILES IDX 80 87 86 88 88 89 85 90 81 91 82 92 83 93 84 94 63 95 64 96
REMARK SMILES IDX 72 97 65 98 71 99 73 100 70 101 66 102 67 103 68 104 69 105
REMARK H PARENT 19 15 24 34 93 58 61 69
REMARK Flexibility Score: inf
ROOT
ATOM      1  C   UNL A   1      42.542  20.226  26.153  1.00  0.00     0.202 C 
ENDROOT
BRANCH   1   2
ATOM      2  C   UNL A   1      41.463  19.757  27.100  1.00  0.00     0.261 C 
BRANCH   2   3
ATOM      3  O   UNL A   1      40.322  20.630  27.071  1.00  0.00    -0.460 OA
BRANCH   3   4
ATOM      4  C   UNL A   1      39.468  20.472  26.030  1.00  0.00     0.342 C 
ATOM      5  O   UNL A   1      39.228  19.461  25.406  1.00  0.00    -0.246 OA
BRANCH   4   6
ATOM      6  C   UNL A   1      38.704  21.726  25.860  1.00  0.00     0.103 A 
ATOM      7  C   UNL A   1      36.976  22.867  24.625  1.00  0.00     0.042 A 
ATOM      8  C   UNL A   1      37.181  24.015  25.396  1.00  0.00     0.030 A 
ATOM      9  C   UNL A   1      37.664  21.694  24.915  1.00  0.00     0.045 A 
ATOM     10  C   UNL A   1      38.163  24.026  26.379  1.00  0.00     0.049 A 
ATOM     11  C   UNL A   1      38.955  22.901  26.581  1.00  0.00     0.130 A 
BRANCH   7  12
ATOM     12  N   UNL A   1      36.241  22.927  23.431  1.00  0.00    -0.322 N 
ATOM     13  C   UNL A   1      34.977  23.465  23.292  1.00  0.00     0.248 C 
ATOM     14  O   UNL A   1      34.318  23.282  22.272  1.00  0.00    -0.270 OA
ATOM     15  H   UNL A   1      36.663  22.556  22.623  1.00  0.00     0.170 HD
BRANCH  13  16
ATOM     16  C   UNL A   1      34.421  24.293  24.404  1.00  0.00     0.075 C 
ATOM     17  C   UNL A   1      33.331  25.053  24.214  1.00  0.00     0.053 C 
BRANCH  17  18
ATOM     18  C   UNL A   1      32.913  26.020  25.161  1.00  0.00     0.127 A 
ATOM     19  C   UNL A   1      32.890  27.853  26.393  1.00  0.00     0.135 A 
ATOM     20  C   UNL A   1      31.872  27.070  26.880  1.00  0.00     0.051 A 
ATOM     21  O   UNL A   1      33.468  27.268  25.308  1.00  0.00    -0.457 OA
ATOM     22  C   UNL A   1      31.910  25.884  26.116  1.00  0.00     0.051 A 
BRANCH  19  23
ATOM     23  C   UNL A   1      33.498  29.087  26.845  1.00  0.00     0.021 A 
ATOM     24  C   UNL A   1      31.474  30.466  26.064  1.00  0.00     0.045 C 
ATOM     25  C   UNL A   1      32.848  30.330  26.674  1.00  0.00    -0.033 A 
ATOM     26  C   UNL A   1      33.502  31.505  27.081  1.00  0.00     0.089 A 
ATOM     27  C   UNL A   1      34.770  31.438  27.671  1.00  0.00     0.269 A 
ATOM     28  C   UNL A   1      34.760  29.036  27.458  1.00  0.00     0.019 A 
ATOM     29  C   UNL A   1      35.400  30.204  27.872  1.00  0.00     0.086 A 
BRANCH  27  30
ATOM     30  N   UNL A   1      35.449  32.674  28.077  1.00  0.00     0.062 N 
ATOM     31  O   UNL A   1      36.333  32.595  28.943  1.00  0.00    -0.258 OA
ATOM     32  O   UNL A   1      35.090  33.733  27.540  1.00  0.00    -0.258 OA
ENDBRANCH  27  30
ENDBRANCH  19  23
ENDBRANCH  17  18
ENDBRANCH  13  16
ENDBRANCH   7  12
BRANCH  11  33
ATOM     33  O   UNL A   1      39.965  23.089  27.481  1.00  0.00    -0.507 OA
ATOM     34  H   UNL A   1      40.830  23.289  27.181  1.00  0.00     0.293 HD
ENDBRANCH  11  33
ENDBRANCH   4   6
ENDBRANCH   3   4
ENDBRANCH   2   3
ENDBRANCH   1   2
BRANCH   1  35
ATOM     35  O   UNL A   1      42.634  19.231  25.141  1.00  0.00    -0.374 OA
BRANCH  35  36
ATOM     36  C   UNL A   1      43.907  18.683  24.890  1.00  0.00     0.202 C 
BRANCH  36  37
ATOM     37  C   UNL A   1      45.022  19.432  25.625  1.00  0.00     0.261 C 
BRANCH  37  38
ATOM     38  O   UNL A   1      45.790  20.237  24.700  1.00  0.00    -0.460 OA
BRANCH  38  39
ATOM     39  C   UNL A   1      45.206  21.404  24.300  1.00  0.00     0.338 C 
ATOM     40  O   UNL A   1      44.513  21.527  23.304  1.00  0.00    -0.246 OA
BRANCH  39  41
ATOM     41  C   UNL A   1      45.649  22.531  25.173  1.00  0.00     0.060 A 
ATOM     42  C   UNL A   1      45.331  22.555  26.546  1.00  0.00     0.016 A 
ATOM     43  C   UNL A   1      46.120  23.683  24.555  1.00  0.00     0.016 A 
ATOM     44  C   UNL A   1      45.337  23.770  27.257  1.00  0.00     0.010 A 
ATOM     45  C   UNL A   1      45.986  24.881  25.216  1.00  0.00     0.010 A 
ATOM     46  C   UNL A   1      45.584  24.951  26.564  1.00  0.00    -0.014 A 
BRANCH  46  47
ATOM     47  C   UNL A   1      45.420  26.332  27.039  1.00  0.00     0.031 A 
ATOM     48  C   UNL A   1      44.032  26.873  27.055  1.00  0.00     0.074 A 
ATOM     49  C   UNL A   1      46.347  26.906  27.852  1.00  0.00     0.049 A 
ATOM     50  N   UNL A   1      43.705  28.005  27.565  1.00  0.00    -0.248 NA
ATOM     51  C   UNL A   1      42.878  26.182  26.471  1.00  0.00     0.031 C 
ATOM     52  C   UNL A   1      46.081  27.756  29.019  1.00  0.00     0.029 A 
ATOM     53  N   UNL A   1      47.743  26.879  27.799  1.00  0.00    -0.354 N 
ATOM     54  C   UNL A   1      42.343  28.012  27.734  1.00  0.00     0.074 A 
ATOM     55  C   UNL A   1      41.863  26.934  26.910  1.00  0.00     0.031 C 
ATOM     56  C   UNL A   1      47.217  28.340  29.426  1.00  0.00     0.029 A 
ATOM     57  C   UNL A   1      48.219  28.056  28.425  1.00  0.00     0.049 A 
ATOM     58  H   UNL A   1      48.295  26.170  27.399  1.00  0.00     0.167 HD
ATOM     59  C   UNL A   1      41.819  28.865  28.655  1.00  0.00     0.034 A 
ATOM     60  C   UNL A   1      48.988  28.956  27.746  1.00  0.00     0.034 A 
ATOM     61  C   UNL A   1      42.854  29.760  29.190  1.00  0.00     0.049 A 
ATOM     62  C   UNL A   1      48.293  30.294  27.626  1.00  0.00     0.074 A 
ATOM     63  C   UNL A   1      43.507  29.919  30.397  1.00  0.00     0.029 A 
ATOM     64  N   UNL A   1      43.525  30.564  28.290  1.00  0.00    -0.354 N 
ATOM     65  N   UNL A   1      47.132  30.537  28.167  1.00  0.00    -0.248 NA
ATOM     66  C   UNL A   1      48.778  31.430  26.851  1.00  0.00     0.031 C 
ATOM     67  C   UNL A   1      44.602  30.818  30.186  1.00  0.00     0.029 A 
ATOM     68  C   UNL A   1      44.573  31.237  28.866  1.00  0.00     0.049 A 
ATOM     69  H   UNL A   1      43.279  30.644  27.341  1.00  0.00     0.167 HD
ATOM     70  C   UNL A   1      46.640  31.727  27.724  1.00  0.00     0.074 A 
ATOM     71  C   UNL A   1      47.724  32.268  26.917  1.00  0.00     0.031 C 
ATOM     72  C   UNL A   1      45.364  32.120  28.016  1.00  0.00     0.034 A 
BRANCH  59  73
ATOM     73  C   UNL A   1      40.410  28.891  29.192  1.00  0.00     0.023 A 
ATOM     74  C   UNL A   1      40.257  28.875  30.596  1.00  0.00     0.031 A 
ATOM     75  C   UNL A   1      39.209  28.852  28.458  1.00  0.00     0.131 A 
ATOM     76  C   UNL A   1      38.996  28.791  31.204  1.00  0.00     0.055 A 
ATOM     77  C   UNL A   1      37.945  28.817  29.066  1.00  0.00     0.041 A 
ATOM     78  F   UNL A   1      39.180  28.802  27.122  1.00  0.00    -0.206 F 
ATOM     79  C   UNL A   1      37.832  28.774  30.447  1.00  0.00     0.022 A 
BRANCH  76  80
ATOM     80  S   UNL A   1      38.918  28.649  33.006  1.00  0.00     0.124 S 
ATOM     81  O   UNL A   1      39.476  29.927  33.436  1.00  0.00    -0.237 OA
ATOM     82  O   UNL A   1      37.493  28.452  33.240  1.00  0.00    -0.237 OA
ATOM     83  O   UNL A   1      39.758  27.485  33.287  1.00  0.00    -0.744 OA
ENDBRANCH  76  80
ENDBRANCH  59  73
BRANCH  60  84
ATOM     84  C   UNL A   1      49.841  28.253  26.734  1.00  0.00     0.023 A 
ATOM     85  C   UNL A   1      49.151  27.698  25.627  1.00  0.00     0.031 A 
ATOM     86  C   UNL A   1      51.162  28.687  26.535  1.00  0.00     0.131 A 
ATOM     87  C   UNL A   1      49.692  27.814  24.336  1.00  0.00     0.055 A 
ATOM     88  C   UNL A   1      51.708  28.765  25.247  1.00  0.00     0.041 A 
ATOM     89  F   UNL A   1      51.857  29.233  27.545  1.00  0.00    -0.206 F 
ATOM     90  C   UNL A   1      50.953  28.381  24.137  1.00  0.00     0.022 A 
BRANCH  87  91
ATOM     91  S   UNL A   1      48.603  27.495  22.908  1.00  0.00     0.124 S 
ATOM     92  O   UNL A   1      49.202  28.324  21.871  1.00  0.00    -0.237 OA
ATOM     93  O   UNL A   1      48.733  26.048  22.732  1.00  0.00    -0.237 OA
ATOM     94  O   UNL A   1      47.288  27.923  23.382  1.00  0.00    -0.744 OA
ENDBRANCH  87  91
ENDBRANCH  60  84
BRANCH  72  95
ATOM     95  C   UNL A   1      44.738  33.369  27.457  1.00  0.00     0.023 A 
ATOM     96  C   UNL A   1      44.408  34.437  28.292  1.00  0.00     0.031 A 
ATOM     97  C   UNL A   1      44.415  33.524  26.087  1.00  0.00     0.131 A 
ATOM     98  C   UNL A   1      43.904  35.630  27.758  1.00  0.00     0.055 A 
ATOM     99  C   UNL A   1      43.799  34.667  25.577  1.00  0.00     0.041 A 
ATOM    100  F   UNL A   1      44.737  32.607  25.163  1.00  0.00    -0.206 F 
ATOM    101  C   UNL A   1      43.563  35.745  26.411  1.00  0.00     0.022 A 
BRANCH  98 102
ATOM    102  S   UNL A   1      43.837  37.071  28.844  1.00  0.00     0.124 S 
ATOM    103  O   UNL A   1      42.433  37.459  28.773  1.00  0.00    -0.237 OA
ATOM    104  O   UNL A   1      44.268  36.495  30.116  1.00  0.00    -0.237 OA
ATOM    105  O   UNL A   1      44.778  38.007  28.235  1.00  0.00    -0.744 OA
ENDBRANCH  98 102
ENDBRANCH  72  95
ENDBRANCH  46  47
ENDBRANCH  39  41
ENDBRANCH  38  39
ENDBRANCH  37  38
ENDBRANCH  36  37
ENDBRANCH  35  36
ENDBRANCH   1  35
TORSDOF 23
ENDMDL
MODEL 2
REMARK VINA RESULT:     -11.2      3.847     10.092
REMARK SMILES Cc1cc([N+](=O)[O-])ccc1-c1ccc(/C=C/C(=O)Nc2ccc(O)c(C(=O)OCCOCCOC(=O)c3ccc(-c4c5nc(c(-c6cc(S(=O)(=O)[O-])ccc6F)c6ccc([nH]6)c(-c6cc(S(=O)(=O)[O-])ccc6F)c6nc(c(-c7cc(S(=O)(=O)[O-])ccc7F)c7ccc4[nH]7)C=C6)C=C5)cc3)c2)o1
REMARK SMILES IDX 30 1 29 2 28 3 26 4 27 5 25 6 20 7 21 8 100 9 22 10 23 11
REMARK SMILES IDX 19 12 17 13 18 14 16 16 15 17 14 18 11 19 12 20 101 21 13 22
REMARK SMILES IDX 10 23 1 24 2 25 3 26 4 27 9 28 8 29 5 30 6 31 7 32 24 33
REMARK SMILES IDX 31 35 32 36 33 37 34 38 35 39 36 40 37 41 38 42 99 43 39 44
REMARK SMILES IDX 98 45 40 46 41 47 42 48 92 49 43 50 97 51 91 52 93 53 44 54
REMARK SMILES IDX 96 55 90 56 89 57 45 59 77 60 57 61 76 62 58 63 61 64 75 65
REMARK SMILES IDX 94 66 59 67 60 68 74 70 95 71 62 72 46 73 47 74 55 75 48 76
REMARK SMILES IDX 54 77 56 78 53 79 49 80 50 81 51 82 52 83 78 84 79 85 87 86
REMARK SMILES IDX 80 87 86 88 88 89 85 90 81 91 82 92 83 93 84 94 63 95 64 96
REMARK SMILES IDX 72 97 65 98 71 99 73 100 70 101 66 102 67 103 68 104 69 105
REMARK H PARENT 19 15 24 34 93 58 61 69
REMARK Flexibility Score: inf
ROOT
ATOM      1  C   UNL A   1      40.469  30.031  34.680  1.00  0.00     0.202 C 
ENDROOT
BRANCH   1   2
ATOM      2  C   UNL A   1      40.097  29.817  33.232  1.00  0.00     0.261 C 
BRANCH   2   3
ATOM      3  O   UNL A   1      39.592  28.491  33.008  1.00  0.00    -0.460 OA
BRANCH   3   4
ATOM      4  C   UNL A   1      38.343  28.401  32.488  1.00  0.00     0.342 C 
ATOM      5  O   UNL A   1      37.284  28.410  33.078  1.00  0.00    -0.246 OA
BRANCH   4   6
ATOM      6  C   UNL A   1      38.447  28.462  31.014  1.00  0.00     0.103 A 
ATOM      7  C   UNL A   1      39.520  27.578  29.044  1.00  0.00     0.042 A 
ATOM      8  C   UNL A   1      38.778  28.454  28.246  1.00  0.00     0.030 A 
ATOM      9  C   UNL A   1      39.289  27.510  30.414  1.00  0.00     0.045 A 
ATOM     10  C   UNL A   1      37.893  29.350  28.833  1.00  0.00     0.049 A 
ATOM     11  C   UNL A   1      37.760  29.388  30.217  1.00  0.00     0.130 A 
BRANCH   7  12
ATOM     12  N   UNL A   1      40.639  26.909  28.525  1.00  0.00    -0.322 N 
ATOM     13  C   UNL A   1      40.622  25.671  27.915  1.00  0.00     0.248 C 
ATOM     14  O   UNL A   1      41.664  25.060  27.689  1.00  0.00    -0.270 OA
ATOM     15  H   UNL A   1      41.509  27.361  28.602  1.00  0.00     0.170 HD
BRANCH  13  16
ATOM     16  C   UNL A   1      39.309  25.083  27.515  1.00  0.00     0.075 C 
ATOM     17  C   UNL A   1      39.255  23.948  26.799  1.00  0.00     0.053 C 
BRANCH  17  18
ATOM     18  C   UNL A   1      38.052  23.488  26.208  1.00  0.00     0.127 A 
ATOM     19  C   UNL A   1      35.904  23.307  25.731  1.00  0.00     0.135 A 
ATOM     20  C   UNL A   1      36.510  22.245  25.106  1.00  0.00     0.051 A 
ATOM     21  O   UNL A   1      36.831  24.106  26.327  1.00  0.00    -0.457 OA
ATOM     22  C   UNL A   1      37.877  22.341  25.440  1.00  0.00     0.051 A 
BRANCH  19  23
ATOM     23  C   UNL A   1      34.520  23.678  25.943  1.00  0.00     0.021 A 
ATOM     24  C   UNL A   1      34.133  21.668  27.498  1.00  0.00     0.045 C 
ATOM     25  C   UNL A   1      33.669  22.899  26.757  1.00  0.00    -0.033 A 
ATOM     26  C   UNL A   1      32.320  23.271  26.889  1.00  0.00     0.089 A 
ATOM     27  C   UNL A   1      31.837  24.414  26.240  1.00  0.00     0.269 A 
ATOM     28  C   UNL A   1      34.025  24.834  25.317  1.00  0.00     0.019 A 
ATOM     29  C   UNL A   1      32.688  25.206  25.461  1.00  0.00     0.086 A 
BRANCH  27  30
ATOM     30  N   UNL A   1      30.423  24.783  26.374  1.00  0.00     0.062 N 
ATOM     31  O   UNL A   1      29.722  24.129  27.159  1.00  0.00    -0.258 OA
ATOM     32  O   UNL A   1      30.004  25.723  25.681  1.00  0.00    -0.258 OA
ENDBRANCH  27  30
ENDBRANCH  19  23
ENDBRANCH  17  18
ENDBRANCH  13  16
ENDBRANCH   7  12
BRANCH  11  33
ATOM     33  O   UNL A   1      36.961  30.399  30.670  1.00  0.00    -0.507 OA
ATOM     34  H   UNL A   1      36.034  30.361  30.533  1.00  0.00     0.293 HD
ENDBRANCH  11  33
ENDBRANCH   4   6
ENDBRANCH   3   4
ENDBRANCH   2   3
ENDBRANCH   1   2
BRANCH   1  35
ATOM     35  O   UNL A   1      39.253  29.935  35.413  1.00  0.00    -0.374 OA
BRANCH  35  36
ATOM     36  C   UNL A   1      38.811  31.095  36.079  1.00  0.00     0.202 C 
BRANCH  36  37
ATOM     37  C   UNL A   1      37.793  31.890  35.257  1.00  0.00     0.261 C 
BRANCH  37  38
ATOM     38  O   UNL A   1      38.447  32.955  34.529  1.00  0.00    -0.460 OA
BRANCH  38  39
ATOM     39  C   UNL A   1      37.718  33.524  33.525  1.00  0.00     0.338 C 
ATOM     40  O   UNL A   1      36.515  33.391  33.380  1.00  0.00    -0.246 OA
BRANCH  39  41
ATOM     41  C   UNL A   1      38.621  34.212  32.554  1.00  0.00     0.060 A 
ATOM     42  C   UNL A   1      38.253  34.365  31.202  1.00  0.00     0.016 A 
ATOM     43  C   UNL A   1      39.937  34.434  32.940  1.00  0.00     0.016 A 
ATOM     44  C   UNL A   1      39.235  34.586  30.218  1.00  0.00     0.010 A 
ATOM     45  C   UNL A   1      40.901  34.507  31.961  1.00  0.00     0.010 A 
ATOM     46  C   UNL A   1      40.574  34.572  30.592  1.00  0.00    -0.014 A 
BRANCH  46  47
ATOM     47  C   UNL A   1      41.759  34.552  29.722  1.00  0.00     0.031 A 
ATOM     48  C   UNL A   1      42.417  33.231  29.521  1.00  0.00     0.074 A 
ATOM     49  C   UNL A   1      41.958  35.522  28.791  1.00  0.00     0.049 A 
ATOM     50  N   UNL A   1      43.373  33.022  28.689  1.00  0.00    -0.248 NA
ATOM     51  C   UNL A   1      42.063  32.018  30.265  1.00  0.00     0.031 C 
ATOM     52  C   UNL A   1      42.442  35.333  27.419  1.00  0.00     0.029 A 
ATOM     53  N   UNL A   1      41.797  36.908  28.875  1.00  0.00    -0.354 N 
ATOM     54  C   UNL A   1      43.477  31.666  28.502  1.00  0.00     0.074 A 
ATOM     55  C   UNL A   1      42.755  31.084  29.602  1.00  0.00     0.031 C 
ATOM     56  C   UNL A   1      42.750  36.519  26.876  1.00  0.00     0.029 A 
ATOM     57  C   UNL A   1      42.673  37.500  27.934  1.00  0.00     0.049 A 
ATOM     58  H   UNL A   1      41.184  37.386  29.479  1.00  0.00     0.167 HD
ATOM     59  C   UNL A   1      44.066  31.224  27.358  1.00  0.00     0.034 A 
ATOM     60  C   UNL A   1      43.646  38.373  28.325  1.00  0.00     0.034 A 
ATOM     61  C   UNL A   1      44.642  32.341  26.598  1.00  0.00     0.049 A 
ATOM     62  C   UNL A   1      45.025  37.830  28.026  1.00  0.00     0.074 A 
ATOM     63  C   UNL A   1      44.359  32.988  25.410  1.00  0.00     0.029 A 
ATOM     64  N   UNL A   1      45.600  33.110  27.227  1.00  0.00    -0.354 N 
ATOM     65  N   UNL A   1      45.219  36.694  27.416  1.00  0.00    -0.248 NA
ATOM     66  C   UNL A   1      46.281  38.448  28.433  1.00  0.00     0.031 C 
ATOM     67  C   UNL A   1      45.156  34.178  25.362  1.00  0.00     0.029 A 
ATOM     68  C   UNL A   1      45.952  34.216  26.495  1.00  0.00     0.049 A 
ATOM     69  H   UNL A   1      45.988  32.889  28.104  1.00  0.00     0.167 HD
ATOM     70  C   UNL A   1      46.534  36.342  27.473  1.00  0.00     0.074 A 
ATOM     71  C   UNL A   1      47.171  37.491  28.100  1.00  0.00     0.031 C 
ATOM     72  C   UNL A   1      46.957  35.111  27.054  1.00  0.00     0.034 A 
BRANCH  59  73
ATOM     73  C   UNL A   1      44.083  29.817  26.813  1.00  0.00     0.023 A 
ATOM     74  C   UNL A   1      45.340  29.278  26.464  1.00  0.00     0.031 A 
ATOM     75  C   UNL A   1      42.978  28.990  26.534  1.00  0.00     0.131 A 
ATOM     76  C   UNL A   1      45.465  28.022  25.853  1.00  0.00     0.055 A 
ATOM     77  C   UNL A   1      43.106  27.713  25.966  1.00  0.00     0.041 A 
ATOM     78  F   UNL A   1      41.715  29.373  26.749  1.00  0.00    -0.206 F 
ATOM     79  C   UNL A   1      44.354  27.226  25.611  1.00  0.00     0.022 A 
BRANCH  76  80
ATOM     80  S   UNL A   1      47.111  27.480  25.331  1.00  0.00     0.124 S 
ATOM     81  O   UNL A   1      46.865  27.033  23.964  1.00  0.00    -0.237 OA
ATOM     82  O   UNL A   1      47.900  28.697  25.483  1.00  0.00    -0.237 OA
ATOM     83  O   UNL A   1      47.430  26.414  26.280  1.00  0.00    -0.744 OA
ENDBRANCH  76  80
ENDBRANCH  59  73
BRANCH  60  84
ATOM     84  C   UNL A   1      43.190  39.160  29.516  1.00  0.00     0.023 A 
ATOM     85  C   UNL A   1      43.931  38.958  30.706  1.00  0.00     0.031 A 
ATOM     86  C   UNL A   1      42.595  40.417  29.316  1.00  0.00     0.131 A 
ATOM     87  C   UNL A   1      44.256  40.055  31.523  1.00  0.00     0.055 A 
ATOM     88  C   UNL A   1      42.895  41.497  30.157  1.00  0.00     0.041 A 
ATOM     89  F   UNL A   1      41.894  40.667  28.200  1.00  0.00    -0.206 F 
ATOM     90  C   UNL A   1      43.773  41.332  31.230  1.00  0.00     0.022 A 
BRANCH  87  91
ATOM     91  S   UNL A   1      45.557  39.841  32.783  1.00  0.00     0.124 S 
ATOM     92  O   UNL A   1      44.783  39.520  33.975  1.00  0.00    -0.237 OA
ATOM     93  O   UNL A   1      46.360  38.753  32.224  1.00  0.00    -0.237 OA
ATOM     94  O   UNL A   1      46.234  41.137  32.795  1.00  0.00    -0.744 OA
ENDBRANCH  87  91
ENDBRANCH  60  84
BRANCH  72  95
ATOM     95  C   UNL A   1      48.376  34.634  27.202  1.00  0.00     0.023 A 
ATOM     96  C   UNL A   1      48.864  34.216  28.441  1.00  0.00     0.031 A 
ATOM     97  C   UNL A   1      49.300  34.615  26.129  1.00  0.00     0.131 A 
ATOM     98  C   UNL A   1      50.158  33.693  28.559  1.00  0.00     0.055 A 
ATOM     99  C   UNL A   1      50.627  34.209  26.276  1.00  0.00     0.041 A 
ATOM    100  F   UNL A   1      48.951  34.924  24.872  1.00  0.00    -0.206 F 
ATOM    101  C   UNL A   1      51.058  33.717  27.495  1.00  0.00     0.022 A 
BRANCH  98 102
ATOM    102  S   UNL A   1      50.585  32.856  30.101  1.00  0.00     0.124 S 
ATOM    103  O   UNL A   1      52.010  33.139  30.233  1.00  0.00    -0.237 OA
ATOM    104  O   UNL A   1      49.715  33.543  31.054  1.00  0.00    -0.237 OA
ATOM    105  O   UNL A   1      50.244  31.460  29.841  1.00  0.00    -0.744 OA
ENDBRANCH  98 102
ENDBRANCH  72  95
ENDBRANCH  46  47
ENDBRANCH  39  41
ENDBRANCH  38  39
ENDBRANCH  37  38
ENDBRANCH  36  37
ENDBRANCH  35  36
ENDBRANCH   1  35
TORSDOF 23
ENDMDL
MODEL 3
REMARK VINA RESULT:     -10.9      4.759     10.880
REMARK SMILES Cc1cc([N+](=O)[O-])ccc1-c1ccc(/C=C/C(=O)Nc2ccc(O)c(C(=O)OCCOCCOC(=O)c3ccc(-c4c5nc(c(-c6cc(S(=O)(=O)[O-])ccc6F)c6ccc([nH]6)c(-c6cc(S(=O)(=O)[O-])ccc6F)c6nc(c(-c7cc(S(=O)(=O)[O-])ccc7F)c7ccc4[nH]7)C=C6)C=C5)cc3)c2)o1
REMARK SMILES IDX 30 1 29 2 28 3 26 4 27 5 25 6 20 7 21 8 100 9 22 10 23 11
REMARK SMILES IDX 19 12 17 13 18 14 16 16 15 17 14 18 11 19 12 20 101 21 13 22
REMARK SMILES IDX 10 23 1 24 2 25 3 26 4 27 9 28 8 29 5 30 6 31 7 32 24 33
REMARK SMILES IDX 31 35 32 36 33 37 34 38 35 39 36 40 37 41 38 42 99 43 39 44
REMARK SMILES IDX 98 45 40 46 41 47 42 48 92 49 43 50 97 51 91 52 93 53 44 54
REMARK SMILES IDX 96 55 90 56 89 57 45 59 77 60 57 61 76 62 58 63 61 64 75 65
REMARK SMILES IDX 94 66 59 67 60 68 74 70 95 71 62 72 46 73 47 74 55 75 48 76
REMARK SMILES IDX 54 77 56 78 53 79 49 80 50 81 51 82 52 83 78 84 79 85 87 86
REMARK SMILES IDX 80 87 86 88 88 89 85 90 81 91 82 92 83 93 84 94 63 95 64 96
REMARK SMILES IDX 72 97 65 98 71 99 73 100 70 101 66 102 67 103 68 104 69 105
REMARK H PARENT 19 15 24 34 93 58 61 69
REMARK Flexibility Score: inf
ROOT
ATOM      1  C   UNL A   1      36.299  33.182  32.889  1.00  0.00     0.202 C 
ENDROOT
BRANCH   1   2
ATOM      2  C   UNL A   1      35.001  33.323  33.649  1.00  0.00     0.261 C 
BRANCH   2   3
ATOM      3  O   UNL A   1      33.886  33.490  32.759  1.00  0.00    -0.460 OA
BRANCH   3   4
ATOM      4  C   UNL A   1      33.665  34.746  32.298  1.00  0.00     0.342 C 
ATOM      5  O   UNL A   1      33.486  35.758  32.940  1.00  0.00    -0.246 OA
BRANCH   4   6
ATOM      6  C   UNL A   1      33.848  34.741  30.831  1.00  0.00     0.103 A 
ATOM      7  C   UNL A   1      34.940  33.697  28.952  1.00  0.00     0.042 A 
ATOM      8  C   UNL A   1      34.315  34.599  28.086  1.00  0.00     0.030 A 
ATOM      9  C   UNL A   1      34.637  33.702  30.309  1.00  0.00     0.045 A 
ATOM     10  C   UNL A   1      33.479  35.586  28.594  1.00  0.00     0.049 A 
ATOM     11  C   UNL A   1      33.281  35.688  29.967  1.00  0.00     0.130 A 
BRANCH   7  12
ATOM     12  N   UNL A   1      36.025  32.920  28.517  1.00  0.00    -0.322 N 
ATOM     13  C   UNL A   1      35.941  31.641  28.003  1.00  0.00     0.248 C 
ATOM     14  O   UNL A   1      36.945  30.950  27.853  1.00  0.00    -0.270 OA
ATOM     15  H   UNL A   1      36.921  33.320  28.582  1.00  0.00     0.170 HD
BRANCH  13  16
ATOM     16  C   UNL A   1      34.601  31.109  27.613  1.00  0.00     0.075 C 
ATOM     17  C   UNL A   1      34.472  29.861  27.134  1.00  0.00     0.053 C 
BRANCH  17  18
ATOM     18  C   UNL A   1      33.269  29.403  26.543  1.00  0.00     0.127 A 
ATOM     19  C   UNL A   1      31.475  29.338  25.256  1.00  0.00     0.135 A 
ATOM     20  C   UNL A   1      31.350  28.274  26.116  1.00  0.00     0.051 A 
ATOM     21  O   UNL A   1      32.663  29.974  25.449  1.00  0.00    -0.457 OA
ATOM     22  C   UNL A   1      32.478  28.337  26.960  1.00  0.00     0.051 A 
BRANCH  19  23
ATOM     23  C   UNL A   1      30.587  29.941  24.284  1.00  0.00     0.021 A 
ATOM     24  C   UNL A   1      30.783  27.910  22.721  1.00  0.00     0.045 C 
ATOM     25  C   UNL A   1      30.271  29.286  23.073  1.00  0.00    -0.033 A 
ATOM     26  C   UNL A   1      29.447  29.935  22.139  1.00  0.00     0.089 A 
ATOM     27  C   UNL A   1      28.926  31.205  22.420  1.00  0.00     0.269 A 
ATOM     28  C   UNL A   1      30.039  31.204  24.560  1.00  0.00     0.019 A 
ATOM     29  C   UNL A   1      29.211  31.840  23.634  1.00  0.00     0.086 A 
BRANCH  27  30
ATOM     30  N   UNL A   1      28.079  31.879  21.429  1.00  0.00     0.062 N 
ATOM     31  O   UNL A   1      27.868  31.300  20.354  1.00  0.00    -0.258 OA
ATOM     32  O   UNL A   1      27.631  32.999  21.719  1.00  0.00    -0.258 OA
ENDBRANCH  27  30
ENDBRANCH  19  23
ENDBRANCH  17  18
ENDBRANCH  13  16
ENDBRANCH   7  12
BRANCH  11  33
ATOM     33  O   UNL A   1      32.547  36.777  30.341  1.00  0.00    -0.507 OA
ATOM     34  H   UNL A   1      32.546  37.548  29.808  1.00  0.00     0.293 HD
ENDBRANCH  11  33
ENDBRANCH   4   6
ENDBRANCH   3   4
ENDBRANCH   2   3
ENDBRANCH   1   2
BRANCH   1  35
ATOM     35  O   UNL A   1      37.228  32.614  33.805  1.00  0.00    -0.374 OA
BRANCH  35  36
ATOM     36  C   UNL A   1      37.037  32.896  35.173  1.00  0.00     0.202 C 
BRANCH  36  37
ATOM     37  C   UNL A   1      38.083  33.868  35.723  1.00  0.00     0.261 C 
BRANCH  37  38
ATOM     38  O   UNL A   1      38.419  34.868  34.734  1.00  0.00    -0.460 OA
BRANCH  38  39
ATOM     39  C   UNL A   1      39.673  35.399  34.826  1.00  0.00     0.338 C 
ATOM     40  O   UNL A   1      39.966  36.371  35.501  1.00  0.00    -0.246 OA
BRANCH  39  41
ATOM     41  C   UNL A   1      40.599  34.710  33.879  1.00  0.00     0.060 A 
ATOM     42  C   UNL A   1      41.969  34.566  34.179  1.00  0.00     0.016 A 
ATOM     43  C   UNL A   1      40.149  34.477  32.586  1.00  0.00     0.016 A 
ATOM     44  C   UNL A   1      42.904  34.343  33.149  1.00  0.00     0.010 A 
ATOM     45  C   UNL A   1      41.078  34.403  31.574  1.00  0.00     0.010 A 
ATOM     46  C   UNL A   1      42.461  34.347  31.831  1.00  0.00    -0.014 A 
BRANCH  46  47
ATOM     47  C   UNL A   1      43.270  34.364  30.603  1.00  0.00     0.031 A 
ATOM     48  C   UNL A   1      43.771  33.050  30.115  1.00  0.00     0.074 A 
ATOM     49  C   UNL A   1      43.167  35.388  29.713  1.00  0.00     0.049 A 
ATOM     50  N   UNL A   1      44.371  32.879  28.993  1.00  0.00    -0.248 NA
ATOM     51  C   UNL A   1      43.655  31.798  30.870  1.00  0.00     0.031 C 
ATOM     52  C   UNL A   1      43.139  35.277  28.251  1.00  0.00     0.029 A 
ATOM     53  N   UNL A   1      43.093  36.768  29.921  1.00  0.00    -0.354 N 
ATOM     54  C   UNL A   1      44.357  31.535  28.709  1.00  0.00     0.074 A 
ATOM     55  C   UNL A   1      44.041  30.897  29.960  1.00  0.00     0.031 C 
ATOM     56  C   UNL A   1      43.281  36.490  27.698  1.00  0.00     0.029 A 
ATOM     57  C   UNL A   1      43.609  37.404  28.767  1.00  0.00     0.049 A 
ATOM     58  H   UNL A   1      42.745  37.216  30.725  1.00  0.00     0.167 HD
ATOM     59  C   UNL A   1      44.497  31.157  27.410  1.00  0.00     0.034 A 
ATOM     60  C   UNL A   1      44.687  38.238  28.841  1.00  0.00     0.034 A 
ATOM     61  C   UNL A   1      44.812  32.310  26.558  1.00  0.00     0.049 A 
ATOM     62  C   UNL A   1      45.857  37.695  28.053  1.00  0.00     0.074 A 
ATOM     63  C   UNL A   1      44.158  33.034  25.579  1.00  0.00     0.029 A 
ATOM     64  N   UNL A   1      45.955  33.025  26.854  1.00  0.00    -0.354 N 
ATOM     65  N   UNL A   1      45.789  36.596  27.354  1.00  0.00    -0.248 NA
ATOM     66  C   UNL A   1      47.197  38.268  28.029  1.00  0.00     0.031 C 
ATOM     67  C   UNL A   1      44.930  34.213  25.320  1.00  0.00     0.029 A 
ATOM     68  C   UNL A   1      46.070  34.170  26.105  1.00  0.00     0.049 A 
ATOM     69  H   UNL A   1      46.615  32.746  27.529  1.00  0.00     0.167 HD
ATOM     70  C   UNL A   1      47.028  36.222  26.932  1.00  0.00     0.074 A 
ATOM     71  C   UNL A   1      47.883  37.322  27.357  1.00  0.00     0.031 C 
ATOM     72  C   UNL A   1      47.238  35.014  26.327  1.00  0.00     0.034 A 
BRANCH  59  73
ATOM     73  C   UNL A   1      44.275  29.787  26.820  1.00  0.00     0.023 A 
ATOM     74  C   UNL A   1      45.401  29.131  26.277  1.00  0.00     0.031 A 
ATOM     75  C   UNL A   1      43.054  29.101  26.673  1.00  0.00     0.131 A 
ATOM     76  C   UNL A   1      45.294  27.901  25.611  1.00  0.00     0.055 A 
ATOM     77  C   UNL A   1      42.953  27.848  26.048  1.00  0.00     0.041 A 
ATOM     78  F   UNL A   1      41.886  29.610  27.079  1.00  0.00    -0.206 F 
ATOM     79  C   UNL A   1      44.075  27.246  25.502  1.00  0.00     0.022 A 
BRANCH  76  80
ATOM     80  S   UNL A   1      46.779  27.209  24.841  1.00  0.00     0.124 S 
ATOM     81  O   UNL A   1      47.823  27.618  25.774  1.00  0.00    -0.237 OA
ATOM     82  O   UNL A   1      46.469  25.785  24.798  1.00  0.00    -0.237 OA
ATOM     83  O   UNL A   1      46.821  27.872  23.538  1.00  0.00    -0.744 OA
ENDBRANCH  76  80
ENDBRANCH  59  73
BRANCH  60  84
ATOM     84  C   UNL A   1      44.700  38.956  30.157  1.00  0.00     0.023 A 
ATOM     85  C   UNL A   1      45.797  38.665  31.005  1.00  0.00     0.031 A 
ATOM     86  C   UNL A   1      44.122  40.234  30.241  1.00  0.00     0.131 A 
ATOM     87  C   UNL A   1      46.425  39.701  31.716  1.00  0.00     0.055 A 
ATOM     88  C   UNL A   1      44.736  41.253  30.983  1.00  0.00     0.041 A 
ATOM     89  F   UNL A   1      43.091  40.567  29.451  1.00  0.00    -0.206 F 
ATOM     90  C   UNL A   1      45.921  41.004  31.677  1.00  0.00     0.022 A 
BRANCH  87  91
ATOM     91  S   UNL A   1      48.071  39.384  32.436  1.00  0.00     0.124 S 
ATOM     92  O   UNL A   1      47.764  38.442  33.505  1.00  0.00    -0.237 OA
ATOM     93  O   UNL A   1      48.813  38.845  31.296  1.00  0.00    -0.237 OA
ATOM     94  O   UNL A   1      48.515  40.709  32.866  1.00  0.00    -0.744 OA
ENDBRANCH  87  91
ENDBRANCH  60  84
BRANCH  72  95
ATOM     95  C   UNL A   1      48.602  34.509  25.946  1.00  0.00     0.023 A 
ATOM     96  C   UNL A   1      49.099  33.321  26.483  1.00  0.00     0.031 A 
ATOM     97  C   UNL A   1      49.468  35.208  25.069  1.00  0.00     0.131 A 
ATOM     98  C   UNL A   1      50.334  32.810  26.063  1.00  0.00     0.055 A 
ATOM     99  C   UNL A   1      50.749  34.758  24.748  1.00  0.00     0.041 A 
ATOM    100  F   UNL A   1      49.095  36.325  24.428  1.00  0.00    -0.206 F 
ATOM    101  C   UNL A   1      51.181  33.534  25.225  1.00  0.00     0.022 A 
BRANCH  98 102
ATOM    102  S   UNL A   1      50.740  31.113  26.531  1.00  0.00     0.124 S 
ATOM    103  O   UNL A   1      51.613  30.683  25.444  1.00  0.00    -0.237 OA
ATOM    104  O   UNL A   1      51.393  31.317  27.822  1.00  0.00    -0.237 OA
ATOM    105  O   UNL A   1      49.440  30.451  26.589  1.00  0.00    -0.744 OA
ENDBRANCH  98 102
ENDBRANCH  72  95
ENDBRANCH  46  47
ENDBRANCH  39  41
ENDBRANCH  38  39
ENDBRANCH  37  38
ENDBRANCH  36  37
ENDBRANCH  35  36
ENDBRANCH   1  35
TORSDOF 23
ENDMDL
