MODEL 1
REMARK VINA RESULT:     -10.9      0.000      0.000
REMARK SMILES Cc1ccc(C(=O)OCCOCCOC(=O)c2ccc(-c3c4nc(c(-c5cc(S(=O)(=O)[O-])ccc5F)c5ccc([nH]5)c(-c5cc(S(=O)(=O)[O-])ccc5F)c5nc(c(-c6cc(S(=O)(=O)[O-])ccc6F)c6ccc3[nH]6)C=C5)C=C4)cc2)cc1S(=O)(=O)N(CC1CC1)C(C)C
REMARK SMILES IDX 10 1 9 2 8 3 6 4 7 5 5 6 1 7 2 8 3 9 81 10 4 11 80 12 82 13
REMARK SMILES IDX 83 14 84 15 85 16 86 17 87 18 88 19 89 20 90 21 91 22 92 23
REMARK SMILES IDX 11 24 12 25 13 26 14 27 15 28 16 29 17 30 18 31 79 32 19 33
REMARK SMILES IDX 78 34 20 35 21 36 22 37 72 38 23 39 77 40 71 41 73 42 24 43
REMARK SMILES IDX 76 44 70 45 69 46 25 48 57 49 37 50 56 51 38 52 41 53 55 54
REMARK SMILES IDX 74 55 39 56 40 57 54 59 75 60 42 61 26 62 27 63 35 64 28 65
REMARK SMILES IDX 34 66 36 67 33 68 29 69 30 70 31 71 32 72 58 73 59 74 67 75
REMARK SMILES IDX 60 76 66 77 68 78 65 79 61 80 62 81 63 82 64 83 43 84 44 85
REMARK SMILES IDX 52 86 45 87 51 88 53 89 50 90 46 91 47 92 48 93 49 94
REMARK H PARENT 73 47 41 58
REMARK Flexibility Score: inf
ROOT
ATOM      1  C   UNL A   1      35.794  21.235  25.020  1.00  0.00     0.202 C 
ENDROOT
BRANCH   1   2
ATOM      2  C   UNL A   1      34.634  21.772  25.775  1.00  0.00     0.261 C 
BRANCH   2   3
ATOM      3  O   UNL A   1      33.673  20.747  26.047  1.00  0.00    -0.460 OA
BRANCH   3   4
ATOM      4  C   UNL A   1      32.506  20.662  25.361  1.00  0.00     0.338 C 
ATOM      5  O   UNL A   1      31.982  19.705  24.839  1.00  0.00    -0.246 OA
BRANCH   4   6
ATOM      6  C   UNL A   1      31.888  22.001  25.484  1.00  0.00     0.061 A 
ATOM      7  C   UNL A   1      30.053  25.882  25.823  1.00  0.00     0.046 C 
ATOM      8  C   UNL A   1      30.814  24.600  25.682  1.00  0.00    -0.031 A 
ATOM      9  C   UNL A   1      30.515  23.595  26.638  1.00  0.00     0.006 A 
ATOM     10  C   UNL A   1      31.743  24.301  24.675  1.00  0.00     0.086 A 
ATOM     11  C   UNL A   1      31.039  22.302  26.539  1.00  0.00     0.016 A 
ATOM     12  C   UNL A   1      32.232  22.998  24.575  1.00  0.00     0.037 A 
BRANCH  10  13
ATOM     13  S   UNL A   1      32.316  25.277  23.300  1.00  0.00     0.243 S 
ATOM     14  O   UNL A   1      33.631  24.794  22.944  1.00  0.00    -0.207 OA
ATOM     15  O   UNL A   1      31.218  25.180  22.362  1.00  0.00    -0.207 OA
BRANCH  13  16
ATOM     16  N   UNL A   1      32.533  26.888  23.758  1.00  0.00    -0.195 NA
BRANCH  16  17
ATOM     17  C   UNL A   1      33.773  27.287  24.472  1.00  0.00     0.106 C 
BRANCH  17  18
ATOM     18  C   UNL A   1      33.830  27.338  25.974  1.00  0.00     0.004 C 
ATOM     19  C   UNL A   1      34.290  28.451  26.890  1.00  0.00     0.005 C 
ATOM     20  C   UNL A   1      32.827  28.250  26.661  1.00  0.00     0.005 C 
ENDBRANCH  17  18
ENDBRANCH  16  17
BRANCH  16  21
ATOM     21  C   UNL A   1      31.932  27.969  22.892  1.00  0.00     0.067 C 
ATOM     22  C   UNL A   1      30.635  28.544  23.443  1.00  0.00     0.025 C 
ATOM     23  C   UNL A   1      32.867  29.135  22.568  1.00  0.00     0.025 C 
ENDBRANCH  16  21
ENDBRANCH  13  16
ENDBRANCH  10  13
ENDBRANCH   4   6
ENDBRANCH   3   4
ENDBRANCH   2   3
ENDBRANCH   1   2
BRANCH   1  24
ATOM     24  O   UNL A   1      36.907  21.567  25.841  1.00  0.00    -0.374 OA
BRANCH  24  25
ATOM     25  C   UNL A   1      38.157  21.550  25.206  1.00  0.00     0.202 C 
BRANCH  25  26
ATOM     26  C   UNL A   1      39.269  21.103  26.156  1.00  0.00     0.261 C 
BRANCH  26  27
ATOM     27  O   UNL A   1      39.642  22.201  27.022  1.00  0.00    -0.460 OA
BRANCH  27  28
ATOM     28  C   UNL A   1      40.598  23.054  26.546  1.00  0.00     0.338 C 
ATOM     29  O   UNL A   1      41.652  22.706  26.045  1.00  0.00    -0.246 OA
BRANCH  28  30
ATOM     30  C   UNL A   1      40.220  24.471  26.838  1.00  0.00     0.060 A 
ATOM     31  C   UNL A   1      40.720  25.533  26.054  1.00  0.00     0.016 A 
ATOM     32  C   UNL A   1      39.598  24.746  28.050  1.00  0.00     0.016 A 
ATOM     33  C   UNL A   1      40.738  26.847  26.563  1.00  0.00     0.010 A 
ATOM     34  C   UNL A   1      39.717  26.011  28.584  1.00  0.00     0.010 A 
ATOM     35  C   UNL A   1      40.317  27.066  27.872  1.00  0.00    -0.014 A 
BRANCH  35  36
ATOM     36  C   UNL A   1      40.567  28.263  28.690  1.00  0.00     0.031 A 
ATOM     37  C   UNL A   1      39.546  29.335  28.665  1.00  0.00     0.074 A 
ATOM     38  C   UNL A   1      41.481  28.240  29.697  1.00  0.00     0.049 A 
ATOM     39  N   UNL A   1      39.685  30.484  29.223  1.00  0.00    -0.248 NA
ATOM     40  C   UNL A   1      38.270  29.222  27.956  1.00  0.00     0.031 C 
ATOM     41  C   UNL A   1      41.486  28.996  30.952  1.00  0.00     0.029 A 
ATOM     42  N   UNL A   1      42.645  27.480  29.809  1.00  0.00    -0.354 N 
ATOM     43  C   UNL A   1      38.431  31.040  29.329  1.00  0.00     0.074 A 
ATOM     44  C   UNL A   1      37.635  30.316  28.377  1.00  0.00     0.031 C 
ATOM     45  C   UNL A   1      42.692  28.891  31.544  1.00  0.00     0.029 A 
ATOM     46  C   UNL A   1      43.555  28.156  30.634  1.00  0.00     0.049 A 
ATOM     47  H   UNL A   1      42.802  26.607  29.380  1.00  0.00     0.167 HD
ATOM     48  C   UNL A   1      38.203  31.917  30.348  1.00  0.00     0.034 A 
ATOM     49  C   UNL A   1      44.785  28.489  30.163  1.00  0.00     0.034 A 
ATOM     50  C   UNL A   1      39.465  32.215  31.056  1.00  0.00     0.049 A 
ATOM     51  C   UNL A   1      44.803  29.995  30.077  1.00  0.00     0.074 A 
ATOM     52  C   UNL A   1      39.945  31.917  32.320  1.00  0.00     0.029 A 
ATOM     53  N   UNL A   1      40.569  32.655  30.321  1.00  0.00    -0.354 N 
ATOM     54  N   UNL A   1      43.703  30.701  30.015  1.00  0.00    -0.248 NA
ATOM     55  C   UNL A   1      45.992  30.827  30.218  1.00  0.00     0.031 C 
ATOM     56  C   UNL A   1      41.364  32.085  32.299  1.00  0.00     0.029 A 
ATOM     57  C   UNL A   1      41.743  32.513  31.034  1.00  0.00     0.049 A 
ATOM     58  H   UNL A   1      40.516  33.021  29.409  1.00  0.00     0.167 HD
ATOM     59  C   UNL A   1      43.984  32.006  30.263  1.00  0.00     0.074 A 
ATOM     60  C   UNL A   1      45.440  32.053  30.307  1.00  0.00     0.031 C 
ATOM     61  C   UNL A   1      43.013  32.947  30.463  1.00  0.00     0.034 A 
BRANCH  48  62
ATOM     62  C   UNL A   1      36.839  32.330  30.888  1.00  0.00     0.023 A 
ATOM     63  C   UNL A   1      36.060  33.222  30.116  1.00  0.00     0.031 A 
ATOM     64  C   UNL A   1      36.261  31.977  32.127  1.00  0.00     0.131 A 
ATOM     65  C   UNL A   1      34.834  33.739  30.581  1.00  0.00     0.055 A 
ATOM     66  C   UNL A   1      35.034  32.479  32.585  1.00  0.00     0.041 A 
ATOM     67  F   UNL A   1      36.830  31.128  32.983  1.00  0.00    -0.206 F 
ATOM     68  C   UNL A   1      34.314  33.372  31.816  1.00  0.00     0.022 A 
BRANCH  65  69
ATOM     69  S   UNL A   1      33.927  34.918  29.548  1.00  0.00     0.124 S 
ATOM     70  O   UNL A   1      33.611  35.979  30.498  1.00  0.00    -0.237 OA
ATOM     71  O   UNL A   1      34.901  35.241  28.513  1.00  0.00    -0.237 OA
ATOM     72  O   UNL A   1      32.774  34.144  29.085  1.00  0.00    -0.744 OA
ENDBRANCH  65  69
ENDBRANCH  48  62
BRANCH  49  73
ATOM     73  C   UNL A   1      45.289  27.437  29.211  1.00  0.00     0.023 A 
ATOM     74  C   UNL A   1      45.371  27.800  27.833  1.00  0.00     0.031 A 
ATOM     75  C   UNL A   1      46.128  26.401  29.646  1.00  0.00     0.131 A 
ATOM     76  C   UNL A   1      46.364  27.248  26.995  1.00  0.00     0.055 A 
ATOM     77  C   UNL A   1      47.102  25.842  28.801  1.00  0.00     0.041 A 
ATOM     78  F   UNL A   1      46.134  26.023  30.933  1.00  0.00    -0.206 F 
ATOM     79  C   UNL A   1      47.255  26.295  27.490  1.00  0.00     0.022 A 
BRANCH  76  80
ATOM     80  S   UNL A   1      46.699  28.013  25.362  1.00  0.00     0.124 S 
ATOM     81  O   UNL A   1      45.776  29.141  25.351  1.00  0.00    -0.237 OA
ATOM     82  O   UNL A   1      48.119  28.341  25.445  1.00  0.00    -0.237 OA
ATOM     83  O   UNL A   1      46.395  26.939  24.415  1.00  0.00    -0.744 OA
ENDBRANCH  76  80
ENDBRANCH  49  73
BRANCH  61  84
ATOM     84  C   UNL A   1      43.233  34.403  30.181  1.00  0.00     0.023 A 
ATOM     85  C   UNL A   1      43.030  34.935  28.905  1.00  0.00     0.031 A 
ATOM     86  C   UNL A   1      43.504  35.331  31.211  1.00  0.00     0.131 A 
ATOM     87  C   UNL A   1      43.211  36.296  28.656  1.00  0.00     0.055 A 
ATOM     88  C   UNL A   1      43.564  36.705  30.983  1.00  0.00     0.041 A 
ATOM     89  F   UNL A   1      43.698  34.951  32.481  1.00  0.00    -0.206 F 
ATOM     90  C   UNL A   1      43.443  37.196  29.691  1.00  0.00     0.022 A 
BRANCH  87  91
ATOM     91  S   UNL A   1      43.251  36.821  26.929  1.00  0.00     0.124 S 
ATOM     92  O   UNL A   1      42.603  35.694  26.262  1.00  0.00    -0.237 OA
ATOM     93  O   UNL A   1      42.487  38.064  26.956  1.00  0.00    -0.237 OA
ATOM     94  O   UNL A   1      44.677  36.970  26.649  1.00  0.00    -0.744 OA
ENDBRANCH  87  91
ENDBRANCH  61  84
ENDBRANCH  35  36
ENDBRANCH  28  30
ENDBRANCH  27  28
ENDBRANCH  26  27
ENDBRANCH  25  26
ENDBRANCH  24  25
ENDBRANCH   1  24
TORSDOF 22
ENDMDL
MODEL 2
REMARK VINA RESULT:     -10.7      4.236     10.133
REMARK SMILES Cc1ccc(C(=O)OCCOCCOC(=O)c2ccc(-c3c4nc(c(-c5cc(S(=O)(=O)[O-])ccc5F)c5ccc([nH]5)c(-c5cc(S(=O)(=O)[O-])ccc5F)c5nc(c(-c6cc(S(=O)(=O)[O-])ccc6F)c6ccc3[nH]6)C=C5)C=C4)cc2)cc1S(=O)(=O)N(CC1CC1)C(C)C
REMARK SMILES IDX 10 1 9 2 8 3 6 4 7 5 5 6 1 7 2 8 3 9 81 10 4 11 80 12 82 13
REMARK SMILES IDX 83 14 84 15 85 16 86 17 87 18 88 19 89 20 90 21 91 22 92 23
REMARK SMILES IDX 11 24 12 25 13 26 14 27 15 28 16 29 17 30 18 31 79 32 19 33
REMARK SMILES IDX 78 34 20 35 21 36 22 37 72 38 23 39 77 40 71 41 73 42 24 43
REMARK SMILES IDX 76 44 70 45 69 46 25 48 57 49 37 50 56 51 38 52 41 53 55 54
REMARK SMILES IDX 74 55 39 56 40 57 54 59 75 60 42 61 26 62 27 63 35 64 28 65
REMARK SMILES IDX 34 66 36 67 33 68 29 69 30 70 31 71 32 72 58 73 59 74 67 75
REMARK SMILES IDX 60 76 66 77 68 78 65 79 61 80 62 81 63 82 64 83 43 84 44 85
REMARK SMILES IDX 52 86 45 87 51 88 53 89 50 90 46 91 47 92 48 93 49 94
REMARK H PARENT 73 47 41 58
REMARK Flexibility Score: inf
ROOT
ATOM      1  C   UNL A   1      33.439  33.274  27.673  1.00  0.00     0.202 C 
ENDROOT
BRANCH   1   2
ATOM      2  C   UNL A   1      33.969  31.932  28.022  1.00  0.00     0.261 C 
BRANCH   2   3
ATOM      3  O   UNL A   1      33.400  30.918  27.188  1.00  0.00    -0.460 OA
BRANCH   3   4
ATOM      4  C   UNL A   1      34.022  29.729  26.982  1.00  0.00     0.338 C 
ATOM      5  O   UNL A   1      34.983  29.251  27.539  1.00  0.00    -0.246 OA
BRANCH   4   6
ATOM      6  C   UNL A   1      33.186  29.024  25.985  1.00  0.00     0.061 A 
ATOM      7  C   UNL A   1      30.728  26.959  23.115  1.00  0.00     0.046 C 
ATOM      8  C   UNL A   1      31.694  27.646  24.030  1.00  0.00    -0.031 A 
ATOM      9  C   UNL A   1      31.280  28.907  24.531  1.00  0.00     0.006 A 
ATOM     10  C   UNL A   1      32.926  27.134  24.460  1.00  0.00     0.086 A 
ATOM     11  C   UNL A   1      32.013  29.591  25.507  1.00  0.00     0.016 A 
ATOM     12  C   UNL A   1      33.628  27.815  25.455  1.00  0.00     0.037 A 
BRANCH  10  13
ATOM     13  S   UNL A   1      33.732  25.589  24.092  1.00  0.00     0.243 S 
ATOM     14  O   UNL A   1      33.860  25.499  22.655  1.00  0.00    -0.207 OA
ATOM     15  O   UNL A   1      34.907  25.634  24.934  1.00  0.00    -0.207 OA
BRANCH  13  16
ATOM     16  N   UNL A   1      32.759  24.284  24.542  1.00  0.00    -0.195 NA
BRANCH  16  17
ATOM     17  C   UNL A   1      33.359  22.932  24.675  1.00  0.00     0.106 C 
BRANCH  17  18
ATOM     18  C   UNL A   1      33.318  21.942  23.543  1.00  0.00     0.004 C 
ATOM     19  C   UNL A   1      32.151  21.162  22.978  1.00  0.00     0.005 C 
ATOM     20  C   UNL A   1      32.619  22.393  22.272  1.00  0.00     0.005 C 
ENDBRANCH  17  18
ENDBRANCH  16  17
BRANCH  16  21
ATOM     21  C   UNL A   1      31.589  24.544  25.462  1.00  0.00     0.067 C 
ATOM     22  C   UNL A   1      30.622  23.373  25.567  1.00  0.00     0.025 C 
ATOM     23  C   UNL A   1      31.964  24.978  26.880  1.00  0.00     0.025 C 
ENDBRANCH  16  21
ENDBRANCH  13  16
ENDBRANCH  10  13
ENDBRANCH   4   6
ENDBRANCH   3   4
ENDBRANCH   2   3
ENDBRANCH   1   2
BRANCH   1  24
ATOM     24  O   UNL A   1      33.331  33.925  28.933  1.00  0.00    -0.374 OA
BRANCH  24  25
ATOM     25  C   UNL A   1      33.169  35.317  28.886  1.00  0.00     0.202 C 
BRANCH  25  26
ATOM     26  C   UNL A   1      33.177  35.936  30.284  1.00  0.00     0.261 C 
BRANCH  26  27
ATOM     27  O   UNL A   1      33.323  34.895  31.279  1.00  0.00    -0.460 OA
BRANCH  27  28
ATOM     28  C   UNL A   1      34.507  34.867  31.960  1.00  0.00     0.338 C 
ATOM     29  O   UNL A   1      34.926  35.769  32.664  1.00  0.00    -0.246 OA
BRANCH  28  30
ATOM     30  C   UNL A   1      35.271  33.626  31.623  1.00  0.00     0.060 A 
ATOM     31  C   UNL A   1      35.110  32.445  32.379  1.00  0.00     0.016 A 
ATOM     32  C   UNL A   1      36.336  33.735  30.736  1.00  0.00     0.016 A 
ATOM     33  C   UNL A   1      36.104  31.448  32.361  1.00  0.00     0.010 A 
ATOM     34  C   UNL A   1      37.353  32.808  30.807  1.00  0.00     0.010 A 
ATOM     35  C   UNL A   1      37.274  31.676  31.640  1.00  0.00    -0.014 A 
BRANCH  35  36
ATOM     36  C   UNL A   1      38.542  30.941  31.760  1.00  0.00     0.031 A 
ATOM     37  C   UNL A   1      38.696  29.707  30.956  1.00  0.00     0.074 A 
ATOM     38  C   UNL A   1      39.648  31.540  32.277  1.00  0.00     0.049 A 
ATOM     39  N   UNL A   1      39.689  28.897  31.053  1.00  0.00    -0.248 NA
ATOM     40  C   UNL A   1      37.705  29.243  29.985  1.00  0.00     0.031 C 
ATOM     41  C   UNL A   1      41.058  31.294  31.965  1.00  0.00     0.029 A 
ATOM     42  N   UNL A   1      39.732  32.558  33.227  1.00  0.00    -0.354 N 
ATOM     43  C   UNL A   1      39.690  28.117  29.919  1.00  0.00     0.074 A 
ATOM     44  C   UNL A   1      38.358  28.241  29.396  1.00  0.00     0.031 C 
ATOM     45  C   UNL A   1      41.841  31.896  32.882  1.00  0.00     0.029 A 
ATOM     46  C   UNL A   1      40.963  32.462  33.892  1.00  0.00     0.049 A 
ATOM     47  H   UNL A   1      39.040  33.238  33.401  1.00  0.00     0.167 HD
ATOM     48  C   UNL A   1      40.884  27.621  29.485  1.00  0.00     0.034 A 
ATOM     49  C   UNL A   1      40.997  32.306  35.241  1.00  0.00     0.034 A 
ATOM     50  C   UNL A   1      41.946  27.914  30.468  1.00  0.00     0.049 A 
ATOM     51  C   UNL A   1      41.540  30.920  35.485  1.00  0.00     0.074 A 
ATOM     52  C   UNL A   1      43.056  28.742  30.457  1.00  0.00     0.029 A 
ATOM     53  N   UNL A   1      41.761  27.538  31.801  1.00  0.00    -0.354 N 
ATOM     54  N   UNL A   1      41.494  29.984  34.572  1.00  0.00    -0.248 NA
ATOM     55  C   UNL A   1      42.304  30.514  36.659  1.00  0.00     0.031 C 
ATOM     56  C   UNL A   1      43.466  28.939  31.812  1.00  0.00     0.029 A 
ATOM     57  C   UNL A   1      42.627  28.208  32.642  1.00  0.00     0.049 A 
ATOM     58  H   UNL A   1      41.097  26.877  32.102  1.00  0.00     0.167 HD
ATOM     59  C   UNL A   1      42.314  28.961  34.924  1.00  0.00     0.074 A 
ATOM     60  C   UNL A   1      42.742  29.299  36.276  1.00  0.00     0.031 C 
ATOM     61  C   UNL A   1      42.625  27.937  34.075  1.00  0.00     0.034 A 
BRANCH  48  62
ATOM     62  C   UNL A   1      41.179  27.092  28.086  1.00  0.00     0.023 A 
ATOM     63  C   UNL A   1      41.615  25.754  27.958  1.00  0.00     0.031 A 
ATOM     64  C   UNL A   1      41.131  27.806  26.868  1.00  0.00     0.131 A 
ATOM     65  C   UNL A   1      42.010  25.211  26.718  1.00  0.00     0.055 A 
ATOM     66  C   UNL A   1      41.510  27.263  25.632  1.00  0.00     0.041 A 
ATOM     67  F   UNL A   1      40.721  29.072  26.779  1.00  0.00    -0.206 F 
ATOM     68  C   UNL A   1      41.959  25.960  25.550  1.00  0.00     0.022 A 
BRANCH  65  69
ATOM     69  S   UNL A   1      42.606  23.502  26.655  1.00  0.00     0.124 S 
ATOM     70  O   UNL A   1      43.732  23.604  25.733  1.00  0.00    -0.237 OA
ATOM     71  O   UNL A   1      42.932  23.232  28.051  1.00  0.00    -0.237 OA
ATOM     72  O   UNL A   1      41.455  22.761  26.140  1.00  0.00    -0.744 OA
ENDBRANCH  65  69
ENDBRANCH  48  62
BRANCH  49  73
ATOM     73  C   UNL A   1      39.862  33.053  35.889  1.00  0.00     0.023 A 
ATOM     74  C   UNL A   1      38.877  32.271  36.563  1.00  0.00     0.031 A 
ATOM     75  C   UNL A   1      40.006  34.386  36.301  1.00  0.00     0.131 A 
ATOM     76  C   UNL A   1      38.200  32.775  37.694  1.00  0.00     0.055 A 
ATOM     77  C   UNL A   1      39.314  34.888  37.417  1.00  0.00     0.041 A 
ATOM     78  F   UNL A   1      40.932  35.177  35.738  1.00  0.00    -0.206 F 
ATOM     79  C   UNL A   1      38.446  34.073  38.144  1.00  0.00     0.022 A 
BRANCH  76  80
ATOM     80  S   UNL A   1      37.248  31.631  38.767  1.00  0.00     0.124 S 
ATOM     81  O   UNL A   1      35.956  32.298  38.865  1.00  0.00    -0.237 OA
ATOM     82  O   UNL A   1      37.274  30.383  38.010  1.00  0.00    -0.237 OA
ATOM     83  O   UNL A   1      38.033  31.590  40.001  1.00  0.00    -0.744 OA
ENDBRANCH  76  80
ENDBRANCH  49  73
BRANCH  61  84
ATOM     84  C   UNL A   1      43.027  26.578  34.566  1.00  0.00     0.023 A 
ATOM     85  C   UNL A   1      44.370  26.195  34.628  1.00  0.00     0.031 A 
ATOM     86  C   UNL A   1      42.093  25.680  35.129  1.00  0.00     0.131 A 
ATOM     87  C   UNL A   1      44.738  24.938  35.111  1.00  0.00     0.055 A 
ATOM     88  C   UNL A   1      42.475  24.477  35.721  1.00  0.00     0.041 A 
ATOM     89  F   UNL A   1      40.778  25.939  35.150  1.00  0.00    -0.206 F 
ATOM     90  C   UNL A   1      43.805  24.086  35.692  1.00  0.00     0.022 A 
BRANCH  87  91
ATOM     91  S   UNL A   1      46.445  24.418  34.841  1.00  0.00     0.124 S 
ATOM     92  O   UNL A   1      46.261  23.155  34.129  1.00  0.00    -0.237 OA
ATOM     93  O   UNL A   1      46.991  25.515  34.049  1.00  0.00    -0.237 OA
ATOM     94  O   UNL A   1      46.983  24.294  36.194  1.00  0.00    -0.744 OA
ENDBRANCH  87  91
ENDBRANCH  61  84
ENDBRANCH  35  36
ENDBRANCH  28  30
ENDBRANCH  27  28
ENDBRANCH  26  27
ENDBRANCH  25  26
ENDBRANCH  24  25
ENDBRANCH   1  24
TORSDOF 22
ENDMDL
MODEL 3
REMARK VINA RESULT:     -10.6      2.494      3.454
REMARK SMILES Cc1ccc(C(=O)OCCOCCOC(=O)c2ccc(-c3c4nc(c(-c5cc(S(=O)(=O)[O-])ccc5F)c5ccc([nH]5)c(-c5cc(S(=O)(=O)[O-])ccc5F)c5nc(c(-c6cc(S(=O)(=O)[O-])ccc6F)c6ccc3[nH]6)C=C5)C=C4)cc2)cc1S(=O)(=O)N(CC1CC1)C(C)C
REMARK SMILES IDX 10 1 9 2 8 3 6 4 7 5 5 6 1 7 2 8 3 9 81 10 4 11 80 12 82 13
REMARK SMILES IDX 83 14 84 15 85 16 86 17 87 18 88 19 89 20 90 21 91 22 92 23
REMARK SMILES IDX 11 24 12 25 13 26 14 27 15 28 16 29 17 30 18 31 79 32 19 33
REMARK SMILES IDX 78 34 20 35 21 36 22 37 72 38 23 39 77 40 71 41 73 42 24 43
REMARK SMILES IDX 76 44 70 45 69 46 25 48 57 49 37 50 56 51 38 52 41 53 55 54
REMARK SMILES IDX 74 55 39 56 40 57 54 59 75 60 42 61 26 62 27 63 35 64 28 65
REMARK SMILES IDX 34 66 36 67 33 68 29 69 30 70 31 71 32 72 58 73 59 74 67 75
REMARK SMILES IDX 60 76 66 77 68 78 65 79 61 80 62 81 63 82 64 83 43 84 44 85
REMARK SMILES IDX 52 86 45 87 51 88 53 89 50 90 46 91 47 92 48 93 49 94
REMARK H PARENT 73 47 41 58
REMARK Flexibility Score: inf
ROOT
ATOM      1  C   UNL A   1      38.269  21.463  25.310  1.00  0.00     0.202 C 
ENDROOT
BRANCH   1   2
ATOM      2  C   UNL A   1      36.784  21.453  25.320  1.00  0.00     0.261 C 
BRANCH   2   3
ATOM      3  O   UNL A   1      36.256  22.709  24.881  1.00  0.00    -0.460 OA
BRANCH   3   4
ATOM      4  C   UNL A   1      36.006  22.960  23.571  1.00  0.00     0.338 C 
ATOM      5  O   UNL A   1      36.743  22.888  22.614  1.00  0.00    -0.246 OA
BRANCH   4   6
ATOM      6  C   UNL A   1      34.552  23.227  23.499  1.00  0.00     0.061 A 
ATOM      7  C   UNL A   1      30.319  23.978  23.258  1.00  0.00     0.046 C 
ATOM      8  C   UNL A   1      31.806  23.852  23.385  1.00  0.00    -0.031 A 
ATOM      9  C   UNL A   1      32.275  22.664  24.004  1.00  0.00     0.006 A 
ATOM     10  C   UNL A   1      32.753  24.769  22.907  1.00  0.00     0.086 A 
ATOM     11  C   UNL A   1      33.636  22.347  24.057  1.00  0.00     0.016 A 
ATOM     12  C   UNL A   1      34.103  24.421  22.941  1.00  0.00     0.037 A 
BRANCH  10  13
ATOM     13  S   UNL A   1      32.540  26.312  22.044  1.00  0.00     0.243 S 
ATOM     14  O   UNL A   1      33.857  26.838  21.766  1.00  0.00    -0.207 OA
ATOM     15  O   UNL A   1      31.649  25.951  20.963  1.00  0.00    -0.207 OA
BRANCH  13  16
ATOM     16  N   UNL A   1      31.795  27.456  23.038  1.00  0.00    -0.195 NA
BRANCH  16  17
ATOM     17  C   UNL A   1      32.630  28.363  23.866  1.00  0.00     0.106 C 
BRANCH  17  18
ATOM     18  C   UNL A   1      32.753  28.175  25.353  1.00  0.00     0.004 C 
ATOM     19  C   UNL A   1      31.952  27.297  26.289  1.00  0.00     0.005 C 
ATOM     20  C   UNL A   1      33.296  26.837  25.826  1.00  0.00     0.005 C 
ENDBRANCH  17  18
ENDBRANCH  16  17
BRANCH  16  21
ATOM     21  C   UNL A   1      30.478  28.047  22.592  1.00  0.00     0.067 C 
ATOM     22  C   UNL A   1      29.270  27.456  23.305  1.00  0.00     0.025 C 
ATOM     23  C   UNL A   1      30.386  29.571  22.688  1.00  0.00     0.025 C 
ENDBRANCH  16  21
ENDBRANCH  13  16
ENDBRANCH  10  13
ENDBRANCH   4   6
ENDBRANCH   3   4
ENDBRANCH   2   3
ENDBRANCH   1   2
BRANCH   1  24
ATOM     24  O   UNL A   1      38.599  22.502  26.223  1.00  0.00    -0.374 OA
BRANCH  24  25
ATOM     25  C   UNL A   1      39.838  22.372  26.869  1.00  0.00     0.202 C 
BRANCH  25  26
ATOM     26  C   UNL A   1      40.384  20.947  26.766  1.00  0.00     0.261 C 
BRANCH  26  27
ATOM     27  O   UNL A   1      41.759  20.917  27.214  1.00  0.00    -0.460 OA
BRANCH  27  28
ATOM     28  C   UNL A   1      42.684  21.469  26.373  1.00  0.00     0.338 C 
ATOM     29  O   UNL A   1      42.976  21.029  25.275  1.00  0.00    -0.246 OA
BRANCH  28  30
ATOM     30  C   UNL A   1      43.373  22.617  27.040  1.00  0.00     0.060 A 
ATOM     31  C   UNL A   1      43.318  22.784  28.441  1.00  0.00     0.016 A 
ATOM     32  C   UNL A   1      43.828  23.660  26.241  1.00  0.00     0.016 A 
ATOM     33  C   UNL A   1      43.566  24.045  29.017  1.00  0.00     0.010 A 
ATOM     34  C   UNL A   1      43.963  24.912  26.800  1.00  0.00     0.010 A 
ATOM     35  C   UNL A   1      43.800  25.133  28.181  1.00  0.00    -0.014 A 
BRANCH  35  36
ATOM     36  C   UNL A   1      43.744  26.557  28.548  1.00  0.00     0.031 A 
ATOM     37  C   UNL A   1      42.408  27.184  28.654  1.00  0.00     0.074 A 
ATOM     38  C   UNL A   1      44.814  27.170  29.121  1.00  0.00     0.049 A 
ATOM     39  N   UNL A   1      42.208  28.440  28.839  1.00  0.00    -0.248 NA
ATOM     40  C   UNL A   1      41.152  26.446  28.515  1.00  0.00     0.031 C 
ATOM     41  C   UNL A   1      44.834  28.283  30.074  1.00  0.00     0.029 A 
ATOM     42  N   UNL A   1      46.173  26.892  28.967  1.00  0.00    -0.354 N 
ATOM     43  C   UNL A   1      40.909  28.587  29.270  1.00  0.00     0.074 A 
ATOM     44  C   UNL A   1      40.259  27.368  28.875  1.00  0.00     0.031 C 
ATOM     45  C   UNL A   1      46.087  28.767  30.184  1.00  0.00     0.029 A 
ATOM     46  C   UNL A   1      46.909  28.059  29.217  1.00  0.00     0.049 A 
ATOM     47  H   UNL A   1      46.553  26.017  28.725  1.00  0.00     0.167 HD
ATOM     48  C   UNL A   1      40.616  29.653  30.069  1.00  0.00     0.034 A 
ATOM     49  C   UNL A   1      47.733  28.562  28.261  1.00  0.00     0.034 A 
ATOM     50  C   UNL A   1      41.784  30.551  30.170  1.00  0.00     0.049 A 
ATOM     51  C   UNL A   1      47.117  29.869  27.829  1.00  0.00     0.074 A 
ATOM     52  C   UNL A   1      42.651  30.880  31.199  1.00  0.00     0.029 A 
ATOM     53  N   UNL A   1      42.386  31.018  28.999  1.00  0.00    -0.354 N 
ATOM     54  N   UNL A   1      45.849  30.137  28.016  1.00  0.00    -0.248 NA
ATOM     55  C   UNL A   1      47.859  31.018  27.323  1.00  0.00     0.031 C 
ATOM     56  C   UNL A   1      43.822  31.453  30.617  1.00  0.00     0.029 A 
ATOM     57  C   UNL A   1      43.657  31.502  29.239  1.00  0.00     0.049 A 
ATOM     58  H   UNL A   1      41.957  31.004  28.113  1.00  0.00     0.167 HD
ATOM     59  C   UNL A   1      45.631  31.464  27.834  1.00  0.00     0.074 A 
ATOM     60  C   UNL A   1      46.902  31.966  27.325  1.00  0.00     0.031 C 
ATOM     61  C   UNL A   1      44.450  32.071  28.155  1.00  0.00     0.034 A 
BRANCH  48  62
ATOM     62  C   UNL A   1      39.390  29.793  30.963  1.00  0.00     0.023 A 
ATOM     63  C   UNL A   1      38.534  30.897  30.751  1.00  0.00     0.031 A 
ATOM     64  C   UNL A   1      39.020  28.971  32.050  1.00  0.00     0.131 A 
ATOM     65  C   UNL A   1      37.435  31.165  31.594  1.00  0.00     0.055 A 
ATOM     66  C   UNL A   1      37.919  29.228  32.881  1.00  0.00     0.041 A 
ATOM     67  F   UNL A   1      39.687  27.868  32.393  1.00  0.00    -0.206 F 
ATOM     68  C   UNL A   1      37.122  30.334  32.661  1.00  0.00     0.022 A 
BRANCH  65  69
ATOM     69  S   UNL A   1      36.422  32.633  31.280  1.00  0.00     0.124 S 
ATOM     70  O   UNL A   1      35.073  32.077  31.270  1.00  0.00    -0.237 OA
ATOM     71  O   UNL A   1      36.762  33.494  32.407  1.00  0.00    -0.237 OA
ATOM     72  O   UNL A   1      36.902  33.104  29.981  1.00  0.00    -0.744 OA
ENDBRANCH  65  69
ENDBRANCH  48  62
BRANCH  49  73
ATOM     73  C   UNL A   1      48.357  27.449  27.461  1.00  0.00     0.023 A 
ATOM     74  C   UNL A   1      47.960  27.336  26.096  1.00  0.00     0.031 A 
ATOM     75  C   UNL A   1      49.607  26.915  27.807  1.00  0.00     0.131 A 
ATOM     76  C   UNL A   1      48.856  26.853  25.118  1.00  0.00     0.055 A 
ATOM     77  C   UNL A   1      50.487  26.417  26.830  1.00  0.00     0.041 A 
ATOM     78  F   UNL A   1      50.065  27.010  29.064  1.00  0.00    -0.206 F 
ATOM     79  C   UNL A   1      50.134  26.428  25.480  1.00  0.00     0.022 A 
BRANCH  76  80
ATOM     80  S   UNL A   1      48.470  27.088  23.339  1.00  0.00     0.124 S 
ATOM     81  O   UNL A   1      47.139  27.680  23.385  1.00  0.00    -0.237 OA
ATOM     82  O   UNL A   1      49.549  27.960  22.888  1.00  0.00    -0.237 OA
ATOM     83  O   UNL A   1      48.539  25.732  22.795  1.00  0.00    -0.744 OA
ENDBRANCH  76  80
ENDBRANCH  49  73
BRANCH  61  84
ATOM     84  C   UNL A   1      43.981  33.327  27.484  1.00  0.00     0.023 A 
ATOM     85  C   UNL A   1      43.913  34.539  28.175  1.00  0.00     0.031 A 
ATOM     86  C   UNL A   1      43.731  33.384  26.094  1.00  0.00     0.131 A 
ATOM     87  C   UNL A   1      43.500  35.710  27.536  1.00  0.00     0.055 A 
ATOM     88  C   UNL A   1      43.438  34.576  25.435  1.00  0.00     0.041 A 
ATOM     89  F   UNL A   1      43.784  32.294  25.315  1.00  0.00    -0.206 F 
ATOM     90  C   UNL A   1      43.295  35.749  26.161  1.00  0.00     0.022 A 
BRANCH  87  91
ATOM     91  S   UNL A   1      43.131  37.134  28.582  1.00  0.00     0.124 S 
ATOM     92  O   UNL A   1      43.616  38.240  27.758  1.00  0.00    -0.237 OA
ATOM     93  O   UNL A   1      41.682  37.049  28.735  1.00  0.00    -0.237 OA
ATOM     94  O   UNL A   1      43.904  36.879  29.795  1.00  0.00    -0.744 OA
ENDBRANCH  87  91
ENDBRANCH  61  84
ENDBRANCH  35  36
ENDBRANCH  28  30
ENDBRANCH  27  28
ENDBRANCH  26  27
ENDBRANCH  25  26
ENDBRANCH  24  25
ENDBRANCH   1  24
TORSDOF 22
ENDMDL
