MODEL 1
REMARK VINA RESULT:     -11.2      0.000      0.000
REMARK SMILES C[C@@H](NC(=O)CN1C(=O)/C(=C/c2ccccc2F)SC1=S)C(=O)OCCOCCOC(=O)c1ccc(-c2c3nc(c(-c4cc(S(=O)(=O)[O-])ccc4F)c4ccc([nH]4)c(-c4cc(S(=O)(=O)[O-])ccc4F)c4nc(c(-c5cc(S(=O)(=O)[O-])ccc5F)c5ccc2[nH]5)C=C4)C=C3)cc1
REMARK SMILES IDX 26 1 25 2 24 3 22 4 23 5 2 6 1 7 3 8 4 9 5 11 6 12 7 13 8 14
REMARK SMILES IDX 20 15 9 16 10 17 19 18 21 19 11 20 12 21 13 22 17 23 14 24
REMARK SMILES IDX 16 25 18 26 15 27 27 28 28 29 29 30 30 31 31 32 32 33 33 34
REMARK SMILES IDX 34 35 95 36 35 37 94 38 36 39 37 40 38 41 88 42 39 43 93 44
REMARK SMILES IDX 87 45 89 46 40 47 92 48 86 49 85 50 41 52 73 53 53 54 72 55
REMARK SMILES IDX 54 56 57 57 71 58 90 59 55 60 56 61 70 63 91 64 58 65 42 66
REMARK SMILES IDX 43 67 51 68 44 69 50 70 52 71 49 72 45 73 46 74 47 75 48 76
REMARK SMILES IDX 74 77 75 78 83 79 76 80 82 81 84 82 81 83 77 84 78 85 79 86
REMARK SMILES IDX 80 87 59 88 60 89 68 90 61 91 67 92 69 93 66 94 62 95 63 96
REMARK SMILES IDX 64 97 65 98
REMARK H PARENT 3 10 89 51 57 62
REMARK Flexibility Score: inf
ROOT
ATOM      1  C   UNL A   1      30.723  29.587  23.879  1.00  0.00     0.202 C 
ENDROOT
BRANCH   1   2
ATOM      2  C   UNL A   1      30.853  29.172  22.407  1.00  0.00     0.261 C 
BRANCH   2   3
ATOM      3  O   UNL A   1      30.279  27.880  22.111  1.00  0.00    -0.462 OA
BRANCH   3   4
ATOM      4  C   UNL A   1      31.019  26.759  22.225  1.00  0.00     0.328 C 
ATOM      5  O   UNL A   1      31.771  26.331  21.355  1.00  0.00    -0.250 OA
BRANCH   4   6
ATOM      6  C   UNL A   1      30.886  26.092  23.619  1.00  0.00     0.189 C 
ATOM      7  C   UNL A   1      30.260  24.689  23.563  1.00  0.00     0.043 C 
BRANCH   6   8
ATOM      8  N   UNL A   1      31.935  26.154  24.664  1.00  0.00    -0.341 N 
ATOM      9  C   UNL A   1      33.015  25.403  25.003  1.00  0.00     0.240 C 
ATOM     10  H   UNL A   1      31.821  26.930  25.258  1.00  0.00     0.164 HD
ATOM     11  O   UNL A   1      33.277  25.365  26.211  1.00  0.00    -0.273 OA
BRANCH   9  12
ATOM     12  C   UNL A   1      33.915  24.665  24.011  1.00  0.00     0.227 C 
BRANCH  12  13
ATOM     13  N   UNL A   1      34.183  23.274  24.365  1.00  0.00    -0.283 N 
ATOM     14  C   UNL A   1      33.359  22.298  23.867  1.00  0.00     0.266 C 
ATOM     15  C   UNL A   1      35.324  22.808  24.978  1.00  0.00     0.148 C 
ATOM     16  O   UNL A   1      32.512  22.454  23.001  1.00  0.00    -0.268 OA
ATOM     17  C   UNL A   1      33.699  20.963  24.402  1.00  0.00     0.081 C 
ATOM     18  S   UNL A   1      35.238  21.050  25.137  1.00  0.00    -0.054 SA
ATOM     19  S   UNL A   1      36.651  23.689  25.465  1.00  0.00    -0.052 S 
ATOM     20  C   UNL A   1      32.856  19.944  24.166  1.00  0.00     0.032 C 
BRANCH  20  21
ATOM     21  C   UNL A   1      33.057  18.494  24.314  1.00  0.00     0.012 A 
ATOM     22  C   UNL A   1      33.478  17.795  23.164  1.00  0.00     0.011 A 
ATOM     23  C   UNL A   1      32.964  17.785  25.511  1.00  0.00     0.130 A 
ATOM     24  C   UNL A   1      33.941  16.479  23.250  1.00  0.00     0.001 A 
ATOM     25  C   UNL A   1      33.417  16.469  25.601  1.00  0.00     0.040 A 
ATOM     26  F   UNL A   1      32.446  18.355  26.607  1.00  0.00    -0.206 F 
ATOM     27  C   UNL A   1      33.937  15.827  24.477  1.00  0.00     0.003 A 
ENDBRANCH  20  21
ENDBRANCH  12  13
ENDBRANCH   9  12
ENDBRANCH   6   8
ENDBRANCH   4   6
ENDBRANCH   3   4
ENDBRANCH   2   3
ENDBRANCH   1   2
BRANCH   1  28
ATOM     28  O   UNL A   1      31.832  29.173  24.677  1.00  0.00    -0.374 OA
BRANCH  28  29
ATOM     29  C   UNL A   1      31.921  29.812  25.945  1.00  0.00     0.202 C 
BRANCH  29  30
ATOM     30  C   UNL A   1      33.351  29.984  26.463  1.00  0.00     0.261 C 
BRANCH  30  31
ATOM     31  O   UNL A   1      33.432  30.739  27.686  1.00  0.00    -0.460 OA
BRANCH  31  32
ATOM     32  C   UNL A   1      34.508  31.562  27.804  1.00  0.00     0.338 C 
ATOM     33  O   UNL A   1      34.532  32.766  27.640  1.00  0.00    -0.246 OA
BRANCH  32  34
ATOM     34  C   UNL A   1      35.689  30.771  28.219  1.00  0.00     0.060 A 
ATOM     35  C   UNL A   1      35.611  29.894  29.298  1.00  0.00     0.016 A 
ATOM     36  C   UNL A   1      36.912  30.966  27.587  1.00  0.00     0.016 A 
ATOM     37  C   UNL A   1      36.769  29.240  29.748  1.00  0.00     0.010 A 
ATOM     38  C   UNL A   1      38.045  30.253  27.974  1.00  0.00     0.010 A 
ATOM     39  C   UNL A   1      38.005  29.425  29.101  1.00  0.00    -0.014 A 
BRANCH  39  40
ATOM     40  C   UNL A   1      39.278  28.862  29.640  1.00  0.00     0.031 A 
ATOM     41  C   UNL A   1      39.913  29.476  30.870  1.00  0.00     0.074 A 
ATOM     42  C   UNL A   1      39.888  27.826  29.029  1.00  0.00     0.049 A 
ATOM     43  N   UNL A   1      41.021  29.144  31.483  1.00  0.00    -0.248 NA
ATOM     44  C   UNL A   1      39.226  30.630  31.476  1.00  0.00     0.031 C 
ATOM     45  C   UNL A   1      39.410  27.167  27.816  1.00  0.00     0.029 A 
ATOM     46  N   UNL A   1      41.042  27.148  29.340  1.00  0.00    -0.354 N 
ATOM     47  C   UNL A   1      41.160  30.043  32.536  1.00  0.00     0.074 A 
ATOM     48  C   UNL A   1      40.070  30.986  32.432  1.00  0.00     0.031 C 
ATOM     49  C   UNL A   1      40.250  26.169  27.494  1.00  0.00     0.029 A 
ATOM     50  C   UNL A   1      41.338  26.127  28.466  1.00  0.00     0.049 A 
ATOM     51  H   UNL A   1      41.605  27.372  30.117  1.00  0.00     0.167 HD
ATOM     52  C   UNL A   1      42.081  30.059  33.530  1.00  0.00     0.034 A 
ATOM     53  C   UNL A   1      42.361  25.248  28.450  1.00  0.00     0.034 A 
ATOM     54  C   UNL A   1      43.145  29.097  33.651  1.00  0.00     0.049 A 
ATOM     55  C   UNL A   1      43.390  25.294  29.549  1.00  0.00     0.074 A 
ATOM     56  C   UNL A   1      44.086  28.983  34.661  1.00  0.00     0.029 A 
ATOM     57  N   UNL A   1      43.413  28.086  32.740  1.00  0.00    -0.354 N 
ATOM     58  N   UNL A   1      43.470  26.121  30.566  1.00  0.00    -0.248 NA
ATOM     59  C   UNL A   1      44.454  24.282  29.512  1.00  0.00     0.031 C 
ATOM     60  C   UNL A   1      44.963  27.948  34.325  1.00  0.00     0.029 A 
ATOM     61  C   UNL A   1      44.523  27.365  33.148  1.00  0.00     0.049 A 
ATOM     62  H   UNL A   1      42.891  27.908  31.924  1.00  0.00     0.167 HD
ATOM     63  C   UNL A   1      44.575  25.708  31.303  1.00  0.00     0.074 A 
ATOM     64  C   UNL A   1      45.131  24.559  30.618  1.00  0.00     0.031 C 
ATOM     65  C   UNL A   1      45.076  26.229  32.452  1.00  0.00     0.034 A 
BRANCH  52  66
ATOM     66  C   UNL A   1      41.974  31.139  34.576  1.00  0.00     0.023 A 
ATOM     67  C   UNL A   1      42.682  32.347  34.456  1.00  0.00     0.031 A 
ATOM     68  C   UNL A   1      41.126  30.978  35.685  1.00  0.00     0.131 A 
ATOM     69  C   UNL A   1      42.562  33.331  35.448  1.00  0.00     0.055 A 
ATOM     70  C   UNL A   1      40.958  31.990  36.634  1.00  0.00     0.041 A 
ATOM     71  F   UNL A   1      40.438  29.840  35.861  1.00  0.00    -0.206 F 
ATOM     72  C   UNL A   1      41.684  33.173  36.522  1.00  0.00     0.022 A 
BRANCH  69  73
ATOM     73  S   UNL A   1      43.629  34.795  35.356  1.00  0.00     0.124 S 
ATOM     74  O   UNL A   1      44.957  34.187  35.343  1.00  0.00    -0.237 OA
ATOM     75  O   UNL A   1      43.201  35.422  34.111  1.00  0.00    -0.237 OA
ATOM     76  O   UNL A   1      43.300  35.535  36.572  1.00  0.00    -0.744 OA
ENDBRANCH  69  73
ENDBRANCH  52  66
BRANCH  53  77
ATOM     77  C   UNL A   1      42.442  24.225  27.368  1.00  0.00     0.023 A 
ATOM     78  C   UNL A   1      41.679  23.048  27.431  1.00  0.00     0.031 A 
ATOM     79  C   UNL A   1      43.267  24.422  26.247  1.00  0.00     0.131 A 
ATOM     80  C   UNL A   1      41.768  22.102  26.397  1.00  0.00     0.055 A 
ATOM     81  C   UNL A   1      43.324  23.496  25.204  1.00  0.00     0.041 A 
ATOM     82  F   UNL A   1      44.012  25.532  26.141  1.00  0.00    -0.206 F 
ATOM     83  C   UNL A   1      42.575  22.325  25.278  1.00  0.00     0.022 A 
BRANCH  80  84
ATOM     84  S   UNL A   1      40.827  20.558  26.544  1.00  0.00     0.124 S 
ATOM     85  O   UNL A   1      40.799  20.364  27.990  1.00  0.00    -0.237 OA
ATOM     86  O   UNL A   1      39.557  20.913  25.919  1.00  0.00    -0.237 OA
ATOM     87  O   UNL A   1      41.635  19.594  25.800  1.00  0.00    -0.744 OA
ENDBRANCH  80  84
ENDBRANCH  53  77
BRANCH  65  88
ATOM     88  C   UNL A   1      46.270  25.550  33.069  1.00  0.00     0.023 A 
ATOM     89  C   UNL A   1      46.126  24.480  33.965  1.00  0.00     0.031 A 
ATOM     90  C   UNL A   1      47.570  25.940  32.700  1.00  0.00     0.131 A 
ATOM     91  C   UNL A   1      47.265  23.847  34.483  1.00  0.00     0.055 A 
ATOM     92  C   UNL A   1      48.699  25.276  33.180  1.00  0.00     0.041 A 
ATOM     93  F   UNL A   1      47.761  26.956  31.842  1.00  0.00    -0.206 F 
ATOM     94  C   UNL A   1      48.549  24.226  34.081  1.00  0.00     0.022 A 
BRANCH  91  95
ATOM     95  S   UNL A   1      47.051  22.537  35.717  1.00  0.00     0.124 S 
ATOM     96  O   UNL A   1      47.134  23.284  36.969  1.00  0.00    -0.237 OA
ATOM     97  O   UNL A   1      45.737  21.998  35.382  1.00  0.00    -0.237 OA
ATOM     98  O   UNL A   1      48.172  21.635  35.459  1.00  0.00    -0.744 OA
ENDBRANCH  91  95
ENDBRANCH  65  88
ENDBRANCH  39  40
ENDBRANCH  32  34
ENDBRANCH  31  32
ENDBRANCH  30  31
ENDBRANCH  29  30
ENDBRANCH  28  29
ENDBRANCH   1  28
TORSDOF 21
ENDMDL
MODEL 2
REMARK VINA RESULT:     -11.1      2.009      2.316
REMARK SMILES C[C@@H](NC(=O)CN1C(=O)/C(=C/c2ccccc2F)SC1=S)C(=O)OCCOCCOC(=O)c1ccc(-c2c3nc(c(-c4cc(S(=O)(=O)[O-])ccc4F)c4ccc([nH]4)c(-c4cc(S(=O)(=O)[O-])ccc4F)c4nc(c(-c5cc(S(=O)(=O)[O-])ccc5F)c5ccc2[nH]5)C=C4)C=C3)cc1
REMARK SMILES IDX 26 1 25 2 24 3 22 4 23 5 2 6 1 7 3 8 4 9 5 11 6 12 7 13 8 14
REMARK SMILES IDX 20 15 9 16 10 17 19 18 21 19 11 20 12 21 13 22 17 23 14 24
REMARK SMILES IDX 16 25 18 26 15 27 27 28 28 29 29 30 30 31 31 32 32 33 33 34
REMARK SMILES IDX 34 35 95 36 35 37 94 38 36 39 37 40 38 41 88 42 39 43 93 44
REMARK SMILES IDX 87 45 89 46 40 47 92 48 86 49 85 50 41 52 73 53 53 54 72 55
REMARK SMILES IDX 54 56 57 57 71 58 90 59 55 60 56 61 70 63 91 64 58 65 42 66
REMARK SMILES IDX 43 67 51 68 44 69 50 70 52 71 49 72 45 73 46 74 47 75 48 76
REMARK SMILES IDX 74 77 75 78 83 79 76 80 82 81 84 82 81 83 77 84 78 85 79 86
REMARK SMILES IDX 80 87 59 88 60 89 68 90 61 91 67 92 69 93 66 94 62 95 63 96
REMARK SMILES IDX 64 97 65 98
REMARK H PARENT 3 10 89 51 57 62
REMARK Flexibility Score: inf
ROOT
ATOM      1  C   UNL A   1      30.281  29.663  23.856  1.00  0.00     0.202 C 
ENDROOT
BRANCH   1   2
ATOM      2  C   UNL A   1      30.314  29.251  22.378  1.00  0.00     0.261 C 
BRANCH   2   3
ATOM      3  O   UNL A   1      30.043  27.850  22.156  1.00  0.00    -0.462 OA
BRANCH   3   4
ATOM      4  C   UNL A   1      31.002  26.925  22.361  1.00  0.00     0.328 C 
ATOM      5  O   UNL A   1      31.843  26.601  21.528  1.00  0.00    -0.250 OA
BRANCH   4   6
ATOM      6  C   UNL A   1      30.990  26.357  23.803  1.00  0.00     0.189 C 
ATOM      7  C   UNL A   1      30.262  25.008  23.919  1.00  0.00     0.043 C 
BRANCH   6   8
ATOM      8  N   UNL A   1      32.158  26.399  24.714  1.00  0.00    -0.341 N 
ATOM      9  C   UNL A   1      33.238  25.607  24.947  1.00  0.00     0.240 C 
ATOM     10  H   UNL A   1      32.151  27.196  25.291  1.00  0.00     0.164 HD
ATOM     11  O   UNL A   1      33.641  25.591  26.117  1.00  0.00    -0.273 OA
BRANCH   9  12
ATOM     12  C   UNL A   1      33.978  24.799  23.882  1.00  0.00     0.227 C 
BRANCH  12  13
ATOM     13  N   UNL A   1      34.201  23.400  24.236  1.00  0.00    -0.283 N 
ATOM     14  C   UNL A   1      33.324  22.456  23.767  1.00  0.00     0.266 C 
ATOM     15  C   UNL A   1      35.339  22.892  24.819  1.00  0.00     0.148 C 
ATOM     16  O   UNL A   1      32.460  22.642  22.925  1.00  0.00    -0.268 OA
ATOM     17  C   UNL A   1      33.626  21.111  24.300  1.00  0.00     0.081 C 
ATOM     18  S   UNL A   1      35.187  21.140  24.991  1.00  0.00    -0.054 SA
ATOM     19  S   UNL A   1      36.713  23.722  25.263  1.00  0.00    -0.052 S 
ATOM     20  C   UNL A   1      32.736  20.126  24.095  1.00  0.00     0.032 C 
BRANCH  20  21
ATOM     21  C   UNL A   1      32.883  18.670  24.246  1.00  0.00     0.012 A 
ATOM     22  C   UNL A   1      33.120  17.934  23.065  1.00  0.00     0.011 A 
ATOM     23  C   UNL A   1      32.907  17.983  25.458  1.00  0.00     0.130 A 
ATOM     24  C   UNL A   1      33.525  16.597  23.120  1.00  0.00     0.001 A 
ATOM     25  C   UNL A   1      33.303  16.646  25.517  1.00  0.00     0.040 A 
ATOM     26  F   UNL A   1      32.561  18.594  26.599  1.00  0.00    -0.206 F 
ATOM     27  C   UNL A   1      33.645  15.963  24.351  1.00  0.00     0.003 A 
ENDBRANCH  20  21
ENDBRANCH  12  13
ENDBRANCH   9  12
ENDBRANCH   6   8
ENDBRANCH   4   6
ENDBRANCH   3   4
ENDBRANCH   2   3
ENDBRANCH   1   2
BRANCH   1  28
ATOM     28  O   UNL A   1      31.573  29.677  24.462  1.00  0.00    -0.374 OA
BRANCH  28  29
ATOM     29  C   UNL A   1      31.581  30.064  25.831  1.00  0.00     0.202 C 
BRANCH  29  30
ATOM     30  C   UNL A   1      32.943  30.548  26.339  1.00  0.00     0.261 C 
BRANCH  30  31
ATOM     31  O   UNL A   1      32.866  31.276  27.579  1.00  0.00    -0.460 OA
BRANCH  31  32
ATOM     32  C   UNL A   1      33.820  32.227  27.765  1.00  0.00     0.338 C 
ATOM     33  O   UNL A   1      33.694  33.429  27.629  1.00  0.00    -0.246 OA
BRANCH  32  34
ATOM     34  C   UNL A   1      35.075  31.584  28.217  1.00  0.00     0.060 A 
ATOM     35  C   UNL A   1      35.083  30.250  28.617  1.00  0.00     0.016 A 
ATOM     36  C   UNL A   1      36.239  32.337  28.330  1.00  0.00     0.016 A 
ATOM     37  C   UNL A   1      36.256  29.692  29.151  1.00  0.00     0.010 A 
ATOM     38  C   UNL A   1      37.428  31.763  28.776  1.00  0.00     0.010 A 
ATOM     39  C   UNL A   1      37.439  30.447  29.252  1.00  0.00    -0.014 A 
BRANCH  39  40
ATOM     40  C   UNL A   1      38.656  29.931  29.946  1.00  0.00     0.031 A 
ATOM     41  C   UNL A   1      39.025  30.461  31.316  1.00  0.00     0.074 A 
ATOM     42  C   UNL A   1      39.450  29.014  29.356  1.00  0.00     0.049 A 
ATOM     43  N   UNL A   1      40.047  30.153  32.074  1.00  0.00    -0.248 NA
ATOM     44  C   UNL A   1      38.145  31.488  31.898  1.00  0.00     0.031 C 
ATOM     45  C   UNL A   1      39.237  28.450  28.025  1.00  0.00     0.029 A 
ATOM     46  N   UNL A   1      40.597  28.399  29.795  1.00  0.00    -0.354 N 
ATOM     47  C   UNL A   1      39.930  30.945  33.213  1.00  0.00     0.074 A 
ATOM     48  C   UNL A   1      38.788  31.807  33.011  1.00  0.00     0.031 C 
ATOM     49  C   UNL A   1      40.207  27.559  27.762  1.00  0.00     0.029 A 
ATOM     50  C   UNL A   1      41.123  27.500  28.896  1.00  0.00     0.049 A 
ATOM     51  H   UNL A   1      41.005  28.583  30.672  1.00  0.00     0.167 HD
ATOM     52  C   UNL A   1      40.674  30.929  34.345  1.00  0.00     0.034 A 
ATOM     53  C   UNL A   1      42.213  26.709  28.973  1.00  0.00     0.034 A 
ATOM     54  C   UNL A   1      41.790  30.044  34.557  1.00  0.00     0.049 A 
ATOM     55  C   UNL A   1      43.044  26.719  30.230  1.00  0.00     0.074 A 
ATOM     56  C   UNL A   1      42.563  29.898  35.697  1.00  0.00     0.029 A 
ATOM     57  N   UNL A   1      42.294  29.158  33.617  1.00  0.00    -0.354 N 
ATOM     58  N   UNL A   1      42.882  27.440  31.316  1.00  0.00    -0.248 NA
ATOM     59  C   UNL A   1      44.190  25.801  30.282  1.00  0.00     0.031 C 
ATOM     60  C   UNL A   1      43.575  28.975  35.423  1.00  0.00     0.029 A 
ATOM     61  C   UNL A   1      43.386  28.486  34.140  1.00  0.00     0.049 A 
ATOM     62  H   UNL A   1      41.929  29.026  32.712  1.00  0.00     0.167 HD
ATOM     63  C   UNL A   1      43.888  27.039  32.189  1.00  0.00     0.074 A 
ATOM     64  C   UNL A   1      44.651  26.014  31.507  1.00  0.00     0.031 C 
ATOM     65  C   UNL A   1      44.147  27.474  33.448  1.00  0.00     0.034 A 
BRANCH  52  66
ATOM     66  C   UNL A   1      40.300  31.883  35.451  1.00  0.00     0.023 A 
ATOM     67  C   UNL A   1      39.259  31.591  36.349  1.00  0.00     0.031 A 
ATOM     68  C   UNL A   1      41.017  33.077  35.637  1.00  0.00     0.131 A 
ATOM     69  C   UNL A   1      38.935  32.501  37.366  1.00  0.00     0.055 A 
ATOM     70  C   UNL A   1      40.735  33.947  36.694  1.00  0.00     0.041 A 
ATOM     71  F   UNL A   1      42.011  33.416  34.801  1.00  0.00    -0.206 F 
ATOM     72  C   UNL A   1      39.684  33.664  37.561  1.00  0.00     0.022 A 
BRANCH  69  73
ATOM     73  S   UNL A   1      37.471  32.181  38.386  1.00  0.00     0.124 S 
ATOM     74  O   UNL A   1      37.930  32.618  39.701  1.00  0.00    -0.237 OA
ATOM     75  O   UNL A   1      36.454  33.014  37.753  1.00  0.00    -0.237 OA
ATOM     76  O   UNL A   1      37.268  30.740  38.250  1.00  0.00    -0.744 OA
ENDBRANCH  69  73
ENDBRANCH  52  66
BRANCH  53  77
ATOM     77  C   UNL A   1      42.562  25.814  27.833  1.00  0.00     0.023 A 
ATOM     78  C   UNL A   1      42.010  24.526  27.733  1.00  0.00     0.031 A 
ATOM     79  C   UNL A   1      43.435  26.242  26.818  1.00  0.00     0.131 A 
ATOM     80  C   UNL A   1      42.350  23.704  26.647  1.00  0.00     0.055 A 
ATOM     81  C   UNL A   1      43.740  25.434  25.720  1.00  0.00     0.041 A 
ATOM     82  F   UNL A   1      43.984  27.465  26.868  1.00  0.00    -0.206 F 
ATOM     83  C   UNL A   1      43.200  24.155  25.634  1.00  0.00     0.022 A 
BRANCH  80  84
ATOM     84  S   UNL A   1      41.679  22.019  26.586  1.00  0.00     0.124 S 
ATOM     85  O   UNL A   1      42.112  21.481  27.871  1.00  0.00    -0.237 OA
ATOM     86  O   UNL A   1      40.248  22.265  26.443  1.00  0.00    -0.237 OA
ATOM     87  O   UNL A   1      42.327  21.436  25.414  1.00  0.00    -0.744 OA
ENDBRANCH  80  84
ENDBRANCH  53  77
BRANCH  65  88
ATOM     88  C   UNL A   1      45.285  26.829  34.194  1.00  0.00     0.023 A 
ATOM     89  C   UNL A   1      45.068  25.779  35.101  1.00  0.00     0.031 A 
ATOM     90  C   UNL A   1      46.610  27.229  33.941  1.00  0.00     0.131 A 
ATOM     91  C   UNL A   1      46.161  25.177  35.742  1.00  0.00     0.055 A 
ATOM     92  C   UNL A   1      47.695  26.594  34.545  1.00  0.00     0.041 A 
ATOM     93  F   UNL A   1      46.869  28.226  33.079  1.00  0.00    -0.206 F 
ATOM     94  C   UNL A   1      47.473  25.565  35.455  1.00  0.00     0.022 A 
BRANCH  91  95
ATOM     95  S   UNL A   1      45.845  23.895  36.984  1.00  0.00     0.124 S 
ATOM     96  O   UNL A   1      44.912  23.018  36.283  1.00  0.00    -0.237 OA
ATOM     97  O   UNL A   1      47.178  23.348  37.220  1.00  0.00    -0.237 OA
ATOM     98  O   UNL A   1      45.275  24.637  38.106  1.00  0.00    -0.744 OA
ENDBRANCH  91  95
ENDBRANCH  65  88
ENDBRANCH  39  40
ENDBRANCH  32  34
ENDBRANCH  31  32
ENDBRANCH  30  31
ENDBRANCH  29  30
ENDBRANCH  28  29
ENDBRANCH   1  28
TORSDOF 21
ENDMDL
MODEL 3
REMARK VINA RESULT:     -10.8      1.708      2.147
REMARK SMILES C[C@@H](NC(=O)CN1C(=O)/C(=C/c2ccccc2F)SC1=S)C(=O)OCCOCCOC(=O)c1ccc(-c2c3nc(c(-c4cc(S(=O)(=O)[O-])ccc4F)c4ccc([nH]4)c(-c4cc(S(=O)(=O)[O-])ccc4F)c4nc(c(-c5cc(S(=O)(=O)[O-])ccc5F)c5ccc2[nH]5)C=C4)C=C3)cc1
REMARK SMILES IDX 26 1 25 2 24 3 22 4 23 5 2 6 1 7 3 8 4 9 5 11 6 12 7 13 8 14
REMARK SMILES IDX 20 15 9 16 10 17 19 18 21 19 11 20 12 21 13 22 17 23 14 24
REMARK SMILES IDX 16 25 18 26 15 27 27 28 28 29 29 30 30 31 31 32 32 33 33 34
REMARK SMILES IDX 34 35 95 36 35 37 94 38 36 39 37 40 38 41 88 42 39 43 93 44
REMARK SMILES IDX 87 45 89 46 40 47 92 48 86 49 85 50 41 52 73 53 53 54 72 55
REMARK SMILES IDX 54 56 57 57 71 58 90 59 55 60 56 61 70 63 91 64 58 65 42 66
REMARK SMILES IDX 43 67 51 68 44 69 50 70 52 71 49 72 45 73 46 74 47 75 48 76
REMARK SMILES IDX 74 77 75 78 83 79 76 80 82 81 84 82 81 83 77 84 78 85 79 86
REMARK SMILES IDX 80 87 59 88 60 89 68 90 61 91 67 92 69 93 66 94 62 95 63 96
REMARK SMILES IDX 64 97 65 98
REMARK H PARENT 3 10 89 51 57 62
REMARK Flexibility Score: inf
ROOT
ATOM      1  C   UNL A   1      30.777  26.022  25.759  1.00  0.00     0.202 C 
ENDROOT
BRANCH   1   2
ATOM      2  C   UNL A   1      29.974  26.738  24.664  1.00  0.00     0.261 C 
BRANCH   2   3
ATOM      3  O   UNL A   1      30.464  26.498  23.327  1.00  0.00    -0.462 OA
BRANCH   3   4
ATOM      4  C   UNL A   1      31.231  27.414  22.703  1.00  0.00     0.328 C 
ATOM      5  O   UNL A   1      30.855  28.540  22.393  1.00  0.00    -0.250 OA
BRANCH   4   6
ATOM      6  C   UNL A   1      32.687  26.926  22.481  1.00  0.00     0.189 C 
ATOM      7  C   UNL A   1      33.616  27.226  23.669  1.00  0.00     0.043 C 
BRANCH   6   8
ATOM      8  N   UNL A   1      33.033  25.624  21.863  1.00  0.00    -0.341 N 
ATOM      9  C   UNL A   1      33.040  24.327  22.269  1.00  0.00     0.240 C 
ATOM     10  H   UNL A   1      33.330  25.723  20.931  1.00  0.00     0.164 HD
ATOM     11  O   UNL A   1      33.924  23.620  21.769  1.00  0.00    -0.273 OA
BRANCH   9  12
ATOM     12  C   UNL A   1      32.034  23.707  23.239  1.00  0.00     0.227 C 
BRANCH  12  13
ATOM     13  N   UNL A   1      32.549  22.566  23.990  1.00  0.00    -0.283 N 
ATOM     14  C   UNL A   1      32.354  21.305  23.487  1.00  0.00     0.266 C 
ATOM     15  C   UNL A   1      33.414  22.634  25.058  1.00  0.00     0.148 C 
ATOM     16  O   UNL A   1      31.942  21.041  22.369  1.00  0.00    -0.268 OA
ATOM     17  C   UNL A   1      32.838  20.261  24.414  1.00  0.00     0.081 C 
ATOM     18  S   UNL A   1      33.821  21.001  25.598  1.00  0.00    -0.054 SA
ATOM     19  S   UNL A   1      34.072  23.998  25.751  1.00  0.00    -0.052 S 
ATOM     20  C   UNL A   1      32.531  18.979  24.152  1.00  0.00     0.032 C 
BRANCH  20  21
ATOM     21  C   UNL A   1      33.092  17.738  24.708  1.00  0.00     0.012 A 
ATOM     22  C   UNL A   1      32.183  16.860  25.336  1.00  0.00     0.011 A 
ATOM     23  C   UNL A   1      34.416  17.322  24.576  1.00  0.00     0.130 A 
ATOM     24  C   UNL A   1      32.555  15.555  25.667  1.00  0.00     0.001 A 
ATOM     25  C   UNL A   1      34.795  16.022  24.913  1.00  0.00     0.040 A 
ATOM     26  F   UNL A   1      35.354  18.156  24.111  1.00  0.00    -0.206 F 
ATOM     27  C   UNL A   1      33.856  15.127  25.427  1.00  0.00     0.003 A 
ENDBRANCH  20  21
ENDBRANCH  12  13
ENDBRANCH   9  12
ENDBRANCH   6   8
ENDBRANCH   4   6
ENDBRANCH   3   4
ENDBRANCH   2   3
ENDBRANCH   1   2
BRANCH   1  28
ATOM     28  O   UNL A   1      31.113  26.873  26.854  1.00  0.00    -0.374 OA
BRANCH  28  29
ATOM     29  C   UNL A   1      31.537  28.179  26.480  1.00  0.00     0.202 C 
BRANCH  29  30
ATOM     30  C   UNL A   1      32.391  28.888  27.536  1.00  0.00     0.261 C 
BRANCH  30  31
ATOM     31  O   UNL A   1      33.717  29.210  27.079  1.00  0.00    -0.460 OA
BRANCH  31  32
ATOM     32  C   UNL A   1      34.259  30.349  27.589  1.00  0.00     0.338 C 
ATOM     33  O   UNL A   1      33.739  31.446  27.646  1.00  0.00    -0.246 OA
BRANCH  32  34
ATOM     34  C   UNL A   1      35.606  30.054  28.128  1.00  0.00     0.060 A 
ATOM     35  C   UNL A   1      36.735  30.178  27.323  1.00  0.00     0.016 A 
ATOM     36  C   UNL A   1      35.743  29.564  29.423  1.00  0.00     0.016 A 
ATOM     37  C   UNL A   1      37.988  29.783  27.817  1.00  0.00     0.010 A 
ATOM     38  C   UNL A   1      36.996  29.254  29.947  1.00  0.00     0.010 A 
ATOM     39  C   UNL A   1      38.132  29.301  29.131  1.00  0.00    -0.014 A 
BRANCH  39  40
ATOM     40  C   UNL A   1      39.419  28.740  29.636  1.00  0.00     0.031 A 
ATOM     41  C   UNL A   1      40.084  29.352  30.851  1.00  0.00     0.074 A 
ATOM     42  C   UNL A   1      40.016  27.706  29.008  1.00  0.00     0.049 A 
ATOM     43  N   UNL A   1      41.208  29.021  31.435  1.00  0.00    -0.248 NA
ATOM     44  C   UNL A   1      39.411  30.503  31.477  1.00  0.00     0.031 C 
ATOM     45  C   UNL A   1      39.509  27.049  27.805  1.00  0.00     0.029 A 
ATOM     46  N   UNL A   1      41.178  27.030  29.288  1.00  0.00    -0.354 N 
ATOM     47  C   UNL A   1      41.372  29.917  32.487  1.00  0.00     0.074 A 
ATOM     48  C   UNL A   1      40.278  30.858  32.412  1.00  0.00     0.031 C 
ATOM     49  C   UNL A   1      40.342  26.053  27.461  1.00  0.00     0.029 A 
ATOM     50  C   UNL A   1      41.454  26.011  28.405  1.00  0.00     0.049 A 
ATOM     51  H   UNL A   1      41.760  27.253  30.050  1.00  0.00     0.167 HD
ATOM     52  C   UNL A   1      42.318  29.933  33.456  1.00  0.00     0.034 A 
ATOM     53  C   UNL A   1      42.478  25.133  28.360  1.00  0.00     0.034 A 
ATOM     54  C   UNL A   1      43.387  28.973  33.549  1.00  0.00     0.049 A 
ATOM     55  C   UNL A   1      43.534  25.179  29.433  1.00  0.00     0.074 A 
ATOM     56  C   UNL A   1      44.353  28.858  34.534  1.00  0.00     0.029 A 
ATOM     57  N   UNL A   1      43.633  27.964  32.628  1.00  0.00    -0.354 N 
ATOM     58  N   UNL A   1      43.639  26.004  30.449  1.00  0.00    -0.248 NA
ATOM     59  C   UNL A   1      44.599  24.169  29.367  1.00  0.00     0.031 C 
ATOM     60  C   UNL A   1      45.223  27.826  34.174  1.00  0.00     0.029 A 
ATOM     61  C   UNL A   1      44.754  27.245  33.007  1.00  0.00     0.049 A 
ATOM     62  H   UNL A   1      43.091  27.787  31.826  1.00  0.00     0.167 HD
ATOM     63  C   UNL A   1      44.763  25.592  31.158  1.00  0.00     0.074 A 
ATOM     64  C   UNL A   1      45.303  24.445  30.456  1.00  0.00     0.031 C 
ATOM     65  C   UNL A   1      45.291  26.111  32.295  1.00  0.00     0.034 A 
BRANCH  52  66
ATOM     66  C   UNL A   1      42.235  31.011  34.508  1.00  0.00     0.023 A 
ATOM     67  C   UNL A   1      42.876  32.250  34.337  1.00  0.00     0.031 A 
ATOM     68  C   UNL A   1      41.477  30.815  35.674  1.00  0.00     0.131 A 
ATOM     69  C   UNL A   1      42.781  33.231  35.335  1.00  0.00     0.055 A 
ATOM     70  C   UNL A   1      41.330  31.821  36.633  1.00  0.00     0.041 A 
ATOM     71  F   UNL A   1      40.857  29.646  35.899  1.00  0.00    -0.206 F 
ATOM     72  C   UNL A   1      41.990  33.035  36.469  1.00  0.00     0.022 A 
BRANCH  69  73
ATOM     73  S   UNL A   1      43.770  34.742  35.167  1.00  0.00     0.124 S 
ATOM     74  O   UNL A   1      44.026  34.765  33.729  1.00  0.00    -0.237 OA
ATOM     75  O   UNL A   1      42.868  35.770  35.672  1.00  0.00    -0.237 OA
ATOM     76  O   UNL A   1      44.942  34.479  35.999  1.00  0.00    -0.744 OA
ENDBRANCH  69  73
ENDBRANCH  52  66
BRANCH  53  77
ATOM     77  C   UNL A   1      42.533  24.114  27.275  1.00  0.00     0.023 A 
ATOM     78  C   UNL A   1      41.790  22.925  27.364  1.00  0.00     0.031 A 
ATOM     79  C   UNL A   1      43.313  24.323  26.124  1.00  0.00     0.131 A 
ATOM     80  C   UNL A   1      41.855  21.982  26.326  1.00  0.00     0.055 A 
ATOM     81  C   UNL A   1      43.344  23.399  25.078  1.00  0.00     0.041 A 
ATOM     82  F   UNL A   1      44.037  25.445  25.992  1.00  0.00    -0.206 F 
ATOM     83  C   UNL A   1      42.616  22.218  25.178  1.00  0.00     0.022 A 
BRANCH  80  84
ATOM     84  S   UNL A   1      40.943  20.424  26.506  1.00  0.00     0.124 S 
ATOM     85  O   UNL A   1      40.910  20.265  27.955  1.00  0.00    -0.237 OA
ATOM     86  O   UNL A   1      39.669  20.740  25.865  1.00  0.00    -0.237 OA
ATOM     87  O   UNL A   1      41.772  19.458  25.789  1.00  0.00    -0.744 OA
ENDBRANCH  80  84
ENDBRANCH  53  77
BRANCH  65  88
ATOM     88  C   UNL A   1      46.502  25.433  32.880  1.00  0.00     0.023 A 
ATOM     89  C   UNL A   1      47.801  25.752  32.453  1.00  0.00     0.031 A 
ATOM     90  C   UNL A   1      46.352  24.504  33.926  1.00  0.00     0.131 A 
ATOM     91  C   UNL A   1      48.903  25.128  33.055  1.00  0.00     0.055 A 
ATOM     92  C   UNL A   1      47.455  23.924  34.554  1.00  0.00     0.041 A 
ATOM     93  F   UNL A   1      45.131  24.170  34.373  1.00  0.00    -0.206 F 
ATOM     94  C   UNL A   1      48.739  24.232  34.115  1.00  0.00     0.022 A 
BRANCH  91  95
ATOM     95  S   UNL A   1      50.562  25.481  32.414  1.00  0.00     0.124 S 
ATOM     96  O   UNL A   1      50.578  24.708  31.176  1.00  0.00    -0.237 OA
ATOM     97  O   UNL A   1      50.540  26.932  32.260  1.00  0.00    -0.237 OA
ATOM     98  O   UNL A   1      51.449  24.986  33.465  1.00  0.00    -0.744 OA
ENDBRANCH  91  95
ENDBRANCH  65  88
ENDBRANCH  39  40
ENDBRANCH  32  34
ENDBRANCH  31  32
ENDBRANCH  30  31
ENDBRANCH  29  30
ENDBRANCH  28  29
ENDBRANCH   1  28
TORSDOF 21
ENDMDL
