MODEL 1
REMARK VINA RESULT:      -9.7      0.000      0.000
REMARK SMILES O=C(CSC(=S)N1CCCC1)OCCOCCOC(=O)c1ccc(-c2c3nc(c(-c4cc(S(=O)(=O)[O-])ccc4F)c4ccc([nH]4)c(-c4cc(S(=O)(=O)[O-])ccc4F)c4nc(c(-c5cc(S(=O)(=O)[O-])ccc5F)c5ccc2[nH]5)C=C4)C=C3)cc1
REMARK SMILES IDX 15 1 14 2 13 3 12 4 2 5 1 6 3 7 4 8 5 9 6 10 7 11 8 12 11 13
REMARK SMILES IDX 9 14 10 15 16 16 17 17 18 18 19 19 20 20 21 21 22 22 83 23
REMARK SMILES IDX 23 24 82 25 24 26 25 27 26 28 76 29 27 30 81 31 75 32 77 33
REMARK SMILES IDX 28 34 80 35 74 36 73 37 29 39 61 40 41 41 60 42 42 43 45 44
REMARK SMILES IDX 59 45 78 46 43 47 44 48 58 50 79 51 46 52 30 53 31 54 39 55
REMARK SMILES IDX 32 56 38 57 40 58 37 59 33 60 34 61 35 62 36 63 62 64 63 65
REMARK SMILES IDX 71 66 64 67 70 68 72 69 69 70 65 71 66 72 67 73 68 74 47 75
REMARK SMILES IDX 48 76 56 77 49 78 55 79 57 80 54 81 50 82 51 83 52 84 53 85
REMARK H PARENT 77 38 45 49
REMARK Flexibility Score: inf
ROOT
ATOM      1  O   UNL A   1      34.363  20.185  24.883  1.00  0.00    -0.374 OA
ENDROOT
BRANCH   1   2
ATOM      2  C   UNL A   1      33.312  20.930  24.263  1.00  0.00     0.202 C 
BRANCH   2   3
ATOM      3  C   UNL A   1      32.963  22.216  25.013  1.00  0.00     0.261 C 
BRANCH   3   4
ATOM      4  O   UNL A   1      33.768  23.329  24.578  1.00  0.00    -0.463 OA
BRANCH   4   5
ATOM      5  C   UNL A   1      33.841  23.796  23.316  1.00  0.00     0.316 C 
ATOM      6  O   UNL A   1      34.659  23.293  22.542  1.00  0.00    -0.251 OA
BRANCH   5   7
ATOM      7  C   UNL A   1      33.012  24.976  22.873  1.00  0.00     0.199 C 
BRANCH   7   8
ATOM      8  S   UNL A   1      32.499  26.188  24.099  1.00  0.00    -0.085 SA
BRANCH   8   9
ATOM      9  C   UNL A   1      32.321  27.708  23.235  1.00  0.00     0.136 C 
ATOM     10  S   UNL A   1      33.622  28.593  22.655  1.00  0.00    -0.053 S 
BRANCH   9  11
ATOM     11  N   UNL A   1      30.999  28.139  23.152  1.00  0.00    -0.358 N 
ATOM     12  C   UNL A   1      30.541  29.396  22.556  1.00  0.00     0.118 C 
ATOM     13  C   UNL A   1      29.850  27.333  23.565  1.00  0.00     0.118 C 
ATOM     14  C   UNL A   1      29.094  29.531  22.993  1.00  0.00     0.023 C 
ATOM     15  C   UNL A   1      28.623  28.089  23.074  1.00  0.00     0.023 C 
ENDBRANCH   9  11
ENDBRANCH   8   9
ENDBRANCH   7   8
ENDBRANCH   5   7
ENDBRANCH   4   5
ENDBRANCH   3   4
ENDBRANCH   2   3
ENDBRANCH   1   2
BRANCH   1  16
ATOM     16  C   UNL A   1      35.474  20.962  25.344  1.00  0.00     0.202 C 
BRANCH  16  17
ATOM     17  C   UNL A   1      36.856  20.406  24.992  1.00  0.00     0.261 C 
BRANCH  17  18
ATOM     18  O   UNL A   1      37.868  21.409  25.139  1.00  0.00    -0.460 OA
BRANCH  18  19
ATOM     19  C   UNL A   1      38.961  21.027  25.840  1.00  0.00     0.338 C 
ATOM     20  O   UNL A   1      39.508  19.935  25.814  1.00  0.00    -0.246 OA
BRANCH  19  21
ATOM     21  C   UNL A   1      39.533  22.217  26.496  1.00  0.00     0.060 A 
ATOM     22  C   UNL A   1      39.046  23.476  26.118  1.00  0.00     0.016 A 
ATOM     23  C   UNL A   1      40.528  22.099  27.469  1.00  0.00     0.016 A 
ATOM     24  C   UNL A   1      39.586  24.629  26.681  1.00  0.00     0.010 A 
ATOM     25  C   UNL A   1      41.069  23.253  28.030  1.00  0.00     0.010 A 
ATOM     26  C   UNL A   1      40.626  24.521  27.611  1.00  0.00    -0.014 A 
BRANCH  26  27
ATOM     27  C   UNL A   1      41.399  25.713  28.024  1.00  0.00     0.031 A 
ATOM     28  C   UNL A   1      40.669  26.808  28.747  1.00  0.00     0.074 A 
ATOM     29  C   UNL A   1      42.697  25.840  27.707  1.00  0.00     0.049 A 
ATOM     30  N   UNL A   1      41.059  28.019  29.036  1.00  0.00    -0.248 NA
ATOM     31  C   UNL A   1      39.297  26.492  29.174  1.00  0.00     0.031 C 
ATOM     32  C   UNL A   1      43.504  24.821  27.039  1.00  0.00     0.029 A 
ATOM     33  N   UNL A   1      43.552  26.900  27.870  1.00  0.00    -0.354 N 
ATOM     34  C   UNL A   1      39.968  28.625  29.652  1.00  0.00     0.074 A 
ATOM     35  C   UNL A   1      38.895  27.654  29.660  1.00  0.00     0.031 C 
ATOM     36  C   UNL A   1      44.731  25.320  26.814  1.00  0.00     0.029 A 
ATOM     37  C   UNL A   1      44.773  26.709  27.269  1.00  0.00     0.049 A 
ATOM     38  H   UNL A   1      43.314  27.716  28.366  1.00  0.00     0.167 HD
ATOM     39  C   UNL A   1      39.878  29.879  30.160  1.00  0.00     0.034 A 
ATOM     40  C   UNL A   1      45.785  27.575  27.060  1.00  0.00     0.034 A 
ATOM     41  C   UNL A   1      40.966  30.825  30.116  1.00  0.00     0.049 A 
ATOM     42  C   UNL A   1      45.647  28.991  27.563  1.00  0.00     0.074 A 
ATOM     43  C   UNL A   1      41.012  32.109  30.629  1.00  0.00     0.029 A 
ATOM     44  N   UNL A   1      42.192  30.598  29.502  1.00  0.00    -0.354 N 
ATOM     45  N   UNL A   1      44.624  29.557  28.163  1.00  0.00    -0.248 NA
ATOM     46  C   UNL A   1      46.796  29.883  27.366  1.00  0.00     0.031 C 
ATOM     47  C   UNL A   1      42.227  32.687  30.245  1.00  0.00     0.029 A 
ATOM     48  C   UNL A   1      42.985  31.732  29.583  1.00  0.00     0.049 A 
ATOM     49  H   UNL A   1      42.460  29.754  29.072  1.00  0.00     0.167 HD
ATOM     50  C   UNL A   1      45.021  30.862  28.446  1.00  0.00     0.074 A 
ATOM     51  C   UNL A   1      46.375  30.997  27.948  1.00  0.00     0.031 C 
ATOM     52  C   UNL A   1      44.333  31.852  29.073  1.00  0.00     0.034 A 
BRANCH  39  53
ATOM     53  C   UNL A   1      38.543  30.303  30.725  1.00  0.00     0.023 A 
ATOM     54  C   UNL A   1      37.560  30.921  29.932  1.00  0.00     0.031 A 
ATOM     55  C   UNL A   1      38.275  30.155  32.098  1.00  0.00     0.131 A 
ATOM     56  C   UNL A   1      36.408  31.456  30.530  1.00  0.00     0.055 A 
ATOM     57  C   UNL A   1      37.082  30.599  32.670  1.00  0.00     0.041 A 
ATOM     58  F   UNL A   1      39.183  29.599  32.916  1.00  0.00    -0.206 F 
ATOM     59  C   UNL A   1      36.150  31.275  31.890  1.00  0.00     0.022 A 
BRANCH  56  60
ATOM     60  S   UNL A   1      35.358  32.560  29.545  1.00  0.00     0.124 S 
ATOM     61  O   UNL A   1      34.608  31.605  28.732  1.00  0.00    -0.237 OA
ATOM     62  O   UNL A   1      34.596  33.264  30.569  1.00  0.00    -0.237 OA
ATOM     63  O   UNL A   1      36.318  33.376  28.805  1.00  0.00    -0.744 OA
ENDBRANCH  56  60
ENDBRANCH  39  53
BRANCH  40  64
ATOM     64  C   UNL A   1      46.983  27.139  26.290  1.00  0.00     0.023 A 
ATOM     65  C   UNL A   1      48.081  26.536  26.923  1.00  0.00     0.031 A 
ATOM     66  C   UNL A   1      47.041  27.316  24.894  1.00  0.00     0.131 A 
ATOM     67  C   UNL A   1      49.199  26.151  26.164  1.00  0.00     0.055 A 
ATOM     68  C   UNL A   1      48.133  26.886  24.139  1.00  0.00     0.041 A 
ATOM     69  F   UNL A   1      46.017  27.886  24.240  1.00  0.00    -0.206 F 
ATOM     70  C   UNL A   1      49.225  26.307  24.775  1.00  0.00     0.022 A 
BRANCH  67  71
ATOM     71  S   UNL A   1      50.651  25.492  27.028  1.00  0.00     0.124 S 
ATOM     72  O   UNL A   1      51.554  25.209  25.919  1.00  0.00    -0.237 OA
ATOM     73  O   UNL A   1      51.022  26.609  27.891  1.00  0.00    -0.237 OA
ATOM     74  O   UNL A   1      50.129  24.318  27.725  1.00  0.00    -0.744 OA
ENDBRANCH  67  71
ENDBRANCH  40  64
BRANCH  52  75
ATOM     75  C   UNL A   1      45.056  33.156  29.322  1.00  0.00     0.023 A 
ATOM     76  C   UNL A   1      44.965  34.245  28.438  1.00  0.00     0.031 A 
ATOM     77  C   UNL A   1      45.819  33.316  30.493  1.00  0.00     0.131 A 
ATOM     78  C   UNL A   1      45.655  35.434  28.725  1.00  0.00     0.055 A 
ATOM     79  C   UNL A   1      46.450  34.520  30.803  1.00  0.00     0.041 A 
ATOM     80  F   UNL A   1      45.945  32.305  31.369  1.00  0.00    -0.206 F 
ATOM     81  C   UNL A   1      46.376  35.586  29.913  1.00  0.00     0.022 A 
BRANCH  78  82
ATOM     82  S   UNL A   1      45.657  36.764  27.492  1.00  0.00     0.124 S 
ATOM     83  O   UNL A   1      47.032  36.720  27.003  1.00  0.00    -0.237 OA
ATOM     84  O   UNL A   1      44.632  36.324  26.552  1.00  0.00    -0.237 OA
ATOM     85  O   UNL A   1      45.314  37.954  28.270  1.00  0.00    -0.744 OA
ENDBRANCH  78  82
ENDBRANCH  52  75
ENDBRANCH  26  27
ENDBRANCH  19  21
ENDBRANCH  18  19
ENDBRANCH  17  18
ENDBRANCH  16  17
ENDBRANCH   1  16
TORSDOF 20
ENDMDL
MODEL 2
REMARK VINA RESULT:      -9.7      1.870      7.993
REMARK SMILES O=C(CSC(=S)N1CCCC1)OCCOCCOC(=O)c1ccc(-c2c3nc(c(-c4cc(S(=O)(=O)[O-])ccc4F)c4ccc([nH]4)c(-c4cc(S(=O)(=O)[O-])ccc4F)c4nc(c(-c5cc(S(=O)(=O)[O-])ccc5F)c5ccc2[nH]5)C=C4)C=C3)cc1
REMARK SMILES IDX 15 1 14 2 13 3 12 4 2 5 1 6 3 7 4 8 5 9 6 10 7 11 8 12 11 13
REMARK SMILES IDX 9 14 10 15 16 16 17 17 18 18 19 19 20 20 21 21 22 22 83 23
REMARK SMILES IDX 23 24 82 25 24 26 25 27 26 28 76 29 27 30 81 31 75 32 77 33
REMARK SMILES IDX 28 34 80 35 74 36 73 37 29 39 61 40 41 41 60 42 42 43 45 44
REMARK SMILES IDX 59 45 78 46 43 47 44 48 58 50 79 51 46 52 30 53 31 54 39 55
REMARK SMILES IDX 32 56 38 57 40 58 37 59 33 60 34 61 35 62 36 63 62 64 63 65
REMARK SMILES IDX 71 66 64 67 70 68 72 69 69 70 65 71 66 72 67 73 68 74 47 75
REMARK SMILES IDX 48 76 56 77 49 78 55 79 57 80 54 81 50 82 51 83 52 84 53 85
REMARK H PARENT 77 38 45 49
REMARK Flexibility Score: inf
ROOT
ATOM      1  O   UNL A   1      35.065  21.309  24.580  1.00  0.00    -0.374 OA
ENDROOT
BRANCH   1   2
ATOM      2  C   UNL A   1      33.806  21.765  25.081  1.00  0.00     0.202 C 
BRANCH   2   3
ATOM      3  C   UNL A   1      33.898  22.363  26.484  1.00  0.00     0.261 C 
BRANCH   3   4
ATOM      4  O   UNL A   1      33.242  23.643  26.569  1.00  0.00    -0.463 OA
BRANCH   4   5
ATOM      5  C   UNL A   1      31.912  23.835  26.676  1.00  0.00     0.316 C 
ATOM      6  O   UNL A   1      31.312  23.322  27.623  1.00  0.00    -0.251 OA
BRANCH   5   7
ATOM      7  C   UNL A   1      31.145  24.579  25.611  1.00  0.00     0.199 C 
BRANCH   7   8
ATOM      8  S   UNL A   1      31.014  26.370  25.724  1.00  0.00    -0.085 SA
BRANCH   8   9
ATOM      9  C   UNL A   1      31.765  27.004  24.268  1.00  0.00     0.136 C 
ATOM     10  S   UNL A   1      33.254  26.481  23.700  1.00  0.00    -0.053 S 
BRANCH   9  11
ATOM     11  N   UNL A   1      31.038  28.037  23.682  1.00  0.00    -0.358 N 
ATOM     12  C   UNL A   1      30.310  27.964  22.413  1.00  0.00     0.118 C 
ATOM     13  C   UNL A   1      30.811  29.337  24.314  1.00  0.00     0.118 C 
ATOM     14  C   UNL A   1      29.967  29.403  22.075  1.00  0.00     0.023 C 
ATOM     15  C   UNL A   1      29.783  30.043  23.441  1.00  0.00     0.023 C 
ENDBRANCH   9  11
ENDBRANCH   8   9
ENDBRANCH   7   8
ENDBRANCH   5   7
ENDBRANCH   4   5
ENDBRANCH   3   4
ENDBRANCH   2   3
ENDBRANCH   1   2
BRANCH   1  16
ATOM     16  C   UNL A   1      36.077  21.097  25.571  1.00  0.00     0.202 C 
BRANCH  16  17
ATOM     17  C   UNL A   1      37.393  20.515  25.052  1.00  0.00     0.261 C 
BRANCH  17  18
ATOM     18  O   UNL A   1      38.443  21.489  25.099  1.00  0.00    -0.460 OA
BRANCH  18  19
ATOM     19  C   UNL A   1      39.312  21.353  26.128  1.00  0.00     0.338 C 
ATOM     20  O   UNL A   1      39.827  20.319  26.524  1.00  0.00    -0.246 OA
BRANCH  19  21
ATOM     21  C   UNL A   1      39.718  22.697  26.575  1.00  0.00     0.060 A 
ATOM     22  C   UNL A   1      38.974  23.796  26.120  1.00  0.00     0.016 A 
ATOM     23  C   UNL A   1      40.808  22.878  27.430  1.00  0.00     0.016 A 
ATOM     24  C   UNL A   1      39.347  25.087  26.484  1.00  0.00     0.010 A 
ATOM     25  C   UNL A   1      41.181  24.169  27.791  1.00  0.00     0.010 A 
ATOM     26  C   UNL A   1      40.475  25.279  27.290  1.00  0.00    -0.014 A 
BRANCH  26  27
ATOM     27  C   UNL A   1      41.054  26.628  27.473  1.00  0.00     0.031 A 
ATOM     28  C   UNL A   1      42.427  26.884  26.922  1.00  0.00     0.074 A 
ATOM     29  C   UNL A   1      40.400  27.573  28.166  1.00  0.00     0.049 A 
ATOM     30  N   UNL A   1      43.227  27.897  27.116  1.00  0.00    -0.248 NA
ATOM     31  C   UNL A   1      42.977  25.832  26.054  1.00  0.00     0.031 C 
ATOM     32  C   UNL A   1      39.050  27.435  28.711  1.00  0.00     0.029 A 
ATOM     33  N   UNL A   1      40.802  28.822  28.564  1.00  0.00    -0.354 N 
ATOM     34  C   UNL A   1      44.392  27.591  26.420  1.00  0.00     0.074 A 
ATOM     35  C   UNL A   1      44.199  26.283  25.831  1.00  0.00     0.031 C 
ATOM     36  C   UNL A   1      38.749  28.544  29.406  1.00  0.00     0.029 A 
ATOM     37  C   UNL A   1      39.905  29.440  29.403  1.00  0.00     0.049 A 
ATOM     38  H   UNL A   1      41.648  29.234  28.278  1.00  0.00     0.167 HD
ATOM     39  C   UNL A   1      45.516  28.338  26.292  1.00  0.00     0.034 A 
ATOM     40  C   UNL A   1      40.029  30.569  30.129  1.00  0.00     0.034 A 
ATOM     41  C   UNL A   1      45.676  29.631  26.912  1.00  0.00     0.049 A 
ATOM     42  C   UNL A   1      41.313  31.356  30.039  1.00  0.00     0.074 A 
ATOM     43  C   UNL A   1      46.748  30.500  26.826  1.00  0.00     0.029 A 
ATOM     44  N   UNL A   1      44.746  30.229  27.754  1.00  0.00    -0.354 N 
ATOM     45  N   UNL A   1      42.406  31.077  29.364  1.00  0.00    -0.248 NA
ATOM     46  C   UNL A   1      41.382  32.609  30.799  1.00  0.00     0.031 C 
ATOM     47  C   UNL A   1      46.507  31.576  27.686  1.00  0.00     0.029 A 
ATOM     48  C   UNL A   1      45.238  31.434  28.230  1.00  0.00     0.049 A 
ATOM     49  H   UNL A   1      43.865  29.851  27.979  1.00  0.00     0.167 HD
ATOM     50  C   UNL A   1      43.279  32.138  29.594  1.00  0.00     0.074 A 
ATOM     51  C   UNL A   1      42.584  33.060  30.470  1.00  0.00     0.031 C 
ATOM     52  C   UNL A   1      44.533  32.338  29.111  1.00  0.00     0.034 A 
BRANCH  39  53
ATOM     53  C   UNL A   1      46.665  27.733  25.521  1.00  0.00     0.023 A 
ATOM     54  C   UNL A   1      46.998  28.158  24.222  1.00  0.00     0.031 A 
ATOM     55  C   UNL A   1      47.398  26.662  26.065  1.00  0.00     0.131 A 
ATOM     56  C   UNL A   1      47.956  27.455  23.476  1.00  0.00     0.055 A 
ATOM     57  C   UNL A   1      48.421  26.031  25.355  1.00  0.00     0.041 A 
ATOM     58  F   UNL A   1      47.114  26.190  27.289  1.00  0.00    -0.206 F 
ATOM     59  C   UNL A   1      48.690  26.412  24.043  1.00  0.00     0.022 A 
BRANCH  56  60
ATOM     60  S   UNL A   1      48.086  27.794  21.698  1.00  0.00     0.124 S 
ATOM     61  O   UNL A   1      46.774  28.370  21.412  1.00  0.00    -0.237 OA
ATOM     62  O   UNL A   1      49.215  28.713  21.635  1.00  0.00    -0.237 OA
ATOM     63  O   UNL A   1      48.317  26.475  21.114  1.00  0.00    -0.744 OA
ENDBRANCH  56  60
ENDBRANCH  39  53
BRANCH  40  64
ATOM     64  C   UNL A   1      38.929  30.981  31.046  1.00  0.00     0.023 A 
ATOM     65  C   UNL A   1      37.883  31.808  30.609  1.00  0.00     0.031 A 
ATOM     66  C   UNL A   1      38.909  30.541  32.383  1.00  0.00     0.131 A 
ATOM     67  C   UNL A   1      36.871  32.186  31.507  1.00  0.00     0.055 A 
ATOM     68  C   UNL A   1      37.876  30.879  33.258  1.00  0.00     0.041 A 
ATOM     69  F   UNL A   1      39.886  29.748  32.851  1.00  0.00    -0.206 F 
ATOM     70  C   UNL A   1      36.852  31.715  32.823  1.00  0.00     0.022 A 
BRANCH  67  71
ATOM     71  S   UNL A   1      35.605  33.357  30.947  1.00  0.00     0.124 S 
ATOM     72  O   UNL A   1      34.404  32.529  30.972  1.00  0.00    -0.237 OA
ATOM     73  O   UNL A   1      35.688  34.402  31.961  1.00  0.00    -0.237 OA
ATOM     74  O   UNL A   1      36.066  33.746  29.615  1.00  0.00    -0.744 OA
ENDBRANCH  67  71
ENDBRANCH  40  64
BRANCH  52  75
ATOM     75  C   UNL A   1      45.218  33.639  29.464  1.00  0.00     0.023 A 
ATOM     76  C   UNL A   1      45.049  34.807  28.701  1.00  0.00     0.031 A 
ATOM     77  C   UNL A   1      46.024  33.711  30.615  1.00  0.00     0.131 A 
ATOM     78  C   UNL A   1      45.707  35.988  29.082  1.00  0.00     0.055 A 
ATOM     79  C   UNL A   1      46.623  34.902  31.022  1.00  0.00     0.041 A 
ATOM     80  F   UNL A   1      46.224  32.623  31.376  1.00  0.00    -0.206 F 
ATOM     81  C   UNL A   1      46.472  36.049  30.249  1.00  0.00     0.022 A 
BRANCH  78  82
ATOM     82  S   UNL A   1      45.608  37.435  27.992  1.00  0.00     0.124 S 
ATOM     83  O   UNL A   1      45.100  36.848  26.756  1.00  0.00    -0.237 OA
ATOM     84  O   UNL A   1      44.685  38.307  28.710  1.00  0.00    -0.237 OA
ATOM     85  O   UNL A   1      46.989  37.912  27.929  1.00  0.00    -0.744 OA
ENDBRANCH  78  82
ENDBRANCH  52  75
ENDBRANCH  26  27
ENDBRANCH  19  21
ENDBRANCH  18  19
ENDBRANCH  17  18
ENDBRANCH  16  17
ENDBRANCH   1  16
TORSDOF 20
ENDMDL
MODEL 3
REMARK VINA RESULT:      -9.4      1.569      1.931
REMARK SMILES O=C(CSC(=S)N1CCCC1)OCCOCCOC(=O)c1ccc(-c2c3nc(c(-c4cc(S(=O)(=O)[O-])ccc4F)c4ccc([nH]4)c(-c4cc(S(=O)(=O)[O-])ccc4F)c4nc(c(-c5cc(S(=O)(=O)[O-])ccc5F)c5ccc2[nH]5)C=C4)C=C3)cc1
REMARK SMILES IDX 15 1 14 2 13 3 12 4 2 5 1 6 3 7 4 8 5 9 6 10 7 11 8 12 11 13
REMARK SMILES IDX 9 14 10 15 16 16 17 17 18 18 19 19 20 20 21 21 22 22 83 23
REMARK SMILES IDX 23 24 82 25 24 26 25 27 26 28 76 29 27 30 81 31 75 32 77 33
REMARK SMILES IDX 28 34 80 35 74 36 73 37 29 39 61 40 41 41 60 42 42 43 45 44
REMARK SMILES IDX 59 45 78 46 43 47 44 48 58 50 79 51 46 52 30 53 31 54 39 55
REMARK SMILES IDX 32 56 38 57 40 58 37 59 33 60 34 61 35 62 36 63 62 64 63 65
REMARK SMILES IDX 71 66 64 67 70 68 72 69 69 70 65 71 66 72 67 73 68 74 47 75
REMARK SMILES IDX 48 76 56 77 49 78 55 79 57 80 54 81 50 82 51 83 52 84 53 85
REMARK H PARENT 77 38 45 49
REMARK Flexibility Score: inf
ROOT
ATOM      1  O   UNL A   1      35.142  19.947  24.742  1.00  0.00    -0.374 OA
ENDROOT
BRANCH   1   2
ATOM      2  C   UNL A   1      33.776  20.365  24.798  1.00  0.00     0.202 C 
BRANCH   2   3
ATOM      3  C   UNL A   1      33.610  21.884  24.750  1.00  0.00     0.261 C 
BRANCH   3   4
ATOM      4  O   UNL A   1      33.190  22.339  23.449  1.00  0.00    -0.463 OA
BRANCH   4   5
ATOM      5  C   UNL A   1      33.427  23.562  22.934  1.00  0.00     0.316 C 
ATOM      6  O   UNL A   1      34.593  23.896  22.711  1.00  0.00    -0.251 OA
BRANCH   5   7
ATOM      7  C   UNL A   1      32.306  24.548  22.720  1.00  0.00     0.199 C 
BRANCH   7   8
ATOM      8  S   UNL A   1      31.461  25.230  24.154  1.00  0.00    -0.085 SA
BRANCH   8   9
ATOM      9  C   UNL A   1      31.379  26.965  23.890  1.00  0.00     0.136 C 
ATOM     10  S   UNL A   1      30.447  27.668  22.686  1.00  0.00    -0.053 S 
BRANCH   9  11
ATOM     11  N   UNL A   1      32.225  27.687  24.728  1.00  0.00    -0.358 N 
ATOM     12  C   UNL A   1      33.555  27.269  25.175  1.00  0.00     0.118 C 
ATOM     13  C   UNL A   1      31.939  29.040  25.206  1.00  0.00     0.118 C 
ATOM     14  C   UNL A   1      33.913  28.232  26.292  1.00  0.00     0.023 C 
ATOM     15  C   UNL A   1      33.221  29.519  25.872  1.00  0.00     0.023 C 
ENDBRANCH   9  11
ENDBRANCH   8   9
ENDBRANCH   7   8
ENDBRANCH   5   7
ENDBRANCH   4   5
ENDBRANCH   3   4
ENDBRANCH   2   3
ENDBRANCH   1   2
BRANCH   1  16
ATOM     16  C   UNL A   1      36.101  21.003  24.616  1.00  0.00     0.202 C 
BRANCH  16  17
ATOM     17  C   UNL A   1      37.553  20.609  24.895  1.00  0.00     0.261 C 
BRANCH  17  18
ATOM     18  O   UNL A   1      38.068  21.311  26.033  1.00  0.00    -0.460 OA
BRANCH  18  19
ATOM     19  C   UNL A   1      39.379  21.100  26.296  1.00  0.00     0.338 C 
ATOM     20  O   UNL A   1      40.048  20.130  25.974  1.00  0.00    -0.246 OA
BRANCH  19  21
ATOM     21  C   UNL A   1      39.946  22.338  26.860  1.00  0.00     0.060 A 
ATOM     22  C   UNL A   1      39.441  23.563  26.400  1.00  0.00     0.016 A 
ATOM     23  C   UNL A   1      40.953  22.299  27.826  1.00  0.00     0.016 A 
ATOM     24  C   UNL A   1      39.975  24.758  26.874  1.00  0.00     0.010 A 
ATOM     25  C   UNL A   1      41.488  23.495  28.298  1.00  0.00     0.010 A 
ATOM     26  C   UNL A   1      41.027  24.726  27.796  1.00  0.00    -0.014 A 
BRANCH  26  27
ATOM     27  C   UNL A   1      41.792  25.951  28.115  1.00  0.00     0.031 A 
ATOM     28  C   UNL A   1      41.064  27.078  28.789  1.00  0.00     0.074 A 
ATOM     29  C   UNL A   1      43.079  26.077  27.756  1.00  0.00     0.049 A 
ATOM     30  N   UNL A   1      41.443  28.311  28.994  1.00  0.00    -0.248 NA
ATOM     31  C   UNL A   1      39.708  26.770  29.272  1.00  0.00     0.031 C 
ATOM     32  C   UNL A   1      43.884  25.030  27.130  1.00  0.00     0.029 A 
ATOM     33  N   UNL A   1      43.922  27.157  27.831  1.00  0.00    -0.354 N 
ATOM     34  C   UNL A   1      40.359  28.938  29.601  1.00  0.00     0.074 A 
ATOM     35  C   UNL A   1      39.302  27.954  29.697  1.00  0.00     0.031 C 
ATOM     36  C   UNL A   1      45.097  25.531  26.842  1.00  0.00     0.029 A 
ATOM     37  C   UNL A   1      45.130  26.946  27.210  1.00  0.00     0.049 A 
ATOM     38  H   UNL A   1      43.684  27.998  28.283  1.00  0.00     0.167 HD
ATOM     39  C   UNL A   1      40.263  30.219  30.034  1.00  0.00     0.034 A 
ATOM     40  C   UNL A   1      46.122  27.812  26.922  1.00  0.00     0.034 A 
ATOM     41  C   UNL A   1      41.335  31.176  29.903  1.00  0.00     0.049 A 
ATOM     42  C   UNL A   1      45.975  29.254  27.341  1.00  0.00     0.074 A 
ATOM     43  C   UNL A   1      41.375  32.489  30.336  1.00  0.00     0.029 A 
ATOM     44  N   UNL A   1      42.548  30.928  29.271  1.00  0.00    -0.354 N 
ATOM     45  N   UNL A   1      44.960  29.841  27.933  1.00  0.00    -0.248 NA
ATOM     46  C   UNL A   1      47.105  30.148  27.060  1.00  0.00     0.031 C 
ATOM     47  C   UNL A   1      42.570  33.060  29.884  1.00  0.00     0.029 A 
ATOM     48  C   UNL A   1      43.325  32.076  29.261  1.00  0.00     0.049 A 
ATOM     49  H   UNL A   1      42.817  30.063  28.886  1.00  0.00     0.167 HD
ATOM     50  C   UNL A   1      45.344  31.167  28.125  1.00  0.00     0.074 A 
ATOM     51  C   UNL A   1      46.682  31.290  27.584  1.00  0.00     0.031 C 
ATOM     52  C   UNL A   1      44.657  32.183  28.710  1.00  0.00     0.034 A 
BRANCH  39  53
ATOM     53  C   UNL A   1      38.937  30.659  30.608  1.00  0.00     0.023 A 
ATOM     54  C   UNL A   1      37.895  31.140  29.796  1.00  0.00     0.031 A 
ATOM     55  C   UNL A   1      38.735  30.666  32.001  1.00  0.00     0.131 A 
ATOM     56  C   UNL A   1      36.749  31.701  30.381  1.00  0.00     0.055 A 
ATOM     57  C   UNL A   1      37.550  31.131  32.572  1.00  0.00     0.041 A 
ATOM     58  F   UNL A   1      39.700  30.245  32.834  1.00  0.00    -0.206 F 
ATOM     59  C   UNL A   1      36.557  31.674  31.763  1.00  0.00     0.022 A 
BRANCH  56  60
ATOM     60  S   UNL A   1      35.612  32.640  29.324  1.00  0.00     0.124 S 
ATOM     61  O   UNL A   1      34.765  31.578  28.786  1.00  0.00    -0.237 OA
ATOM     62  O   UNL A   1      34.976  33.545  30.273  1.00  0.00    -0.237 OA
ATOM     63  O   UNL A   1      36.496  33.274  28.348  1.00  0.00    -0.744 OA
ENDBRANCH  56  60
ENDBRANCH  39  53
BRANCH  40  64
ATOM     64  C   UNL A   1      47.307  27.345  26.147  1.00  0.00     0.023 A 
ATOM     65  C   UNL A   1      48.370  26.674  26.769  1.00  0.00     0.031 A 
ATOM     66  C   UNL A   1      47.385  27.564  24.759  1.00  0.00     0.131 A 
ATOM     67  C   UNL A   1      49.476  26.262  26.008  1.00  0.00     0.055 A 
ATOM     68  C   UNL A   1      48.464  27.109  23.998  1.00  0.00     0.041 A 
ATOM     69  F   UNL A   1      46.395  28.201  24.115  1.00  0.00    -0.206 F 
ATOM     70  C   UNL A   1      49.522  26.460  24.625  1.00  0.00     0.022 A 
BRANCH  67  71
ATOM     71  S   UNL A   1      50.888  25.510  26.862  1.00  0.00     0.124 S 
ATOM     72  O   UNL A   1      51.745  25.133  25.744  1.00  0.00    -0.237 OA
ATOM     73  O   UNL A   1      51.361  26.612  27.692  1.00  0.00    -0.237 OA
ATOM     74  O   UNL A   1      50.289  24.395  27.594  1.00  0.00    -0.744 OA
ENDBRANCH  67  71
ENDBRANCH  40  64
BRANCH  52  75
ATOM     75  C   UNL A   1      45.366  33.509  28.859  1.00  0.00     0.023 A 
ATOM     76  C   UNL A   1      46.164  33.813  29.975  1.00  0.00     0.031 A 
ATOM     77  C   UNL A   1      45.268  34.470  27.835  1.00  0.00     0.131 A 
ATOM     78  C   UNL A   1      46.803  35.061  30.056  1.00  0.00     0.055 A 
ATOM     79  C   UNL A   1      45.957  35.682  27.891  1.00  0.00     0.041 A 
ATOM     80  F   UNL A   1      44.514  34.234  26.748  1.00  0.00    -0.206 F 
ATOM     81  C   UNL A   1      46.724  35.986  29.011  1.00  0.00     0.022 A 
BRANCH  78  82
ATOM     82  S   UNL A   1      47.689  35.494  31.578  1.00  0.00     0.124 S 
ATOM     83  O   UNL A   1      47.605  34.252  32.340  1.00  0.00    -0.237 OA
ATOM     84  O   UNL A   1      49.013  35.850  31.082  1.00  0.00    -0.237 OA
ATOM     85  O   UNL A   1      46.911  36.608  32.122  1.00  0.00    -0.744 OA
ENDBRANCH  78  82
ENDBRANCH  52  75
ENDBRANCH  26  27
ENDBRANCH  19  21
ENDBRANCH  18  19
ENDBRANCH  17  18
ENDBRANCH  16  17
ENDBRANCH   1  16
TORSDOF 20
ENDMDL
