MODEL 1
REMARK VINA RESULT:     -11.5      0.000      0.000
REMARK SMILES O=C(OCCOCCOC(=O)c1ccc(N[C@@H]2CCCS(=O)(=O)C2)c(F)c1F)c1ccc(-c2c3nc(c(-c4cc(S(=O)(=O)[O-])ccc4F)c4ccc([nH]4)c(-c4cc(S(=O)(=O)[O-])ccc4F)c4nc(c(-c5cc(S(=O)(=O)[O-])ccc5F)c5ccc2[nH]5)C=C4)C=C3)cc1
REMARK SMILES IDX 5 1 4 2 3 3 2 4 1 5 29 6 30 7 91 8 31 9 90 10 32 11 33 12
REMARK SMILES IDX 34 13 84 14 35 15 89 16 83 17 85 18 36 19 88 20 82 21 81 22
REMARK SMILES IDX 37 24 69 25 49 26 68 27 50 28 53 29 67 30 86 31 51 32 52 33
REMARK SMILES IDX 66 35 87 36 54 37 38 38 39 39 47 40 40 41 46 42 48 43 45 44
REMARK SMILES IDX 41 45 42 46 43 47 44 48 70 49 71 50 79 51 72 52 78 53 80 54
REMARK SMILES IDX 77 55 73 56 74 57 75 58 76 59 55 60 56 61 64 62 57 63 63 64
REMARK SMILES IDX 65 65 62 66 58 67 59 68 60 69 61 70 6 71 7 72 8 73 9 74
REMARK SMILES IDX 10 75 11 76 12 77 13 78 27 79 14 80 25 81 28 82 15 83 26 84
REMARK SMILES IDX 16 85 17 87 18 88 24 89 19 90 21 91 20 92 22 93 23 94
REMARK H PARENT 85 23 53 34 16 86
REMARK Flexibility Score: inf
ROOT
ATOM      1  C   UNL A   1      32.036  29.052  24.146  1.00  0.00     0.202 C 
ENDROOT
BRANCH   1   2
ATOM      2  C   UNL A   1      33.115  29.674  25.033  1.00  0.00     0.261 C 
BRANCH   2   3
ATOM      3  O   UNL A   1      32.499  30.352  26.141  1.00  0.00    -0.460 OA
BRANCH   3   4
ATOM      4  C   UNL A   1      33.077  31.189  27.033  1.00  0.00     0.338 C 
ATOM      5  O   UNL A   1      32.568  32.294  27.210  1.00  0.00    -0.246 OA
BRANCH   4   6
ATOM      6  C   UNL A   1      34.317  30.855  27.797  1.00  0.00     0.060 A 
ATOM      7  C   UNL A   1      34.660  29.579  28.251  1.00  0.00     0.016 A 
ATOM      8  C   UNL A   1      35.252  31.890  27.970  1.00  0.00     0.016 A 
ATOM      9  C   UNL A   1      35.861  29.335  28.899  1.00  0.00     0.010 A 
ATOM     10  C   UNL A   1      36.479  31.647  28.591  1.00  0.00     0.010 A 
ATOM     11  C   UNL A   1      36.778  30.366  29.067  1.00  0.00    -0.014 A 
BRANCH  11  12
ATOM     12  C   UNL A   1      38.005  30.095  29.831  1.00  0.00     0.031 A 
ATOM     13  C   UNL A   1      39.044  29.220  29.208  1.00  0.00     0.074 A 
ATOM     14  C   UNL A   1      38.197  30.699  31.016  1.00  0.00     0.049 A 
ATOM     15  N   UNL A   1      40.147  28.752  29.716  1.00  0.00    -0.248 NA
ATOM     16  C   UNL A   1      38.797  28.823  27.814  1.00  0.00     0.031 C 
ATOM     17  C   UNL A   1      37.275  31.662  31.625  1.00  0.00     0.029 A 
ATOM     18  N   UNL A   1      39.224  30.603  31.913  1.00  0.00    -0.354 N 
ATOM     19  C   UNL A   1      40.720  27.978  28.714  1.00  0.00     0.074 A 
ATOM     20  C   UNL A   1      39.830  28.034  27.574  1.00  0.00     0.031 C 
ATOM     21  C   UNL A   1      37.777  32.058  32.805  1.00  0.00     0.029 A 
ATOM     22  C   UNL A   1      39.011  31.326  33.064  1.00  0.00     0.049 A 
ATOM     23  H   UNL A   1      40.035  30.069  31.752  1.00  0.00     0.167 HD
ATOM     24  C   UNL A   1      41.878  27.277  28.762  1.00  0.00     0.034 A 
ATOM     25  C   UNL A   1      39.711  31.340  34.214  1.00  0.00     0.034 A 
ATOM     26  C   UNL A   1      42.706  27.231  29.941  1.00  0.00     0.049 A 
ATOM     27  C   UNL A   1      40.941  30.472  34.290  1.00  0.00     0.074 A 
ATOM     28  C   UNL A   1      43.863  26.510  30.167  1.00  0.00     0.029 A 
ATOM     29  N   UNL A   1      42.444  27.940  31.112  1.00  0.00    -0.354 N 
ATOM     30  N   UNL A   1      41.448  29.683  33.368  1.00  0.00    -0.248 NA
ATOM     31  C   UNL A   1      41.687  30.483  35.552  1.00  0.00     0.031 C 
ATOM     32  C   UNL A   1      44.260  26.731  31.492  1.00  0.00     0.029 A 
ATOM     33  C   UNL A   1      43.397  27.649  32.073  1.00  0.00     0.049 A 
ATOM     34  H   UNL A   1      41.688  28.558  31.238  1.00  0.00     0.167 HD
ATOM     35  C   UNL A   1      42.580  29.110  33.934  1.00  0.00     0.074 A 
ATOM     36  C   UNL A   1      42.688  29.658  35.275  1.00  0.00     0.031 C 
ATOM     37  C   UNL A   1      43.453  28.215  33.403  1.00  0.00     0.034 A 
BRANCH  24  38
ATOM     38  C   UNL A   1      42.207  26.437  27.551  1.00  0.00     0.023 A 
ATOM     39  C   UNL A   1      41.918  25.059  27.500  1.00  0.00     0.031 A 
ATOM     40  C   UNL A   1      42.951  26.989  26.494  1.00  0.00     0.131 A 
ATOM     41  C   UNL A   1      42.468  24.266  26.480  1.00  0.00     0.055 A 
ATOM     42  C   UNL A   1      43.416  26.209  25.432  1.00  0.00     0.041 A 
ATOM     43  F   UNL A   1      43.286  28.288  26.499  1.00  0.00    -0.206 F 
ATOM     44  C   UNL A   1      43.196  24.834  25.433  1.00  0.00     0.022 A 
BRANCH  41  45
ATOM     45  S   UNL A   1      42.398  22.459  26.655  1.00  0.00     0.124 S 
ATOM     46  O   UNL A   1      43.661  22.054  26.040  1.00  0.00    -0.237 OA
ATOM     47  O   UNL A   1      42.306  22.285  28.099  1.00  0.00    -0.237 OA
ATOM     48  O   UNL A   1      41.203  22.086  25.902  1.00  0.00    -0.744 OA
ENDBRANCH  41  45
ENDBRANCH  24  38
BRANCH  25  49
ATOM     49  C   UNL A   1      39.208  32.114  35.386  1.00  0.00     0.023 A 
ATOM     50  C   UNL A   1      38.513  31.501  36.439  1.00  0.00     0.031 A 
ATOM     51  C   UNL A   1      39.434  33.503  35.469  1.00  0.00     0.131 A 
ATOM     52  C   UNL A   1      38.058  32.275  37.520  1.00  0.00     0.055 A 
ATOM     53  C   UNL A   1      39.021  34.259  36.567  1.00  0.00     0.041 A 
ATOM     54  F   UNL A   1      40.092  34.143  34.490  1.00  0.00    -0.206 F 
ATOM     55  C   UNL A   1      38.321  33.645  37.598  1.00  0.00     0.022 A 
BRANCH  52  56
ATOM     56  S   UNL A   1      37.065  31.478  38.815  1.00  0.00     0.124 S 
ATOM     57  O   UNL A   1      35.875  32.322  38.841  1.00  0.00    -0.237 OA
ATOM     58  O   UNL A   1      36.887  30.133  38.277  1.00  0.00    -0.237 OA
ATOM     59  O   UNL A   1      37.916  31.564  40.000  1.00  0.00    -0.744 OA
ENDBRANCH  52  56
ENDBRANCH  25  49
BRANCH  37  60
ATOM     60  C   UNL A   1      44.614  27.810  34.272  1.00  0.00     0.023 A 
ATOM     61  C   UNL A   1      44.496  26.787  35.227  1.00  0.00     0.031 A 
ATOM     62  C   UNL A   1      45.860  28.440  34.115  1.00  0.00     0.131 A 
ATOM     63  C   UNL A   1      45.603  26.447  36.017  1.00  0.00     0.055 A 
ATOM     64  C   UNL A   1      46.970  28.063  34.869  1.00  0.00     0.041 A 
ATOM     65  F   UNL A   1      46.019  29.423  33.214  1.00  0.00    -0.206 F 
ATOM     66  C   UNL A   1      46.844  27.065  35.831  1.00  0.00     0.022 A 
BRANCH  63  67
ATOM     67  S   UNL A   1      45.390  25.214  37.330  1.00  0.00     0.124 S 
ATOM     68  O   UNL A   1      46.516  24.318  37.087  1.00  0.00    -0.237 OA
ATOM     69  O   UNL A   1      45.471  26.026  38.540  1.00  0.00    -0.237 OA
ATOM     70  O   UNL A   1      44.073  24.644  37.054  1.00  0.00    -0.744 OA
ENDBRANCH  63  67
ENDBRANCH  37  60
ENDBRANCH  11  12
ENDBRANCH   4   6
ENDBRANCH   3   4
ENDBRANCH   2   3
ENDBRANCH   1   2
BRANCH   1  71
ATOM     71  O   UNL A   1      31.013  28.349  24.847  1.00  0.00    -0.374 OA
BRANCH  71  72
ATOM     72  C   UNL A   1      30.485  27.177  24.217  1.00  0.00     0.202 C 
BRANCH  72  73
ATOM     73  C   UNL A   1      31.623  26.162  24.056  1.00  0.00     0.261 C 
BRANCH  73  74
ATOM     74  O   UNL A   1      31.934  25.650  25.361  1.00  0.00    -0.460 OA
BRANCH  74  75
ATOM     75  C   UNL A   1      33.261  25.626  25.665  1.00  0.00     0.341 C 
ATOM     76  O   UNL A   1      33.937  26.544  26.086  1.00  0.00    -0.246 OA
BRANCH  75  77
ATOM     77  C   UNL A   1      33.689  24.221  25.544  1.00  0.00     0.099 A 
ATOM     78  C   UNL A   1      33.449  23.331  26.591  1.00  0.00     0.021 A 
ATOM     79  C   UNL A   1      34.432  23.801  24.446  1.00  0.00     0.175 A 
ATOM     80  C   UNL A   1      33.959  22.038  26.538  1.00  0.00     0.030 A 
ATOM     81  C   UNL A   1      34.944  22.502  24.409  1.00  0.00     0.182 A 
ATOM     82  F   UNL A   1      34.717  24.635  23.435  1.00  0.00    -0.203 F 
ATOM     83  C   UNL A   1      34.708  21.582  25.444  1.00  0.00     0.074 A 
ATOM     84  F   UNL A   1      35.677  22.114  23.351  1.00  0.00    -0.201 F 
BRANCH  83  85
ATOM     85  N   UNL A   1      35.165  20.273  25.331  1.00  0.00    -0.379 N 
ATOM     86  H   UNL A   1      36.038  20.066  25.736  1.00  0.00     0.160 HD
BRANCH  85  87
ATOM     87  C   UNL A   1      34.458  19.171  24.658  1.00  0.00     0.094 C 
ATOM     88  C   UNL A   1      32.975  19.185  25.108  1.00  0.00     0.027 C 
ATOM     89  C   UNL A   1      35.284  17.889  24.761  1.00  0.00     0.161 C 
ATOM     90  C   UNL A   1      32.164  17.930  24.836  1.00  0.00     0.018 C 
ATOM     91  S   UNL A   1      34.362  16.416  24.446  1.00  0.00     0.152 S 
ATOM     92  C   UNL A   1      32.863  16.693  25.357  1.00  0.00     0.137 C 
ATOM     93  O   UNL A   1      35.057  15.310  25.077  1.00  0.00    -0.229 OA
ATOM     94  O   UNL A   1      34.035  16.377  23.034  1.00  0.00    -0.229 OA
ENDBRANCH  85  87
ENDBRANCH  83  85
ENDBRANCH  75  77
ENDBRANCH  74  75
ENDBRANCH  73  74
ENDBRANCH  72  73
ENDBRANCH  71  72
ENDBRANCH   1  71
TORSDOF 19
ENDMDL
MODEL 2
REMARK VINA RESULT:     -11.3      4.356     10.902
REMARK SMILES O=C(OCCOCCOC(=O)c1ccc(N[C@@H]2CCCS(=O)(=O)C2)c(F)c1F)c1ccc(-c2c3nc(c(-c4cc(S(=O)(=O)[O-])ccc4F)c4ccc([nH]4)c(-c4cc(S(=O)(=O)[O-])ccc4F)c4nc(c(-c5cc(S(=O)(=O)[O-])ccc5F)c5ccc2[nH]5)C=C4)C=C3)cc1
REMARK SMILES IDX 5 1 4 2 3 3 2 4 1 5 29 6 30 7 91 8 31 9 90 10 32 11 33 12
REMARK SMILES IDX 34 13 84 14 35 15 89 16 83 17 85 18 36 19 88 20 82 21 81 22
REMARK SMILES IDX 37 24 69 25 49 26 68 27 50 28 53 29 67 30 86 31 51 32 52 33
REMARK SMILES IDX 66 35 87 36 54 37 38 38 39 39 47 40 40 41 46 42 48 43 45 44
REMARK SMILES IDX 41 45 42 46 43 47 44 48 70 49 71 50 79 51 72 52 78 53 80 54
REMARK SMILES IDX 77 55 73 56 74 57 75 58 76 59 55 60 56 61 64 62 57 63 63 64
REMARK SMILES IDX 65 65 62 66 58 67 59 68 60 69 61 70 6 71 7 72 8 73 9 74
REMARK SMILES IDX 10 75 11 76 12 77 13 78 27 79 14 80 25 81 28 82 15 83 26 84
REMARK SMILES IDX 16 85 17 87 18 88 24 89 19 90 21 91 20 92 22 93 23 94
REMARK H PARENT 85 23 53 34 16 86
REMARK Flexibility Score: inf
ROOT
ATOM      1  C   UNL A   1      33.447  34.739  28.769  1.00  0.00     0.202 C 
ENDROOT
BRANCH   1   2
ATOM      2  C   UNL A   1      34.627  33.787  28.569  1.00  0.00     0.261 C 
BRANCH   2   3
ATOM      3  O   UNL A   1      34.292  32.804  27.575  1.00  0.00    -0.460 OA
BRANCH   3   4
ATOM      4  C   UNL A   1      34.479  31.465  27.629  1.00  0.00     0.338 C 
ATOM      5  O   UNL A   1      33.611  30.735  27.153  1.00  0.00    -0.246 OA
BRANCH   4   6
ATOM      6  C   UNL A   1      35.670  30.820  28.260  1.00  0.00     0.060 A 
ATOM      7  C   UNL A   1      35.619  29.847  29.260  1.00  0.00     0.016 A 
ATOM      8  C   UNL A   1      36.926  31.144  27.719  1.00  0.00     0.016 A 
ATOM      9  C   UNL A   1      36.768  29.246  29.753  1.00  0.00     0.010 A 
ATOM     10  C   UNL A   1      38.086  30.521  28.184  1.00  0.00     0.010 A 
ATOM     11  C   UNL A   1      38.005  29.576  29.213  1.00  0.00    -0.014 A 
BRANCH  11  12
ATOM     12  C   UNL A   1      39.211  28.984  29.813  1.00  0.00     0.031 A 
ATOM     13  C   UNL A   1      39.682  29.523  31.124  1.00  0.00     0.074 A 
ATOM     14  C   UNL A   1      39.800  27.933  29.218  1.00  0.00     0.049 A 
ATOM     15  N   UNL A   1      40.764  29.246  31.793  1.00  0.00    -0.248 NA
ATOM     16  C   UNL A   1      38.803  30.512  31.765  1.00  0.00     0.031 C 
ATOM     17  C   UNL A   1      39.317  27.279  27.999  1.00  0.00     0.029 A 
ATOM     18  N   UNL A   1      40.921  27.227  29.557  1.00  0.00    -0.354 N 
ATOM     19  C   UNL A   1      40.715  30.048  32.928  1.00  0.00     0.074 A 
ATOM     20  C   UNL A   1      39.499  30.828  32.843  1.00  0.00     0.031 C 
ATOM     21  C   UNL A   1      40.148  26.273  27.686  1.00  0.00     0.029 A 
ATOM     22  C   UNL A   1      41.253  26.258  28.638  1.00  0.00     0.049 A 
ATOM     23  H   UNL A   1      41.440  27.395  30.377  1.00  0.00     0.167 HD
ATOM     24  C   UNL A   1      41.620  30.125  33.933  1.00  0.00     0.034 A 
ATOM     25  C   UNL A   1      42.359  25.495  28.552  1.00  0.00     0.034 A 
ATOM     26  C   UNL A   1      42.833  29.346  33.943  1.00  0.00     0.049 A 
ATOM     27  C   UNL A   1      43.407  25.667  29.622  1.00  0.00     0.074 A 
ATOM     28  C   UNL A   1      43.876  29.368  34.849  1.00  0.00     0.029 A 
ATOM     29  N   UNL A   1      43.167  28.402  32.974  1.00  0.00    -0.354 N 
ATOM     30  N   UNL A   1      43.397  26.475  30.659  1.00  0.00    -0.248 NA
ATOM     31  C   UNL A   1      44.613  24.842  29.511  1.00  0.00     0.031 C 
ATOM     32  C   UNL A   1      44.866  28.489  34.392  1.00  0.00     0.029 A 
ATOM     33  C   UNL A   1      44.412  27.859  33.241  1.00  0.00     0.049 A 
ATOM     34  H   UNL A   1      42.599  28.156  32.208  1.00  0.00     0.167 HD
ATOM     35  C   UNL A   1      44.591  26.250  31.333  1.00  0.00     0.074 A 
ATOM     36  C   UNL A   1      45.290  25.217  30.589  1.00  0.00     0.031 C 
ATOM     37  C   UNL A   1      45.072  26.836  32.460  1.00  0.00     0.034 A 
BRANCH  24  38
ATOM     38  C   UNL A   1      41.359  31.165  34.996  1.00  0.00     0.023 A 
ATOM     39  C   UNL A   1      40.270  31.065  35.884  1.00  0.00     0.031 A 
ATOM     40  C   UNL A   1      42.123  32.345  35.027  1.00  0.00     0.131 A 
ATOM     41  C   UNL A   1      39.910  32.168  36.676  1.00  0.00     0.055 A 
ATOM     42  C   UNL A   1      41.813  33.403  35.886  1.00  0.00     0.041 A 
ATOM     43  F   UNL A   1      43.153  32.515  34.184  1.00  0.00    -0.206 F 
ATOM     44  C   UNL A   1      40.686  33.328  36.699  1.00  0.00     0.022 A 
BRANCH  41  45
ATOM     45  S   UNL A   1      38.296  32.144  37.510  1.00  0.00     0.124 S 
ATOM     46  O   UNL A   1      37.625  33.284  36.889  1.00  0.00    -0.237 OA
ATOM     47  O   UNL A   1      37.778  30.828  37.158  1.00  0.00    -0.237 OA
ATOM     48  O   UNL A   1      38.635  32.326  38.920  1.00  0.00    -0.744 OA
ENDBRANCH  41  45
ENDBRANCH  24  38
BRANCH  25  49
ATOM     49  C   UNL A   1      42.558  24.596  27.379  1.00  0.00     0.023 A 
ATOM     50  C   UNL A   1      42.115  23.265  27.378  1.00  0.00     0.031 A 
ATOM     51  C   UNL A   1      43.198  25.076  26.218  1.00  0.00     0.131 A 
ATOM     52  C   UNL A   1      42.329  22.458  26.247  1.00  0.00     0.055 A 
ATOM     53  C   UNL A   1      43.366  24.284  25.081  1.00  0.00     0.041 A 
ATOM     54  F   UNL A   1      43.644  26.341  26.163  1.00  0.00    -0.206 F 
ATOM     55  C   UNL A   1      42.936  22.963  25.095  1.00  0.00     0.022 A 
BRANCH  52  56
ATOM     56  S   UNL A   1      41.846  20.709  26.313  1.00  0.00     0.124 S 
ATOM     57  O   UNL A   1      42.169  20.362  27.693  1.00  0.00    -0.237 OA
ATOM     58  O   UNL A   1      40.426  20.772  25.982  1.00  0.00    -0.237 OA
ATOM     59  O   UNL A   1      42.691  20.082  25.299  1.00  0.00    -0.744 OA
ENDBRANCH  52  56
ENDBRANCH  25  49
BRANCH  37  60
ATOM     60  C   UNL A   1      46.401  26.339  32.963  1.00  0.00     0.023 A 
ATOM     61  C   UNL A   1      46.497  25.204  33.785  1.00  0.00     0.031 A 
ATOM     62  C   UNL A   1      47.584  26.996  32.587  1.00  0.00     0.131 A 
ATOM     63  C   UNL A   1      47.755  24.779  34.234  1.00  0.00     0.055 A 
ATOM     64  C   UNL A   1      48.836  26.540  32.996  1.00  0.00     0.041 A 
ATOM     65  F   UNL A   1      47.540  28.085  31.802  1.00  0.00    -0.206 F 
ATOM     66  C   UNL A   1      48.926  25.428  33.829  1.00  0.00     0.022 A 
BRANCH  63  67
ATOM     67  S   UNL A   1      47.842  23.391  35.397  1.00  0.00     0.124 S 
ATOM     68  O   UNL A   1      49.267  23.078  35.387  1.00  0.00    -0.237 OA
ATOM     69  O   UNL A   1      47.326  23.980  36.629  1.00  0.00    -0.237 OA
ATOM     70  O   UNL A   1      46.981  22.379  34.788  1.00  0.00    -0.744 OA
ENDBRANCH  63  67
ENDBRANCH  37  60
ENDBRANCH  11  12
ENDBRANCH   4   6
ENDBRANCH   3   4
ENDBRANCH   2   3
ENDBRANCH   1   2
BRANCH   1  71
ATOM     71  O   UNL A   1      32.858  34.701  30.066  1.00  0.00    -0.374 OA
BRANCH  71  72
ATOM     72  C   UNL A   1      33.316  35.672  31.013  1.00  0.00     0.202 C 
BRANCH  72  73
ATOM     73  C   UNL A   1      33.918  34.930  32.213  1.00  0.00     0.261 C 
BRANCH  73  74
ATOM     74  O   UNL A   1      35.346  35.052  32.125  1.00  0.00    -0.460 OA
BRANCH  74  75
ATOM     75  C   UNL A   1      36.039  33.940  32.493  1.00  0.00     0.341 C 
ATOM     76  O   UNL A   1      35.603  32.949  33.047  1.00  0.00    -0.246 OA
BRANCH  75  77
ATOM     77  C   UNL A   1      37.396  34.095  31.940  1.00  0.00     0.099 A 
ATOM     78  C   UNL A   1      37.633  33.811  30.595  1.00  0.00     0.021 A 
ATOM     79  C   UNL A   1      38.467  34.409  32.771  1.00  0.00     0.175 A 
ATOM     80  C   UNL A   1      38.931  33.834  30.095  1.00  0.00     0.030 A 
ATOM     81  C   UNL A   1      39.765  34.421  32.257  1.00  0.00     0.182 A 
ATOM     82  F   UNL A   1      38.288  34.652  34.078  1.00  0.00    -0.203 F 
ATOM     83  C   UNL A   1      40.030  34.151  30.904  1.00  0.00     0.074 A 
ATOM     84  F   UNL A   1      40.793  34.707  33.075  1.00  0.00    -0.201 F 
BRANCH  83  85
ATOM     85  N   UNL A   1      41.328  34.255  30.415  1.00  0.00    -0.379 N 
ATOM     86  H   UNL A   1      41.744  35.147  30.432  1.00  0.00     0.160 HD
BRANCH  85  87
ATOM     87  C   UNL A   1      42.134  33.149  29.872  1.00  0.00     0.094 C 
ATOM     88  C   UNL A   1      42.677  32.306  31.053  1.00  0.00     0.027 C 
ATOM     89  C   UNL A   1      43.086  33.681  28.800  1.00  0.00     0.161 C 
ATOM     90  C   UNL A   1      43.822  31.356  30.747  1.00  0.00     0.018 C 
ATOM     91  S   UNL A   1      44.424  32.591  28.426  1.00  0.00     0.152 S 
ATOM     92  C   UNL A   1      44.956  32.061  30.035  1.00  0.00     0.137 C 
ATOM     93  O   UNL A   1      45.496  33.381  27.851  1.00  0.00    -0.229 OA
ATOM     94  O   UNL A   1      43.891  31.441  27.722  1.00  0.00    -0.229 OA
ENDBRANCH  85  87
ENDBRANCH  83  85
ENDBRANCH  75  77
ENDBRANCH  74  75
ENDBRANCH  73  74
ENDBRANCH  72  73
ENDBRANCH  71  72
ENDBRANCH   1  71
TORSDOF 19
ENDMDL
MODEL 3
REMARK VINA RESULT:     -11.0      2.206      2.518
REMARK SMILES O=C(OCCOCCOC(=O)c1ccc(N[C@@H]2CCCS(=O)(=O)C2)c(F)c1F)c1ccc(-c2c3nc(c(-c4cc(S(=O)(=O)[O-])ccc4F)c4ccc([nH]4)c(-c4cc(S(=O)(=O)[O-])ccc4F)c4nc(c(-c5cc(S(=O)(=O)[O-])ccc5F)c5ccc2[nH]5)C=C4)C=C3)cc1
REMARK SMILES IDX 5 1 4 2 3 3 2 4 1 5 29 6 30 7 91 8 31 9 90 10 32 11 33 12
REMARK SMILES IDX 34 13 84 14 35 15 89 16 83 17 85 18 36 19 88 20 82 21 81 22
REMARK SMILES IDX 37 24 69 25 49 26 68 27 50 28 53 29 67 30 86 31 51 32 52 33
REMARK SMILES IDX 66 35 87 36 54 37 38 38 39 39 47 40 40 41 46 42 48 43 45 44
REMARK SMILES IDX 41 45 42 46 43 47 44 48 70 49 71 50 79 51 72 52 78 53 80 54
REMARK SMILES IDX 77 55 73 56 74 57 75 58 76 59 55 60 56 61 64 62 57 63 63 64
REMARK SMILES IDX 65 65 62 66 58 67 59 68 60 69 61 70 6 71 7 72 8 73 9 74
REMARK SMILES IDX 10 75 11 76 12 77 13 78 27 79 14 80 25 81 28 82 15 83 26 84
REMARK SMILES IDX 16 85 17 87 18 88 24 89 19 90 21 91 20 92 22 93 23 94
REMARK H PARENT 85 23 53 34 16 86
REMARK Flexibility Score: inf
ROOT
ATOM      1  C   UNL A   1      31.478  28.525  26.045  1.00  0.00     0.202 C 
ENDROOT
BRANCH   1   2
ATOM      2  C   UNL A   1      31.524  30.020  26.358  1.00  0.00     0.261 C 
BRANCH   2   3
ATOM      3  O   UNL A   1      32.884  30.483  26.319  1.00  0.00    -0.460 OA
BRANCH   3   4
ATOM      4  C   UNL A   1      33.481  31.390  27.125  1.00  0.00     0.338 C 
ATOM      5  O   UNL A   1      32.935  32.482  27.277  1.00  0.00    -0.246 OA
BRANCH   4   6
ATOM      6  C   UNL A   1      34.781  31.152  27.821  1.00  0.00     0.060 A 
ATOM      7  C   UNL A   1      35.775  32.114  28.013  1.00  0.00     0.016 A 
ATOM      8  C   UNL A   1      34.957  29.893  28.418  1.00  0.00     0.016 A 
ATOM      9  C   UNL A   1      36.931  31.835  28.727  1.00  0.00     0.010 A 
ATOM     10  C   UNL A   1      36.102  29.612  29.168  1.00  0.00     0.010 A 
ATOM     11  C   UNL A   1      37.097  30.586  29.311  1.00  0.00    -0.014 A 
BRANCH  11  12
ATOM     12  C   UNL A   1      38.369  30.293  29.990  1.00  0.00     0.031 A 
ATOM     13  C   UNL A   1      39.328  29.365  29.319  1.00  0.00     0.074 A 
ATOM     14  C   UNL A   1      38.669  30.924  31.138  1.00  0.00     0.049 A 
ATOM     15  N   UNL A   1      40.451  28.873  29.758  1.00  0.00    -0.248 NA
ATOM     16  C   UNL A   1      38.963  28.937  27.960  1.00  0.00     0.031 C 
ATOM     17  C   UNL A   1      37.829  31.936  31.784  1.00  0.00     0.029 A 
ATOM     18  N   UNL A   1      39.757  30.817  31.959  1.00  0.00    -0.354 N 
ATOM     19  C   UNL A   1      40.920  28.051  28.740  1.00  0.00     0.074 A 
ATOM     20  C   UNL A   1      39.949  28.106  27.669  1.00  0.00     0.031 C 
ATOM     21  C   UNL A   1      38.431  32.348  32.910  1.00  0.00     0.029 A 
ATOM     22  C   UNL A   1      39.657  31.581  33.099  1.00  0.00     0.049 A 
ATOM     23  H   UNL A   1      40.536  30.250  31.755  1.00  0.00     0.167 HD
ATOM     24  C   UNL A   1      42.055  27.311  28.724  1.00  0.00     0.034 A 
ATOM     25  C   UNL A   1      40.441  31.603  34.193  1.00  0.00     0.034 A 
ATOM     26  C   UNL A   1      42.968  27.270  29.839  1.00  0.00     0.049 A 
ATOM     27  C   UNL A   1      41.644  30.694  34.204  1.00  0.00     0.074 A 
ATOM     28  C   UNL A   1      44.114  26.515  30.000  1.00  0.00     0.029 A 
ATOM     29  N   UNL A   1      42.818  28.021  31.004  1.00  0.00    -0.354 N 
ATOM     30  N   UNL A   1      42.054  29.862  33.272  1.00  0.00    -0.248 NA
ATOM     31  C   UNL A   1      42.483  30.715  35.406  1.00  0.00     0.031 C 
ATOM     32  C   UNL A   1      44.617  26.760  31.284  1.00  0.00     0.029 A 
ATOM     33  C   UNL A   1      43.831  27.724  31.900  1.00  0.00     0.049 A 
ATOM     34  H   UNL A   1      42.095  28.669  31.166  1.00  0.00     0.167 HD
ATOM     35  C   UNL A   1      43.206  29.266  33.770  1.00  0.00     0.074 A 
ATOM     36  C   UNL A   1      43.432  29.848  35.081  1.00  0.00     0.031 C 
ATOM     37  C   UNL A   1      44.006  28.325  33.203  1.00  0.00     0.034 A 
BRANCH  24  38
ATOM     38  C   UNL A   1      42.264  26.425  27.519  1.00  0.00     0.023 A 
ATOM     39  C   UNL A   1      41.925  25.058  27.532  1.00  0.00     0.031 A 
ATOM     40  C   UNL A   1      42.944  26.920  26.392  1.00  0.00     0.131 A 
ATOM     41  C   UNL A   1      42.370  24.217  26.499  1.00  0.00     0.055 A 
ATOM     42  C   UNL A   1      43.301  26.095  25.323  1.00  0.00     0.041 A 
ATOM     43  F   UNL A   1      43.322  28.207  26.333  1.00  0.00    -0.206 F 
ATOM     44  C   UNL A   1      43.036  24.729  25.384  1.00  0.00     0.022 A 
BRANCH  41  45
ATOM     45  S   UNL A   1      42.254  22.420  26.735  1.00  0.00     0.124 S 
ATOM     46  O   UNL A   1      43.620  21.994  26.438  1.00  0.00    -0.237 OA
ATOM     47  O   UNL A   1      41.838  22.310  28.128  1.00  0.00    -0.237 OA
ATOM     48  O   UNL A   1      41.256  22.007  25.750  1.00  0.00    -0.744 OA
ENDBRANCH  41  45
ENDBRANCH  24  38
BRANCH  25  49
ATOM     49  C   UNL A   1      40.054  32.427  35.374  1.00  0.00     0.023 A 
ATOM     50  C   UNL A   1      40.473  33.758  35.521  1.00  0.00     0.031 A 
ATOM     51  C   UNL A   1      39.235  31.881  36.383  1.00  0.00     0.131 A 
ATOM     52  C   UNL A   1      40.082  34.493  36.655  1.00  0.00     0.055 A 
ATOM     53  C   UNL A   1      38.812  32.629  37.483  1.00  0.00     0.041 A 
ATOM     54  F   UNL A   1      38.806  30.612  36.296  1.00  0.00    -0.206 F 
ATOM     55  C   UNL A   1      39.243  33.942  37.626  1.00  0.00     0.022 A 
BRANCH  52  56
ATOM     56  S   UNL A   1      40.727  36.175  36.875  1.00  0.00     0.124 S 
ATOM     57  O   UNL A   1      42.156  35.978  36.655  1.00  0.00    -0.237 OA
ATOM     58  O   UNL A   1      40.014  36.913  35.839  1.00  0.00    -0.237 OA
ATOM     59  O   UNL A   1      40.349  36.509  38.247  1.00  0.00    -0.744 OA
ENDBRANCH  52  56
ENDBRANCH  25  49
BRANCH  37  60
ATOM     60  C   UNL A   1      45.216  27.905  33.995  1.00  0.00     0.023 A 
ATOM     61  C   UNL A   1      46.446  28.571  33.867  1.00  0.00     0.031 A 
ATOM     62  C   UNL A   1      45.120  26.843  34.910  1.00  0.00     0.131 A 
ATOM     63  C   UNL A   1      47.546  28.142  34.622  1.00  0.00     0.055 A 
ATOM     64  C   UNL A   1      46.205  26.453  35.694  1.00  0.00     0.041 A 
ATOM     65  F   UNL A   1      43.964  26.178  35.065  1.00  0.00    -0.206 F 
ATOM     66  C   UNL A   1      47.428  27.100  35.548  1.00  0.00     0.022 A 
BRANCH  63  67
ATOM     67  S   UNL A   1      49.154  28.933  34.345  1.00  0.00     0.124 S 
ATOM     68  O   UNL A   1      49.821  27.966  33.480  1.00  0.00    -0.237 OA
ATOM     69  O   UNL A   1      48.779  30.197  33.720  1.00  0.00    -0.237 OA
ATOM     70  O   UNL A   1      49.714  29.051  35.690  1.00  0.00    -0.744 OA
ENDBRANCH  63  67
ENDBRANCH  37  60
ENDBRANCH  11  12
ENDBRANCH   4   6
ENDBRANCH   3   4
ENDBRANCH   2   3
ENDBRANCH   1   2
BRANCH   1  71
ATOM     71  O   UNL A   1      32.117  28.146  24.828  1.00  0.00    -0.374 OA
BRANCH  71  72
ATOM     72  C   UNL A   1      31.269  27.910  23.699  1.00  0.00     0.202 C 
BRANCH  72  73
ATOM     73  C   UNL A   1      31.419  26.443  23.281  1.00  0.00     0.261 C 
BRANCH  73  74
ATOM     74  O   UNL A   1      32.657  25.962  23.829  1.00  0.00    -0.460 OA
BRANCH  74  75
ATOM     75  C   UNL A   1      33.508  25.409  22.921  1.00  0.00     0.341 C 
ATOM     76  O   UNL A   1      34.004  25.949  21.951  1.00  0.00    -0.246 OA
BRANCH  75  77
ATOM     77  C   UNL A   1      33.847  24.070  23.433  1.00  0.00     0.099 A 
ATOM     78  C   UNL A   1      33.223  22.944  22.895  1.00  0.00     0.021 A 
ATOM     79  C   UNL A   1      34.696  23.925  24.525  1.00  0.00     0.175 A 
ATOM     80  C   UNL A   1      33.444  21.689  23.455  1.00  0.00     0.030 A 
ATOM     81  C   UNL A   1      34.903  22.661  25.081  1.00  0.00     0.182 A 
ATOM     82  F   UNL A   1      35.287  24.985  25.095  1.00  0.00    -0.203 F 
ATOM     83  C   UNL A   1      34.296  21.509  24.553  1.00  0.00     0.074 A 
ATOM     84  F   UNL A   1      35.711  22.537  26.149  1.00  0.00    -0.201 F 
BRANCH  83  85
ATOM     85  N   UNL A   1      34.594  20.259  25.085  1.00  0.00    -0.379 N 
ATOM     86  H   UNL A   1      35.211  20.232  25.852  1.00  0.00     0.160 HD
BRANCH  85  87
ATOM     87  C   UNL A   1      34.068  18.971  24.602  1.00  0.00     0.094 C 
ATOM     88  C   UNL A   1      32.692  18.717  25.268  1.00  0.00     0.027 C 
ATOM     89  C   UNL A   1      35.165  17.909  24.666  1.00  0.00     0.161 C 
ATOM     90  C   UNL A   1      32.152  17.299  25.207  1.00  0.00     0.018 C 
ATOM     91  S   UNL A   1      34.561  16.251  24.594  1.00  0.00     0.152 S 
ATOM     92  C   UNL A   1      33.172  16.294  25.699  1.00  0.00     0.137 C 
ATOM     93  O   UNL A   1      35.562  15.384  25.186  1.00  0.00    -0.229 OA
ATOM     94  O   UNL A   1      34.067  16.004  23.253  1.00  0.00    -0.229 OA
ENDBRANCH  85  87
ENDBRANCH  83  85
ENDBRANCH  75  77
ENDBRANCH  74  75
ENDBRANCH  73  74
ENDBRANCH  72  73
ENDBRANCH  71  72
ENDBRANCH   1  71
TORSDOF 19
ENDMDL
