MODEL 1
REMARK VINA RESULT:     -11.2      0.000      0.000
REMARK SMILES Cc1nc(C[C@@H](C(=O)OCCOCCOC(=O)c2ccc(-c3c4nc(c(-c5cc(S(=O)(=O)[O-])ccc5F)c5ccc([nH]5)c(-c5cc(S(=O)(=O)[O-])ccc5F)c5nc(c(-c6cc(S(=O)(=O)[O-])ccc6F)c6ccc3[nH]6)C=C5)C=C4)cc2)[C@@H]2CCS(=O)(=O)C2)sc1C
REMARK SMILES IDX 13 1 12 2 11 3 10 4 9 5 7 6 8 7 6 8 5 9 4 10 1 11 2 12 3 13
REMARK SMILES IDX 89 14 88 15 90 16 81 17 82 18 87 19 83 20 84 21 85 22 86 23
REMARK SMILES IDX 14 24 15 25 16 26 17 27 18 28 19 29 80 30 20 31 79 32 21 33
REMARK SMILES IDX 22 34 23 35 73 36 24 37 78 38 72 39 74 40 25 41 77 42 71 43
REMARK SMILES IDX 70 44 26 46 58 47 38 48 57 49 39 50 42 51 56 52 75 53 40 54
REMARK SMILES IDX 41 55 55 57 76 58 43 59 27 60 28 61 36 62 29 63 35 64 37 65
REMARK SMILES IDX 34 66 30 67 31 68 32 69 33 70 59 71 60 72 68 73 61 74 67 75
REMARK SMILES IDX 69 76 66 77 62 78 63 79 64 80 65 81 44 82 45 83 53 84 46 85
REMARK SMILES IDX 52 86 54 87 51 88 47 89 48 90 49 91 50 92
REMARK H PARENT 74 45 42 56
REMARK Flexibility Score: inf
ROOT
ATOM      1  C   UNL A   1      37.745  19.795  24.950  1.00  0.00     0.202 C 
ENDROOT
BRANCH   1   2
ATOM      2  O   UNL A   1      37.286  21.138  24.825  1.00  0.00    -0.374 OA
BRANCH   2   3
ATOM      3  C   UNL A   1      36.429  21.585  25.884  1.00  0.00     0.202 C 
BRANCH   3   4
ATOM      4  C   UNL A   1      35.787  22.955  25.633  1.00  0.00     0.261 C 
BRANCH   4   5
ATOM      5  O   UNL A   1      34.351  22.849  25.661  1.00  0.00    -0.463 OA
BRANCH   5   6
ATOM      6  C   UNL A   1      33.768  22.162  24.669  1.00  0.00     0.309 C 
ATOM      7  O   UNL A   1      34.088  22.288  23.496  1.00  0.00    -0.252 OA
BRANCH   6   8
ATOM      8  C   UNL A   1      32.616  21.255  25.112  1.00  0.00     0.110 C 
BRANCH   8   9
ATOM      9  C   UNL A   1      32.253  20.047  24.200  1.00  0.00     0.083 C 
BRANCH   9  10
ATOM     10  C   UNL A   1      32.821  18.711  24.593  1.00  0.00     0.094 A 
ATOM     11  C   UNL A   1      32.180  15.383  25.749  1.00  0.00     0.068 C 
ATOM     12  C   UNL A   1      32.880  16.627  25.345  1.00  0.00     0.051 A 
ATOM     13  N   UNL A   1      32.118  17.758  25.153  1.00  0.00    -0.246 NA
ATOM     14  C   UNL A   1      34.231  16.800  25.111  1.00  0.00     0.024 A 
ATOM     15  S   UNL A   1      34.503  18.371  24.471  1.00  0.00    -0.124 S 
ATOM     16  C   UNL A   1      35.340  15.829  25.315  1.00  0.00     0.058 C 
ENDBRANCH   9  10
ENDBRANCH   8   9
BRANCH   8  17
ATOM     17  C   UNL A   1      31.313  22.123  25.333  1.00  0.00     0.020 C 
ATOM     18  C   UNL A   1      30.949  23.120  24.200  1.00  0.00     0.021 C 
ATOM     19  C   UNL A   1      31.263  22.888  26.678  1.00  0.00     0.141 C 
ATOM     20  C   UNL A   1      31.392  24.531  24.572  1.00  0.00     0.137 C 
ATOM     21  S   UNL A   1      31.106  24.638  26.322  1.00  0.00     0.150 S 
ATOM     22  O   UNL A   1      32.168  25.382  26.964  1.00  0.00    -0.229 OA
ATOM     23  O   UNL A   1      29.713  25.004  26.512  1.00  0.00    -0.229 OA
ENDBRANCH   8  17
ENDBRANCH   6   8
ENDBRANCH   5   6
ENDBRANCH   4   5
ENDBRANCH   3   4
ENDBRANCH   2   3
ENDBRANCH   1   2
BRANCH   1  24
ATOM     24  C   UNL A   1      39.195  19.625  25.412  1.00  0.00     0.261 C 
BRANCH  24  25
ATOM     25  O   UNL A   1      39.763  20.888  25.784  1.00  0.00    -0.460 OA
BRANCH  25  26
ATOM     26  C   UNL A   1      40.557  20.840  26.879  1.00  0.00     0.338 C 
ATOM     27  O   UNL A   1      41.134  19.860  27.321  1.00  0.00    -0.246 OA
BRANCH  26  28
ATOM     28  C   UNL A   1      40.794  22.212  27.377  1.00  0.00     0.060 A 
ATOM     29  C   UNL A   1      40.061  23.244  26.779  1.00  0.00     0.016 A 
ATOM     30  C   UNL A   1      41.699  22.490  28.405  1.00  0.00     0.016 A 
ATOM     31  C   UNL A   1      40.261  24.565  27.174  1.00  0.00     0.010 A 
ATOM     32  C   UNL A   1      41.899  23.816  28.801  1.00  0.00     0.010 A 
ATOM     33  C   UNL A   1      41.204  24.863  28.165  1.00  0.00    -0.014 A 
BRANCH  33  34
ATOM     34  C   UNL A   1      41.596  26.275  28.403  1.00  0.00     0.031 A 
ATOM     35  C   UNL A   1      42.969  26.710  27.971  1.00  0.00     0.074 A 
ATOM     36  C   UNL A   1      40.744  27.158  28.957  1.00  0.00     0.049 A 
ATOM     37  N   UNL A   1      43.552  27.872  28.097  1.00  0.00    -0.248 NA
ATOM     38  C   UNL A   1      43.799  25.686  27.313  1.00  0.00     0.031 C 
ATOM     39  C   UNL A   1      39.372  26.869  29.370  1.00  0.00     0.029 A 
ATOM     40  N   UNL A   1      40.914  28.483  29.275  1.00  0.00    -0.354 N 
ATOM     41  C   UNL A   1      44.815  27.722  27.534  1.00  0.00     0.074 A 
ATOM     42  C   UNL A   1      44.933  26.340  27.122  1.00  0.00     0.031 C 
ATOM     43  C   UNL A   1      38.831  27.978  29.906  1.00  0.00     0.029 A 
ATOM     44  C   UNL A   1      39.822  29.051  29.890  1.00  0.00     0.049 A 
ATOM     45  H   UNL A   1      41.741  28.981  29.079  1.00  0.00     0.167 HD
ATOM     46  C   UNL A   1      45.780  28.656  27.354  1.00  0.00     0.034 A 
ATOM     47  C   UNL A   1      39.649  30.292  30.390  1.00  0.00     0.034 A 
ATOM     48  C   UNL A   1      45.648  30.030  27.767  1.00  0.00     0.049 A 
ATOM     49  C   UNL A   1      40.772  31.297  30.252  1.00  0.00     0.074 A 
ATOM     50  C   UNL A   1      46.555  31.064  27.621  1.00  0.00     0.029 A 
ATOM     51  N   UNL A   1      44.541  30.561  28.415  1.00  0.00    -0.354 N 
ATOM     52  N   UNL A   1      41.953  31.146  29.697  1.00  0.00    -0.248 NA
ATOM     53  C   UNL A   1      40.528  32.642  30.790  1.00  0.00     0.031 C 
ATOM     54  C   UNL A   1      46.025  32.202  28.239  1.00  0.00     0.029 A 
ATOM     55  C   UNL A   1      44.754  31.899  28.702  1.00  0.00     0.049 A 
ATOM     56  H   UNL A   1      43.723  30.059  28.636  1.00  0.00     0.167 HD
ATOM     57  C   UNL A   1      42.573  32.392  29.782  1.00  0.00     0.074 A 
ATOM     58  C   UNL A   1      41.634  33.280  30.433  1.00  0.00     0.031 C 
ATOM     59  C   UNL A   1      43.805  32.770  29.352  1.00  0.00     0.034 A 
BRANCH  46  60
ATOM     60  C   UNL A   1      47.071  28.200  26.722  1.00  0.00     0.023 A 
ATOM     61  C   UNL A   1      47.248  28.194  25.327  1.00  0.00     0.031 A 
ATOM     62  C   UNL A   1      48.123  27.723  27.523  1.00  0.00     0.131 A 
ATOM     63  C   UNL A   1      48.417  27.652  24.773  1.00  0.00     0.055 A 
ATOM     64  C   UNL A   1      49.317  27.260  26.967  1.00  0.00     0.041 A 
ATOM     65  F   UNL A   1      48.000  27.680  28.858  1.00  0.00    -0.206 F 
ATOM     66  C   UNL A   1      49.464  27.208  25.584  1.00  0.00     0.022 A 
BRANCH  63  67
ATOM     67  S   UNL A   1      48.488  27.398  22.978  1.00  0.00     0.124 S 
ATOM     68  O   UNL A   1      48.365  25.946  22.882  1.00  0.00    -0.237 OA
ATOM     69  O   UNL A   1      47.344  28.169  22.506  1.00  0.00    -0.237 OA
ATOM     70  O   UNL A   1      49.798  27.932  22.609  1.00  0.00    -0.744 OA
ENDBRANCH  63  67
ENDBRANCH  46  60
BRANCH  47  71
ATOM     71  C   UNL A   1      38.386  30.665  31.091  1.00  0.00     0.023 A 
ATOM     72  C   UNL A   1      37.357  31.349  30.423  1.00  0.00     0.031 A 
ATOM     73  C   UNL A   1      38.223  30.411  32.465  1.00  0.00     0.131 A 
ATOM     74  C   UNL A   1      36.242  31.810  31.140  1.00  0.00     0.055 A 
ATOM     75  C   UNL A   1      37.086  30.824  33.163  1.00  0.00     0.041 A 
ATOM     76  F   UNL A   1      39.174  29.759  33.153  1.00  0.00    -0.206 F 
ATOM     77  C   UNL A   1      36.095  31.543  32.503  1.00  0.00     0.022 A 
BRANCH  74  78
ATOM     78  S   UNL A   1      35.034  32.860  30.285  1.00  0.00     0.124 S 
ATOM     79  O   UNL A   1      34.115  33.194  31.366  1.00  0.00    -0.237 OA
ATOM     80  O   UNL A   1      35.874  33.947  29.795  1.00  0.00    -0.237 OA
ATOM     81  O   UNL A   1      34.491  31.979  29.253  1.00  0.00    -0.744 OA
ENDBRANCH  74  78
ENDBRANCH  47  71
BRANCH  59  82
ATOM     82  C   UNL A   1      44.178  34.222  29.523  1.00  0.00     0.023 A 
ATOM     83  C   UNL A   1      43.946  35.173  28.515  1.00  0.00     0.031 A 
ATOM     84  C   UNL A   1      44.774  34.658  30.721  1.00  0.00     0.131 A 
ATOM     85  C   UNL A   1      44.354  36.503  28.703  1.00  0.00     0.055 A 
ATOM     86  C   UNL A   1      45.122  35.994  30.925  1.00  0.00     0.041 A 
ATOM     87  F   UNL A   1      45.019  33.793  31.717  1.00  0.00    -0.206 F 
ATOM     88  C   UNL A   1      44.923  36.923  29.907  1.00  0.00     0.022 A 
BRANCH  85  89
ATOM     89  S   UNL A   1      44.204  37.663  27.317  1.00  0.00     0.124 S 
ATOM     90  O   UNL A   1      44.069  38.943  28.005  1.00  0.00    -0.237 OA
ATOM     91  O   UNL A   1      45.457  37.456  26.598  1.00  0.00    -0.237 OA
ATOM     92  O   UNL A   1      43.005  37.208  26.615  1.00  0.00    -0.744 OA
ENDBRANCH  85  89
ENDBRANCH  59  82
ENDBRANCH  33  34
ENDBRANCH  26  28
ENDBRANCH  25  26
ENDBRANCH  24  25
ENDBRANCH   1  24
TORSDOF 20
ENDMDL
MODEL 2
REMARK VINA RESULT:     -11.2      2.622      4.385
REMARK SMILES Cc1nc(C[C@@H](C(=O)OCCOCCOC(=O)c2ccc(-c3c4nc(c(-c5cc(S(=O)(=O)[O-])ccc5F)c5ccc([nH]5)c(-c5cc(S(=O)(=O)[O-])ccc5F)c5nc(c(-c6cc(S(=O)(=O)[O-])ccc6F)c6ccc3[nH]6)C=C5)C=C4)cc2)[C@@H]2CCS(=O)(=O)C2)sc1C
REMARK SMILES IDX 13 1 12 2 11 3 10 4 9 5 7 6 8 7 6 8 5 9 4 10 1 11 2 12 3 13
REMARK SMILES IDX 89 14 88 15 90 16 81 17 82 18 87 19 83 20 84 21 85 22 86 23
REMARK SMILES IDX 14 24 15 25 16 26 17 27 18 28 19 29 80 30 20 31 79 32 21 33
REMARK SMILES IDX 22 34 23 35 73 36 24 37 78 38 72 39 74 40 25 41 77 42 71 43
REMARK SMILES IDX 70 44 26 46 58 47 38 48 57 49 39 50 42 51 56 52 75 53 40 54
REMARK SMILES IDX 41 55 55 57 76 58 43 59 27 60 28 61 36 62 29 63 35 64 37 65
REMARK SMILES IDX 34 66 30 67 31 68 32 69 33 70 59 71 60 72 68 73 61 74 67 75
REMARK SMILES IDX 69 76 66 77 62 78 63 79 64 80 65 81 44 82 45 83 53 84 46 85
REMARK SMILES IDX 52 86 54 87 51 88 47 89 48 90 49 91 50 92
REMARK H PARENT 74 45 42 56
REMARK Flexibility Score: inf
ROOT
ATOM      1  C   UNL A   1      35.975  21.730  24.647  1.00  0.00     0.202 C 
ENDROOT
BRANCH   1   2
ATOM      2  O   UNL A   1      35.644  22.647  23.608  1.00  0.00    -0.374 OA
BRANCH   2   3
ATOM      3  C   UNL A   1      34.266  22.639  23.211  1.00  0.00     0.202 C 
BRANCH   3   4
ATOM      4  C   UNL A   1      33.458  23.834  23.731  1.00  0.00     0.261 C 
BRANCH   4   5
ATOM      5  O   UNL A   1      34.104  25.071  23.373  1.00  0.00    -0.463 OA
BRANCH   5   6
ATOM      6  C   UNL A   1      33.432  25.902  22.565  1.00  0.00     0.309 C 
ATOM      7  O   UNL A   1      33.570  25.904  21.350  1.00  0.00    -0.252 OA
BRANCH   6   8
ATOM      8  C   UNL A   1      32.525  26.902  23.289  1.00  0.00     0.110 C 
BRANCH   8   9
ATOM      9  C   UNL A   1      32.114  28.193  22.523  1.00  0.00     0.083 C 
BRANCH   9  10
ATOM     10  C   UNL A   1      30.653  28.546  22.530  1.00  0.00     0.094 A 
ATOM     11  C   UNL A   1      28.067  30.715  21.331  1.00  0.00     0.068 C 
ATOM     12  C   UNL A   1      28.791  29.668  22.094  1.00  0.00     0.051 A 
ATOM     13  N   UNL A   1      30.165  29.638  21.993  1.00  0.00    -0.246 NA
ATOM     14  C   UNL A   1      28.253  28.682  22.899  1.00  0.00     0.024 A 
ATOM     15  S   UNL A   1      29.497  27.603  23.387  1.00  0.00    -0.124 S 
ATOM     16  C   UNL A   1      26.835  28.486  23.303  1.00  0.00     0.058 C 
ENDBRANCH   9  10
ENDBRANCH   8   9
BRANCH   8  17
ATOM     17  C   UNL A   1      33.189  27.324  24.659  1.00  0.00     0.020 C 
ATOM     18  C   UNL A   1      32.436  26.902  25.949  1.00  0.00     0.021 C 
ATOM     19  C   UNL A   1      33.535  28.828  24.778  1.00  0.00     0.141 C 
ATOM     20  C   UNL A   1      31.638  28.075  26.507  1.00  0.00     0.137 C 
ATOM     21  S   UNL A   1      32.662  29.494  26.195  1.00  0.00     0.150 S 
ATOM     22  O   UNL A   1      31.852  30.627  25.805  1.00  0.00    -0.229 OA
ATOM     23  O   UNL A   1      33.611  29.592  27.291  1.00  0.00    -0.229 OA
ENDBRANCH   8  17
ENDBRANCH   6   8
ENDBRANCH   5   6
ENDBRANCH   4   5
ENDBRANCH   3   4
ENDBRANCH   2   3
ENDBRANCH   1   2
BRANCH   1  24
ATOM     24  C   UNL A   1      37.448  21.322  24.732  1.00  0.00     0.261 C 
BRANCH  24  25
ATOM     25  O   UNL A   1      37.930  21.427  26.078  1.00  0.00    -0.460 OA
BRANCH  25  26
ATOM     26  C   UNL A   1      39.280  21.438  26.187  1.00  0.00     0.338 C 
ATOM     27  O   UNL A   1      40.057  20.622  25.719  1.00  0.00    -0.246 OA
BRANCH  26  28
ATOM     28  C   UNL A   1      39.713  22.710  26.803  1.00  0.00     0.060 A 
ATOM     29  C   UNL A   1      39.012  23.867  26.444  1.00  0.00     0.016 A 
ATOM     30  C   UNL A   1      40.771  22.778  27.715  1.00  0.00     0.016 A 
ATOM     31  C   UNL A   1      39.391  25.104  26.960  1.00  0.00     0.010 A 
ATOM     32  C   UNL A   1      41.151  24.020  28.232  1.00  0.00     0.010 A 
ATOM     33  C   UNL A   1      40.483  25.193  27.832  1.00  0.00    -0.014 A 
BRANCH  33  34
ATOM     34  C   UNL A   1      41.039  26.526  28.176  1.00  0.00     0.031 A 
ATOM     35  C   UNL A   1      42.467  26.814  27.802  1.00  0.00     0.074 A 
ATOM     36  C   UNL A   1      40.288  27.469  28.774  1.00  0.00     0.049 A 
ATOM     37  N   UNL A   1      43.186  27.883  28.020  1.00  0.00    -0.248 NA
ATOM     38  C   UNL A   1      43.182  25.741  27.089  1.00  0.00     0.031 C 
ATOM     39  C   UNL A   1      38.879  27.327  29.139  1.00  0.00     0.029 A 
ATOM     40  N   UNL A   1      40.611  28.738  29.187  1.00  0.00    -0.354 N 
ATOM     41  C   UNL A   1      44.435  27.615  27.472  1.00  0.00     0.074 A 
ATOM     42  C   UNL A   1      44.393  26.260  26.966  1.00  0.00     0.031 C 
ATOM     43  C   UNL A   1      38.465  28.456  29.742  1.00  0.00     0.029 A 
ATOM     44  C   UNL A   1      39.581  29.396  29.820  1.00  0.00     0.049 A 
ATOM     45  H   UNL A   1      41.498  29.141  29.043  1.00  0.00     0.167 HD
ATOM     46  C   UNL A   1      45.512  28.431  27.377  1.00  0.00     0.034 A 
ATOM     47  C   UNL A   1      39.549  30.612  30.403  1.00  0.00     0.034 A 
ATOM     48  C   UNL A   1      45.540  29.779  27.882  1.00  0.00     0.049 A 
ATOM     49  C   UNL A   1      40.790  31.476  30.357  1.00  0.00     0.074 A 
ATOM     50  C   UNL A   1      46.572  30.699  27.826  1.00  0.00     0.029 A 
ATOM     51  N   UNL A   1      44.489  30.400  28.544  1.00  0.00    -0.354 N 
ATOM     52  N   UNL A   1      41.959  31.216  29.815  1.00  0.00    -0.248 NA
ATOM     53  C   UNL A   1      40.700  32.802  30.983  1.00  0.00     0.031 C 
ATOM     54  C   UNL A   1      46.169  31.850  28.513  1.00  0.00     0.029 A 
ATOM     55  C   UNL A   1      44.858  31.678  28.929  1.00  0.00     0.049 A 
ATOM     56  H   UNL A   1      43.610  29.990  28.715  1.00  0.00     0.167 HD
ATOM     57  C   UNL A   1      42.725  32.366  30.000  1.00  0.00     0.074 A 
ATOM     58  C   UNL A   1      41.886  33.318  30.694  1.00  0.00     0.031 C 
ATOM     59  C   UNL A   1      44.006  32.616  29.621  1.00  0.00     0.034 A 
BRANCH  46  60
ATOM     60  C   UNL A   1      46.754  27.860  26.738  1.00  0.00     0.023 A 
ATOM     61  C   UNL A   1      47.045  28.063  25.377  1.00  0.00     0.031 A 
ATOM     62  C   UNL A   1      47.638  27.066  27.490  1.00  0.00     0.131 A 
ATOM     63  C   UNL A   1      48.145  27.418  24.794  1.00  0.00     0.055 A 
ATOM     64  C   UNL A   1      48.777  26.495  26.921  1.00  0.00     0.041 A 
ATOM     65  F   UNL A   1      47.397  26.818  28.787  1.00  0.00    -0.206 F 
ATOM     66  C   UNL A   1      49.028  26.656  25.562  1.00  0.00     0.022 A 
BRANCH  63  67
ATOM     67  S   UNL A   1      48.322  27.469  22.989  1.00  0.00     0.124 S 
ATOM     68  O   UNL A   1      47.141  28.233  22.600  1.00  0.00    -0.237 OA
ATOM     69  O   UNL A   1      49.605  28.143  22.818  1.00  0.00    -0.237 OA
ATOM     70  O   UNL A   1      48.301  26.059  22.604  1.00  0.00    -0.744 OA
ENDBRANCH  63  67
ENDBRANCH  46  60
BRANCH  47  71
ATOM     71  C   UNL A   1      38.322  31.092  31.104  1.00  0.00     0.023 A 
ATOM     72  C   UNL A   1      37.266  31.688  30.397  1.00  0.00     0.031 A 
ATOM     73  C   UNL A   1      38.225  31.032  32.506  1.00  0.00     0.131 A 
ATOM     74  C   UNL A   1      36.188  32.256  31.095  1.00  0.00     0.055 A 
ATOM     75  C   UNL A   1      37.125  31.550  33.193  1.00  0.00     0.041 A 
ATOM     76  F   UNL A   1      39.205  30.472  33.232  1.00  0.00    -0.206 F 
ATOM     77  C   UNL A   1      36.106  32.181  32.487  1.00  0.00     0.022 A 
BRANCH  74  78
ATOM     78  S   UNL A   1      34.945  33.190  30.161  1.00  0.00     0.124 S 
ATOM     79  O   UNL A   1      34.445  32.177  29.239  1.00  0.00    -0.237 OA
ATOM     80  O   UNL A   1      34.027  33.609  31.216  1.00  0.00    -0.237 OA
ATOM     81  O   UNL A   1      35.720  34.267  29.548  1.00  0.00    -0.744 OA
ENDBRANCH  74  78
ENDBRANCH  47  71
BRANCH  59  82
ATOM     82  C   UNL A   1      44.551  33.995  29.900  1.00  0.00     0.023 A 
ATOM     83  C   UNL A   1      44.369  35.061  29.004  1.00  0.00     0.031 A 
ATOM     84  C   UNL A   1      45.262  34.242  31.089  1.00  0.00     0.131 A 
ATOM     85  C   UNL A   1      44.934  36.314  29.287  1.00  0.00     0.055 A 
ATOM     86  C   UNL A   1      45.770  35.505  31.393  1.00  0.00     0.041 A 
ATOM     87  F   UNL A   1      45.465  33.259  31.980  1.00  0.00    -0.206 F 
ATOM     88  C   UNL A   1      45.618  36.548  30.483  1.00  0.00     0.022 A 
BRANCH  85  89
ATOM     89  S   UNL A   1      44.835  37.618  28.029  1.00  0.00     0.124 S 
ATOM     90  O   UNL A   1      44.032  38.631  28.706  1.00  0.00    -0.237 OA
ATOM     91  O   UNL A   1      46.239  37.956  27.818  1.00  0.00    -0.237 OA
ATOM     92  O   UNL A   1      44.180  36.958  26.901  1.00  0.00    -0.744 OA
ENDBRANCH  85  89
ENDBRANCH  59  82
ENDBRANCH  33  34
ENDBRANCH  26  28
ENDBRANCH  25  26
ENDBRANCH  24  25
ENDBRANCH   1  24
TORSDOF 20
ENDMDL
MODEL 3
REMARK VINA RESULT:     -11.1      2.845      4.695
REMARK SMILES Cc1nc(C[C@@H](C(=O)OCCOCCOC(=O)c2ccc(-c3c4nc(c(-c5cc(S(=O)(=O)[O-])ccc5F)c5ccc([nH]5)c(-c5cc(S(=O)(=O)[O-])ccc5F)c5nc(c(-c6cc(S(=O)(=O)[O-])ccc6F)c6ccc3[nH]6)C=C5)C=C4)cc2)[C@@H]2CCS(=O)(=O)C2)sc1C
REMARK SMILES IDX 13 1 12 2 11 3 10 4 9 5 7 6 8 7 6 8 5 9 4 10 1 11 2 12 3 13
REMARK SMILES IDX 89 14 88 15 90 16 81 17 82 18 87 19 83 20 84 21 85 22 86 23
REMARK SMILES IDX 14 24 15 25 16 26 17 27 18 28 19 29 80 30 20 31 79 32 21 33
REMARK SMILES IDX 22 34 23 35 73 36 24 37 78 38 72 39 74 40 25 41 77 42 71 43
REMARK SMILES IDX 70 44 26 46 58 47 38 48 57 49 39 50 42 51 56 52 75 53 40 54
REMARK SMILES IDX 41 55 55 57 76 58 43 59 27 60 28 61 36 62 29 63 35 64 37 65
REMARK SMILES IDX 34 66 30 67 31 68 32 69 33 70 59 71 60 72 68 73 61 74 67 75
REMARK SMILES IDX 69 76 66 77 62 78 63 79 64 80 65 81 44 82 45 83 53 84 46 85
REMARK SMILES IDX 52 86 54 87 51 88 47 89 48 90 49 91 50 92
REMARK H PARENT 74 45 42 56
REMARK Flexibility Score: inf
ROOT
ATOM      1  C   UNL A   1      35.639  20.912  25.061  1.00  0.00     0.202 C 
ENDROOT
BRANCH   1   2
ATOM      2  O   UNL A   1      35.315  21.658  26.231  1.00  0.00    -0.374 OA
BRANCH   2   3
ATOM      3  C   UNL A   1      34.070  21.304  26.848  1.00  0.00     0.202 C 
BRANCH   3   4
ATOM      4  C   UNL A   1      33.327  22.486  27.481  1.00  0.00     0.261 C 
BRANCH   4   5
ATOM      5  O   UNL A   1      33.746  23.725  26.876  1.00  0.00    -0.463 OA
BRANCH   5   6
ATOM      6  C   UNL A   1      32.802  24.467  26.281  1.00  0.00     0.309 C 
ATOM      7  O   UNL A   1      31.629  24.126  26.222  1.00  0.00    -0.252 OA
BRANCH   6   8
ATOM      8  C   UNL A   1      33.319  25.746  25.617  1.00  0.00     0.110 C 
BRANCH   8   9
ATOM      9  C   UNL A   1      32.442  27.027  25.729  1.00  0.00     0.083 C 
BRANCH   9  10
ATOM     10  C   UNL A   1      33.099  28.244  26.318  1.00  0.00     0.094 A 
ATOM     11  C   UNL A   1      36.063  29.699  27.706  1.00  0.00     0.068 C 
ATOM     12  C   UNL A   1      34.658  29.499  27.272  1.00  0.00     0.051 A 
ATOM     13  N   UNL A   1      34.285  28.233  26.878  1.00  0.00    -0.246 NA
ATOM     14  C   UNL A   1      33.654  30.444  27.192  1.00  0.00     0.024 A 
ATOM     15  S   UNL A   1      32.274  29.749  26.440  1.00  0.00    -0.124 S 
ATOM     16  C   UNL A   1      33.682  31.867  27.626  1.00  0.00     0.058 C 
ENDBRANCH   9  10
ENDBRANCH   8   9
BRANCH   8  17
ATOM     17  C   UNL A   1      33.606  25.469  24.087  1.00  0.00     0.020 C 
ATOM     18  C   UNL A   1      32.428  25.720  23.109  1.00  0.00     0.021 C 
ATOM     19  C   UNL A   1      34.193  24.071  23.779  1.00  0.00     0.141 C 
ATOM     20  C   UNL A   1      31.751  24.404  22.743  1.00  0.00     0.137 C 
ATOM     21  S   UNL A   1      33.084  23.232  22.648  1.00  0.00     0.150 S 
ATOM     22  O   UNL A   1      32.675  21.956  23.191  1.00  0.00    -0.229 OA
ATOM     23  O   UNL A   1      33.654  23.333  21.316  1.00  0.00    -0.229 OA
ENDBRANCH   8  17
ENDBRANCH   6   8
ENDBRANCH   5   6
ENDBRANCH   4   5
ENDBRANCH   3   4
ENDBRANCH   2   3
ENDBRANCH   1   2
BRANCH   1  24
ATOM     24  C   UNL A   1      37.061  20.346  25.004  1.00  0.00     0.261 C 
BRANCH  24  25
ATOM     25  O   UNL A   1      38.032  21.396  25.090  1.00  0.00    -0.460 OA
BRANCH  25  26
ATOM     26  C   UNL A   1      39.088  21.114  25.890  1.00  0.00     0.338 C 
ATOM     27  O   UNL A   1      39.668  20.044  25.983  1.00  0.00    -0.246 OA
BRANCH  26  28
ATOM     28  C   UNL A   1      39.581  22.359  26.514  1.00  0.00     0.060 A 
ATOM     29  C   UNL A   1      38.986  23.559  26.103  1.00  0.00     0.016 A 
ATOM     30  C   UNL A   1      40.590  22.365  27.481  1.00  0.00     0.016 A 
ATOM     31  C   UNL A   1      39.428  24.774  26.624  1.00  0.00     0.010 A 
ATOM     32  C   UNL A   1      41.033  23.584  28.003  1.00  0.00     0.010 A 
ATOM     33  C   UNL A   1      40.475  24.797  27.553  1.00  0.00    -0.014 A 
BRANCH  33  34
ATOM     34  C   UNL A   1      41.109  26.090  27.911  1.00  0.00     0.031 A 
ATOM     35  C   UNL A   1      42.514  26.344  27.438  1.00  0.00     0.074 A 
ATOM     36  C   UNL A   1      40.445  27.031  28.608  1.00  0.00     0.049 A 
ATOM     37  N   UNL A   1      43.289  27.374  27.646  1.00  0.00    -0.248 NA
ATOM     38  C   UNL A   1      43.129  25.281  26.624  1.00  0.00     0.031 C 
ATOM     39  C   UNL A   1      39.064  26.923  29.077  1.00  0.00     0.029 A 
ATOM     40  N   UNL A   1      40.849  28.266  29.050  1.00  0.00    -0.354 N 
ATOM     41  C   UNL A   1      44.481  27.087  26.989  1.00  0.00     0.074 A 
ATOM     42  C   UNL A   1      44.346  25.760  26.429  1.00  0.00     0.031 C 
ATOM     43  C   UNL A   1      38.743  28.037  29.760  1.00  0.00     0.029 A 
ATOM     44  C   UNL A   1      39.898  28.930  29.791  1.00  0.00     0.049 A 
ATOM     45  H   UNL A   1      41.738  28.643  28.854  1.00  0.00     0.167 HD
ATOM     46  C   UNL A   1      45.579  27.867  26.846  1.00  0.00     0.034 A 
ATOM     47  C   UNL A   1      39.960  30.117  30.427  1.00  0.00     0.034 A 
ATOM     48  C   UNL A   1      45.700  29.188  27.407  1.00  0.00     0.049 A 
ATOM     49  C   UNL A   1      41.227  30.937  30.322  1.00  0.00     0.074 A 
ATOM     50  C   UNL A   1      46.760  30.072  27.310  1.00  0.00     0.029 A 
ATOM     51  N   UNL A   1      44.729  29.814  28.177  1.00  0.00    -0.354 N 
ATOM     52  N   UNL A   1      42.339  30.661  29.679  1.00  0.00    -0.248 NA
ATOM     53  C   UNL A   1      41.239  32.234  31.012  1.00  0.00     0.031 C 
ATOM     54  C   UNL A   1      46.458  31.203  28.077  1.00  0.00     0.029 A 
ATOM     55  C   UNL A   1      45.177  31.059  28.588  1.00  0.00     0.049 A 
ATOM     56  H   UNL A   1      43.850  29.430  28.398  1.00  0.00     0.167 HD
ATOM     57  C   UNL A   1      43.163  31.772  29.853  1.00  0.00     0.074 A 
ATOM     58  C   UNL A   1      42.418  32.721  30.653  1.00  0.00     0.031 C 
ATOM     59  C   UNL A   1      44.419  31.993  29.386  1.00  0.00     0.034 A 
BRANCH  46  60
ATOM     60  C   UNL A   1      46.744  27.283  26.086  1.00  0.00     0.023 A 
ATOM     61  C   UNL A   1      47.781  26.594  26.739  1.00  0.00     0.031 A 
ATOM     62  C   UNL A   1      46.841  27.456  24.694  1.00  0.00     0.131 A 
ATOM     63  C   UNL A   1      48.904  26.169  26.014  1.00  0.00     0.055 A 
ATOM     64  C   UNL A   1      47.923  26.958  23.966  1.00  0.00     0.041 A 
ATOM     65  F   UNL A   1      45.894  28.128  24.021  1.00  0.00    -0.206 F 
ATOM     66  C   UNL A   1      48.971  26.324  24.628  1.00  0.00     0.022 A 
BRANCH  63  67
ATOM     67  S   UNL A   1      50.341  25.546  26.929  1.00  0.00     0.124 S 
ATOM     68  O   UNL A   1      49.768  24.400  27.629  1.00  0.00    -0.237 OA
ATOM     69  O   UNL A   1      51.284  25.236  25.859  1.00  0.00    -0.237 OA
ATOM     70  O   UNL A   1      50.715  26.669  27.786  1.00  0.00    -0.744 OA
ENDBRANCH  63  67
ENDBRANCH  46  60
BRANCH  47  71
ATOM     71  C   UNL A   1      38.811  30.608  31.244  1.00  0.00     0.023 A 
ATOM     72  C   UNL A   1      37.828  31.444  30.690  1.00  0.00     0.031 A 
ATOM     73  C   UNL A   1      38.724  30.309  32.616  1.00  0.00     0.131 A 
ATOM     74  C   UNL A   1      36.839  32.003  31.515  1.00  0.00     0.055 A 
ATOM     75  C   UNL A   1      37.706  30.824  33.421  1.00  0.00     0.041 A 
ATOM     76  F   UNL A   1      39.635  29.513  33.197  1.00  0.00    -0.206 F 
ATOM     77  C   UNL A   1      36.764  31.690  32.873  1.00  0.00     0.022 A 
BRANCH  74  78
ATOM     78  S   UNL A   1      35.710  33.233  30.803  1.00  0.00     0.124 S 
ATOM     79  O   UNL A   1      36.287  33.433  29.480  1.00  0.00    -0.237 OA
ATOM     80  O   UNL A   1      34.432  32.530  30.849  1.00  0.00    -0.237 OA
ATOM     81  O   UNL A   1      35.828  34.368  31.716  1.00  0.00    -0.744 OA
ENDBRANCH  74  78
ENDBRANCH  47  71
BRANCH  59  82
ATOM     82  C   UNL A   1      45.039  33.337  29.682  1.00  0.00     0.023 A 
ATOM     83  C   UNL A   1      45.816  33.560  30.830  1.00  0.00     0.031 A 
ATOM     84  C   UNL A   1      44.848  34.410  28.792  1.00  0.00     0.131 A 
ATOM     85  C   UNL A   1      46.333  34.839  31.085  1.00  0.00     0.055 A 
ATOM     86  C   UNL A   1      45.415  35.664  29.020  1.00  0.00     0.041 A 
ATOM     87  F   UNL A   1      44.114  34.253  27.679  1.00  0.00    -0.206 F 
ATOM     88  C   UNL A   1      46.153  35.887  30.179  1.00  0.00     0.022 A 
BRANCH  85  89
ATOM     89  S   UNL A   1      47.178  35.138  32.662  1.00  0.00     0.124 S 
ATOM     90  O   UNL A   1      47.786  36.446  32.437  1.00  0.00    -0.237 OA
ATOM     91  O   UNL A   1      46.077  35.105  33.619  1.00  0.00    -0.237 OA
ATOM     92  O   UNL A   1      48.121  34.026  32.763  1.00  0.00    -0.744 OA
ENDBRANCH  85  89
ENDBRANCH  59  82
ENDBRANCH  33  34
ENDBRANCH  26  28
ENDBRANCH  25  26
ENDBRANCH  24  25
ENDBRANCH   1  24
TORSDOF 20
ENDMDL
