MODEL 1
REMARK VINA RESULT:     -12.4      0.000      0.000
REMARK SMILES O=C1CCCC2=C1[C@H](c1ccc([N+](=O)[O-])cc1)CC(=O)N2c1ccccc1C(=O)OCCOCCOC(=O)c1ccc(-c2c3nc(c(-c4cc(S(=O)(=O)[O-])ccc4F)c4ccc([nH]4)c(-c4cc(S(=O)(=O)[O-])ccc4F)c4nc(c(-c5cc(S(=O)(=O)[O-])ccc5F)c5ccc2[nH]5)C=C4)C=C3)cc1
REMARK SMILES IDX 33 1 32 2 31 3 30 4 28 5 29 6 27 7 22 8 23 9 24 10 26 11
REMARK SMILES IDX 25 12 21 13 1 14 2 15 3 16 7 17 4 18 6 19 8 20 5 21 18 22
REMARK SMILES IDX 19 23 20 24 9 25 10 26 17 27 11 28 16 29 12 30 13 31 14 32
REMARK SMILES IDX 15 33 34 34 35 35 36 36 37 37 38 38 39 39 40 40 101 41 41 42
REMARK SMILES IDX 100 43 42 44 43 45 44 46 94 47 45 48 99 49 93 50 95 51 46 52
REMARK SMILES IDX 98 53 92 54 91 55 47 57 79 58 59 59 78 60 60 61 63 62 77 63
REMARK SMILES IDX 96 64 61 65 62 66 76 68 97 69 64 70 48 71 49 72 57 73 50 74
REMARK SMILES IDX 56 75 58 76 55 77 51 78 52 79 53 80 54 81 80 82 81 83 89 84
REMARK SMILES IDX 82 85 88 86 90 87 87 88 83 89 84 90 85 91 86 92 65 93 66 94
REMARK SMILES IDX 74 95 67 96 73 97 75 98 72 99 68 100 69 101 70 102 71 103
REMARK H PARENT 95 56 63 67
REMARK Flexibility Score: inf
ROOT
ATOM      1  O   UNL A   1      38.808  21.931  25.922  1.00  0.00    -0.374 OA
ENDROOT
BRANCH   1   2
ATOM      2  C   UNL A   1      38.656  23.280  26.339  1.00  0.00     0.202 C 
BRANCH   2   3
ATOM      3  C   UNL A   1      37.393  24.080  25.986  1.00  0.00     0.261 C 
BRANCH   3   4
ATOM      4  O   UNL A   1      36.146  23.462  26.316  1.00  0.00    -0.460 OA
BRANCH   4   5
ATOM      5  C   UNL A   1      35.139  23.830  25.489  1.00  0.00     0.340 C 
ATOM      6  O   UNL A   1      35.099  24.855  24.821  1.00  0.00    -0.246 OA
BRANCH   5   7
ATOM      7  C   UNL A   1      34.047  22.836  25.411  1.00  0.00     0.084 A 
ATOM      8  C   UNL A   1      32.694  23.072  25.106  1.00  0.00     0.063 A 
ATOM      9  C   UNL A   1      31.845  21.939  25.029  1.00  0.00     0.027 A 
ATOM     10  C   UNL A   1      32.297  20.642  25.280  1.00  0.00     0.002 A 
ATOM     11  C   UNL A   1      34.487  21.518  25.683  1.00  0.00     0.018 A 
ATOM     12  C   UNL A   1      33.619  20.432  25.628  1.00  0.00     0.001 A 
BRANCH   8  13
ATOM     13  N   UNL A   1      32.058  24.357  24.890  1.00  0.00    -0.284 N 
ATOM     14  O   UNL A   1      30.685  27.932  22.114  1.00  0.00    -0.294 OA
ATOM     15  C   UNL A   1      31.507  27.054  22.342  1.00  0.00     0.161 C 
ATOM     16  C   UNL A   1      32.619  26.720  21.385  1.00  0.00     0.081 C 
ATOM     17  C   UNL A   1      31.502  26.307  23.633  1.00  0.00     0.023 C 
ATOM     18  C   UNL A   1      32.556  25.235  21.120  1.00  0.00     0.015 C 
ATOM     19  C   UNL A   1      32.055  25.073  23.672  1.00  0.00     0.033 C 
ATOM     20  C   UNL A   1      30.857  26.995  24.814  1.00  0.00     0.064 C 
ATOM     21  C   UNL A   1      32.629  24.422  22.419  1.00  0.00     0.055 C 
ATOM     22  C   UNL A   1      30.297  25.903  25.707  1.00  0.00     0.114 C 
ATOM     23  C   UNL A   1      31.339  24.853  26.013  1.00  0.00     0.232 C 
ATOM     24  O   UNL A   1      31.434  24.413  27.161  1.00  0.00    -0.274 OA
BRANCH  20  25
ATOM     25  C   UNL A   1      31.812  27.956  25.535  1.00  0.00    -0.039 A 
ATOM     26  C   UNL A   1      31.371  29.675  25.744  1.00  0.00     0.011 A 
ATOM     27  C   UNL A   1      33.349  27.297  26.088  1.00  0.00     0.011 A 
ATOM     28  C   UNL A   1      32.406  30.864  26.543  1.00  0.00     0.086 A 
ATOM     29  C   UNL A   1      34.503  28.382  26.924  1.00  0.00     0.086 A 
ATOM     30  C   UNL A   1      34.011  30.329  27.183  1.00  0.00     0.269 A 
BRANCH  30  31
ATOM     31  N   UNL A   1      34.500  31.510  28.050  1.00  0.00     0.062 N 
ATOM     32  O   UNL A   1      34.537  32.608  27.471  1.00  0.00    -0.258 OA
ATOM     33  O   UNL A   1      34.912  31.307  29.197  1.00  0.00    -0.258 OA
ENDBRANCH  30  31
ENDBRANCH  20  25
ENDBRANCH   8  13
ENDBRANCH   5   7
ENDBRANCH   4   5
ENDBRANCH   3   4
ENDBRANCH   2   3
ENDBRANCH   1   2
BRANCH   1  34
ATOM     34  C   UNL A   1      39.921  21.157  26.354  1.00  0.00     0.202 C 
BRANCH  34  35
ATOM     35  C   UNL A   1      40.000  19.662  26.039  1.00  0.00     0.261 C 
BRANCH  35  36
ATOM     36  O   UNL A   1      41.124  19.313  25.236  1.00  0.00    -0.460 OA
BRANCH  36  37
ATOM     37  C   UNL A   1      42.240  18.992  25.926  1.00  0.00     0.338 C 
ATOM     38  O   UNL A   1      42.680  17.888  26.183  1.00  0.00    -0.246 OA
BRANCH  37  39
ATOM     39  C   UNL A   1      42.933  20.239  26.237  1.00  0.00     0.060 A 
ATOM     40  C   UNL A   1      42.774  20.991  27.834  1.00  0.00     0.016 A 
ATOM     41  C   UNL A   1      43.738  21.177  24.933  1.00  0.00     0.016 A 
ATOM     42  C   UNL A   1      43.346  22.654  28.195  1.00  0.00     0.010 A 
ATOM     43  C   UNL A   1      44.378  23.047  25.356  1.00  0.00     0.010 A 
ATOM     44  C   UNL A   1      44.123  23.699  27.005  1.00  0.00    -0.014 A 
BRANCH  44  45
ATOM     45  C   UNL A   1      44.531  25.091  27.256  1.00  0.00     0.031 A 
ATOM     46  C   UNL A   1      43.494  26.120  27.577  1.00  0.00     0.074 A 
ATOM     47  C   UNL A   1      45.800  25.460  27.015  1.00  0.00     0.049 A 
ATOM     48  N   UNL A   1      43.632  27.316  28.078  1.00  0.00    -0.248 NA
ATOM     49  C   UNL A   1      42.102  25.754  27.302  1.00  0.00     0.031 C 
ATOM     50  C   UNL A   1      46.877  24.574  26.573  1.00  0.00     0.029 A 
ATOM     51  N   UNL A   1      46.387  26.696  27.057  1.00  0.00    -0.354 N 
ATOM     52  C   UNL A   1      42.338  27.777  28.304  1.00  0.00     0.074 A 
ATOM     53  C   UNL A   1      41.430  26.766  27.824  1.00  0.00     0.031 C 
ATOM     54  C   UNL A   1      47.978  25.304  26.328  1.00  0.00     0.029 A 
ATOM     55  C   UNL A   1      47.697  26.700  26.641  1.00  0.00     0.049 A 
ATOM     56  H   UNL A   1      45.915  27.506  27.359  1.00  0.00     0.167 HD
ATOM     57  C   UNL A   1      41.946  28.954  28.842  1.00  0.00     0.034 A 
ATOM     58  C   UNL A   1      48.570  27.721  26.554  1.00  0.00     0.034 A 
ATOM     59  C   UNL A   1      42.869  30.038  29.046  1.00  0.00     0.049 A 
ATOM     60  C   UNL A   1      48.121  29.064  27.072  1.00  0.00     0.074 A 
ATOM     61  C   UNL A   1      42.641  31.298  29.561  1.00  0.00     0.029 A 
ATOM     62  N   UNL A   1      44.201  30.004  28.641  1.00  0.00    -0.354 N 
ATOM     63  N   UNL A   1      46.941  29.420  27.534  1.00  0.00    -0.248 NA
ATOM     64  C   UNL A   1      49.133  30.123  27.116  1.00  0.00     0.031 C 
ATOM     65  C   UNL A   1      43.806  32.053  29.378  1.00  0.00     0.029 A 
ATOM     66  C   UNL A   1      44.791  31.238  28.837  1.00  0.00     0.049 A 
ATOM     67  H   UNL A   1      44.657  29.215  28.268  1.00  0.00     0.167 HD
ATOM     68  C   UNL A   1      47.083  30.731  27.973  1.00  0.00     0.074 A 
ATOM     69  C   UNL A   1      48.467  31.095  27.723  1.00  0.00     0.031 C 
ATOM     70  C   UNL A   1      46.170  31.561  28.544  1.00  0.00     0.034 A 
BRANCH  57  71
ATOM     71  C   UNL A   1      40.475  29.118  29.146  1.00  0.00     0.023 A 
ATOM     72  C   UNL A   1      39.994  29.045  30.470  1.00  0.00     0.031 A 
ATOM     73  C   UNL A   1      39.535  29.306  28.121  1.00  0.00     0.131 A 
ATOM     74  C   UNL A   1      38.615  29.114  30.727  1.00  0.00     0.055 A 
ATOM     75  C   UNL A   1      38.168  29.433  28.387  1.00  0.00     0.041 A 
ATOM     76  F   UNL A   1      39.922  29.345  26.836  1.00  0.00    -0.206 F 
ATOM     77  C   UNL A   1      37.701  29.328  29.694  1.00  0.00     0.022 A 
BRANCH  74  78
ATOM     78  S   UNL A   1      38.017  28.821  32.417  1.00  0.00     0.124 S 
ATOM     79  O   UNL A   1      38.934  29.641  33.203  1.00  0.00    -0.237 OA
ATOM     80  O   UNL A   1      36.637  29.287  32.349  1.00  0.00    -0.237 OA
ATOM     81  O   UNL A   1      38.178  27.379  32.592  1.00  0.00    -0.744 OA
ENDBRANCH  74  78
ENDBRANCH  57  71
BRANCH  58  82
ATOM     82  C   UNL A   1      49.953  27.487  26.053  1.00  0.00     0.023 A 
ATOM     83  C   UNL A   1      50.244  27.542  24.682  1.00  0.00     0.031 A 
ATOM     84  C   UNL A   1      51.014  27.223  26.940  1.00  0.00     0.131 A 
ATOM     85  C   UNL A   1      51.552  27.305  24.229  1.00  0.00     0.055 A 
ATOM     86  C   UNL A   1      52.323  27.028  26.489  1.00  0.00     0.041 A 
ATOM     87  F   UNL A   1      50.794  27.166  28.263  1.00  0.00    -0.206 F 
ATOM     88  C   UNL A   1      52.595  27.060  25.124  1.00  0.00     0.022 A 
BRANCH  85  89
ATOM     89  S   UNL A   1      51.857  27.265  22.442  1.00  0.00     0.124 S 
ATOM     90  O   UNL A   1      52.872  26.225  22.333  1.00  0.00    -0.237 OA
ATOM     91  O   UNL A   1      50.537  26.932  21.919  1.00  0.00    -0.237 OA
ATOM     92  O   UNL A   1      52.318  28.620  22.146  1.00  0.00    -0.744 OA
ENDBRANCH  85  89
ENDBRANCH  58  82
BRANCH  70  93
ATOM     93  C   UNL A   1      46.659  32.925  28.950  1.00  0.00     0.023 A 
ATOM     94  C   UNL A   1      46.642  34.007  28.054  1.00  0.00     0.031 A 
ATOM     95  C   UNL A   1      47.161  33.138  30.245  1.00  0.00     0.131 A 
ATOM     96  C   UNL A   1      47.187  35.236  28.442  1.00  0.00     0.055 A 
ATOM     97  C   UNL A   1      47.630  34.386  30.651  1.00  0.00     0.041 A 
ATOM     98  F   UNL A   1      47.200  32.136  31.138  1.00  0.00    -0.206 F 
ATOM     99  C   UNL A   1      47.660  35.440  29.741  1.00  0.00     0.022 A 
BRANCH  96 100
ATOM    100  S   UNL A   1      47.372  36.530  27.188  1.00  0.00     0.124 S 
ATOM    101  O   UNL A   1      47.084  37.738  27.956  1.00  0.00    -0.237 OA
ATOM    102  O   UNL A   1      48.759  36.361  26.765  1.00  0.00    -0.237 OA
ATOM    103  O   UNL A   1      46.370  36.180  26.184  1.00  0.00    -0.744 OA
ENDBRANCH  96 100
ENDBRANCH  70  93
ENDBRANCH  44  45
ENDBRANCH  37  39
ENDBRANCH  36  37
ENDBRANCH  35  36
ENDBRANCH  34  35
ENDBRANCH   1  34
TORSDOF 20
ENDMDL
MODEL 2
REMARK VINA RESULT:     -12.1      3.639      5.396
REMARK SMILES O=C1CCCC2=C1[C@H](c1ccc([N+](=O)[O-])cc1)CC(=O)N2c1ccccc1C(=O)OCCOCCOC(=O)c1ccc(-c2c3nc(c(-c4cc(S(=O)(=O)[O-])ccc4F)c4ccc([nH]4)c(-c4cc(S(=O)(=O)[O-])ccc4F)c4nc(c(-c5cc(S(=O)(=O)[O-])ccc5F)c5ccc2[nH]5)C=C4)C=C3)cc1
REMARK SMILES IDX 33 1 32 2 31 3 30 4 28 5 29 6 27 7 22 8 23 9 24 10 26 11
REMARK SMILES IDX 25 12 21 13 1 14 2 15 3 16 7 17 4 18 6 19 8 20 5 21 18 22
REMARK SMILES IDX 19 23 20 24 9 25 10 26 17 27 11 28 16 29 12 30 13 31 14 32
REMARK SMILES IDX 15 33 34 34 35 35 36 36 37 37 38 38 39 39 40 40 101 41 41 42
REMARK SMILES IDX 100 43 42 44 43 45 44 46 94 47 45 48 99 49 93 50 95 51 46 52
REMARK SMILES IDX 98 53 92 54 91 55 47 57 79 58 59 59 78 60 60 61 63 62 77 63
REMARK SMILES IDX 96 64 61 65 62 66 76 68 97 69 64 70 48 71 49 72 57 73 50 74
REMARK SMILES IDX 56 75 58 76 55 77 51 78 52 79 53 80 54 81 80 82 81 83 89 84
REMARK SMILES IDX 82 85 88 86 90 87 87 88 83 89 84 90 85 91 86 92 65 93 66 94
REMARK SMILES IDX 74 95 67 96 73 97 75 98 72 99 68 100 69 101 70 102 71 103
REMARK H PARENT 95 56 63 67
REMARK Flexibility Score: inf
ROOT
ATOM      1  O   UNL A   1      39.304  22.039  26.578  1.00  0.00    -0.374 OA
ENDROOT
BRANCH   1   2
ATOM      2  C   UNL A   1      38.186  22.308  25.743  1.00  0.00     0.202 C 
BRANCH   2   3
ATOM      3  C   UNL A   1      37.415  23.631  25.855  1.00  0.00     0.261 C 
BRANCH   3   4
ATOM      4  O   UNL A   1      36.100  23.548  26.412  1.00  0.00    -0.460 OA
BRANCH   4   5
ATOM      5  C   UNL A   1      35.129  23.872  25.525  1.00  0.00     0.340 C 
ATOM      6  O   UNL A   1      35.126  24.853  24.793  1.00  0.00    -0.246 OA
BRANCH   5   7
ATOM      7  C   UNL A   1      34.030  22.885  25.469  1.00  0.00     0.084 A 
ATOM      8  C   UNL A   1      32.676  23.125  25.169  1.00  0.00     0.063 A 
ATOM      9  C   UNL A   1      31.819  21.998  25.113  1.00  0.00     0.027 A 
ATOM     10  C   UNL A   1      32.264  20.701  25.380  1.00  0.00     0.002 A 
ATOM     11  C   UNL A   1      34.463  21.567  25.755  1.00  0.00     0.018 A 
ATOM     12  C   UNL A   1      33.588  20.486  25.721  1.00  0.00     0.001 A 
BRANCH   8  13
ATOM     13  N   UNL A   1      32.048  24.412  24.940  1.00  0.00    -0.284 N 
ATOM     14  O   UNL A   1      30.680  27.959  22.126  1.00  0.00    -0.294 OA
ATOM     15  C   UNL A   1      31.498  27.078  22.360  1.00  0.00     0.161 C 
ATOM     16  C   UNL A   1      32.600  26.724  21.400  1.00  0.00     0.081 C 
ATOM     17  C   UNL A   1      31.497  26.349  23.661  1.00  0.00     0.023 C 
ATOM     18  C   UNL A   1      32.525  25.235  21.156  1.00  0.00     0.015 C 
ATOM     19  C   UNL A   1      32.041  25.111  23.713  1.00  0.00     0.033 C 
ATOM     20  C   UNL A   1      30.864  27.057  24.837  1.00  0.00     0.064 C 
ATOM     21  C   UNL A   1      32.602  24.440  22.465  1.00  0.00     0.055 C 
ATOM     22  C   UNL A   1      30.304  25.982  25.749  1.00  0.00     0.114 C 
ATOM     23  C   UNL A   1      31.340  24.929  26.062  1.00  0.00     0.232 C 
ATOM     24  O   UNL A   1      31.441  24.503  27.216  1.00  0.00    -0.274 OA
BRANCH  20  25
ATOM     25  C   UNL A   1      31.832  28.021  25.539  1.00  0.00    -0.039 A 
ATOM     26  C   UNL A   1      31.396  29.741  25.745  1.00  0.00     0.011 A 
ATOM     27  C   UNL A   1      33.376  27.363  26.072  1.00  0.00     0.011 A 
ATOM     28  C   UNL A   1      32.443  30.934  26.522  1.00  0.00     0.086 A 
ATOM     29  C   UNL A   1      34.544  28.452  26.884  1.00  0.00     0.086 A 
ATOM     30  C   UNL A   1      34.057  30.401  27.140  1.00  0.00     0.269 A 
BRANCH  30  31
ATOM     31  N   UNL A   1      34.561  31.586  27.993  1.00  0.00     0.062 N 
ATOM     32  O   UNL A   1      35.203  32.447  27.370  1.00  0.00    -0.258 OA
ATOM     33  O   UNL A   1      34.401  31.578  29.218  1.00  0.00    -0.258 OA
ENDBRANCH  30  31
ENDBRANCH  20  25
ENDBRANCH   8  13
ENDBRANCH   5   7
ENDBRANCH   4   5
ENDBRANCH   3   4
ENDBRANCH   2   3
ENDBRANCH   1   2
BRANCH   1  34
ATOM     34  C   UNL A   1      40.157  23.091  27.013  1.00  0.00     0.202 C 
BRANCH  34  35
ATOM     35  C   UNL A   1      41.617  23.147  26.559  1.00  0.00     0.261 C 
BRANCH  35  36
ATOM     36  O   UNL A   1      41.821  23.970  25.414  1.00  0.00    -0.460 OA
BRANCH  36  37
ATOM     37  C   UNL A   1      43.027  24.576  25.355  1.00  0.00     0.338 C 
ATOM     38  O   UNL A   1      44.001  24.260  24.698  1.00  0.00    -0.246 OA
BRANCH  37  39
ATOM     39  C   UNL A   1      42.943  25.794  26.156  1.00  0.00     0.060 A 
ATOM     40  C   UNL A   1      42.359  27.308  25.444  1.00  0.00     0.016 A 
ATOM     41  C   UNL A   1      43.681  25.853  27.793  1.00  0.00     0.016 A 
ATOM     42  C   UNL A   1      42.503  28.896  26.267  1.00  0.00     0.010 A 
ATOM     43  C   UNL A   1      43.833  27.650  28.707  1.00  0.00     0.010 A 
ATOM     44  C   UNL A   1      43.232  29.109  27.859  1.00  0.00    -0.014 A 
BRANCH  44  45
ATOM     45  C   UNL A   1      43.430  30.409  28.520  1.00  0.00     0.031 A 
ATOM     46  C   UNL A   1      42.373  30.942  29.434  1.00  0.00     0.074 A 
ATOM     47  C   UNL A   1      44.467  31.183  28.157  1.00  0.00     0.049 A 
ATOM     48  N   UNL A   1      42.436  31.909  30.307  1.00  0.00    -0.248 NA
ATOM     49  C   UNL A   1      41.060  30.297  29.364  1.00  0.00     0.031 C 
ATOM     50  C   UNL A   1      45.496  30.828  27.180  1.00  0.00     0.029 A 
ATOM     51  N   UNL A   1      44.795  32.458  28.532  1.00  0.00    -0.354 N 
ATOM     52  C   UNL A   1      41.216  31.885  30.979  1.00  0.00     0.074 A 
ATOM     53  C   UNL A   1      40.410  30.858  30.370  1.00  0.00     0.031 C 
ATOM     54  C   UNL A   1      46.306  31.882  26.988  1.00  0.00     0.029 A 
ATOM     55  C   UNL A   1      45.882  32.968  27.864  1.00  0.00     0.049 A 
ATOM     56  H   UNL A   1      44.299  32.962  29.217  1.00  0.00     0.167 HD
ATOM     57  C   UNL A   1      40.800  32.670  31.997  1.00  0.00     0.034 A 
ATOM     58  C   UNL A   1      46.475  34.171  27.976  1.00  0.00     0.034 A 
ATOM     59  C   UNL A   1      41.521  33.854  32.383  1.00  0.00     0.049 A 
ATOM     60  C   UNL A   1      45.969  35.097  29.053  1.00  0.00     0.074 A 
ATOM     61  C   UNL A   1      41.235  34.769  33.376  1.00  0.00     0.029 A 
ATOM     62  N   UNL A   1      42.639  34.332  31.705  1.00  0.00    -0.354 N 
ATOM     63  N   UNL A   1      44.950  34.936  29.870  1.00  0.00    -0.248 NA
ATOM     64  C   UNL A   1      46.726  36.333  29.266  1.00  0.00     0.031 C 
ATOM     65  C   UNL A   1      42.120  35.845  33.235  1.00  0.00     0.029 A 
ATOM     66  C   UNL A   1      43.019  35.558  32.217  1.00  0.00     0.049 A 
ATOM     67  H   UNL A   1      43.094  33.865  30.967  1.00  0.00     0.167 HD
ATOM     68  C   UNL A   1      44.974  36.028  30.730  1.00  0.00     0.074 A 
ATOM     69  C   UNL A   1      46.116  36.833  30.331  1.00  0.00     0.031 C 
ATOM     70  C   UNL A   1      44.149  36.339  31.765  1.00  0.00     0.034 A 
BRANCH  57  71
ATOM     71  C   UNL A   1      39.497  32.302  32.665  1.00  0.00     0.023 A 
ATOM     72  C   UNL A   1      38.312  33.018  32.392  1.00  0.00     0.031 A 
ATOM     73  C   UNL A   1      39.428  31.265  33.610  1.00  0.00     0.131 A 
ATOM     74  C   UNL A   1      37.128  32.718  33.085  1.00  0.00     0.055 A 
ATOM     75  C   UNL A   1      38.233  30.933  34.256  1.00  0.00     0.041 A 
ATOM     76  F   UNL A   1      40.527  30.572  33.946  1.00  0.00    -0.206 F 
ATOM     77  C   UNL A   1      37.077  31.666  34.001  1.00  0.00     0.022 A 
BRANCH  74  78
ATOM     78  S   UNL A   1      35.676  33.784  32.852  1.00  0.00     0.124 S 
ATOM     79  O   UNL A   1      36.047  34.966  33.623  1.00  0.00    -0.237 OA
ATOM     80  O   UNL A   1      35.636  33.950  31.403  1.00  0.00    -0.237 OA
ATOM     81  O   UNL A   1      34.580  32.999  33.417  1.00  0.00    -0.744 OA
ENDBRANCH  74  78
ENDBRANCH  57  71
BRANCH  58  82
ATOM     82  C   UNL A   1      47.649  34.512  27.125  1.00  0.00     0.023 A 
ATOM     83  C   UNL A   1      48.959  34.321  27.591  1.00  0.00     0.031 A 
ATOM     84  C   UNL A   1      47.483  35.019  25.822  1.00  0.00     0.131 A 
ATOM     85  C   UNL A   1      50.052  34.662  26.779  1.00  0.00     0.055 A 
ATOM     86  C   UNL A   1      48.574  35.319  25.001  1.00  0.00     0.041 A 
ATOM     87  F   UNL A   1      46.252  35.215  25.323  1.00  0.00    -0.206 F 
ATOM     88  C   UNL A   1      49.868  35.149  25.483  1.00  0.00     0.022 A 
BRANCH  85  89
ATOM     89  S   UNL A   1      51.723  34.513  27.467  1.00  0.00     0.124 S 
ATOM     90  O   UNL A   1      52.317  33.503  26.599  1.00  0.00    -0.237 OA
ATOM     91  O   UNL A   1      52.233  35.870  27.314  1.00  0.00    -0.237 OA
ATOM     92  O   UNL A   1      51.487  34.090  28.846  1.00  0.00    -0.744 OA
ENDBRANCH  85  89
ENDBRANCH  58  82
BRANCH  70  93
ATOM     93  C   UNL A   1      44.477  37.588  32.536  1.00  0.00     0.023 A 
ATOM     94  C   UNL A   1      43.798  38.795  32.300  1.00  0.00     0.031 A 
ATOM     95  C   UNL A   1      45.490  37.571  33.510  1.00  0.00     0.131 A 
ATOM     96  C   UNL A   1      44.193  39.956  32.977  1.00  0.00     0.055 A 
ATOM     97  C   UNL A   1      45.825  38.712  34.237  1.00  0.00     0.041 A 
ATOM     98  F   UNL A   1      46.169  36.443  33.773  1.00  0.00    -0.206 F 
ATOM     99  C   UNL A   1      45.186  39.918  33.960  1.00  0.00     0.022 A 
BRANCH  96 100
ATOM    100  S   UNL A   1      43.467  41.536  32.471  1.00  0.00     0.124 S 
ATOM    101  O   UNL A   1      42.125  41.447  33.039  1.00  0.00    -0.237 OA
ATOM    102  O   UNL A   1      44.359  42.506  33.097  1.00  0.00    -0.237 OA
ATOM    103  O   UNL A   1      43.526  41.488  31.012  1.00  0.00    -0.744 OA
ENDBRANCH  96 100
ENDBRANCH  70  93
ENDBRANCH  44  45
ENDBRANCH  37  39
ENDBRANCH  36  37
ENDBRANCH  35  36
ENDBRANCH  34  35
ENDBRANCH   1  34
TORSDOF 20
ENDMDL
MODEL 3
REMARK VINA RESULT:     -11.6      3.395      5.177
REMARK SMILES O=C1CCCC2=C1[C@H](c1ccc([N+](=O)[O-])cc1)CC(=O)N2c1ccccc1C(=O)OCCOCCOC(=O)c1ccc(-c2c3nc(c(-c4cc(S(=O)(=O)[O-])ccc4F)c4ccc([nH]4)c(-c4cc(S(=O)(=O)[O-])ccc4F)c4nc(c(-c5cc(S(=O)(=O)[O-])ccc5F)c5ccc2[nH]5)C=C4)C=C3)cc1
REMARK SMILES IDX 33 1 32 2 31 3 30 4 28 5 29 6 27 7 22 8 23 9 24 10 26 11
REMARK SMILES IDX 25 12 21 13 1 14 2 15 3 16 7 17 4 18 6 19 8 20 5 21 18 22
REMARK SMILES IDX 19 23 20 24 9 25 10 26 17 27 11 28 16 29 12 30 13 31 14 32
REMARK SMILES IDX 15 33 34 34 35 35 36 36 37 37 38 38 39 39 40 40 101 41 41 42
REMARK SMILES IDX 100 43 42 44 43 45 44 46 94 47 45 48 99 49 93 50 95 51 46 52
REMARK SMILES IDX 98 53 92 54 91 55 47 57 79 58 59 59 78 60 60 61 63 62 77 63
REMARK SMILES IDX 96 64 61 65 62 66 76 68 97 69 64 70 48 71 49 72 57 73 50 74
REMARK SMILES IDX 56 75 58 76 55 77 51 78 52 79 53 80 54 81 80 82 81 83 89 84
REMARK SMILES IDX 82 85 88 86 90 87 87 88 83 89 84 90 85 91 86 92 65 93 66 94
REMARK SMILES IDX 74 95 67 96 73 97 75 98 72 99 68 100 69 101 70 102 71 103
REMARK H PARENT 95 56 63 67
REMARK Flexibility Score: inf
ROOT
ATOM      1  O   UNL A   1      39.332  22.927  27.161  1.00  0.00    -0.374 OA
ENDROOT
BRANCH   1   2
ATOM      2  C   UNL A   1      38.578  24.022  26.660  1.00  0.00     0.202 C 
BRANCH   2   3
ATOM      3  C   UNL A   1      37.383  23.797  25.722  1.00  0.00     0.261 C 
BRANCH   3   4
ATOM      4  O   UNL A   1      36.131  23.517  26.357  1.00  0.00    -0.460 OA
BRANCH   4   5
ATOM      5  C   UNL A   1      35.066  23.926  25.626  1.00  0.00     0.340 C 
ATOM      6  O   UNL A   1      34.955  25.008  25.064  1.00  0.00    -0.246 OA
BRANCH   5   7
ATOM      7  C   UNL A   1      34.004  22.904  25.513  1.00  0.00     0.084 A 
ATOM      8  C   UNL A   1      32.659  23.103  25.147  1.00  0.00     0.063 A 
ATOM      9  C   UNL A   1      31.843  21.949  25.046  1.00  0.00     0.027 A 
ATOM     10  C   UNL A   1      32.315  20.666  25.331  1.00  0.00     0.002 A 
ATOM     11  C   UNL A   1      34.464  21.600  25.817  1.00  0.00     0.018 A 
ATOM     12  C   UNL A   1      33.627  20.492  25.736  1.00  0.00     0.001 A 
BRANCH   8  13
ATOM     13  N   UNL A   1      32.003  24.369  24.890  1.00  0.00    -0.284 N 
ATOM     14  O   UNL A   1      30.636  27.868  22.015  1.00  0.00    -0.294 OA
ATOM     15  C   UNL A   1      31.471  27.012  22.282  1.00  0.00     0.161 C 
ATOM     16  C   UNL A   1      32.618  26.689  21.366  1.00  0.00     0.081 C 
ATOM     17  C   UNL A   1      31.442  26.286  23.585  1.00  0.00     0.023 C 
ATOM     18  C   UNL A   1      32.596  25.198  21.123  1.00  0.00     0.015 C 
ATOM     19  C   UNL A   1      32.021  25.066  23.661  1.00  0.00     0.033 C 
ATOM     20  C   UNL A   1      30.745  26.978  24.734  1.00  0.00     0.064 C 
ATOM     21  C   UNL A   1      32.648  24.408  22.437  1.00  0.00     0.055 C 
ATOM     22  C   UNL A   1      30.183  25.888  25.628  1.00  0.00     0.114 C 
ATOM     23  C   UNL A   1      31.238  24.867  25.983  1.00  0.00     0.232 C 
ATOM     24  O   UNL A   1      31.307  24.447  27.141  1.00  0.00    -0.274 OA
BRANCH  20  25
ATOM     25  C   UNL A   1      31.656  27.972  25.468  1.00  0.00    -0.039 A 
ATOM     26  C   UNL A   1      33.176  27.412  26.222  1.00  0.00     0.011 A 
ATOM     27  C   UNL A   1      31.109  29.644  25.564  1.00  0.00     0.011 A 
ATOM     28  C   UNL A   1      34.284  28.471  27.102  1.00  0.00     0.086 A 
ATOM     29  C   UNL A   1      32.131  30.838  26.422  1.00  0.00     0.086 A 
ATOM     30  C   UNL A   1      33.865  30.222  27.268  1.00  0.00     0.269 A 
BRANCH  30  31
ATOM     31  N   UNL A   1      35.150  30.883  27.814  1.00  0.00     0.062 N 
ATOM     32  O   UNL A   1      35.700  30.273  28.746  1.00  0.00    -0.258 OA
ATOM     33  O   UNL A   1      35.506  31.987  27.391  1.00  0.00    -0.258 OA
ENDBRANCH  30  31
ENDBRANCH  20  25
ENDBRANCH   8  13
ENDBRANCH   5   7
ENDBRANCH   4   5
ENDBRANCH   3   4
ENDBRANCH   2   3
ENDBRANCH   1   2
BRANCH   1  34
ATOM     34  C   UNL A   1      40.644  23.121  27.676  1.00  0.00     0.202 C 
BRANCH  34  35
ATOM     35  C   UNL A   1      41.871  22.780  26.830  1.00  0.00     0.261 C 
BRANCH  35  36
ATOM     36  O   UNL A   1      42.054  23.656  25.722  1.00  0.00    -0.460 OA
BRANCH  36  37
ATOM     37  C   UNL A   1      43.341  23.921  25.410  1.00  0.00     0.338 C 
ATOM     38  O   UNL A   1      44.092  23.289  24.691  1.00  0.00    -0.246 OA
BRANCH  37  39
ATOM     39  C   UNL A   1      43.679  25.209  26.009  1.00  0.00     0.060 A 
ATOM     40  C   UNL A   1      44.285  25.304  27.672  1.00  0.00     0.016 A 
ATOM     41  C   UNL A   1      43.231  26.739  25.179  1.00  0.00     0.016 A 
ATOM     42  C   UNL A   1      44.439  26.850  28.571  1.00  0.00     0.010 A 
ATOM     43  C   UNL A   1      43.413  28.471  26.205  1.00  0.00     0.010 A 
ATOM     44  C   UNL A   1      44.008  28.421  27.894  1.00  0.00    -0.014 A 
BRANCH  44  45
ATOM     45  C   UNL A   1      44.053  29.691  28.636  1.00  0.00     0.031 A 
ATOM     46  C   UNL A   1      42.802  30.234  29.250  1.00  0.00     0.074 A 
ATOM     47  C   UNL A   1      45.169  30.438  28.598  1.00  0.00     0.049 A 
ATOM     48  N   UNL A   1      42.651  31.170  30.146  1.00  0.00    -0.248 NA
ATOM     49  C   UNL A   1      41.541  29.639  28.802  1.00  0.00     0.031 C 
ATOM     50  C   UNL A   1      46.416  30.077  27.922  1.00  0.00     0.029 A 
ATOM     51  N   UNL A   1      45.417  31.689  29.098  1.00  0.00    -0.354 N 
ATOM     52  C   UNL A   1      41.295  31.169  30.460  1.00  0.00     0.074 A 
ATOM     53  C   UNL A   1      40.657  30.191  29.615  1.00  0.00     0.031 C 
ATOM     54  C   UNL A   1      47.275  31.106  28.000  1.00  0.00     0.029 A 
ATOM     55  C   UNL A   1      46.658  32.179  28.770  1.00  0.00     0.049 A 
ATOM     56  H   UNL A   1      44.767  32.189  29.643  1.00  0.00     0.167 HD
ATOM     57  C   UNL A   1      40.638  31.937  31.359  1.00  0.00     0.034 A 
ATOM     58  C   UNL A   1      47.230  33.356  29.086  1.00  0.00     0.034 A 
ATOM     59  C   UNL A   1      41.258  33.081  31.972  1.00  0.00     0.049 A 
ATOM     60  C   UNL A   1      46.475  34.265  30.023  1.00  0.00     0.074 A 
ATOM     61  C   UNL A   1      40.737  33.975  32.887  1.00  0.00     0.029 A 
ATOM     62  N   UNL A   1      42.531  33.540  31.642  1.00  0.00    -0.354 N 
ATOM     63  N   UNL A   1      45.268  34.116  30.526  1.00  0.00    -0.248 NA
ATOM     64  C   UNL A   1      47.178  35.466  30.482  1.00  0.00     0.031 C 
ATOM     65  C   UNL A   1      41.655  35.022  33.033  1.00  0.00     0.029 A 
ATOM     66  C   UNL A   1      42.789  34.734  32.286  1.00  0.00     0.049 A 
ATOM     67  H   UNL A   1      43.156  33.079  31.037  1.00  0.00     0.167 HD
ATOM     68  C   UNL A   1      45.087  35.179  31.404  1.00  0.00     0.074 A 
ATOM     69  C   UNL A   1      46.314  35.954  31.361  1.00  0.00     0.031 C 
ATOM     70  C   UNL A   1      44.020  35.487  32.188  1.00  0.00     0.034 A 
BRANCH  57  71
ATOM     71  C   UNL A   1      39.193  31.595  31.634  1.00  0.00     0.023 A 
ATOM     72  C   UNL A   1      38.150  32.429  31.178  1.00  0.00     0.031 A 
ATOM     73  C   UNL A   1      38.840  30.463  32.386  1.00  0.00     0.131 A 
ATOM     74  C   UNL A   1      36.817  32.143  31.516  1.00  0.00     0.055 A 
ATOM     75  C   UNL A   1      37.507  30.152  32.671  1.00  0.00     0.041 A 
ATOM     76  F   UNL A   1      39.786  29.651  32.883  1.00  0.00    -0.206 F 
ATOM     77  C   UNL A   1      36.488  30.998  32.243  1.00  0.00     0.022 A 
BRANCH  74  78
ATOM     78  S   UNL A   1      35.521  33.339  31.081  1.00  0.00     0.124 S 
ATOM     79  O   UNL A   1      36.072  33.949  29.875  1.00  0.00    -0.237 OA
ATOM     80  O   UNL A   1      34.353  32.486  30.892  1.00  0.00    -0.237 OA
ATOM     81  O   UNL A   1      35.463  34.221  32.245  1.00  0.00    -0.744 OA
ENDBRANCH  74  78
ENDBRANCH  57  71
BRANCH  58  82
ATOM     82  C   UNL A   1      48.600  33.681  28.599  1.00  0.00     0.023 A 
ATOM     83  C   UNL A   1      48.806  34.172  27.301  1.00  0.00     0.031 A 
ATOM     84  C   UNL A   1      49.725  33.524  29.430  1.00  0.00     0.131 A 
ATOM     85  C   UNL A   1      50.107  34.460  26.856  1.00  0.00     0.055 A 
ATOM     86  C   UNL A   1      51.014  33.851  28.997  1.00  0.00     0.041 A 
ATOM     87  F   UNL A   1      49.585  33.065  30.683  1.00  0.00    -0.206 F 
ATOM     88  C   UNL A   1      51.210  34.314  27.699  1.00  0.00     0.022 A 
BRANCH  85  89
ATOM     89  S   UNL A   1      50.339  34.977  25.134  1.00  0.00     0.124 S 
ATOM     90  O   UNL A   1      51.138  36.186  25.288  1.00  0.00    -0.237 OA
ATOM     91  O   UNL A   1      51.024  33.822  24.564  1.00  0.00    -0.237 OA
ATOM     92  O   UNL A   1      48.974  35.188  24.654  1.00  0.00    -0.744 OA
ENDBRANCH  85  89
ENDBRANCH  58  82
BRANCH  70  93
ATOM     93  C   UNL A   1      44.159  36.699  33.069  1.00  0.00     0.023 A 
ATOM     94  C   UNL A   1      44.515  36.585  34.422  1.00  0.00     0.031 A 
ATOM     95  C   UNL A   1      43.918  37.982  32.547  1.00  0.00     0.131 A 
ATOM     96  C   UNL A   1      44.548  37.729  35.229  1.00  0.00     0.055 A 
ATOM     97  C   UNL A   1      44.031  39.125  33.337  1.00  0.00     0.041 A 
ATOM     98  F   UNL A   1      43.575  38.145  31.259  1.00  0.00    -0.206 F 
ATOM     99  C   UNL A   1      44.331  39.000  34.691  1.00  0.00     0.022 A 
BRANCH  96 100
ATOM    100  S   UNL A   1      44.766  37.517  37.015  1.00  0.00     0.124 S 
ATOM    101  O   UNL A   1      45.509  38.722  37.372  1.00  0.00    -0.237 OA
ATOM    102  O   UNL A   1      43.390  37.453  37.494  1.00  0.00    -0.237 OA
ATOM    103  O   UNL A   1      45.520  36.269  37.121  1.00  0.00    -0.744 OA
ENDBRANCH  96 100
ENDBRANCH  70  93
ENDBRANCH  44  45
ENDBRANCH  37  39
ENDBRANCH  36  37
ENDBRANCH  35  36
ENDBRANCH  34  35
ENDBRANCH   1  34
TORSDOF 20
ENDMDL
