MODEL 1
REMARK VINA RESULT:     -12.5      0.000      0.000
REMARK SMILES Cc1ccccc1/[NH+]=C1\S[C@@H](CC(=O)Nc2ccc(C(=O)OCCOCCOC(=O)c3ccc(-c4c5nc(c(-c6cc(S(=O)(=O)[O-])ccc6F)c6ccc([nH]6)c(-c6cc(S(=O)(=O)[O-])ccc6F)c6nc(c(-c7cc(S(=O)(=O)[O-])ccc7F)c7ccc4[nH]7)C=C6)C=C5)cc3)cc2)C(=O)N1C
REMARK SMILES IDX 24 1 23 2 22 3 20 4 21 5 19 6 16 7 17 8 95 9 18 10 94 11
REMARK SMILES IDX 15 12 13 13 14 14 12 16 11 17 8 18 9 19 10 21 98 22 96 23
REMARK SMILES IDX 99 24 97 25 7 26 1 27 2 28 3 29 4 30 6 31 5 32 25 33 26 34
REMARK SMILES IDX 27 35 28 36 29 37 30 38 31 39 32 40 93 41 33 42 92 43 34 44
REMARK SMILES IDX 35 45 36 46 86 47 37 48 91 49 85 50 87 51 38 52 90 53 84 54
REMARK SMILES IDX 83 55 39 57 71 58 51 59 70 60 52 61 55 62 69 63 88 64 53 65
REMARK SMILES IDX 54 66 68 68 89 69 56 70 40 71 41 72 49 73 42 74 48 75 50 76
REMARK SMILES IDX 47 77 43 78 44 79 45 80 46 81 72 82 73 83 81 84 74 85 80 86
REMARK SMILES IDX 82 87 79 88 75 89 76 90 77 91 78 92 57 93 58 94 66 95 59 96
REMARK SMILES IDX 65 97 67 98 64 99 60 100 61 101 62 102 63 103
REMARK H PARENT 15 15 8 20 87 56 55 67
REMARK Flexibility Score: inf
ROOT
ATOM      1  C   UNL A   1      33.715  34.040  29.218  1.00  0.00     0.202 C 
ENDROOT
BRANCH   1   2
ATOM      2  C   UNL A   1      33.879  33.394  27.892  1.00  0.00     0.261 C 
BRANCH   2   3
ATOM      3  O   UNL A   1      33.607  31.981  27.950  1.00  0.00    -0.460 OA
BRANCH   3   4
ATOM      4  C   UNL A   1      34.524  31.009  27.732  1.00  0.00     0.338 C 
ATOM      5  O   UNL A   1      35.704  30.965  28.033  1.00  0.00    -0.246 OA
BRANCH   4   6
ATOM      6  C   UNL A   1      33.778  29.938  27.035  1.00  0.00     0.060 A 
ATOM      7  C   UNL A   1      32.244  28.053  25.686  1.00  0.00     0.041 A 
ATOM      8  C   UNL A   1      31.659  28.902  26.611  1.00  0.00     0.027 A 
ATOM      9  C   UNL A   1      33.630  28.019  25.553  1.00  0.00     0.027 A 
ATOM     10  C   UNL A   1      32.399  29.864  27.249  1.00  0.00     0.018 A 
ATOM     11  C   UNL A   1      34.406  28.982  26.225  1.00  0.00     0.018 A 
BRANCH   7  12
ATOM     12  N   UNL A   1      31.392  27.301  24.870  1.00  0.00    -0.326 N 
ATOM     13  C   UNL A   1      31.836  26.364  23.949  1.00  0.00     0.226 C 
ATOM     14  O   UNL A   1      31.120  26.003  23.016  1.00  0.00    -0.275 OA
ATOM     15  H   UNL A   1      30.421  27.443  24.956  1.00  0.00     0.169 HD
BRANCH  13  16
ATOM     16  C   UNL A   1      33.132  25.629  24.293  1.00  0.00     0.128 C 
BRANCH  16  17
ATOM     17  C   UNL A   1      33.038  24.306  25.026  1.00  0.00     0.183 C 
ATOM     18  N   UNL A   1      32.249  20.726  25.327  1.00  0.00    -0.234 N 
ATOM     19  C   UNL A   1      32.107  21.969  25.041  1.00  0.00     0.319 C 
ATOM     20  H   UNL A   1      31.674  20.413  26.063  1.00  0.00     0.313 HD
ATOM     21  S   UNL A   1      32.808  22.952  23.803  1.00  0.00    -0.022 SA
ATOM     22  N   UNL A   1      31.380  22.797  25.845  1.00  0.00    -0.193 N 
ATOM     23  C   UNL A   1      31.904  24.063  26.009  1.00  0.00     0.324 C 
ATOM     24  C   UNL A   1      30.155  22.384  26.494  1.00  0.00     0.301 C 
ATOM     25  O   UNL A   1      31.599  24.842  26.905  1.00  0.00    -0.245 OA
BRANCH  18  26
ATOM     26  C   UNL A   1      33.075  19.734  24.778  1.00  0.00     0.128 A 
ATOM     27  C   UNL A   1      35.421  20.713  25.285  1.00  0.00     0.049 C 
ATOM     28  C   UNL A   1      34.484  19.632  24.837  1.00  0.00    -0.004 A 
ATOM     29  C   UNL A   1      35.113  18.427  24.447  1.00  0.00     0.008 A 
ATOM     30  C   UNL A   1      34.379  17.311  24.067  1.00  0.00     0.001 A 
ATOM     31  C   UNL A   1      32.364  18.592  24.358  1.00  0.00     0.052 A 
ATOM     32  C   UNL A   1      32.998  17.393  24.019  1.00  0.00     0.004 A 
ENDBRANCH  18  26
ENDBRANCH  16  17
ENDBRANCH  13  16
ENDBRANCH   7  12
ENDBRANCH   4   6
ENDBRANCH   3   4
ENDBRANCH   2   3
ENDBRANCH   1   2
BRANCH   1  33
ATOM     33  O   UNL A   1      32.762  35.061  28.963  1.00  0.00    -0.374 OA
BRANCH  33  34
ATOM     34  C   UNL A   1      32.871  36.195  29.782  1.00  0.00     0.202 C 
BRANCH  34  35
ATOM     35  C   UNL A   1      32.921  35.808  31.261  1.00  0.00     0.261 C 
BRANCH  35  36
ATOM     36  O   UNL A   1      34.152  36.299  31.843  1.00  0.00    -0.460 OA
BRANCH  36  37
ATOM     37  C   UNL A   1      34.565  35.665  32.978  1.00  0.00     0.338 C 
ATOM     38  O   UNL A   1      34.467  36.120  34.106  1.00  0.00    -0.246 OA
BRANCH  37  39
ATOM     39  C   UNL A   1      35.278  34.397  32.637  1.00  0.00     0.060 A 
ATOM     40  C   UNL A   1      35.172  33.268  33.477  1.00  0.00     0.016 A 
ATOM     41  C   UNL A   1      36.251  34.424  31.641  1.00  0.00     0.016 A 
ATOM     42  C   UNL A   1      36.133  32.243  33.415  1.00  0.00     0.010 A 
ATOM     43  C   UNL A   1      37.237  33.458  31.640  1.00  0.00     0.010 A 
ATOM     44  C   UNL A   1      37.215  32.383  32.548  1.00  0.00    -0.014 A 
BRANCH  44  45
ATOM     45  C   UNL A   1      38.452  31.585  32.567  1.00  0.00     0.031 A 
ATOM     46  C   UNL A   1      38.468  30.310  31.825  1.00  0.00     0.074 A 
ATOM     47  C   UNL A   1      39.628  32.117  32.982  1.00  0.00     0.049 A 
ATOM     48  N   UNL A   1      39.409  29.438  31.916  1.00  0.00    -0.248 NA
ATOM     49  C   UNL A   1      37.383  29.868  30.950  1.00  0.00     0.031 C 
ATOM     50  C   UNL A   1      40.997  31.747  32.615  1.00  0.00     0.029 A 
ATOM     51  N   UNL A   1      39.837  33.175  33.867  1.00  0.00    -0.354 N 
ATOM     52  C   UNL A   1      39.276  28.589  30.847  1.00  0.00     0.074 A 
ATOM     53  C   UNL A   1      37.911  28.758  30.428  1.00  0.00     0.031 C 
ATOM     54  C   UNL A   1      41.871  32.349  33.446  1.00  0.00     0.029 A 
ATOM     55  C   UNL A   1      41.092  33.042  34.463  1.00  0.00     0.049 A 
ATOM     56  H   UNL A   1      39.198  33.902  34.042  1.00  0.00     0.167 HD
ATOM     57  C   UNL A   1      40.402  28.004  30.345  1.00  0.00     0.034 A 
ATOM     58  C   UNL A   1      41.206  32.977  35.814  1.00  0.00     0.034 A 
ATOM     59  C   UNL A   1      41.563  28.263  31.231  1.00  0.00     0.049 A 
ATOM     60  C   UNL A   1      41.719  31.583  36.091  1.00  0.00     0.074 A 
ATOM     61  C   UNL A   1      42.768  28.929  31.073  1.00  0.00     0.029 A 
ATOM     62  N   UNL A   1      41.442  28.036  32.612  1.00  0.00    -0.354 N 
ATOM     63  N   UNL A   1      41.479  30.566  35.298  1.00  0.00    -0.248 NA
ATOM     64  C   UNL A   1      42.705  31.284  37.121  1.00  0.00     0.031 C 
ATOM     65  C   UNL A   1      43.311  29.177  32.373  1.00  0.00     0.029 A 
ATOM     66  C   UNL A   1      42.460  28.637  33.328  1.00  0.00     0.049 A 
ATOM     67  H   UNL A   1      40.717  27.510  33.021  1.00  0.00     0.167 HD
ATOM     68  C   UNL A   1      42.371  29.571  35.573  1.00  0.00     0.074 A 
ATOM     69  C   UNL A   1      43.072  30.039  36.765  1.00  0.00     0.031 C 
ATOM     70  C   UNL A   1      42.570  28.476  34.779  1.00  0.00     0.034 A 
BRANCH  57  71
ATOM     71  C   UNL A   1      40.525  27.400  28.942  1.00  0.00     0.023 A 
ATOM     72  C   UNL A   1      40.680  26.001  28.812  1.00  0.00     0.031 A 
ATOM     73  C   UNL A   1      40.576  28.102  27.712  1.00  0.00     0.131 A 
ATOM     74  C   UNL A   1      40.888  25.386  27.555  1.00  0.00     0.055 A 
ATOM     75  C   UNL A   1      40.747  27.488  26.462  1.00  0.00     0.041 A 
ATOM     76  F   UNL A   1      40.493  29.429  27.619  1.00  0.00    -0.206 F 
ATOM     77  C   UNL A   1      40.912  26.123  26.377  1.00  0.00     0.022 A 
BRANCH  74  78
ATOM     78  S   UNL A   1      41.156  23.595  27.471  1.00  0.00     0.124 S 
ATOM     79  O   UNL A   1      41.932  23.461  26.242  1.00  0.00    -0.237 OA
ATOM     80  O   UNL A   1      41.862  23.326  28.718  1.00  0.00    -0.237 OA
ATOM     81  O   UNL A   1      39.799  23.052  27.403  1.00  0.00    -0.744 OA
ENDBRANCH  74  78
ENDBRANCH  57  71
BRANCH  58  82
ATOM     82  C   UNL A   1      40.146  33.787  36.519  1.00  0.00     0.023 A 
ATOM     83  C   UNL A   1      39.112  33.098  37.228  1.00  0.00     0.031 A 
ATOM     84  C   UNL A   1      40.367  35.127  36.871  1.00  0.00     0.131 A 
ATOM     85  C   UNL A   1      38.431  33.713  38.307  1.00  0.00     0.055 A 
ATOM     86  C   UNL A   1      39.685  35.732  37.939  1.00  0.00     0.041 A 
ATOM     87  F   UNL A   1      41.337  35.837  36.277  1.00  0.00    -0.206 F 
ATOM     88  C   UNL A   1      38.741  35.020  38.681  1.00  0.00     0.022 A 
BRANCH  85  89
ATOM     89  S   UNL A   1      37.364  32.726  39.429  1.00  0.00     0.124 S 
ATOM     90  O   UNL A   1      36.147  32.549  38.646  1.00  0.00    -0.237 OA
ATOM     91  O   UNL A   1      38.146  31.515  39.656  1.00  0.00    -0.237 OA
ATOM     92  O   UNL A   1      37.236  33.565  40.618  1.00  0.00    -0.744 OA
ENDBRANCH  85  89
ENDBRANCH  58  82
BRANCH  70  93
ATOM     93  C   UNL A   1      42.999  27.149  35.350  1.00  0.00     0.023 A 
ATOM     94  C   UNL A   1      44.194  26.530  34.962  1.00  0.00     0.031 A 
ATOM     95  C   UNL A   1      42.300  26.525  36.407  1.00  0.00     0.131 A 
ATOM     96  C   UNL A   1      44.594  25.308  35.508  1.00  0.00     0.055 A 
ATOM     97  C   UNL A   1      42.755  25.357  37.025  1.00  0.00     0.041 A 
ATOM     98  F   UNL A   1      41.169  27.034  36.915  1.00  0.00    -0.206 F 
ATOM     99  C   UNL A   1      43.899  24.726  36.561  1.00  0.00     0.022 A 
BRANCH  96 100
ATOM    100  S   UNL A   1      46.001  24.477  34.736  1.00  0.00     0.124 S 
ATOM    101  O   UNL A   1      47.123  25.262  35.245  1.00  0.00    -0.237 OA
ATOM    102  O   UNL A   1      45.893  23.119  35.259  1.00  0.00    -0.237 OA
ATOM    103  O   UNL A   1      45.739  24.618  33.307  1.00  0.00    -0.744 OA
ENDBRANCH  96 100
ENDBRANCH  70  93
ENDBRANCH  44  45
ENDBRANCH  37  39
ENDBRANCH  36  37
ENDBRANCH  35  36
ENDBRANCH  34  35
ENDBRANCH  33  34
ENDBRANCH   1  33
TORSDOF 21
ENDMDL
MODEL 2
REMARK VINA RESULT:     -12.2      1.363      2.021
REMARK SMILES Cc1ccccc1/[NH+]=C1\S[C@@H](CC(=O)Nc2ccc(C(=O)OCCOCCOC(=O)c3ccc(-c4c5nc(c(-c6cc(S(=O)(=O)[O-])ccc6F)c6ccc([nH]6)c(-c6cc(S(=O)(=O)[O-])ccc6F)c6nc(c(-c7cc(S(=O)(=O)[O-])ccc7F)c7ccc4[nH]7)C=C6)C=C5)cc3)cc2)C(=O)N1C
REMARK SMILES IDX 24 1 23 2 22 3 20 4 21 5 19 6 16 7 17 8 95 9 18 10 94 11
REMARK SMILES IDX 15 12 13 13 14 14 12 16 11 17 8 18 9 19 10 21 98 22 96 23
REMARK SMILES IDX 99 24 97 25 7 26 1 27 2 28 3 29 4 30 6 31 5 32 25 33 26 34
REMARK SMILES IDX 27 35 28 36 29 37 30 38 31 39 32 40 93 41 33 42 92 43 34 44
REMARK SMILES IDX 35 45 36 46 86 47 37 48 91 49 85 50 87 51 38 52 90 53 84 54
REMARK SMILES IDX 83 55 39 57 71 58 51 59 70 60 52 61 55 62 69 63 88 64 53 65
REMARK SMILES IDX 54 66 68 68 89 69 56 70 40 71 41 72 49 73 42 74 48 75 50 76
REMARK SMILES IDX 47 77 43 78 44 79 45 80 46 81 72 82 73 83 81 84 74 85 80 86
REMARK SMILES IDX 82 87 79 88 75 89 76 90 77 91 78 92 57 93 58 94 66 95 59 96
REMARK SMILES IDX 65 97 67 98 64 99 60 100 61 101 62 102 63 103
REMARK H PARENT 15 15 8 20 87 56 55 67
REMARK Flexibility Score: inf
ROOT
ATOM      1  C   UNL A   1      34.545  33.788  28.590  1.00  0.00     0.202 C 
ENDROOT
BRANCH   1   2
ATOM      2  C   UNL A   1      33.832  32.870  27.666  1.00  0.00     0.261 C 
BRANCH   2   3
ATOM      3  O   UNL A   1      33.929  31.500  28.096  1.00  0.00    -0.460 OA
BRANCH   3   4
ATOM      4  C   UNL A   1      34.687  30.553  27.495  1.00  0.00     0.338 C 
ATOM      5  O   UNL A   1      35.896  30.400  27.498  1.00  0.00    -0.246 OA
BRANCH   4   6
ATOM      6  C   UNL A   1      33.715  29.675  26.806  1.00  0.00     0.060 A 
ATOM      7  C   UNL A   1      31.813  27.990  25.679  1.00  0.00     0.041 A 
ATOM      8  C   UNL A   1      32.517  27.599  26.806  1.00  0.00     0.027 A 
ATOM      9  C   UNL A   1      32.174  29.153  25.002  1.00  0.00     0.027 A 
ATOM     10  C   UNL A   1      33.425  28.441  27.394  1.00  0.00     0.018 A 
ATOM     11  C   UNL A   1      33.128  30.012  25.579  1.00  0.00     0.018 A 
BRANCH   7  12
ATOM     12  N   UNL A   1      30.710  27.215  25.305  1.00  0.00    -0.326 N 
ATOM     13  C   UNL A   1      30.670  26.433  24.161  1.00  0.00     0.226 C 
ATOM     14  O   UNL A   1      29.598  26.073  23.676  1.00  0.00    -0.275 OA
ATOM     15  H   UNL A   1      29.917  27.224  25.889  1.00  0.00     0.169 HD
BRANCH  13  16
ATOM     16  C   UNL A   1      31.999  25.840  23.692  1.00  0.00     0.128 C 
BRANCH  16  17
ATOM     17  C   UNL A   1      32.576  24.668  24.458  1.00  0.00     0.183 C 
ATOM     18  N   UNL A   1      35.007  21.976  25.070  1.00  0.00    -0.234 N 
ATOM     19  C   UNL A   1      34.177  22.726  24.443  1.00  0.00     0.319 C 
ATOM     20  H   UNL A   1      34.690  21.055  25.215  1.00  0.00     0.313 HD
ATOM     21  S   UNL A   1      34.295  24.357  23.882  1.00  0.00    -0.022 SA
ATOM     22  N   UNL A   1      32.896  22.316  24.210  1.00  0.00    -0.193 N 
ATOM     23  C   UNL A   1      31.934  23.295  24.342  1.00  0.00     0.324 C 
ATOM     24  C   UNL A   1      32.561  20.953  23.861  1.00  0.00     0.301 C 
ATOM     25  O   UNL A   1      30.733  23.090  24.483  1.00  0.00    -0.245 OA
BRANCH  18  26
ATOM     26  C   UNL A   1      36.288  22.233  25.583  1.00  0.00     0.128 A 
ATOM     27  C   UNL A   1      37.551  20.092  24.846  1.00  0.00     0.049 C 
ATOM     28  C   UNL A   1      37.472  21.479  25.410  1.00  0.00    -0.004 A 
ATOM     29  C   UNL A   1      38.715  22.036  25.788  1.00  0.00     0.008 A 
ATOM     30  C   UNL A   1      38.816  23.336  26.268  1.00  0.00     0.001 A 
ATOM     31  C   UNL A   1      36.424  23.536  26.102  1.00  0.00     0.052 A 
ATOM     32  C   UNL A   1      37.666  24.089  26.430  1.00  0.00     0.004 A 
ENDBRANCH  18  26
ENDBRANCH  16  17
ENDBRANCH  13  16
ENDBRANCH   7  12
ENDBRANCH   4   6
ENDBRANCH   3   4
ENDBRANCH   2   3
ENDBRANCH   1   2
BRANCH   1  33
ATOM     33  O   UNL A   1      33.583  34.034  29.605  1.00  0.00    -0.374 OA
BRANCH  33  34
ATOM     34  C   UNL A   1      33.264  35.385  29.808  1.00  0.00     0.202 C 
BRANCH  34  35
ATOM     35  C   UNL A   1      33.119  35.703  31.296  1.00  0.00     0.261 C 
BRANCH  35  36
ATOM     36  O   UNL A   1      34.430  35.911  31.872  1.00  0.00    -0.460 OA
BRANCH  36  37
ATOM     37  C   UNL A   1      34.757  35.094  32.914  1.00  0.00     0.338 C 
ATOM     38  O   UNL A   1      34.535  35.340  34.088  1.00  0.00    -0.246 OA
BRANCH  37  39
ATOM     39  C   UNL A   1      35.547  33.922  32.430  1.00  0.00     0.060 A 
ATOM     40  C   UNL A   1      35.384  32.654  33.025  1.00  0.00     0.016 A 
ATOM     41  C   UNL A   1      36.627  34.149  31.581  1.00  0.00     0.016 A 
ATOM     42  C   UNL A   1      36.379  31.670  32.888  1.00  0.00     0.010 A 
ATOM     43  C   UNL A   1      37.639  33.212  31.517  1.00  0.00     0.010 A 
ATOM     44  C   UNL A   1      37.549  31.984  32.198  1.00  0.00    -0.014 A 
BRANCH  44  45
ATOM     45  C   UNL A   1      38.801  31.211  32.216  1.00  0.00     0.031 A 
ATOM     46  C   UNL A   1      38.894  30.018  31.354  1.00  0.00     0.074 A 
ATOM     47  C   UNL A   1      39.937  31.721  32.755  1.00  0.00     0.049 A 
ATOM     48  N   UNL A   1      39.848  29.158  31.418  1.00  0.00    -0.248 NA
ATOM     49  C   UNL A   1      37.875  29.645  30.374  1.00  0.00     0.031 C 
ATOM     50  C   UNL A   1      41.335  31.415  32.439  1.00  0.00     0.029 A 
ATOM     51  N   UNL A   1      40.066  32.688  33.750  1.00  0.00    -0.354 N 
ATOM     52  C   UNL A   1      39.801  28.418  30.263  1.00  0.00     0.074 A 
ATOM     53  C   UNL A   1      38.461  28.603  29.779  1.00  0.00     0.031 C 
ATOM     54  C   UNL A   1      42.141  31.946  33.379  1.00  0.00     0.029 A 
ATOM     55  C   UNL A   1      41.286  32.520  34.408  1.00  0.00     0.049 A 
ATOM     56  H   UNL A   1      39.400  33.383  33.956  1.00  0.00     0.167 HD
ATOM     57  C   UNL A   1      40.969  27.907  29.778  1.00  0.00     0.034 A 
ATOM     58  C   UNL A   1      41.319  32.322  35.751  1.00  0.00     0.034 A 
ATOM     59  C   UNL A   1      42.068  28.097  30.757  1.00  0.00     0.049 A 
ATOM     60  C   UNL A   1      41.849  30.917  35.920  1.00  0.00     0.074 A 
ATOM     61  C   UNL A   1      43.264  28.798  30.740  1.00  0.00     0.029 A 
ATOM     62  N   UNL A   1      41.869  27.731  32.097  1.00  0.00    -0.354 N 
ATOM     63  N   UNL A   1      41.682  29.980  35.017  1.00  0.00    -0.248 NA
ATOM     64  C   UNL A   1      42.778  30.534  36.975  1.00  0.00     0.031 C 
ATOM     65  C   UNL A   1      43.721  28.925  32.089  1.00  0.00     0.029 A 
ATOM     66  C   UNL A   1      42.827  28.276  32.931  1.00  0.00     0.049 A 
ATOM     67  H   UNL A   1      41.134  27.153  32.407  1.00  0.00     0.167 HD
ATOM     68  C   UNL A   1      42.580  28.979  35.248  1.00  0.00     0.074 A 
ATOM     69  C   UNL A   1      43.196  29.338  36.522  1.00  0.00     0.031 C 
ATOM     70  C   UNL A   1      42.853  27.973  34.364  1.00  0.00     0.034 A 
BRANCH  57  71
ATOM     71  C   UNL A   1      41.192  27.448  28.333  1.00  0.00     0.023 A 
ATOM     72  C   UNL A   1      41.897  26.246  28.098  1.00  0.00     0.031 A 
ATOM     73  C   UNL A   1      40.826  28.141  27.152  1.00  0.00     0.131 A 
ATOM     74  C   UNL A   1      42.216  25.810  26.791  1.00  0.00     0.055 A 
ATOM     75  C   UNL A   1      41.111  27.690  25.854  1.00  0.00     0.041 A 
ATOM     76  F   UNL A   1      40.193  29.314  27.154  1.00  0.00    -0.206 F 
ATOM     77  C   UNL A   1      41.816  26.521  25.666  1.00  0.00     0.022 A 
BRANCH  74  78
ATOM     78  S   UNL A   1      43.190  24.298  26.567  1.00  0.00     0.124 S 
ATOM     79  O   UNL A   1      44.201  24.727  25.606  1.00  0.00    -0.237 OA
ATOM     80  O   UNL A   1      43.657  24.023  27.922  1.00  0.00    -0.237 OA
ATOM     81  O   UNL A   1      42.214  23.339  26.047  1.00  0.00    -0.744 OA
ENDBRANCH  74  78
ENDBRANCH  57  71
BRANCH  58  82
ATOM     82  C   UNL A   1      40.200  33.038  36.465  1.00  0.00     0.023 A 
ATOM     83  C   UNL A   1      39.114  32.267  36.988  1.00  0.00     0.031 A 
ATOM     84  C   UNL A   1      40.382  34.319  37.006  1.00  0.00     0.131 A 
ATOM     85  C   UNL A   1      38.341  32.739  38.076  1.00  0.00     0.055 A 
ATOM     86  C   UNL A   1      39.609  34.782  38.084  1.00  0.00     0.041 A 
ATOM     87  F   UNL A   1      41.395  35.096  36.594  1.00  0.00    -0.206 F 
ATOM     88  C   UNL A   1      38.611  33.984  38.644  1.00  0.00     0.022 A 
BRANCH  85  89
ATOM     89  S   UNL A   1      37.189  31.618  38.966  1.00  0.00     0.124 S 
ATOM     90  O   UNL A   1      35.948  32.382  38.989  1.00  0.00    -0.237 OA
ATOM     91  O   UNL A   1      37.174  30.422  38.130  1.00  0.00    -0.237 OA
ATOM     92  O   UNL A   1      37.832  31.413  40.261  1.00  0.00    -0.744 OA
ENDBRANCH  85  89
ENDBRANCH  58  82
BRANCH  70  93
ATOM     93  C   UNL A   1      43.279  26.604  34.827  1.00  0.00     0.023 A 
ATOM     94  C   UNL A   1      44.629  26.269  34.998  1.00  0.00     0.031 A 
ATOM     95  C   UNL A   1      42.348  25.630  35.252  1.00  0.00     0.131 A 
ATOM     96  C   UNL A   1      45.016  25.003  35.444  1.00  0.00     0.055 A 
ATOM     97  C   UNL A   1      42.735  24.403  35.796  1.00  0.00     0.041 A 
ATOM     98  F   UNL A   1      41.024  25.835  35.194  1.00  0.00    -0.206 F 
ATOM     99  C   UNL A   1      44.079  24.071  35.874  1.00  0.00     0.022 A 
BRANCH  96 100
ATOM    100  S   UNL A   1      46.776  24.598  35.360  1.00  0.00     0.124 S 
ATOM    101  O   UNL A   1      47.326  25.802  34.742  1.00  0.00    -0.237 OA
ATOM    102  O   UNL A   1      47.122  24.397  36.763  1.00  0.00    -0.237 OA
ATOM    103  O   UNL A   1      46.813  23.399  34.530  1.00  0.00    -0.744 OA
ENDBRANCH  96 100
ENDBRANCH  70  93
ENDBRANCH  44  45
ENDBRANCH  37  39
ENDBRANCH  36  37
ENDBRANCH  35  36
ENDBRANCH  34  35
ENDBRANCH  33  34
ENDBRANCH   1  33
TORSDOF 21
ENDMDL
MODEL 3
REMARK VINA RESULT:     -11.7      2.005      3.235
REMARK SMILES Cc1ccccc1/[NH+]=C1\S[C@@H](CC(=O)Nc2ccc(C(=O)OCCOCCOC(=O)c3ccc(-c4c5nc(c(-c6cc(S(=O)(=O)[O-])ccc6F)c6ccc([nH]6)c(-c6cc(S(=O)(=O)[O-])ccc6F)c6nc(c(-c7cc(S(=O)(=O)[O-])ccc7F)c7ccc4[nH]7)C=C6)C=C5)cc3)cc2)C(=O)N1C
REMARK SMILES IDX 24 1 23 2 22 3 20 4 21 5 19 6 16 7 17 8 95 9 18 10 94 11
REMARK SMILES IDX 15 12 13 13 14 14 12 16 11 17 8 18 9 19 10 21 98 22 96 23
REMARK SMILES IDX 99 24 97 25 7 26 1 27 2 28 3 29 4 30 6 31 5 32 25 33 26 34
REMARK SMILES IDX 27 35 28 36 29 37 30 38 31 39 32 40 93 41 33 42 92 43 34 44
REMARK SMILES IDX 35 45 36 46 86 47 37 48 91 49 85 50 87 51 38 52 90 53 84 54
REMARK SMILES IDX 83 55 39 57 71 58 51 59 70 60 52 61 55 62 69 63 88 64 53 65
REMARK SMILES IDX 54 66 68 68 89 69 56 70 40 71 41 72 49 73 42 74 48 75 50 76
REMARK SMILES IDX 47 77 43 78 44 79 45 80 46 81 72 82 73 83 81 84 74 85 80 86
REMARK SMILES IDX 82 87 79 88 75 89 76 90 77 91 78 92 57 93 58 94 66 95 59 96
REMARK SMILES IDX 65 97 67 98 64 99 60 100 61 101 62 102 63 103
REMARK H PARENT 15 15 8 20 87 56 55 67
REMARK Flexibility Score: inf
ROOT
ATOM      1  C   UNL A   1      33.556  31.624  27.427  1.00  0.00     0.202 C 
ENDROOT
BRANCH   1   2
ATOM      2  C   UNL A   1      32.287  31.258  26.748  1.00  0.00     0.261 C 
BRANCH   2   3
ATOM      3  O   UNL A   1      32.204  29.842  26.501  1.00  0.00    -0.460 OA
BRANCH   3   4
ATOM      4  C   UNL A   1      32.641  29.227  25.377  1.00  0.00     0.338 C 
ATOM      5  O   UNL A   1      33.274  29.674  24.436  1.00  0.00    -0.246 OA
BRANCH   4   6
ATOM      6  C   UNL A   1      32.196  27.823  25.520  1.00  0.00     0.060 A 
ATOM      7  C   UNL A   1      31.419  25.191  25.967  1.00  0.00     0.041 A 
ATOM      8  C   UNL A   1      32.665  25.636  26.382  1.00  0.00     0.027 A 
ATOM      9  C   UNL A   1      30.619  26.008  25.170  1.00  0.00     0.027 A 
ATOM     10  C   UNL A   1      33.039  26.943  26.205  1.00  0.00     0.018 A 
ATOM     11  C   UNL A   1      31.006  27.344  24.955  1.00  0.00     0.018 A 
BRANCH   7  12
ATOM     12  N   UNL A   1      30.992  23.942  26.430  1.00  0.00    -0.326 N 
ATOM     13  C   UNL A   1      31.218  22.751  25.756  1.00  0.00     0.226 C 
ATOM     14  O   UNL A   1      30.533  21.755  25.982  1.00  0.00    -0.275 OA
ATOM     15  H   UNL A   1      30.503  23.907  27.284  1.00  0.00     0.169 HD
BRANCH  13  16
ATOM     16  C   UNL A   1      32.498  22.670  24.924  1.00  0.00     0.128 C 
BRANCH  16  17
ATOM     17  C   UNL A   1      33.736  22.072  25.562  1.00  0.00     0.183 C 
ATOM     18  N   UNL A   1      37.345  21.417  25.828  1.00  0.00    -0.234 N 
ATOM     19  C   UNL A   1      36.178  21.522  25.308  1.00  0.00     0.319 C 
ATOM     20  H   UNL A   1      37.669  20.491  25.912  1.00  0.00     0.313 HD
ATOM     21  S   UNL A   1      35.229  22.902  24.879  1.00  0.00    -0.022 SA
ATOM     22  N   UNL A   1      35.398  20.421  25.103  1.00  0.00    -0.193 N 
ATOM     23  C   UNL A   1      34.055  20.599  25.363  1.00  0.00     0.324 C 
ATOM     24  C   UNL A   1      35.932  19.153  24.659  1.00  0.00     0.301 C 
ATOM     25  O   UNL A   1      33.246  19.695  25.545  1.00  0.00    -0.245 OA
BRANCH  18  26
ATOM     26  C   UNL A   1      38.244  22.387  26.298  1.00  0.00     0.128 A 
ATOM     27  C   UNL A   1      40.388  20.961  26.607  1.00  0.00     0.049 C 
ATOM     28  C   UNL A   1      39.630  22.254  26.548  1.00  0.00    -0.004 A 
ATOM     29  C   UNL A   1      40.413  23.409  26.770  1.00  0.00     0.008 A 
ATOM     30  C   UNL A   1      39.870  24.685  26.686  1.00  0.00     0.001 A 
ATOM     31  C   UNL A   1      37.721  23.694  26.252  1.00  0.00     0.052 A 
ATOM     32  C   UNL A   1      38.518  24.830  26.429  1.00  0.00     0.004 A 
ENDBRANCH  18  26
ENDBRANCH  16  17
ENDBRANCH  13  16
ENDBRANCH   7  12
ENDBRANCH   4   6
ENDBRANCH   3   4
ENDBRANCH   2   3
ENDBRANCH   1   2
BRANCH   1  33
ATOM     33  O   UNL A   1      33.142  32.590  28.382  1.00  0.00    -0.374 OA
BRANCH  33  34
ATOM     34  C   UNL A   1      33.263  33.925  27.969  1.00  0.00     0.202 C 
BRANCH  34  35
ATOM     35  C   UNL A   1      33.135  34.885  29.151  1.00  0.00     0.261 C 
BRANCH  35  36
ATOM     36  O   UNL A   1      34.398  34.952  29.853  1.00  0.00    -0.460 OA
BRANCH  36  37
ATOM     37  C   UNL A   1      34.450  34.293  31.047  1.00  0.00     0.338 C 
ATOM     38  O   UNL A   1      33.956  34.696  32.087  1.00  0.00    -0.246 OA
BRANCH  37  39
ATOM     39  C   UNL A   1      35.311  33.077  30.934  1.00  0.00     0.060 A 
ATOM     40  C   UNL A   1      35.320  32.109  31.960  1.00  0.00     0.016 A 
ATOM     41  C   UNL A   1      36.294  33.043  29.948  1.00  0.00     0.016 A 
ATOM     42  C   UNL A   1      36.394  31.209  32.079  1.00  0.00     0.010 A 
ATOM     43  C   UNL A   1      37.384  32.214  30.116  1.00  0.00     0.010 A 
ATOM     44  C   UNL A   1      37.470  31.320  31.199  1.00  0.00    -0.014 A 
BRANCH  44  45
ATOM     45  C   UNL A   1      38.790  30.689  31.358  1.00  0.00     0.031 A 
ATOM     46  C   UNL A   1      39.120  29.541  30.492  1.00  0.00     0.074 A 
ATOM     47  C   UNL A   1      39.787  31.302  32.043  1.00  0.00     0.049 A 
ATOM     48  N   UNL A   1      40.150  28.790  30.657  1.00  0.00    -0.248 NA
ATOM     49  C   UNL A   1      38.276  29.091  29.387  1.00  0.00     0.031 C 
ATOM     50  C   UNL A   1      41.238  31.161  31.897  1.00  0.00     0.029 A 
ATOM     51  N   UNL A   1      39.685  32.245  33.064  1.00  0.00    -0.354 N 
ATOM     52  C   UNL A   1      40.327  28.087  29.492  1.00  0.00     0.074 A 
ATOM     53  C   UNL A   1      39.042  28.139  28.849  1.00  0.00     0.031 C 
ATOM     54  C   UNL A   1      41.860  31.747  32.939  1.00  0.00     0.029 A 
ATOM     55  C   UNL A   1      40.827  32.190  33.865  1.00  0.00     0.049 A 
ATOM     56  H   UNL A   1      38.925  32.856  33.199  1.00  0.00     0.167 HD
ATOM     57  C   UNL A   1      41.595  27.723  29.146  1.00  0.00     0.034 A 
ATOM     58  C   UNL A   1      40.720  31.954  35.197  1.00  0.00     0.034 A 
ATOM     59  C   UNL A   1      42.539  28.000  30.257  1.00  0.00     0.049 A 
ATOM     60  C   UNL A   1      41.380  30.611  35.404  1.00  0.00     0.074 A 
ATOM     61  C   UNL A   1      43.642  28.828  30.402  1.00  0.00     0.029 A 
ATOM     62  N   UNL A   1      42.222  27.571  31.555  1.00  0.00    -0.354 N 
ATOM     63  N   UNL A   1      41.431  29.691  34.470  1.00  0.00    -0.248 NA
ATOM     64  C   UNL A   1      42.212  30.298  36.559  1.00  0.00     0.031 C 
ATOM     65  C   UNL A   1      43.914  28.960  31.799  1.00  0.00     0.029 A 
ATOM     66  C   UNL A   1      43.004  28.191  32.511  1.00  0.00     0.049 A 
ATOM     67  H   UNL A   1      41.525  26.907  31.761  1.00  0.00     0.167 HD
ATOM     68  C   UNL A   1      42.401  28.788  34.793  1.00  0.00     0.074 A 
ATOM     69  C   UNL A   1      42.814  29.171  36.139  1.00  0.00     0.031 C 
ATOM     70  C   UNL A   1      42.891  27.847  33.930  1.00  0.00     0.034 A 
BRANCH  57  71
ATOM     71  C   UNL A   1      42.041  27.338  27.731  1.00  0.00     0.023 A 
ATOM     72  C   UNL A   1      42.947  26.266  27.568  1.00  0.00     0.031 A 
ATOM     73  C   UNL A   1      41.700  27.993  26.521  1.00  0.00     0.131 A 
ATOM     74  C   UNL A   1      43.470  25.915  26.301  1.00  0.00     0.055 A 
ATOM     75  C   UNL A   1      42.191  27.622  25.260  1.00  0.00     0.041 A 
ATOM     76  F   UNL A   1      40.894  29.053  26.461  1.00  0.00    -0.206 F 
ATOM     77  C   UNL A   1      43.087  26.582  25.144  1.00  0.00     0.022 A 
BRANCH  74  78
ATOM     78  S   UNL A   1      44.687  24.578  26.177  1.00  0.00     0.124 S 
ATOM     79  O   UNL A   1      44.870  24.467  24.732  1.00  0.00    -0.237 OA
ATOM     80  O   UNL A   1      45.814  25.110  26.935  1.00  0.00    -0.237 OA
ATOM     81  O   UNL A   1      44.009  23.441  26.799  1.00  0.00    -0.744 OA
ENDBRANCH  74  78
ENDBRANCH  57  71
BRANCH  58  82
ATOM     82  C   UNL A   1      39.449  32.519  35.780  1.00  0.00     0.023 A 
ATOM     83  C   UNL A   1      38.640  31.681  36.609  1.00  0.00     0.031 A 
ATOM     84  C   UNL A   1      39.258  33.904  35.906  1.00  0.00     0.131 A 
ATOM     85  C   UNL A   1      37.775  32.232  37.585  1.00  0.00     0.055 A 
ATOM     86  C   UNL A   1      38.395  34.444  36.874  1.00  0.00     0.041 A 
ATOM     87  F   UNL A   1      39.996  34.762  35.188  1.00  0.00    -0.206 F 
ATOM     88  C   UNL A   1      37.678  33.615  37.738  1.00  0.00     0.022 A 
BRANCH  85  89
ATOM     89  S   UNL A   1      37.008  31.168  38.871  1.00  0.00     0.124 S 
ATOM     90  O   UNL A   1      35.702  31.785  39.064  1.00  0.00    -0.237 OA
ATOM     91  O   UNL A   1      36.993  29.849  38.247  1.00  0.00    -0.237 OA
ATOM     92  O   UNL A   1      37.929  31.266  40.000  1.00  0.00    -0.744 OA
ENDBRANCH  85  89
ENDBRANCH  58  82
BRANCH  70  93
ATOM     93  C   UNL A   1      43.409  26.518  34.417  1.00  0.00     0.023 A 
ATOM     94  C   UNL A   1      44.778  26.219  34.431  1.00  0.00     0.031 A 
ATOM     95  C   UNL A   1      42.567  25.557  35.018  1.00  0.00     0.131 A 
ATOM     96  C   UNL A   1      45.253  24.992  34.900  1.00  0.00     0.055 A 
ATOM     97  C   UNL A   1      43.053  24.374  35.581  1.00  0.00     0.041 A 
ATOM     98  F   UNL A   1      41.242  25.733  35.121  1.00  0.00    -0.206 F 
ATOM     99  C   UNL A   1      44.404  24.073  35.504  1.00  0.00     0.022 A 
BRANCH  96 100
ATOM    100  S   UNL A   1      46.997  24.615  34.612  1.00  0.00     0.124 S 
ATOM    101  O   UNL A   1      47.652  25.492  35.581  1.00  0.00    -0.237 OA
ATOM    102  O   UNL A   1      47.066  23.188  34.907  1.00  0.00    -0.237 OA
ATOM    103  O   UNL A   1      47.199  24.974  33.212  1.00  0.00    -0.744 OA
ENDBRANCH  96 100
ENDBRANCH  70  93
ENDBRANCH  44  45
ENDBRANCH  37  39
ENDBRANCH  36  37
ENDBRANCH  35  36
ENDBRANCH  34  35
ENDBRANCH  33  34
ENDBRANCH   1  33
TORSDOF 21
ENDMDL
