MODEL 1
REMARK VINA RESULT:     -10.6      0.000      0.000
REMARK SMILES CCC[C@@H](c1cccc(C(=O)OCCOCCOC(=O)c2ccc(-c3c4nc(c(-c5cc(S(=O)(=O)[O-])ccc5F)c5ccc([nH]5)c(-c5cc(S(=O)(=O)[O-])ccc5F)c5nc(c(-c6cc(S(=O)(=O)[O-])ccc6F)c6ccc3[nH]6)C=C5)C=C4)cc2)c1)[C@H]1C[NH2+]CC[NH2+]1
REMARK SMILES IDX 15 1 14 2 13 3 12 4 10 5 11 6 9 7 5 8 6 9 84 10 7 11 8 12
REMARK SMILES IDX 4 13 3 14 2 15 1 16 85 17 86 18 90 19 87 20 89 21 88 24
REMARK SMILES IDX 16 27 17 28 18 29 19 30 20 31 21 32 22 33 83 34 23 35 82 36
REMARK SMILES IDX 24 37 25 38 26 39 76 40 27 41 81 42 75 43 77 44 28 45 80 46
REMARK SMILES IDX 74 47 73 48 29 50 61 51 41 52 60 53 42 54 45 55 59 56 78 57
REMARK SMILES IDX 43 58 44 59 58 61 79 62 46 63 30 64 31 65 39 66 32 67 38 68
REMARK SMILES IDX 40 69 37 70 33 71 34 72 35 73 36 74 62 75 63 76 71 77 64 78
REMARK SMILES IDX 70 79 72 80 69 81 65 82 66 83 67 84 68 85 47 86 48 87 56 88
REMARK SMILES IDX 49 89 55 90 57 91 54 92 50 93 51 94 52 95 53 96
REMARK H PARENT 90 22 90 23 87 25 87 26 77 49 45 60
REMARK Flexibility Score: inf
ROOT
ATOM      1  O   UNL A   1      41.477  21.735  25.702  1.00  0.00    -0.374 OA
ENDROOT
BRANCH   1   2
ATOM      2  C   UNL A   1      40.585  21.407  26.770  1.00  0.00     0.202 C 
BRANCH   2   3
ATOM      3  C   UNL A   1      39.126  21.185  26.352  1.00  0.00     0.261 C 
BRANCH   3   4
ATOM      4  O   UNL A   1      38.730  22.164  25.376  1.00  0.00    -0.460 OA
BRANCH   4   5
ATOM      5  C   UNL A   1      37.998  23.201  25.849  1.00  0.00     0.338 C 
ATOM      6  O   UNL A   1      38.304  23.977  26.740  1.00  0.00    -0.246 OA
BRANCH   5   7
ATOM      7  C   UNL A   1      36.837  23.414  24.953  1.00  0.00     0.060 A 
ATOM      8  C   UNL A   1      34.567  24.176  24.505  1.00  0.00    -0.038 A 
ATOM      9  C   UNL A   1      34.647  23.527  23.256  1.00  0.00     0.004 A 
ATOM     10  C   UNL A   1      35.678  24.096  25.361  1.00  0.00     0.020 A 
ATOM     11  C   UNL A   1      35.806  22.874  22.841  1.00  0.00     0.001 A 
ATOM     12  C   UNL A   1      36.905  22.825  23.685  1.00  0.00     0.016 A 
BRANCH   8  13
ATOM     13  C   UNL A   1      33.289  24.966  24.837  1.00  0.00     0.083 C 
BRANCH  13  14
ATOM     14  C   UNL A   1      33.527  26.479  24.600  1.00  0.00     0.014 C 
BRANCH  14  15
ATOM     15  C   UNL A   1      32.899  27.094  23.341  1.00  0.00    -0.003 C 
ATOM     16  C   UNL A   1      31.625  26.389  22.897  1.00  0.00     0.004 C 
ENDBRANCH  14  15
ENDBRANCH  13  14
BRANCH  13  17
ATOM     17  C   UNL A   1      32.655  24.601  26.236  1.00  0.00     0.245 C 
ATOM     18  C   UNL A   1      31.174  25.034  26.480  1.00  0.00     0.327 C 
ATOM     19  N   UNL A   1      32.840  23.154  26.556  1.00  0.00    -0.334 N 
ATOM     20  N   UNL A   1      30.128  24.185  25.888  1.00  0.00    -0.337 N 
ATOM     21  C   UNL A   1      31.835  22.315  25.888  1.00  0.00     0.323 C 
ATOM     22  H   UNL A   1      32.759  23.026  27.564  1.00  0.00     0.346 HD
ATOM     23  H   UNL A   1      33.761  22.872  26.222  1.00  0.00     0.346 HD
ATOM     24  C   UNL A   1      30.384  22.764  26.152  1.00  0.00     0.322 C 
ATOM     25  H   UNL A   1      30.107  24.338  24.879  1.00  0.00     0.346 HD
ATOM     26  H   UNL A   1      29.233  24.436  26.309  1.00  0.00     0.346 HD
ENDBRANCH  13  17
ENDBRANCH   8  13
ENDBRANCH   5   7
ENDBRANCH   4   5
ENDBRANCH   3   4
ENDBRANCH   2   3
ENDBRANCH   1   2
BRANCH   1  27
ATOM     27  C   UNL A   1      42.807  21.222  25.810  1.00  0.00     0.202 C 
BRANCH  27  28
ATOM     28  C   UNL A   1      43.901  22.034  25.106  1.00  0.00     0.261 C 
BRANCH  28  29
ATOM     29  O   UNL A   1      43.393  23.283  24.604  1.00  0.00    -0.460 OA
BRANCH  29  30
ATOM     30  C   UNL A   1      44.135  24.369  24.934  1.00  0.00     0.338 C 
ATOM     31  O   UNL A   1      45.199  24.706  24.444  1.00  0.00    -0.246 OA
BRANCH  30  32
ATOM     32  C   UNL A   1      43.375  25.226  25.867  1.00  0.00     0.060 A 
ATOM     33  C   UNL A   1      43.830  26.537  26.052  1.00  0.00     0.016 A 
ATOM     34  C   UNL A   1      42.274  24.750  26.583  1.00  0.00     0.016 A 
ATOM     35  C   UNL A   1      43.217  27.362  26.992  1.00  0.00     0.010 A 
ATOM     36  C   UNL A   1      41.663  25.580  27.531  1.00  0.00     0.010 A 
ATOM     37  C   UNL A   1      42.153  26.879  27.763  1.00  0.00    -0.014 A 
BRANCH  37  38
ATOM     38  C   UNL A   1      41.654  27.679  28.910  1.00  0.00     0.031 A 
ATOM     39  C   UNL A   1      42.386  27.606  30.222  1.00  0.00     0.074 A 
ATOM     40  C   UNL A   1      40.585  28.484  28.773  1.00  0.00     0.049 A 
ATOM     41  N   UNL A   1      42.106  28.180  31.363  1.00  0.00    -0.248 NA
ATOM     42  C   UNL A   1      43.590  26.764  30.249  1.00  0.00     0.031 C 
ATOM     43  C   UNL A   1      39.825  28.674  27.540  1.00  0.00     0.029 A 
ATOM     44  N   UNL A   1      39.951  29.290  29.686  1.00  0.00    -0.354 N 
ATOM     45  C   UNL A   1      43.098  27.767  32.248  1.00  0.00     0.074 A 
ATOM     46  C   UNL A   1      43.957  26.859  31.518  1.00  0.00     0.031 C 
ATOM     47  C   UNL A   1      38.820  29.534  27.775  1.00  0.00     0.029 A 
ATOM     48  C   UNL A   1      38.840  29.924  29.184  1.00  0.00     0.049 A 
ATOM     49  H   UNL A   1      40.262  29.403  30.613  1.00  0.00     0.167 HD
ATOM     50  C   UNL A   1      43.281  28.122  33.544  1.00  0.00     0.034 A 
ATOM     51  C   UNL A   1      37.929  30.708  29.796  1.00  0.00     0.034 A 
ATOM     52  C   UNL A   1      42.405  29.019  34.260  1.00  0.00     0.049 A 
ATOM     53  C   UNL A   1      38.098  31.017  31.265  1.00  0.00     0.074 A 
ATOM     54  C   UNL A   1      42.502  29.457  35.570  1.00  0.00     0.029 A 
ATOM     55  N   UNL A   1      41.262  29.607  33.732  1.00  0.00    -0.354 N 
ATOM     56  N   UNL A   1      39.043  30.627  32.089  1.00  0.00    -0.248 NA
ATOM     57  C   UNL A   1      37.082  31.881  31.881  1.00  0.00     0.031 C 
ATOM     58  C   UNL A   1      41.380  30.243  35.855  1.00  0.00     0.029 A 
ATOM     59  C   UNL A   1      40.625  30.371  34.699  1.00  0.00     0.049 A 
ATOM     60  H   UNL A   1      40.949  29.497  32.805  1.00  0.00     0.167 HD
ATOM     61  C   UNL A   1      38.750  31.225  33.314  1.00  0.00     0.074 A 
ATOM     62  C   UNL A   1      37.550  32.009  33.114  1.00  0.00     0.031 C 
ATOM     63  C   UNL A   1      39.419  31.140  34.493  1.00  0.00     0.034 A 
BRANCH  50  64
ATOM     64  C   UNL A   1      44.441  27.492  34.278  1.00  0.00     0.023 A 
ATOM     65  C   UNL A   1      44.281  26.343  35.073  1.00  0.00     0.031 A 
ATOM     66  C   UNL A   1      45.720  28.072  34.213  1.00  0.00     0.131 A 
ATOM     67  C   UNL A   1      45.359  25.860  35.832  1.00  0.00     0.055 A 
ATOM     68  C   UNL A   1      46.809  27.536  34.903  1.00  0.00     0.041 A 
ATOM     69  F   UNL A   1      45.932  29.183  33.491  1.00  0.00    -0.206 F 
ATOM     70  C   UNL A   1      46.628  26.432  35.731  1.00  0.00     0.022 A 
BRANCH  67  71
ATOM     71  S   UNL A   1      45.039  24.572  37.069  1.00  0.00     0.124 S 
ATOM     72  O   UNL A   1      43.615  24.762  37.331  1.00  0.00    -0.237 OA
ATOM     73  O   UNL A   1      45.402  23.353  36.355  1.00  0.00    -0.237 OA
ATOM     74  O   UNL A   1      45.923  24.934  38.175  1.00  0.00    -0.744 OA
ENDBRANCH  67  71
ENDBRANCH  50  64
BRANCH  51  75
ATOM     75  C   UNL A   1      36.749  31.222  29.041  1.00  0.00     0.023 A 
ATOM     76  C   UNL A   1      35.746  30.358  28.577  1.00  0.00     0.031 A 
ATOM     77  C   UNL A   1      36.636  32.591  28.733  1.00  0.00     0.131 A 
ATOM     78  C   UNL A   1      34.696  30.863  27.795  1.00  0.00     0.055 A 
ATOM     79  C   UNL A   1      35.561  33.096  28.000  1.00  0.00     0.041 A 
ATOM     80  F   UNL A   1      37.570  33.461  29.151  1.00  0.00    -0.206 F 
ATOM     81  C   UNL A   1      34.589  32.228  27.516  1.00  0.00     0.022 A 
BRANCH  78  82
ATOM     82  S   UNL A   1      33.511  29.695  27.073  1.00  0.00     0.124 S 
ATOM     83  O   UNL A   1      33.945  28.432  27.657  1.00  0.00    -0.237 OA
ATOM     84  O   UNL A   1      32.237  30.221  27.555  1.00  0.00    -0.237 OA
ATOM     85  O   UNL A   1      33.732  29.829  25.635  1.00  0.00    -0.744 OA
ENDBRANCH  78  82
ENDBRANCH  51  75
BRANCH  63  86
ATOM     86  C   UNL A   1      38.889  31.958  35.647  1.00  0.00     0.023 A 
ATOM     87  C   UNL A   1      38.239  31.365  36.744  1.00  0.00     0.031 A 
ATOM     88  C   UNL A   1      39.032  33.357  35.643  1.00  0.00     0.131 A 
ATOM     89  C   UNL A   1      37.708  32.172  37.763  1.00  0.00     0.055 A 
ATOM     90  C   UNL A   1      38.557  34.149  36.690  1.00  0.00     0.041 A 
ATOM     91  F   UNL A   1      39.640  33.980  34.621  1.00  0.00    -0.206 F 
ATOM     92  C   UNL A   1      37.878  33.558  37.751  1.00  0.00     0.022 A 
BRANCH  89  93
ATOM     93  S   UNL A   1      36.706  31.393  39.059  1.00  0.00     0.124 S 
ATOM     94  O   UNL A   1      35.573  32.308  39.158  1.00  0.00    -0.237 OA
ATOM     95  O   UNL A   1      36.418  30.082  38.487  1.00  0.00    -0.237 OA
ATOM     96  O   UNL A   1      37.595  31.381  40.219  1.00  0.00    -0.744 OA
ENDBRANCH  89  93
ENDBRANCH  63  86
ENDBRANCH  37  38
ENDBRANCH  30  32
ENDBRANCH  29  30
ENDBRANCH  28  29
ENDBRANCH  27  28
ENDBRANCH   1  27
TORSDOF 21
ENDMDL
MODEL 2
REMARK VINA RESULT:     -10.4      4.964      7.332
REMARK SMILES CCC[C@@H](c1cccc(C(=O)OCCOCCOC(=O)c2ccc(-c3c4nc(c(-c5cc(S(=O)(=O)[O-])ccc5F)c5ccc([nH]5)c(-c5cc(S(=O)(=O)[O-])ccc5F)c5nc(c(-c6cc(S(=O)(=O)[O-])ccc6F)c6ccc3[nH]6)C=C5)C=C4)cc2)c1)[C@H]1C[NH2+]CC[NH2+]1
REMARK SMILES IDX 15 1 14 2 13 3 12 4 10 5 11 6 9 7 5 8 6 9 84 10 7 11 8 12
REMARK SMILES IDX 4 13 3 14 2 15 1 16 85 17 86 18 90 19 87 20 89 21 88 24
REMARK SMILES IDX 16 27 17 28 18 29 19 30 20 31 21 32 22 33 83 34 23 35 82 36
REMARK SMILES IDX 24 37 25 38 26 39 76 40 27 41 81 42 75 43 77 44 28 45 80 46
REMARK SMILES IDX 74 47 73 48 29 50 61 51 41 52 60 53 42 54 45 55 59 56 78 57
REMARK SMILES IDX 43 58 44 59 58 61 79 62 46 63 30 64 31 65 39 66 32 67 38 68
REMARK SMILES IDX 40 69 37 70 33 71 34 72 35 73 36 74 62 75 63 76 71 77 64 78
REMARK SMILES IDX 70 79 72 80 69 81 65 82 66 83 67 84 68 85 47 86 48 87 56 88
REMARK SMILES IDX 49 89 55 90 57 91 54 92 50 93 51 94 52 95 53 96
REMARK H PARENT 90 22 90 23 87 25 87 26 77 49 45 60
REMARK Flexibility Score: inf
ROOT
ATOM      1  O   UNL A   1      35.677  20.771  25.280  1.00  0.00    -0.374 OA
ENDROOT
BRANCH   1   2
ATOM      2  C   UNL A   1      34.386  20.513  24.723  1.00  0.00     0.202 C 
BRANCH   2   3
ATOM      3  C   UNL A   1      33.262  20.322  25.749  1.00  0.00     0.261 C 
BRANCH   3   4
ATOM      4  O   UNL A   1      33.007  21.554  26.447  1.00  0.00    -0.460 OA
BRANCH   4   5
ATOM      5  C   UNL A   1      32.014  22.322  25.937  1.00  0.00     0.338 C 
ATOM      6  O   UNL A   1      30.816  22.090  25.957  1.00  0.00    -0.246 OA
BRANCH   5   7
ATOM      7  C   UNL A   1      32.579  23.635  25.547  1.00  0.00     0.060 A 
ATOM      8  C   UNL A   1      32.637  25.631  24.152  1.00  0.00    -0.038 A 
ATOM      9  C   UNL A   1      33.876  25.951  24.743  1.00  0.00     0.004 A 
ATOM     10  C   UNL A   1      32.000  24.446  24.557  1.00  0.00     0.020 A 
ATOM     11  C   UNL A   1      34.438  25.159  25.743  1.00  0.00     0.001 A 
ATOM     12  C   UNL A   1      33.786  24.005  26.153  1.00  0.00     0.016 A 
BRANCH   8  13
ATOM     13  C   UNL A   1      32.038  26.617  23.135  1.00  0.00     0.083 C 
BRANCH  13  14
ATOM     14  C   UNL A   1      32.892  26.625  21.841  1.00  0.00     0.014 C 
BRANCH  14  15
ATOM     15  C   UNL A   1      32.526  25.598  20.759  1.00  0.00    -0.003 C 
ATOM     16  C   UNL A   1      33.033  24.195  21.064  1.00  0.00     0.004 C 
ENDBRANCH  14  15
ENDBRANCH  13  14
BRANCH  13  17
ATOM     17  C   UNL A   1      31.722  28.043  23.734  1.00  0.00     0.245 C 
ATOM     18  C   UNL A   1      32.156  29.282  22.888  1.00  0.00     0.327 C 
ATOM     19  N   UNL A   1      30.289  28.158  24.137  1.00  0.00    -0.334 N 
ATOM     20  N   UNL A   1      31.281  29.661  21.767  1.00  0.00    -0.337 N 
ATOM     21  C   UNL A   1      29.421  28.455  22.989  1.00  0.00     0.323 C 
ATOM     22  H   UNL A   1      30.198  28.908  24.822  1.00  0.00     0.346 HD
ATOM     23  H   UNL A   1      29.999  27.263  24.531  1.00  0.00     0.346 HD
ATOM     24  C   UNL A   1      29.872  29.685  22.177  1.00  0.00     0.322 C 
ATOM     25  H   UNL A   1      31.397  28.985  21.011  1.00  0.00     0.346 HD
ATOM     26  H   UNL A   1      31.543  30.596  21.456  1.00  0.00     0.346 HD
ENDBRANCH  13  17
ENDBRANCH   8  13
ENDBRANCH   5   7
ENDBRANCH   4   5
ENDBRANCH   3   4
ENDBRANCH   2   3
ENDBRANCH   1   2
BRANCH   1  27
ATOM     27  C   UNL A   1      36.789  20.190  24.595  1.00  0.00     0.202 C 
BRANCH  27  28
ATOM     28  C   UNL A   1      38.079  20.040  25.410  1.00  0.00     0.261 C 
BRANCH  28  29
ATOM     29  O   UNL A   1      38.634  21.319  25.762  1.00  0.00    -0.460 OA
BRANCH  29  30
ATOM     30  C   UNL A   1      39.799  21.258  26.454  1.00  0.00     0.338 C 
ATOM     31  O   UNL A   1      40.574  20.318  26.504  1.00  0.00    -0.246 OA
BRANCH  30  32
ATOM     32  C   UNL A   1      40.115  22.589  27.013  1.00  0.00     0.060 A 
ATOM     33  C   UNL A   1      39.411  23.685  26.501  1.00  0.00     0.016 A 
ATOM     34  C   UNL A   1      41.109  22.773  27.977  1.00  0.00     0.016 A 
ATOM     35  C   UNL A   1      39.732  24.976  26.913  1.00  0.00     0.010 A 
ATOM     36  C   UNL A   1      41.434  24.073  28.386  1.00  0.00     0.010 A 
ATOM     37  C   UNL A   1      40.769  25.182  27.831  1.00  0.00    -0.014 A 
BRANCH  37  38
ATOM     38  C   UNL A   1      41.253  26.560  28.095  1.00  0.00     0.031 A 
ATOM     39  C   UNL A   1      42.659  26.926  27.702  1.00  0.00     0.074 A 
ATOM     40  C   UNL A   1      40.442  27.481  28.646  1.00  0.00     0.049 A 
ATOM     41  N   UNL A   1      43.305  28.050  27.875  1.00  0.00    -0.248 NA
ATOM     42  C   UNL A   1      43.440  25.878  27.031  1.00  0.00     0.031 C 
ATOM     43  C   UNL A   1      39.048  27.257  29.025  1.00  0.00     0.029 A 
ATOM     44  N   UNL A   1      40.677  28.789  28.988  1.00  0.00    -0.354 N 
ATOM     45  C   UNL A   1      44.571  27.845  27.337  1.00  0.00     0.074 A 
ATOM     46  C   UNL A   1      44.612  26.474  26.874  1.00  0.00     0.031 C 
ATOM     47  C   UNL A   1      38.554  28.388  29.556  1.00  0.00     0.029 A 
ATOM     48  C   UNL A   1      39.606  29.402  29.593  1.00  0.00     0.049 A 
ATOM     49  H   UNL A   1      41.532  29.246  28.817  1.00  0.00     0.167 HD
ATOM     50  C   UNL A   1      45.600  28.723  27.230  1.00  0.00     0.034 A 
ATOM     51  C   UNL A   1      39.495  30.631  30.139  1.00  0.00     0.034 A 
ATOM     52  C   UNL A   1      45.546  30.083  27.710  1.00  0.00     0.049 A 
ATOM     53  C   UNL A   1      40.683  31.562  30.092  1.00  0.00     0.074 A 
ATOM     54  C   UNL A   1      46.523  31.062  27.642  1.00  0.00     0.029 A 
ATOM     55  N   UNL A   1      44.460  30.656  28.360  1.00  0.00    -0.354 N 
ATOM     56  N   UNL A   1      41.873  31.360  29.575  1.00  0.00    -0.248 NA
ATOM     57  C   UNL A   1      40.507  32.891  30.694  1.00  0.00     0.031 C 
ATOM     58  C   UNL A   1      46.058  32.195  28.317  1.00  0.00     0.029 A 
ATOM     59  C   UNL A   1      44.756  31.959  28.731  1.00  0.00     0.049 A 
ATOM     60  H   UNL A   1      43.603  30.202  28.532  1.00  0.00     0.167 HD
ATOM     61  C   UNL A   1      42.576  32.549  29.762  1.00  0.00     0.074 A 
ATOM     62  C   UNL A   1      41.672  33.463  30.428  1.00  0.00     0.031 C 
ATOM     63  C   UNL A   1      43.850  32.859  29.408  1.00  0.00     0.034 A 
BRANCH  50  64
ATOM     64  C   UNL A   1      46.884  28.213  26.618  1.00  0.00     0.023 A 
ATOM     65  C   UNL A   1      47.110  28.249  25.230  1.00  0.00     0.031 A 
ATOM     66  C   UNL A   1      47.881  27.646  27.431  1.00  0.00     0.131 A 
ATOM     67  C   UNL A   1      48.265  27.657  24.693  1.00  0.00     0.055 A 
ATOM     68  C   UNL A   1      49.066  27.136  26.898  1.00  0.00     0.041 A 
ATOM     69  F   UNL A   1      47.713  27.560  28.760  1.00  0.00    -0.206 F 
ATOM     70  C   UNL A   1      49.256  27.125  25.519  1.00  0.00     0.022 A 
BRANCH  67  71
ATOM     71  S   UNL A   1      48.376  27.453  22.894  1.00  0.00     0.124 S 
ATOM     72  O   UNL A   1      49.682  28.044  22.610  1.00  0.00    -0.237 OA
ATOM     73  O   UNL A   1      48.281  26.006  22.735  1.00  0.00    -0.237 OA
ATOM     74  O   UNL A   1      47.234  28.213  22.391  1.00  0.00    -0.744 OA
ENDBRANCH  67  71
ENDBRANCH  50  64
BRANCH  51  75
ATOM     75  C   UNL A   1      38.232  31.043  30.817  1.00  0.00     0.023 A 
ATOM     76  C   UNL A   1      37.219  31.721  30.123  1.00  0.00     0.031 A 
ATOM     77  C   UNL A   1      38.043  30.800  32.190  1.00  0.00     0.131 A 
ATOM     78  C   UNL A   1      36.082  32.172  30.811  1.00  0.00     0.055 A 
ATOM     79  C   UNL A   1      36.885  31.204  32.858  1.00  0.00     0.041 A 
ATOM     80  F   UNL A   1      38.982  30.157  32.902  1.00  0.00    -0.206 F 
ATOM     81  C   UNL A   1      35.901  31.905  32.170  1.00  0.00     0.022 A 
BRANCH  78  82
ATOM     82  S   UNL A   1      34.872  33.188  29.919  1.00  0.00     0.124 S 
ATOM     83  O   UNL A   1      34.024  33.662  31.005  1.00  0.00    -0.237 OA
ATOM     84  O   UNL A   1      35.726  34.189  29.287  1.00  0.00    -0.237 OA
ATOM     85  O   UNL A   1      34.242  32.242  29.001  1.00  0.00    -0.744 OA
ENDBRANCH  78  82
ENDBRANCH  51  75
BRANCH  63  86
ATOM     86  C   UNL A   1      44.323  34.266  29.693  1.00  0.00     0.023 A 
ATOM     87  C   UNL A   1      44.155  35.310  28.766  1.00  0.00     0.031 A 
ATOM     88  C   UNL A   1      44.960  34.561  30.911  1.00  0.00     0.131 A 
ATOM     89  C   UNL A   1      44.668  36.586  29.049  1.00  0.00     0.055 A 
ATOM     90  C   UNL A   1      45.412  35.847  31.214  1.00  0.00     0.041 A 
ATOM     91  F   UNL A   1      45.152  33.604  31.833  1.00  0.00    -0.206 F 
ATOM     92  C   UNL A   1      45.279  36.865  30.274  1.00  0.00     0.022 A 
BRANCH  89  93
ATOM     93  S   UNL A   1      44.611  37.856  27.756  1.00  0.00     0.124 S 
ATOM     94  O   UNL A   1      44.323  39.062  28.527  1.00  0.00    -0.237 OA
ATOM     95  O   UNL A   1      45.949  37.774  27.178  1.00  0.00    -0.237 OA
ATOM     96  O   UNL A   1      43.530  37.408  26.881  1.00  0.00    -0.744 OA
ENDBRANCH  89  93
ENDBRANCH  63  86
ENDBRANCH  37  38
ENDBRANCH  30  32
ENDBRANCH  29  30
ENDBRANCH  28  29
ENDBRANCH  27  28
ENDBRANCH   1  27
TORSDOF 21
ENDMDL
MODEL 3
REMARK VINA RESULT:     -10.4      4.898      7.362
REMARK SMILES CCC[C@@H](c1cccc(C(=O)OCCOCCOC(=O)c2ccc(-c3c4nc(c(-c5cc(S(=O)(=O)[O-])ccc5F)c5ccc([nH]5)c(-c5cc(S(=O)(=O)[O-])ccc5F)c5nc(c(-c6cc(S(=O)(=O)[O-])ccc6F)c6ccc3[nH]6)C=C5)C=C4)cc2)c1)[C@H]1C[NH2+]CC[NH2+]1
REMARK SMILES IDX 15 1 14 2 13 3 12 4 10 5 11 6 9 7 5 8 6 9 84 10 7 11 8 12
REMARK SMILES IDX 4 13 3 14 2 15 1 16 85 17 86 18 90 19 87 20 89 21 88 24
REMARK SMILES IDX 16 27 17 28 18 29 19 30 20 31 21 32 22 33 83 34 23 35 82 36
REMARK SMILES IDX 24 37 25 38 26 39 76 40 27 41 81 42 75 43 77 44 28 45 80 46
REMARK SMILES IDX 74 47 73 48 29 50 61 51 41 52 60 53 42 54 45 55 59 56 78 57
REMARK SMILES IDX 43 58 44 59 58 61 79 62 46 63 30 64 31 65 39 66 32 67 38 68
REMARK SMILES IDX 40 69 37 70 33 71 34 72 35 73 36 74 62 75 63 76 71 77 64 78
REMARK SMILES IDX 70 79 72 80 69 81 65 82 66 83 67 84 68 85 47 86 48 87 56 88
REMARK SMILES IDX 49 89 55 90 57 91 54 92 50 93 51 94 52 95 53 96
REMARK H PARENT 90 22 90 23 87 25 87 26 77 49 45 60
REMARK Flexibility Score: inf
ROOT
ATOM      1  O   UNL A   1      36.320  20.565  25.039  1.00  0.00    -0.374 OA
ENDROOT
BRANCH   1   2
ATOM      2  C   UNL A   1      34.903  20.481  24.865  1.00  0.00     0.202 C 
BRANCH   2   3
ATOM      3  C   UNL A   1      34.170  21.827  24.841  1.00  0.00     0.261 C 
BRANCH   3   4
ATOM      4  O   UNL A   1      34.400  22.545  26.066  1.00  0.00    -0.460 OA
BRANCH   4   5
ATOM      5  C   UNL A   1      33.358  22.578  26.930  1.00  0.00     0.338 C 
ATOM      6  O   UNL A   1      33.247  21.963  27.978  1.00  0.00    -0.246 OA
BRANCH   5   7
ATOM      7  C   UNL A   1      32.445  23.676  26.534  1.00  0.00     0.060 A 
ATOM      8  C   UNL A   1      31.943  26.025  26.125  1.00  0.00    -0.038 A 
ATOM      9  C   UNL A   1      30.582  25.668  26.030  1.00  0.00     0.004 A 
ATOM     10  C   UNL A   1      32.873  25.008  26.398  1.00  0.00     0.020 A 
ATOM     11  C   UNL A   1      30.161  24.344  26.139  1.00  0.00     0.001 A 
ATOM     12  C   UNL A   1      31.093  23.345  26.382  1.00  0.00     0.016 A 
BRANCH   8  13
ATOM     13  C   UNL A   1      32.331  27.493  25.883  1.00  0.00     0.083 C 
BRANCH  13  14
ATOM     14  C   UNL A   1      33.333  27.587  24.705  1.00  0.00     0.014 C 
BRANCH  14  15
ATOM     15  C   UNL A   1      32.778  28.064  23.354  1.00  0.00    -0.003 C 
ATOM     16  C   UNL A   1      33.655  27.677  22.171  1.00  0.00     0.004 C 
ENDBRANCH  14  15
ENDBRANCH  13  14
BRANCH  13  17
ATOM     17  C   UNL A   1      32.763  28.266  27.190  1.00  0.00     0.245 C 
ATOM     18  C   UNL A   1      34.168  28.949  27.181  1.00  0.00     0.327 C 
ATOM     19  N   UNL A   1      31.711  29.234  27.623  1.00  0.00    -0.334 N 
ATOM     20  N   UNL A   1      34.272  30.244  26.491  1.00  0.00    -0.337 N 
ATOM     21  C   UNL A   1      31.780  30.490  26.864  1.00  0.00     0.323 C 
ATOM     22  H   UNL A   1      31.838  29.439  28.613  1.00  0.00     0.346 HD
ATOM     23  H   UNL A   1      30.801  28.808  27.449  1.00  0.00     0.346 HD
ATOM     24  C   UNL A   1      33.177  31.142  26.877  1.00  0.00     0.322 C 
ATOM     25  H   UNL A   1      34.236  30.089  25.483  1.00  0.00     0.346 HD
ATOM     26  H   UNL A   1      35.156  30.680  26.756  1.00  0.00     0.346 HD
ENDBRANCH  13  17
ENDBRANCH   8  13
ENDBRANCH   5   7
ENDBRANCH   4   5
ENDBRANCH   3   4
ENDBRANCH   2   3
ENDBRANCH   1   2
BRANCH   1  27
ATOM     27  C   UNL A   1      37.036  19.329  25.001  1.00  0.00     0.202 C 
BRANCH  27  28
ATOM     28  C   UNL A   1      38.566  19.437  25.009  1.00  0.00     0.261 C 
BRANCH  28  29
ATOM     29  O   UNL A   1      39.006  20.686  25.570  1.00  0.00    -0.460 OA
BRANCH  29  30
ATOM     30  C   UNL A   1      39.982  20.574  26.505  1.00  0.00     0.338 C 
ATOM     31  O   UNL A   1      40.608  19.568  26.793  1.00  0.00    -0.246 OA
BRANCH  30  32
ATOM     32  C   UNL A   1      40.335  21.914  27.019  1.00  0.00     0.060 A 
ATOM     33  C   UNL A   1      39.666  23.011  26.465  1.00  0.00     0.016 A 
ATOM     34  C   UNL A   1      41.328  22.101  27.983  1.00  0.00     0.016 A 
ATOM     35  C   UNL A   1      40.022  24.306  26.835  1.00  0.00     0.010 A 
ATOM     36  C   UNL A   1      41.689  23.404  28.349  1.00  0.00     0.010 A 
ATOM     37  C   UNL A   1      41.061  24.513  27.752  1.00  0.00    -0.014 A 
BRANCH  37  38
ATOM     38  C   UNL A   1      41.583  25.884  27.972  1.00  0.00     0.031 A 
ATOM     39  C   UNL A   1      42.955  26.232  27.459  1.00  0.00     0.074 A 
ATOM     40  C   UNL A   1      40.835  26.815  28.590  1.00  0.00     0.049 A 
ATOM     41  N   UNL A   1      43.628  27.347  27.574  1.00  0.00    -0.248 NA
ATOM     42  C   UNL A   1      43.661  25.173  26.725  1.00  0.00     0.031 C 
ATOM     43  C   UNL A   1      39.476  26.610  29.088  1.00  0.00     0.029 A 
ATOM     44  N   UNL A   1      41.116  28.121  28.909  1.00  0.00    -0.354 N 
ATOM     45  C   UNL A   1      44.841  27.125  26.929  1.00  0.00     0.074 A 
ATOM     46  C   UNL A   1      44.823  25.754  26.467  1.00  0.00     0.031 C 
ATOM     47  C   UNL A   1      39.044  27.747  29.658  1.00  0.00     0.029 A 
ATOM     48  C   UNL A   1      40.109  28.748  29.604  1.00  0.00     0.049 A 
ATOM     49  H   UNL A   1      41.959  28.566  28.664  1.00  0.00     0.167 HD
ATOM     50  C   UNL A   1      45.868  27.989  26.733  1.00  0.00     0.034 A 
ATOM     51  C   UNL A   1      40.062  29.978  30.155  1.00  0.00     0.034 A 
ATOM     52  C   UNL A   1      45.873  29.350  27.214  1.00  0.00     0.049 A 
ATOM     53  C   UNL A   1      41.253  30.893  30.005  1.00  0.00     0.074 A 
ATOM     54  C   UNL A   1      46.853  30.316  27.062  1.00  0.00     0.029 A 
ATOM     55  N   UNL A   1      44.854  29.937  27.955  1.00  0.00    -0.354 N 
ATOM     56  N   UNL A   1      42.392  30.676  29.387  1.00  0.00    -0.248 NA
ATOM     57  C   UNL A   1      41.147  32.224  30.619  1.00  0.00     0.031 C 
ATOM     58  C   UNL A   1      46.463  31.455  27.773  1.00  0.00     0.029 A 
ATOM     59  C   UNL A   1      45.199  31.237  28.298  1.00  0.00     0.049 A 
ATOM     60  H   UNL A   1      44.009  29.494  28.201  1.00  0.00     0.167 HD
ATOM     61  C   UNL A   1      43.124  31.855  29.512  1.00  0.00     0.074 A 
ATOM     62  C   UNL A   1      42.292  32.781  30.252  1.00  0.00     0.031 C 
ATOM     63  C   UNL A   1      44.366  32.148  29.049  1.00  0.00     0.034 A 
BRANCH  50  64
ATOM     64  C   UNL A   1      47.087  27.463  26.013  1.00  0.00     0.023 A 
ATOM     65  C   UNL A   1      48.070  26.704  26.674  1.00  0.00     0.031 A 
ATOM     66  C   UNL A   1      47.290  27.758  24.653  1.00  0.00     0.131 A 
ATOM     67  C   UNL A   1      49.244  26.336  25.997  1.00  0.00     0.055 A 
ATOM     68  C   UNL A   1      48.420  27.316  23.963  1.00  0.00     0.041 A 
ATOM     69  F   UNL A   1      46.401  28.499  23.973  1.00  0.00    -0.206 F 
ATOM     70  C   UNL A   1      49.414  26.614  24.640  1.00  0.00     0.022 A 
BRANCH  67  71
ATOM     71  S   UNL A   1      50.611  25.629  26.957  1.00  0.00     0.124 S 
ATOM     72  O   UNL A   1      51.587  25.337  25.909  1.00  0.00    -0.237 OA
ATOM     73  O   UNL A   1      50.954  26.718  27.865  1.00  0.00    -0.237 OA
ATOM     74  O   UNL A   1      50.015  24.454  27.588  1.00  0.00    -0.744 OA
ENDBRANCH  67  71
ENDBRANCH  50  64
BRANCH  51  75
ATOM     75  C   UNL A   1      38.867  30.406  30.939  1.00  0.00     0.023 A 
ATOM     76  C   UNL A   1      37.794  31.072  30.329  1.00  0.00     0.031 A 
ATOM     77  C   UNL A   1      38.807  30.193  32.329  1.00  0.00     0.131 A 
ATOM     78  C   UNL A   1      36.726  31.539  31.110  1.00  0.00     0.055 A 
ATOM     79  C   UNL A   1      37.716  30.613  33.093  1.00  0.00     0.041 A 
ATOM     80  F   UNL A   1      39.808  29.563  32.964  1.00  0.00    -0.206 F 
ATOM     81  C   UNL A   1      36.673  31.301  32.485  1.00  0.00     0.022 A 
BRANCH  78  82
ATOM     82  S   UNL A   1      35.439  32.539  30.313  1.00  0.00     0.124 S 
ATOM     83  O   UNL A   1      34.432  32.621  31.365  1.00  0.00    -0.237 OA
ATOM     84  O   UNL A   1      36.157  33.774  30.014  1.00  0.00    -0.237 OA
ATOM     85  O   UNL A   1      35.061  31.743  29.147  1.00  0.00    -0.744 OA
ENDBRANCH  78  82
ENDBRANCH  51  75
BRANCH  63  86
ATOM     86  C   UNL A   1      44.881  33.549  29.290  1.00  0.00     0.023 A 
ATOM     87  C   UNL A   1      44.610  34.605  28.402  1.00  0.00     0.031 A 
ATOM     88  C   UNL A   1      45.662  33.826  30.427  1.00  0.00     0.131 A 
ATOM     89  C   UNL A   1      45.163  35.874  28.636  1.00  0.00     0.055 A 
ATOM     90  C   UNL A   1      46.156  35.105  30.687  1.00  0.00     0.041 A 
ATOM     91  F   UNL A   1      45.956  32.856  31.308  1.00  0.00    -0.206 F 
ATOM     92  C   UNL A   1      45.919  36.135  29.782  1.00  0.00     0.022 A 
BRANCH  89  93
ATOM     93  S   UNL A   1      44.960  37.160  27.373  1.00  0.00     0.124 S 
ATOM     94  O   UNL A   1      46.039  36.845  26.442  1.00  0.00    -0.237 OA
ATOM     95  O   UNL A   1      43.607  36.910  26.887  1.00  0.00    -0.237 OA
ATOM     96  O   UNL A   1      45.130  38.405  28.120  1.00  0.00    -0.744 OA
ENDBRANCH  89  93
ENDBRANCH  63  86
ENDBRANCH  37  38
ENDBRANCH  30  32
ENDBRANCH  29  30
ENDBRANCH  28  29
ENDBRANCH  27  28
ENDBRANCH   1  27
TORSDOF 21
ENDMDL
