MODEL 1
REMARK VINA RESULT:      -9.7      0.000      0.000
REMARK SMILES COc1cccc(N2CCN(c3ccc(NC(=O)c4ccc(F)cc4)c(C(=O)OCCOCCOC(=O)c4ccc(-c5c6nc(c(-c7cc(S(=O)(=O)[O-])ccc7F)c7ccc([nH]7)c(-c7cc(S(=O)(=O)[O-])ccc7F)c7nc(c(-c8cc(S(=O)(=O)[O-])ccc8F)c8ccc5[nH]8)C=C7)C=C6)cc4)c3)CC2)c1
REMARK SMILES IDX 32 1 31 2 30 3 29 4 27 5 28 6 26 7 12 8 13 9 101 10 14 11
REMARK SMILES IDX 15 12 11 13 8 14 9 15 103 16 10 17 102 18 7 19 3 20 4 21
REMARK SMILES IDX 104 22 5 23 6 24 2 25 1 26 16 27 17 28 18 30 19 31 20 32
REMARK SMILES IDX 25 33 21 34 24 35 22 36 23 37 33 38 34 39 35 40 36 41 37 42
REMARK SMILES IDX 38 43 39 44 100 45 40 46 99 47 41 48 42 49 43 50 93 51 44 52
REMARK SMILES IDX 98 53 92 54 94 55 45 56 97 57 91 58 90 59 46 61 78 62 58 63
REMARK SMILES IDX 77 64 59 65 62 66 76 67 95 68 60 69 61 70 75 72 96 73 63 74
REMARK SMILES IDX 47 75 48 76 56 77 49 78 55 79 57 80 54 81 50 82 51 83 52 84
REMARK SMILES IDX 53 85 79 86 80 87 88 88 81 89 87 90 89 91 86 92 82 93 83 94
REMARK SMILES IDX 84 95 85 96 64 97 65 98 73 99 66 100 72 101 74 102 71 103
REMARK SMILES IDX 67 104 68 105 69 106 70 107
REMARK H PARENT 16 29 94 60 62 71
REMARK Flexibility Score: inf
ROOT
ATOM      1  O   UNL A   1      36.754  22.278  25.523  1.00  0.00    -0.374 OA
ENDROOT
BRANCH   1   2
ATOM      2  C   UNL A   1      37.351  23.576  25.581  1.00  0.00     0.202 C 
BRANCH   2   3
ATOM      3  C   UNL A   1      38.045  23.949  26.896  1.00  0.00     0.261 C 
BRANCH   3   4
ATOM      4  O   UNL A   1      39.001  25.008  26.701  1.00  0.00    -0.460 OA
BRANCH   4   5
ATOM      5  C   UNL A   1      39.620  25.453  27.820  1.00  0.00     0.340 C 
ATOM      6  O   UNL A   1      40.214  24.778  28.648  1.00  0.00    -0.246 OA
BRANCH   5   7
ATOM      7  C   UNL A   1      39.703  26.933  27.777  1.00  0.00     0.085 A 
ATOM      8  C   UNL A   1      38.913  29.104  28.603  1.00  0.00     0.038 A 
ATOM      9  C   UNL A   1      39.662  29.692  27.582  1.00  0.00     0.028 A 
ATOM     10  C   UNL A   1      38.921  27.704  28.660  1.00  0.00     0.043 A 
ATOM     11  C   UNL A   1      40.418  28.936  26.683  1.00  0.00     0.029 A 
ATOM     12  C   UNL A   1      40.518  27.553  26.811  1.00  0.00     0.056 A 
BRANCH   8  13
ATOM     13  N   UNL A   1      38.188  29.872  29.483  1.00  0.00    -0.368 N 
ATOM     14  N   UNL A   1      37.761  31.383  31.848  1.00  0.00    -0.368 N 
ATOM     15  C   UNL A   1      37.814  29.923  31.945  1.00  0.00     0.138 C 
ATOM     16  C   UNL A   1      38.506  31.995  30.739  1.00  0.00     0.138 C 
ATOM     17  C   UNL A   1      37.405  29.287  30.595  1.00  0.00     0.138 C 
ATOM     18  C   UNL A   1      38.112  31.346  29.397  1.00  0.00     0.138 C 
BRANCH  14  19
ATOM     19  C   UNL A   1      36.946  32.120  32.670  1.00  0.00     0.040 A 
ATOM     20  C   UNL A   1      34.822  33.225  33.122  1.00  0.00     0.120 A 
ATOM     21  C   UNL A   1      35.317  33.698  34.334  1.00  0.00     0.046 A 
ATOM     22  C   UNL A   1      35.643  32.466  32.285  1.00  0.00     0.072 A 
ATOM     23  C   UNL A   1      36.606  33.357  34.739  1.00  0.00     0.006 A 
ATOM     24  C   UNL A   1      37.403  32.558  33.919  1.00  0.00     0.026 A 
BRANCH  20  25
ATOM     25  O   UNL A   1      33.546  33.603  32.799  1.00  0.00    -0.497 OA
ATOM     26  C   UNL A   1      33.403  34.997  32.548  1.00  0.00     0.278 C 
ENDBRANCH  20  25
ENDBRANCH  14  19
ENDBRANCH   8  13
BRANCH  12  27
ATOM     27  N   UNL A   1      41.355  26.777  25.971  1.00  0.00    -0.321 N 
ATOM     28  C   UNL A   1      42.724  26.762  25.802  1.00  0.00     0.255 C 
ATOM     29  H   UNL A   1      40.872  26.133  25.404  1.00  0.00     0.170 HD
ATOM     30  O   UNL A   1      43.237  26.201  24.837  1.00  0.00    -0.269 OA
BRANCH  28  31
ATOM     31  C   UNL A   1      43.617  27.365  26.814  1.00  0.00     0.040 A 
ATOM     32  C   UNL A   1      44.662  28.191  26.379  1.00  0.00     0.017 A 
ATOM     33  C   UNL A   1      43.406  27.148  28.184  1.00  0.00     0.017 A 
ATOM     34  C   UNL A   1      45.441  28.865  27.320  1.00  0.00     0.040 A 
ATOM     35  C   UNL A   1      44.177  27.838  29.119  1.00  0.00     0.040 A 
ATOM     36  C   UNL A   1      45.179  28.697  28.678  1.00  0.00     0.123 A 
ATOM     37  F   UNL A   1      45.900  29.381  29.575  1.00  0.00    -0.207 F 
ENDBRANCH  28  31
ENDBRANCH  12  27
ENDBRANCH   5   7
ENDBRANCH   4   5
ENDBRANCH   3   4
ENDBRANCH   2   3
ENDBRANCH   1   2
BRANCH   1  38
ATOM     38  C   UNL A   1      37.260  21.370  24.545  1.00  0.00     0.202 C 
BRANCH  38  39
ATOM     39  C   UNL A   1      38.196  20.255  25.026  1.00  0.00     0.261 C 
BRANCH  39  40
ATOM     40  O   UNL A   1      39.172  20.722  25.973  1.00  0.00    -0.460 OA
BRANCH  40  41
ATOM     41  C   UNL A   1      40.360  20.073  25.923  1.00  0.00     0.338 C 
ATOM     42  O   UNL A   1      40.551  18.915  25.577  1.00  0.00    -0.246 OA
BRANCH  41  43
ATOM     43  C   UNL A   1      41.460  21.024  26.173  1.00  0.00     0.060 A 
ATOM     44  C   UNL A   1      42.730  20.495  26.439  1.00  0.00     0.016 A 
ATOM     45  C   UNL A   1      41.242  22.401  26.209  1.00  0.00     0.016 A 
ATOM     46  C   UNL A   1      43.781  21.343  26.785  1.00  0.00     0.010 A 
ATOM     47  C   UNL A   1      42.296  23.250  26.565  1.00  0.00     0.010 A 
ATOM     48  C   UNL A   1      43.562  22.722  26.884  1.00  0.00    -0.014 A 
BRANCH  48  49
ATOM     49  C   UNL A   1      44.606  23.603  27.468  1.00  0.00     0.031 A 
ATOM     50  C   UNL A   1      44.586  23.862  28.950  1.00  0.00     0.074 A 
ATOM     51  C   UNL A   1      45.558  24.154  26.695  1.00  0.00     0.049 A 
ATOM     52  N   UNL A   1      45.314  24.683  29.661  1.00  0.00    -0.248 NA
ATOM     53  C   UNL A   1      43.604  23.093  29.732  1.00  0.00     0.031 C 
ATOM     54  C   UNL A   1      45.713  23.931  25.259  1.00  0.00     0.029 A 
ATOM     55  N   UNL A   1      46.566  25.031  27.010  1.00  0.00    -0.354 N 
ATOM     56  C   UNL A   1      44.879  24.533  30.974  1.00  0.00     0.074 A 
ATOM     57  C   UNL A   1      43.794  23.576  30.951  1.00  0.00     0.031 C 
ATOM     58  C   UNL A   1      46.740  24.673  24.811  1.00  0.00     0.029 A 
ATOM     59  C   UNL A   1      47.284  25.459  25.917  1.00  0.00     0.049 A 
ATOM     60  H   UNL A   1      46.758  25.326  27.930  1.00  0.00     0.167 HD
ATOM     61  C   UNL A   1      45.353  25.131  32.096  1.00  0.00     0.034 A 
ATOM     62  C   UNL A   1      48.239  26.408  25.816  1.00  0.00     0.034 A 
ATOM     63  C   UNL A   1      46.424  26.096  32.097  1.00  0.00     0.049 A 
ATOM     64  C   UNL A   1      48.677  27.143  27.063  1.00  0.00     0.074 A 
ATOM     65  C   UNL A   1      46.973  26.774  33.173  1.00  0.00     0.029 A 
ATOM     66  N   UNL A   1      47.107  26.528  30.967  1.00  0.00    -0.354 N 
ATOM     67  N   UNL A   1      48.250  27.004  28.298  1.00  0.00    -0.248 NA
ATOM     68  C   UNL A   1      49.730  28.156  26.904  1.00  0.00     0.031 C 
ATOM     69  C   UNL A   1      47.934  27.665  32.685  1.00  0.00     0.029 A 
ATOM     70  C   UNL A   1      48.051  27.481  31.317  1.00  0.00     0.049 A 
ATOM     71  H   UNL A   1      46.944  26.204  30.052  1.00  0.00     0.167 HD
ATOM     72  C   UNL A   1      49.011  27.884  29.065  1.00  0.00     0.074 A 
ATOM     73  C   UNL A   1      49.928  28.539  28.156  1.00  0.00     0.031 C 
ATOM     74  C   UNL A   1      48.963  28.125  30.400  1.00  0.00     0.034 A 
BRANCH  61  75
ATOM     75  C   UNL A   1      44.679  24.786  33.402  1.00  0.00     0.023 A 
ATOM     76  C   UNL A   1      43.603  25.543  33.898  1.00  0.00     0.031 A 
ATOM     77  C   UNL A   1      45.129  23.699  34.172  1.00  0.00     0.131 A 
ATOM     78  C   UNL A   1      43.061  25.247  35.158  1.00  0.00     0.055 A 
ATOM     79  C   UNL A   1      44.530  23.359  35.386  1.00  0.00     0.041 A 
ATOM     80  F   UNL A   1      46.168  22.954  33.763  1.00  0.00    -0.206 F 
ATOM     81  C   UNL A   1      43.498  24.143  35.893  1.00  0.00     0.022 A 
BRANCH  78  82
ATOM     82  S   UNL A   1      41.873  26.409  35.883  1.00  0.00     0.124 S 
ATOM     83  O   UNL A   1      42.510  26.724  37.159  1.00  0.00    -0.237 OA
ATOM     84  O   UNL A   1      41.842  27.485  34.900  1.00  0.00    -0.237 OA
ATOM     85  O   UNL A   1      40.645  25.622  35.987  1.00  0.00    -0.744 OA
ENDBRANCH  78  82
ENDBRANCH  61  75
BRANCH  62  86
ATOM     86  C   UNL A   1      48.808  26.770  24.483  1.00  0.00     0.023 A 
ATOM     87  C   UNL A   1      50.153  26.519  24.172  1.00  0.00     0.031 A 
ATOM     88  C   UNL A   1      48.028  27.448  23.527  1.00  0.00     0.131 A 
ATOM     89  C   UNL A   1      50.692  26.993  22.965  1.00  0.00     0.055 A 
ATOM     90  C   UNL A   1      48.552  27.859  22.301  1.00  0.00     0.041 A 
ATOM     91  F   UNL A   1      46.736  27.719  23.772  1.00  0.00    -0.206 F 
ATOM     92  C   UNL A   1      49.899  27.648  22.022  1.00  0.00     0.022 A 
BRANCH  89  93
ATOM     93  S   UNL A   1      52.481  26.845  22.698  1.00  0.00     0.124 S 
ATOM     94  O   UNL A   1      52.886  26.041  23.845  1.00  0.00    -0.237 OA
ATOM     95  O   UNL A   1      52.538  26.185  21.399  1.00  0.00    -0.237 OA
ATOM     96  O   UNL A   1      52.942  28.232  22.712  1.00  0.00    -0.744 OA
ENDBRANCH  89  93
ENDBRANCH  62  86
BRANCH  74  97
ATOM     97  C   UNL A   1      49.976  29.089  30.970  1.00  0.00     0.023 A 
ATOM     98  C   UNL A   1      49.712  30.464  31.092  1.00  0.00     0.031 A 
ATOM     99  C   UNL A   1      51.224  28.613  31.411  1.00  0.00     0.131 A 
ATOM    100  C   UNL A   1      50.702  31.323  31.596  1.00  0.00     0.055 A 
ATOM    101  C   UNL A   1      52.180  29.463  31.969  1.00  0.00     0.041 A 
ATOM    102  F   UNL A   1      51.532  27.310  31.317  1.00  0.00    -0.206 F 
ATOM    103  C   UNL A   1      51.926  30.828  32.053  1.00  0.00     0.022 A 
BRANCH 100 104
ATOM    104  S   UNL A   1      50.400  33.111  31.575  1.00  0.00     0.124 S 
ATOM    105  O   UNL A   1      51.216  33.570  32.695  1.00  0.00    -0.237 OA
ATOM    106  O   UNL A   1      50.871  33.492  30.247  1.00  0.00    -0.237 OA
ATOM    107  O   UNL A   1      48.957  33.219  31.773  1.00  0.00    -0.744 OA
ENDBRANCH 100 104
ENDBRANCH  74  97
ENDBRANCH  48  49
ENDBRANCH  41  43
ENDBRANCH  40  41
ENDBRANCH  39  40
ENDBRANCH  38  39
ENDBRANCH   1  38
TORSDOF 22
ENDMDL
MODEL 2
REMARK VINA RESULT:      -8.9      4.704      9.365
REMARK SMILES COc1cccc(N2CCN(c3ccc(NC(=O)c4ccc(F)cc4)c(C(=O)OCCOCCOC(=O)c4ccc(-c5c6nc(c(-c7cc(S(=O)(=O)[O-])ccc7F)c7ccc([nH]7)c(-c7cc(S(=O)(=O)[O-])ccc7F)c7nc(c(-c8cc(S(=O)(=O)[O-])ccc8F)c8ccc5[nH]8)C=C7)C=C6)cc4)c3)CC2)c1
REMARK SMILES IDX 32 1 31 2 30 3 29 4 27 5 28 6 26 7 12 8 13 9 101 10 14 11
REMARK SMILES IDX 15 12 11 13 8 14 9 15 103 16 10 17 102 18 7 19 3 20 4 21
REMARK SMILES IDX 104 22 5 23 6 24 2 25 1 26 16 27 17 28 18 30 19 31 20 32
REMARK SMILES IDX 25 33 21 34 24 35 22 36 23 37 33 38 34 39 35 40 36 41 37 42
REMARK SMILES IDX 38 43 39 44 100 45 40 46 99 47 41 48 42 49 43 50 93 51 44 52
REMARK SMILES IDX 98 53 92 54 94 55 45 56 97 57 91 58 90 59 46 61 78 62 58 63
REMARK SMILES IDX 77 64 59 65 62 66 76 67 95 68 60 69 61 70 75 72 96 73 63 74
REMARK SMILES IDX 47 75 48 76 56 77 49 78 55 79 57 80 54 81 50 82 51 83 52 84
REMARK SMILES IDX 53 85 79 86 80 87 88 88 81 89 87 90 89 91 86 92 82 93 83 94
REMARK SMILES IDX 84 95 85 96 64 97 65 98 73 99 66 100 72 101 74 102 71 103
REMARK SMILES IDX 67 104 68 105 69 106 70 107
REMARK H PARENT 16 29 94 60 62 71
REMARK Flexibility Score: inf
ROOT
ATOM      1  O   UNL A   1      35.768  22.567  25.048  1.00  0.00    -0.374 OA
ENDROOT
BRANCH   1   2
ATOM      2  C   UNL A   1      35.218  23.102  23.842  1.00  0.00     0.202 C 
BRANCH   2   3
ATOM      3  C   UNL A   1      33.950  23.952  23.987  1.00  0.00     0.261 C 
BRANCH   3   4
ATOM      4  O   UNL A   1      34.238  25.219  24.607  1.00  0.00    -0.460 OA
BRANCH   4   5
ATOM      5  C   UNL A   1      33.746  26.308  23.970  1.00  0.00     0.340 C 
ATOM      6  O   UNL A   1      33.574  26.439  22.767  1.00  0.00    -0.246 OA
BRANCH   5   7
ATOM      7  C   UNL A   1      33.189  27.250  24.972  1.00  0.00     0.085 A 
ATOM      8  C   UNL A   1      33.562  29.071  26.573  1.00  0.00     0.038 A 
ATOM      9  C   UNL A   1      32.247  28.877  27.000  1.00  0.00     0.028 A 
ATOM     10  C   UNL A   1      34.028  28.212  25.569  1.00  0.00     0.043 A 
ATOM     11  C   UNL A   1      31.416  27.908  26.435  1.00  0.00     0.029 A 
ATOM     12  C   UNL A   1      31.841  27.132  25.360  1.00  0.00     0.056 A 
BRANCH   8  13
ATOM     13  N   UNL A   1      34.355  30.043  27.137  1.00  0.00    -0.368 N 
ATOM     14  N   UNL A   1      35.367  31.647  29.248  1.00  0.00    -0.368 N 
ATOM     15  C   UNL A   1      34.031  31.937  28.722  1.00  0.00     0.138 C 
ATOM     16  C   UNL A   1      35.837  30.261  29.121  1.00  0.00     0.138 C 
ATOM     17  C   UNL A   1      33.925  31.454  27.255  1.00  0.00     0.138 C 
ATOM     18  C   UNL A   1      35.710  29.776  27.663  1.00  0.00     0.138 C 
BRANCH  14  19
ATOM     19  C   UNL A   1      36.183  32.652  29.707  1.00  0.00     0.040 A 
ATOM     20  C   UNL A   1      36.819  34.254  31.428  1.00  0.00     0.120 A 
ATOM     21  C   UNL A   1      37.813  34.763  30.597  1.00  0.00     0.046 A 
ATOM     22  C   UNL A   1      35.992  33.225  30.971  1.00  0.00     0.072 A 
ATOM     23  C   UNL A   1      38.025  34.200  29.341  1.00  0.00     0.006 A 
ATOM     24  C   UNL A   1      37.226  33.140  28.911  1.00  0.00     0.026 A 
BRANCH  20  25
ATOM     25  O   UNL A   1      36.678  34.861  32.648  1.00  0.00    -0.497 OA
ATOM     26  C   UNL A   1      35.343  35.257  32.944  1.00  0.00     0.278 C 
ENDBRANCH  20  25
ENDBRANCH  14  19
ENDBRANCH   8  13
BRANCH  12  27
ATOM     27  N   UNL A   1      30.983  26.211  24.709  1.00  0.00    -0.321 N 
ATOM     28  C   UNL A   1      29.903  26.397  23.872  1.00  0.00     0.255 C 
ATOM     29  H   UNL A   1      31.196  25.266  24.887  1.00  0.00     0.170 HD
ATOM     30  O   UNL A   1      29.129  25.477  23.622  1.00  0.00    -0.269 OA
BRANCH  28  31
ATOM     31  C   UNL A   1      29.681  27.697  23.202  1.00  0.00     0.040 A 
ATOM     32  C   UNL A   1      28.422  28.299  23.308  1.00  0.00     0.017 A 
ATOM     33  C   UNL A   1      30.718  28.334  22.503  1.00  0.00     0.017 A 
ATOM     34  C   UNL A   1      28.226  29.578  22.786  1.00  0.00     0.040 A 
ATOM     35  C   UNL A   1      30.521  29.619  21.999  1.00  0.00     0.040 A 
ATOM     36  C   UNL A   1      29.282  30.233  22.154  1.00  0.00     0.123 A 
ATOM     37  F   UNL A   1      29.103  31.477  21.696  1.00  0.00    -0.207 F 
ENDBRANCH  28  31
ENDBRANCH  12  27
ENDBRANCH   5   7
ENDBRANCH   4   5
ENDBRANCH   3   4
ENDBRANCH   2   3
ENDBRANCH   1   2
BRANCH   1  38
ATOM     38  C   UNL A   1      36.445  21.315  24.960  1.00  0.00     0.202 C 
BRANCH  38  39
ATOM     39  C   UNL A   1      37.975  21.325  25.041  1.00  0.00     0.261 C 
BRANCH  39  40
ATOM     40  O   UNL A   1      38.466  22.121  26.133  1.00  0.00    -0.460 OA
BRANCH  40  41
ATOM     41  C   UNL A   1      39.759  21.886  26.465  1.00  0.00     0.338 C 
ATOM     42  O   UNL A   1      40.412  20.885  26.208  1.00  0.00    -0.246 OA
BRANCH  41  43
ATOM     43  C   UNL A   1      40.357  23.106  27.039  1.00  0.00     0.060 A 
ATOM     44  C   UNL A   1      39.909  24.342  26.553  1.00  0.00     0.016 A 
ATOM     45  C   UNL A   1      41.379  23.044  27.986  1.00  0.00     0.016 A 
ATOM     46  C   UNL A   1      40.512  25.523  26.983  1.00  0.00     0.010 A 
ATOM     47  C   UNL A   1      41.990  24.230  28.410  1.00  0.00     0.010 A 
ATOM     48  C   UNL A   1      41.579  25.472  27.888  1.00  0.00    -0.014 A 
BRANCH  48  49
ATOM     49  C   UNL A   1      42.372  26.694  28.175  1.00  0.00     0.031 A 
ATOM     50  C   UNL A   1      43.715  26.856  27.515  1.00  0.00     0.074 A 
ATOM     51  C   UNL A   1      41.902  27.647  29.000  1.00  0.00     0.049 A 
ATOM     52  N   UNL A   1      44.629  27.772  27.704  1.00  0.00    -0.248 NA
ATOM     53  C   UNL A   1      44.073  25.842  26.511  1.00  0.00     0.031 C 
ATOM     54  C   UNL A   1      40.593  27.627  29.652  1.00  0.00     0.029 A 
ATOM     55  N   UNL A   1      42.482  28.808  29.445  1.00  0.00    -0.354 N 
ATOM     56  C   UNL A   1      45.674  27.444  26.846  1.00  0.00     0.074 A 
ATOM     57  C   UNL A   1      45.296  26.221  26.171  1.00  0.00     0.031 C 
ATOM     58  C   UNL A   1      40.480  28.714  30.434  1.00  0.00     0.029 A 
ATOM     59  C   UNL A   1      41.724  29.479  30.377  1.00  0.00     0.049 A 
ATOM     60  H   UNL A   1      43.357  29.131  29.129  1.00  0.00     0.167 HD
ATOM     61  C   UNL A   1      46.835  28.112  26.633  1.00  0.00     0.034 A 
ATOM     62  C   UNL A   1      42.019  30.561  31.128  1.00  0.00     0.034 A 
ATOM     63  C   UNL A   1      47.203  29.321  27.329  1.00  0.00     0.049 A 
ATOM     64  C   UNL A   1      43.366  31.228  30.955  1.00  0.00     0.074 A 
ATOM     65  C   UNL A   1      48.360  30.071  27.202  1.00  0.00     0.029 A 
ATOM     66  N   UNL A   1      46.424  29.955  28.288  1.00  0.00    -0.354 N 
ATOM     67  N   UNL A   1      44.352  30.903  30.151  1.00  0.00    -0.248 NA
ATOM     68  C   UNL A   1      43.635  32.412  31.784  1.00  0.00     0.031 C 
ATOM     69  C   UNL A   1      48.311  31.113  28.133  1.00  0.00     0.029 A 
ATOM     70  C   UNL A   1      47.086  31.069  28.778  1.00  0.00     0.049 A 
ATOM     71  H   UNL A   1      45.531  29.656  28.577  1.00  0.00     0.167 HD
ATOM     72  C   UNL A   1      45.340  31.865  30.352  1.00  0.00     0.074 A 
ATOM     73  C   UNL A   1      44.826  32.786  31.344  1.00  0.00     0.031 C 
ATOM     74  C   UNL A   1      46.559  31.982  29.766  1.00  0.00     0.034 A 
BRANCH  61  75
ATOM     75  C   UNL A   1      47.805  27.518  25.640  1.00  0.00     0.023 A 
ATOM     76  C   UNL A   1      47.827  27.929  24.296  1.00  0.00     0.031 A 
ATOM     77  C   UNL A   1      48.706  26.513  26.036  1.00  0.00     0.131 A 
ATOM     78  C   UNL A   1      48.680  27.292  23.383  1.00  0.00     0.055 A 
ATOM     79  C   UNL A   1      49.610  25.941  25.139  1.00  0.00     0.041 A 
ATOM     80  F   UNL A   1      48.715  26.061  27.299  1.00  0.00    -0.206 F 
ATOM     81  C   UNL A   1      49.592  26.321  23.800  1.00  0.00     0.022 A 
BRANCH  78  82
ATOM     82  S   UNL A   1      48.482  27.653  21.617  1.00  0.00     0.124 S 
ATOM     83  O   UNL A   1      49.589  28.577  21.379  1.00  0.00    -0.237 OA
ATOM     84  O   UNL A   1      48.609  26.335  21.007  1.00  0.00    -0.237 OA
ATOM     85  O   UNL A   1      47.152  28.253  21.537  1.00  0.00    -0.744 OA
ENDBRANCH  78  82
ENDBRANCH  61  75
BRANCH  62  86
ATOM     86  C   UNL A   1      41.057  31.053  32.159  1.00  0.00     0.023 A 
ATOM     87  C   UNL A   1      41.245  30.777  33.523  1.00  0.00     0.031 A 
ATOM     88  C   UNL A   1      39.889  31.742  31.784  1.00  0.00     0.131 A 
ATOM     89  C   UNL A   1      40.255  31.134  34.451  1.00  0.00     0.055 A 
ATOM     90  C   UNL A   1      38.939  32.154  32.719  1.00  0.00     0.041 A 
ATOM     91  F   UNL A   1      39.655  32.030  30.493  1.00  0.00    -0.206 F 
ATOM     92  C   UNL A   1      39.111  31.833  34.062  1.00  0.00     0.022 A 
BRANCH  89  93
ATOM     93  S   UNL A   1      40.429  30.565  36.166  1.00  0.00     0.124 S 
ATOM     94  O   UNL A   1      40.396  31.825  36.900  1.00  0.00    -0.237 OA
ATOM     95  O   UNL A   1      39.261  29.704  36.317  1.00  0.00    -0.237 OA
ATOM     96  O   UNL A   1      41.716  29.874  36.165  1.00  0.00    -0.744 OA
ENDBRANCH  89  93
ENDBRANCH  62  86
BRANCH  74  97
ATOM     97  C   UNL A   1      47.394  33.187  30.131  1.00  0.00     0.023 A 
ATOM     98  C   UNL A   1      48.330  33.158  31.179  1.00  0.00     0.031 A 
ATOM     99  C   UNL A   1      47.254  34.383  29.403  1.00  0.00     0.131 A 
ATOM    100  C   UNL A   1      49.055  34.316  31.501  1.00  0.00     0.055 A 
ATOM    101  C   UNL A   1      48.022  35.512  29.687  1.00  0.00     0.041 A 
ATOM    102  F   UNL A   1      46.374  34.470  28.393  1.00  0.00    -0.206 F 
ATOM    103  C   UNL A   1      48.921  35.487  30.749  1.00  0.00     0.022 A 
BRANCH 100 104
ATOM    104  S   UNL A   1      50.122  34.301  32.967  1.00  0.00     0.124 S 
ATOM    105  O   UNL A   1      50.420  35.719  33.140  1.00  0.00    -0.237 OA
ATOM    106  O   UNL A   1      49.255  33.704  33.978  1.00  0.00    -0.237 OA
ATOM    107  O   UNL A   1      51.255  33.474  32.559  1.00  0.00    -0.744 OA
ENDBRANCH 100 104
ENDBRANCH  74  97
ENDBRANCH  48  49
ENDBRANCH  41  43
ENDBRANCH  40  41
ENDBRANCH  39  40
ENDBRANCH  38  39
ENDBRANCH   1  38
TORSDOF 22
ENDMDL
MODEL 3
REMARK VINA RESULT:      -8.8      4.110      9.174
REMARK SMILES COc1cccc(N2CCN(c3ccc(NC(=O)c4ccc(F)cc4)c(C(=O)OCCOCCOC(=O)c4ccc(-c5c6nc(c(-c7cc(S(=O)(=O)[O-])ccc7F)c7ccc([nH]7)c(-c7cc(S(=O)(=O)[O-])ccc7F)c7nc(c(-c8cc(S(=O)(=O)[O-])ccc8F)c8ccc5[nH]8)C=C7)C=C6)cc4)c3)CC2)c1
REMARK SMILES IDX 32 1 31 2 30 3 29 4 27 5 28 6 26 7 12 8 13 9 101 10 14 11
REMARK SMILES IDX 15 12 11 13 8 14 9 15 103 16 10 17 102 18 7 19 3 20 4 21
REMARK SMILES IDX 104 22 5 23 6 24 2 25 1 26 16 27 17 28 18 30 19 31 20 32
REMARK SMILES IDX 25 33 21 34 24 35 22 36 23 37 33 38 34 39 35 40 36 41 37 42
REMARK SMILES IDX 38 43 39 44 100 45 40 46 99 47 41 48 42 49 43 50 93 51 44 52
REMARK SMILES IDX 98 53 92 54 94 55 45 56 97 57 91 58 90 59 46 61 78 62 58 63
REMARK SMILES IDX 77 64 59 65 62 66 76 67 95 68 60 69 61 70 75 72 96 73 63 74
REMARK SMILES IDX 47 75 48 76 56 77 49 78 55 79 57 80 54 81 50 82 51 83 52 84
REMARK SMILES IDX 53 85 79 86 80 87 88 88 81 89 87 90 89 91 86 92 82 93 83 94
REMARK SMILES IDX 84 95 85 96 64 97 65 98 73 99 66 100 72 101 74 102 71 103
REMARK SMILES IDX 67 104 68 105 69 106 70 107
REMARK H PARENT 16 29 94 60 62 71
REMARK Flexibility Score: inf
ROOT
ATOM      1  O   UNL A   1      35.984  22.356  24.788  1.00  0.00    -0.374 OA
ENDROOT
BRANCH   1   2
ATOM      2  C   UNL A   1      36.048  22.820  23.437  1.00  0.00     0.202 C 
BRANCH   2   3
ATOM      3  C   UNL A   1      34.786  23.493  22.885  1.00  0.00     0.261 C 
BRANCH   3   4
ATOM      4  O   UNL A   1      34.386  24.607  23.704  1.00  0.00    -0.460 OA
BRANCH   4   5
ATOM      5  C   UNL A   1      33.679  25.574  23.072  1.00  0.00     0.340 C 
ATOM      6  O   UNL A   1      33.430  25.639  21.877  1.00  0.00    -0.246 OA
BRANCH   5   7
ATOM      7  C   UNL A   1      33.012  26.431  24.083  1.00  0.00     0.085 A 
ATOM      8  C   UNL A   1      33.172  28.236  25.737  1.00  0.00     0.038 A 
ATOM      9  C   UNL A   1      31.873  27.905  26.127  1.00  0.00     0.028 A 
ATOM     10  C   UNL A   1      33.740  27.453  24.724  1.00  0.00     0.043 A 
ATOM     11  C   UNL A   1      31.152  26.876  25.518  1.00  0.00     0.029 A 
ATOM     12  C   UNL A   1      31.674  26.173  24.435  1.00  0.00     0.056 A 
BRANCH   8  13
ATOM     13  N   UNL A   1      33.855  29.264  26.344  1.00  0.00    -0.368 N 
ATOM     14  N   UNL A   1      34.602  30.949  28.501  1.00  0.00    -0.368 N 
ATOM     15  C   UNL A   1      33.291  31.143  27.878  1.00  0.00     0.138 C 
ATOM     16  C   UNL A   1      35.172  29.598  28.426  1.00  0.00     0.138 C 
ATOM     17  C   UNL A   1      33.322  30.643  26.413  1.00  0.00     0.138 C 
ATOM     18  C   UNL A   1      35.183  29.094  26.969  1.00  0.00     0.138 C 
BRANCH  14  19
ATOM     19  C   UNL A   1      35.312  32.011  29.004  1.00  0.00     0.040 A 
ATOM     20  C   UNL A   1      35.804  33.578  30.804  1.00  0.00     0.120 A 
ATOM     21  C   UNL A   1      36.721  34.237  29.989  1.00  0.00     0.046 A 
ATOM     22  C   UNL A   1      35.085  32.491  30.301  1.00  0.00     0.072 A 
ATOM     23  C   UNL A   1      36.968  33.770  28.700  1.00  0.00     0.006 A 
ATOM     24  C   UNL A   1      36.280  32.654  28.223  1.00  0.00     0.026 A 
BRANCH  20  25
ATOM     25  O   UNL A   1      35.623  34.098  32.057  1.00  0.00    -0.497 OA
ATOM     26  C   UNL A   1      34.817  35.271  32.083  1.00  0.00     0.278 C 
ENDBRANCH  20  25
ENDBRANCH  14  19
ENDBRANCH   8  13
BRANCH  12  27
ATOM     27  N   UNL A   1      30.923  25.192  23.741  1.00  0.00    -0.321 N 
ATOM     28  C   UNL A   1      30.969  23.814  23.768  1.00  0.00     0.255 C 
ATOM     29  H   UNL A   1      30.247  25.561  23.128  1.00  0.00     0.170 HD
ATOM     30  O   UNL A   1      30.415  23.145  22.899  1.00  0.00    -0.269 OA
BRANCH  28  31
ATOM     31  C   UNL A   1      31.633  23.101  24.881  1.00  0.00     0.040 A 
ATOM     32  C   UNL A   1      32.127  21.811  24.650  1.00  0.00     0.017 A 
ATOM     33  C   UNL A   1      31.797  23.712  26.133  1.00  0.00     0.017 A 
ATOM     34  C   UNL A   1      32.861  21.169  25.647  1.00  0.00     0.040 A 
ATOM     35  C   UNL A   1      32.546  23.072  27.119  1.00  0.00     0.040 A 
ATOM     36  C   UNL A   1      33.080  21.812  26.864  1.00  0.00     0.123 A 
ATOM     37  F   UNL A   1      33.823  21.211  27.801  1.00  0.00    -0.207 F 
ENDBRANCH  28  31
ENDBRANCH  12  27
ENDBRANCH   5   7
ENDBRANCH   4   5
ENDBRANCH   3   4
ENDBRANCH   2   3
ENDBRANCH   1   2
BRANCH   1  38
ATOM     38  C   UNL A   1      36.533  21.068  25.064  1.00  0.00     0.202 C 
BRANCH  38  39
ATOM     39  C   UNL A   1      38.053  20.963  25.229  1.00  0.00     0.261 C 
BRANCH  39  40
ATOM     40  O   UNL A   1      38.542  21.720  26.349  1.00  0.00    -0.460 OA
BRANCH  40  41
ATOM     41  C   UNL A   1      39.876  21.614  26.563  1.00  0.00     0.338 C 
ATOM     42  O   UNL A   1      40.603  20.695  26.216  1.00  0.00    -0.246 OA
BRANCH  41  43
ATOM     43  C   UNL A   1      40.394  22.875  27.126  1.00  0.00     0.060 A 
ATOM     44  C   UNL A   1      39.920  24.075  26.581  1.00  0.00     0.016 A 
ATOM     45  C   UNL A   1      41.369  22.884  28.124  1.00  0.00     0.016 A 
ATOM     46  C   UNL A   1      40.452  25.293  27.002  1.00  0.00     0.010 A 
ATOM     47  C   UNL A   1      41.908  24.107  28.539  1.00  0.00     0.010 A 
ATOM     48  C   UNL A   1      41.474  25.314  27.959  1.00  0.00    -0.014 A 
BRANCH  48  49
ATOM     49  C   UNL A   1      42.200  26.577  28.246  1.00  0.00     0.031 A 
ATOM     50  C   UNL A   1      43.558  26.785  27.633  1.00  0.00     0.074 A 
ATOM     51  C   UNL A   1      41.657  27.525  29.031  1.00  0.00     0.049 A 
ATOM     52  N   UNL A   1      44.423  27.745  27.834  1.00  0.00    -0.248 NA
ATOM     53  C   UNL A   1      43.999  25.766  26.667  1.00  0.00     0.031 C 
ATOM     54  C   UNL A   1      40.327  27.461  29.635  1.00  0.00     0.029 A 
ATOM     55  N   UNL A   1      42.168  28.721  29.470  1.00  0.00    -0.354 N 
ATOM     56  C   UNL A   1      45.513  27.447  27.022  1.00  0.00     0.074 A 
ATOM     57  C   UNL A   1      45.215  26.193  26.362  1.00  0.00     0.031 C 
ATOM     58  C   UNL A   1      40.137  28.558  30.386  1.00  0.00     0.029 A 
ATOM     59  C   UNL A   1      41.347  29.377  30.357  1.00  0.00     0.049 A 
ATOM     60  H   UNL A   1      43.039  29.076  29.178  1.00  0.00     0.167 HD
ATOM     61  C   UNL A   1      46.651  28.161  26.836  1.00  0.00     0.034 A 
ATOM     62  C   UNL A   1      41.565  30.488  31.093  1.00  0.00     0.034 A 
ATOM     63  C   UNL A   1      46.938  29.400  27.516  1.00  0.00     0.049 A 
ATOM     64  C   UNL A   1      42.887  31.211  30.954  1.00  0.00     0.074 A 
ATOM     65  C   UNL A   1      48.065  30.199  27.414  1.00  0.00     0.029 A 
ATOM     66  N   UNL A   1      46.096  30.019  28.431  1.00  0.00    -0.354 N 
ATOM     67  N   UNL A   1      43.916  30.913  30.194  1.00  0.00    -0.248 NA
ATOM     68  C   UNL A   1      43.072  32.423  31.765  1.00  0.00     0.031 C 
ATOM     69  C   UNL A   1      47.934  31.258  28.318  1.00  0.00     0.029 A 
ATOM     70  C   UNL A   1      46.689  31.173  28.919  1.00  0.00     0.049 A 
ATOM     71  H   UNL A   1      45.207  29.687  28.694  1.00  0.00     0.167 HD
ATOM     72  C   UNL A   1      44.852  31.923  30.409  1.00  0.00     0.074 A 
ATOM     73  C   UNL A   1      44.261  32.841  31.359  1.00  0.00     0.031 C 
ATOM     74  C   UNL A   1      46.086  32.082  29.865  1.00  0.00     0.034 A 
BRANCH  61  75
ATOM     75  C   UNL A   1      47.682  27.590  25.893  1.00  0.00     0.023 A 
ATOM     76  C   UNL A   1      47.726  27.959  24.538  1.00  0.00     0.031 A 
ATOM     77  C   UNL A   1      48.623  26.649  26.349  1.00  0.00     0.131 A 
ATOM     78  C   UNL A   1      48.641  27.341  23.672  1.00  0.00     0.055 A 
ATOM     79  C   UNL A   1      49.585  26.100  25.500  1.00  0.00     0.041 A 
ATOM     80  F   UNL A   1      48.616  26.238  27.627  1.00  0.00    -0.206 F 
ATOM     81  C   UNL A   1      49.589  26.435  24.149  1.00  0.00     0.022 A 
BRANCH  78  82
ATOM     82  S   UNL A   1      48.481  27.635  21.890  1.00  0.00     0.124 S 
ATOM     83  O   UNL A   1      49.598  28.542  21.640  1.00  0.00    -0.237 OA
ATOM     84  O   UNL A   1      48.610  26.293  21.335  1.00  0.00    -0.237 OA
ATOM     85  O   UNL A   1      47.156  28.240  21.760  1.00  0.00    -0.744 OA
ENDBRANCH  78  82
ENDBRANCH  61  75
BRANCH  62  86
ATOM     86  C   UNL A   1      40.544  30.958  32.076  1.00  0.00     0.023 A 
ATOM     87  C   UNL A   1      40.673  30.686  33.448  1.00  0.00     0.031 A 
ATOM     88  C   UNL A   1      39.381  31.621  31.645  1.00  0.00     0.131 A 
ATOM     89  C   UNL A   1      39.632  31.021  34.328  1.00  0.00     0.055 A 
ATOM     90  C   UNL A   1      38.378  32.011  32.534  1.00  0.00     0.041 A 
ATOM     91  F   UNL A   1      39.202  31.904  30.345  1.00  0.00    -0.206 F 
ATOM     92  C   UNL A   1      38.492  31.694  33.884  1.00  0.00     0.022 A 
BRANCH  89  93
ATOM     93  S   UNL A   1      39.736  30.455  36.049  1.00  0.00     0.124 S 
ATOM     94  O   UNL A   1      38.334  30.211  36.365  1.00  0.00    -0.237 OA
ATOM     95  O   UNL A   1      40.583  29.274  35.927  1.00  0.00    -0.237 OA
ATOM     96  O   UNL A   1      40.345  31.589  36.742  1.00  0.00    -0.744 OA
ENDBRANCH  89  93
ENDBRANCH  62  86
BRANCH  74  97
ATOM     97  C   UNL A   1      46.852  33.331  30.232  1.00  0.00     0.023 A 
ATOM     98  C   UNL A   1      47.741  33.370  31.320  1.00  0.00     0.031 A 
ATOM     99  C   UNL A   1      46.694  34.500  29.465  1.00  0.00     0.131 A 
ATOM    100  C   UNL A   1      48.402  34.567  31.640  1.00  0.00     0.055 A 
ATOM    101  C   UNL A   1      47.400  35.669  29.751  1.00  0.00     0.041 A 
ATOM    102  F   UNL A   1      45.856  34.523  28.416  1.00  0.00    -0.206 F 
ATOM    103  C   UNL A   1      48.251  35.711  30.850  1.00  0.00     0.022 A 
BRANCH 100 104
ATOM    104  S   UNL A   1      49.402  34.636  33.151  1.00  0.00     0.124 S 
ATOM    105  O   UNL A   1      48.429  34.271  34.176  1.00  0.00    -0.237 OA
ATOM    106  O   UNL A   1      50.443  33.649  32.882  1.00  0.00    -0.237 OA
ATOM    107  O   UNL A   1      49.861  36.022  33.196  1.00  0.00    -0.744 OA
ENDBRANCH 100 104
ENDBRANCH  74  97
ENDBRANCH  48  49
ENDBRANCH  41  43
ENDBRANCH  40  41
ENDBRANCH  39  40
ENDBRANCH  38  39
ENDBRANCH   1  38
TORSDOF 22
ENDMDL
