MODEL 1
REMARK VINA RESULT:     -11.6      0.000      0.000
REMARK SMILES O=C1NC(=O)/C(=C/c2ccc(OCc3cn(-c4ccc(C(=O)OCCOCCOC(=O)c5ccc(-c6c7nc(c(-c8cc(S(=O)(=O)[O-])ccc8F)c8ccc([nH]8)c(-c8cc(S(=O)(=O)[O-])ccc8F)c8nc(c(-c9cc(S(=O)(=O)[O-])ccc9F)c9ccc6[nH]9)C=C8)C=C7)cc5)cc4)nn3)cc2)S1
REMARK SMILES IDX 25 1 24 2 23 3 21 4 22 5 20 6 17 7 18 8 96 9 19 10 95 11
REMARK SMILES IDX 16 12 14 13 15 14 98 15 97 16 13 17 12 18 11 19 8 20 9 21
REMARK SMILES IDX 100 22 10 23 99 24 7 25 1 26 2 27 3 28 101 29 4 30 6 32 5 33
REMARK SMILES IDX 26 34 27 35 28 36 29 37 30 38 31 39 32 40 33 41 94 42 34 43
REMARK SMILES IDX 93 44 35 45 36 46 37 47 87 48 38 49 92 50 86 51 88 52 39 53
REMARK SMILES IDX 91 54 85 55 84 56 40 58 72 59 52 60 71 61 53 62 56 63 70 64
REMARK SMILES IDX 89 65 54 66 55 67 69 69 90 70 57 71 41 72 42 73 50 74 43 75
REMARK SMILES IDX 49 76 51 77 48 78 44 79 45 80 46 81 47 82 73 83 74 84 82 85
REMARK SMILES IDX 75 86 81 87 83 88 80 89 76 90 77 91 78 92 79 93 58 94 59 95
REMARK SMILES IDX 67 96 60 97 66 98 68 99 65 100 61 101 62 102 63 103 64 104
REMARK H PARENT 3 31 88 57 56 68
REMARK Flexibility Score: inf
ROOT
ATOM      1  C   UNL A   1      34.151  34.940  30.799  1.00  0.00     0.202 C 
ENDROOT
BRANCH   1   2
ATOM      2  C   UNL A   1      33.735  34.846  29.330  1.00  0.00     0.261 C 
BRANCH   2   3
ATOM      3  O   UNL A   1      33.363  33.518  28.938  1.00  0.00    -0.460 OA
BRANCH   3   4
ATOM      4  C   UNL A   1      34.349  32.836  28.312  1.00  0.00     0.338 C 
ATOM      5  O   UNL A   1      35.550  33.038  28.384  1.00  0.00    -0.246 OA
BRANCH   4   6
ATOM      6  C   UNL A   1      33.794  31.664  27.613  1.00  0.00     0.060 A 
ATOM      7  C   UNL A   1      32.481  29.439  26.607  1.00  0.00     0.066 A 
ATOM      8  C   UNL A   1      31.878  30.701  26.506  1.00  0.00     0.029 A 
ATOM      9  C   UNL A   1      33.785  29.308  27.105  1.00  0.00     0.029 A 
ATOM     10  C   UNL A   1      32.523  31.806  27.045  1.00  0.00     0.018 A 
ATOM     11  C   UNL A   1      34.457  30.435  27.587  1.00  0.00     0.018 A 
BRANCH   7  12
ATOM     12  N   UNL A   1      31.699  28.304  26.309  1.00  0.00    -0.220 N 
ATOM     13  C   UNL A   1      30.773  26.608  25.293  1.00  0.00     0.120 A 
ATOM     14  C   UNL A   1      31.259  27.880  25.073  1.00  0.00     0.144 A 
ATOM     15  N   UNL A   1      30.902  26.318  26.624  1.00  0.00    -0.131 NA
ATOM     16  N   UNL A   1      31.468  27.344  27.229  1.00  0.00    -0.062 NA
BRANCH  13  17
ATOM     17  C   UNL A   1      30.304  25.563  24.336  1.00  0.00     0.289 C 
BRANCH  17  18
ATOM     18  O   UNL A   1      30.145  24.245  24.887  1.00  0.00    -0.487 OA
BRANCH  18  19
ATOM     19  C   UNL A   1      31.243  23.429  24.934  1.00  0.00     0.119 A 
ATOM     20  C   UNL A   1      33.308  21.531  24.751  1.00  0.00    -0.024 A 
ATOM     21  C   UNL A   1      32.804  22.134  23.597  1.00  0.00     0.012 A 
ATOM     22  C   UNL A   1      32.838  21.952  25.997  1.00  0.00     0.012 A 
ATOM     23  C   UNL A   1      31.772  23.075  23.691  1.00  0.00     0.047 A 
ATOM     24  C   UNL A   1      31.833  22.917  26.087  1.00  0.00     0.047 A 
BRANCH  20  25
ATOM     25  C   UNL A   1      34.329  20.484  24.666  1.00  0.00     0.029 C 
ATOM     26  O   UNL A   1      32.763  15.720  25.145  1.00  0.00    -0.261 OA
ATOM     27  C   UNL A   1      33.357  16.775  24.953  1.00  0.00     0.290 C 
ATOM     28  N   UNL A   1      34.698  16.913  24.830  1.00  0.00    -0.282 N 
ATOM     29  S   UNL A   1      32.585  18.343  24.864  1.00  0.00    -0.022 SA
ATOM     30  C   UNL A   1      35.206  18.175  24.731  1.00  0.00     0.265 C 
ATOM     31  H   UNL A   1      35.289  16.126  24.814  1.00  0.00     0.174 HD
ATOM     32  C   UNL A   1      34.097  19.165  24.732  1.00  0.00     0.083 C 
ATOM     33  O   UNL A   1      36.395  18.447  24.696  1.00  0.00    -0.268 OA
ENDBRANCH  20  25
ENDBRANCH  18  19
ENDBRANCH  17  18
ENDBRANCH  13  17
ENDBRANCH   7  12
ENDBRANCH   4   6
ENDBRANCH   3   4
ENDBRANCH   2   3
ENDBRANCH   1   2
BRANCH   1  34
ATOM     34  O   UNL A   1      33.690  33.949  31.715  1.00  0.00    -0.374 OA
BRANCH  34  35
ATOM     35  C   UNL A   1      34.498  32.820  32.030  1.00  0.00     0.202 C 
BRANCH  35  36
ATOM     36  C   UNL A   1      35.978  33.010  32.327  1.00  0.00     0.261 C 
BRANCH  36  37
ATOM     37  O   UNL A   1      36.792  32.239  31.464  1.00  0.00    -0.460 OA
BRANCH  37  38
ATOM     38  C   UNL A   1      38.033  32.755  31.296  1.00  0.00     0.338 C 
ATOM     39  O   UNL A   1      38.422  33.861  31.630  1.00  0.00    -0.246 OA
BRANCH  38  40
ATOM     40  C   UNL A   1      38.819  31.810  30.502  1.00  0.00     0.060 A 
ATOM     41  C   UNL A   1      38.383  30.487  30.559  1.00  0.00     0.016 A 
ATOM     42  C   UNL A   1      40.124  32.162  30.135  1.00  0.00     0.016 A 
ATOM     43  C   UNL A   1      39.342  29.507  30.575  1.00  0.00     0.010 A 
ATOM     44  C   UNL A   1      41.082  31.187  30.180  1.00  0.00     0.010 A 
ATOM     45  C   UNL A   1      40.687  29.891  30.508  1.00  0.00    -0.014 A 
BRANCH  45  46
ATOM     46  C   UNL A   1      41.700  28.866  30.589  1.00  0.00     0.031 A 
ATOM     47  C   UNL A   1      42.024  28.596  32.007  1.00  0.00     0.074 A 
ATOM     48  C   UNL A   1      42.156  28.197  29.512  1.00  0.00     0.049 A 
ATOM     49  N   UNL A   1      43.054  29.017  32.660  1.00  0.00    -0.248 NA
ATOM     50  C   UNL A   1      40.936  28.096  32.872  1.00  0.00     0.031 C 
ATOM     51  C   UNL A   1      41.708  28.285  28.121  1.00  0.00     0.029 A 
ATOM     52  N   UNL A   1      43.089  27.211  29.458  1.00  0.00    -0.354 N 
ATOM     53  C   UNL A   1      42.870  28.538  33.950  1.00  0.00     0.074 A 
ATOM     54  C   UNL A   1      41.463  28.305  34.078  1.00  0.00     0.031 C 
ATOM     55  C   UNL A   1      42.202  27.234  27.420  1.00  0.00     0.029 A 
ATOM     56  C   UNL A   1      43.098  26.470  28.274  1.00  0.00     0.049 A 
ATOM     57  H   UNL A   1      43.713  27.032  30.198  1.00  0.00     0.167 HD
ATOM     58  C   UNL A   1      43.919  28.007  34.635  1.00  0.00     0.034 A 
ATOM     59  C   UNL A   1      43.743  25.283  28.070  1.00  0.00     0.034 A 
ATOM     60  C   UNL A   1      45.172  28.456  34.055  1.00  0.00     0.049 A 
ATOM     61  C   UNL A   1      44.809  25.208  29.109  1.00  0.00     0.074 A 
ATOM     62  C   UNL A   1      45.731  29.698  33.812  1.00  0.00     0.029 A 
ATOM     63  N   UNL A   1      45.858  27.578  33.239  1.00  0.00    -0.354 N 
ATOM     64  N   UNL A   1      45.824  26.031  29.137  1.00  0.00    -0.248 NA
ATOM     65  C   UNL A   1      44.459  24.618  30.395  1.00  0.00     0.031 C 
ATOM     66  C   UNL A   1      46.359  29.580  32.536  1.00  0.00     0.029 A 
ATOM     67  C   UNL A   1      46.253  28.254  32.110  1.00  0.00     0.049 A 
ATOM     68  H   UNL A   1      46.033  26.630  33.433  1.00  0.00     0.167 HD
ATOM     69  C   UNL A   1      45.956  26.398  30.469  1.00  0.00     0.074 A 
ATOM     70  C   UNL A   1      45.130  25.442  31.208  1.00  0.00     0.031 C 
ATOM     71  C   UNL A   1      46.460  27.621  30.819  1.00  0.00     0.034 A 
BRANCH  58  72
ATOM     72  C   UNL A   1      43.813  26.740  35.468  1.00  0.00     0.023 A 
ATOM     73  C   UNL A   1      44.125  26.877  36.831  1.00  0.00     0.031 A 
ATOM     74  C   UNL A   1      43.736  25.406  34.996  1.00  0.00     0.131 A 
ATOM     75  C   UNL A   1      44.511  25.768  37.598  1.00  0.00     0.055 A 
ATOM     76  C   UNL A   1      44.066  24.300  35.782  1.00  0.00     0.041 A 
ATOM     77  F   UNL A   1      43.400  25.076  33.747  1.00  0.00    -0.206 F 
ATOM     78  C   UNL A   1      44.500  24.479  37.080  1.00  0.00     0.022 A 
BRANCH  75  79
ATOM     79  S   UNL A   1      45.219  26.082  39.230  1.00  0.00     0.124 S 
ATOM     80  O   UNL A   1      45.432  24.724  39.715  1.00  0.00    -0.237 OA
ATOM     81  O   UNL A   1      46.417  26.843  38.891  1.00  0.00    -0.237 OA
ATOM     82  O   UNL A   1      44.170  26.837  39.911  1.00  0.00    -0.744 OA
ENDBRANCH  75  79
ENDBRANCH  58  72
BRANCH  59  83
ATOM     83  C   UNL A   1      43.236  24.081  27.330  1.00  0.00     0.023 A 
ATOM     84  C   UNL A   1      44.022  23.310  26.434  1.00  0.00     0.031 A 
ATOM     85  C   UNL A   1      41.994  23.518  27.706  1.00  0.00     0.131 A 
ATOM     86  C   UNL A   1      43.554  22.054  25.961  1.00  0.00     0.055 A 
ATOM     87  C   UNL A   1      41.543  22.279  27.242  1.00  0.00     0.041 A 
ATOM     88  F   UNL A   1      41.207  24.115  28.613  1.00  0.00    -0.206 F 
ATOM     89  C   UNL A   1      42.325  21.537  26.375  1.00  0.00     0.022 A 
BRANCH  86  90
ATOM     90  S   UNL A   1      44.562  21.018  24.840  1.00  0.00     0.124 S 
ATOM     91  O   UNL A   1      45.866  21.027  25.492  1.00  0.00    -0.237 OA
ATOM     92  O   UNL A   1      43.842  19.750  24.847  1.00  0.00    -0.237 OA
ATOM     93  O   UNL A   1      44.513  21.738  23.567  1.00  0.00    -0.744 OA
ENDBRANCH  86  90
ENDBRANCH  59  83
BRANCH  71  94
ATOM     94  C   UNL A   1      47.142  28.455  29.748  1.00  0.00     0.023 A 
ATOM     95  C   UNL A   1      46.486  29.196  28.735  1.00  0.00     0.031 A 
ATOM     96  C   UNL A   1      48.537  28.585  29.848  1.00  0.00     0.131 A 
ATOM     97  C   UNL A   1      47.238  30.020  27.867  1.00  0.00     0.055 A 
ATOM     98  C   UNL A   1      49.271  29.419  29.007  1.00  0.00     0.041 A 
ATOM     99  F   UNL A   1      49.215  27.926  30.802  1.00  0.00    -0.206 F 
ATOM    100  C   UNL A   1      48.624  30.135  28.008  1.00  0.00     0.022 A 
BRANCH  97 101
ATOM    101  S   UNL A   1      46.434  30.943  26.513  1.00  0.00     0.124 S 
ATOM    102  O   UNL A   1      46.464  30.004  25.398  1.00  0.00    -0.237 OA
ATOM    103  O   UNL A   1      45.116  31.234  27.070  1.00  0.00    -0.237 OA
ATOM    104  O   UNL A   1      47.293  32.117  26.345  1.00  0.00    -0.744 OA
ENDBRANCH  97 101
ENDBRANCH  71  94
ENDBRANCH  45  46
ENDBRANCH  38  40
ENDBRANCH  37  38
ENDBRANCH  36  37
ENDBRANCH  35  36
ENDBRANCH  34  35
ENDBRANCH   1  34
TORSDOF 22
ENDMDL
MODEL 2
REMARK VINA RESULT:     -11.4      1.977      2.445
REMARK SMILES O=C1NC(=O)/C(=C/c2ccc(OCc3cn(-c4ccc(C(=O)OCCOCCOC(=O)c5ccc(-c6c7nc(c(-c8cc(S(=O)(=O)[O-])ccc8F)c8ccc([nH]8)c(-c8cc(S(=O)(=O)[O-])ccc8F)c8nc(c(-c9cc(S(=O)(=O)[O-])ccc9F)c9ccc6[nH]9)C=C8)C=C7)cc5)cc4)nn3)cc2)S1
REMARK SMILES IDX 25 1 24 2 23 3 21 4 22 5 20 6 17 7 18 8 96 9 19 10 95 11
REMARK SMILES IDX 16 12 14 13 15 14 98 15 97 16 13 17 12 18 11 19 8 20 9 21
REMARK SMILES IDX 100 22 10 23 99 24 7 25 1 26 2 27 3 28 101 29 4 30 6 32 5 33
REMARK SMILES IDX 26 34 27 35 28 36 29 37 30 38 31 39 32 40 33 41 94 42 34 43
REMARK SMILES IDX 93 44 35 45 36 46 37 47 87 48 38 49 92 50 86 51 88 52 39 53
REMARK SMILES IDX 91 54 85 55 84 56 40 58 72 59 52 60 71 61 53 62 56 63 70 64
REMARK SMILES IDX 89 65 54 66 55 67 69 69 90 70 57 71 41 72 42 73 50 74 43 75
REMARK SMILES IDX 49 76 51 77 48 78 44 79 45 80 46 81 47 82 73 83 74 84 82 85
REMARK SMILES IDX 75 86 81 87 83 88 80 89 76 90 77 91 78 92 79 93 58 94 59 95
REMARK SMILES IDX 67 96 60 97 66 98 68 99 65 100 61 101 62 102 63 103 64 104
REMARK H PARENT 3 31 88 57 56 68
REMARK Flexibility Score: inf
ROOT
ATOM      1  C   UNL A   1      34.520  34.649  30.702  1.00  0.00     0.202 C 
ENDROOT
BRANCH   1   2
ATOM      2  C   UNL A   1      34.253  34.393  29.218  1.00  0.00     0.261 C 
BRANCH   2   3
ATOM      3  O   UNL A   1      33.740  33.079  28.961  1.00  0.00    -0.460 OA
BRANCH   3   4
ATOM      4  C   UNL A   1      34.680  32.198  28.547  1.00  0.00     0.338 C 
ATOM      5  O   UNL A   1      35.859  32.172  28.857  1.00  0.00    -0.246 OA
BRANCH   4   6
ATOM      6  C   UNL A   1      34.056  31.123  27.755  1.00  0.00     0.060 A 
ATOM      7  C   UNL A   1      32.640  29.042  26.592  1.00  0.00     0.066 A 
ATOM      8  C   UNL A   1      32.044  30.307  26.701  1.00  0.00     0.029 A 
ATOM      9  C   UNL A   1      33.979  28.849  26.959  1.00  0.00     0.029 A 
ATOM     10  C   UNL A   1      32.743  31.335  27.317  1.00  0.00     0.018 A 
ATOM     11  C   UNL A   1      34.700  29.906  27.520  1.00  0.00     0.018 A 
BRANCH   7  12
ATOM     12  N   UNL A   1      31.823  27.954  26.220  1.00  0.00    -0.220 N 
ATOM     13  C   UNL A   1      30.846  26.359  25.096  1.00  0.00     0.120 A 
ATOM     14  C   UNL A   1      31.370  27.628  24.960  1.00  0.00     0.144 A 
ATOM     15  N   UNL A   1      30.966  25.976  26.404  1.00  0.00    -0.131 NA
ATOM     16  N   UNL A   1      31.563  26.942  27.075  1.00  0.00    -0.062 NA
BRANCH  13  17
ATOM     17  C   UNL A   1      30.344  25.395  24.072  1.00  0.00     0.289 C 
BRANCH  17  18
ATOM     18  O   UNL A   1      30.332  24.015  24.474  1.00  0.00    -0.487 OA
BRANCH  18  19
ATOM     19  C   UNL A   1      31.507  23.315  24.413  1.00  0.00     0.119 A 
ATOM     20  C   UNL A   1      33.986  22.014  24.662  1.00  0.00    -0.024 A 
ATOM     21  C   UNL A   1      33.010  21.861  25.649  1.00  0.00     0.012 A 
ATOM     22  C   UNL A   1      33.679  22.743  23.511  1.00  0.00     0.012 A 
ATOM     23  C   UNL A   1      31.778  22.514  25.524  1.00  0.00     0.047 A 
ATOM     24  C   UNL A   1      32.436  23.364  23.376  1.00  0.00     0.047 A 
BRANCH  20  25
ATOM     25  C   UNL A   1      35.310  21.406  24.815  1.00  0.00     0.029 C 
ATOM     26  O   UNL A   1      39.046  24.419  26.346  1.00  0.00    -0.261 OA
ATOM     27  C   UNL A   1      38.298  23.504  26.021  1.00  0.00     0.290 C 
ATOM     28  N   UNL A   1      38.682  22.237  25.737  1.00  0.00    -0.282 N 
ATOM     29  S   UNL A   1      36.572  23.669  25.790  1.00  0.00    -0.022 SA
ATOM     30  C   UNL A   1      37.736  21.366  25.283  1.00  0.00     0.265 C 
ATOM     31  H   UNL A   1      39.617  21.953  25.855  1.00  0.00     0.174 HD
ATOM     32  C   UNL A   1      36.410  22.039  25.247  1.00  0.00     0.083 C 
ATOM     33  O   UNL A   1      37.957  20.224  24.915  1.00  0.00    -0.268 OA
ENDBRANCH  20  25
ENDBRANCH  18  19
ENDBRANCH  17  18
ENDBRANCH  13  17
ENDBRANCH   7  12
ENDBRANCH   4   6
ENDBRANCH   3   4
ENDBRANCH   2   3
ENDBRANCH   1   2
BRANCH   1  34
ATOM     34  O   UNL A   1      33.803  33.893  31.676  1.00  0.00    -0.374 OA
BRANCH  34  35
ATOM     35  C   UNL A   1      34.424  32.804  32.352  1.00  0.00     0.202 C 
BRANCH  35  36
ATOM     36  C   UNL A   1      35.885  32.907  32.765  1.00  0.00     0.261 C 
BRANCH  36  37
ATOM     37  O   UNL A   1      36.707  32.027  32.021  1.00  0.00    -0.460 OA
BRANCH  37  38
ATOM     38  C   UNL A   1      37.956  32.506  31.815  1.00  0.00     0.338 C 
ATOM     39  O   UNL A   1      38.395  33.590  32.160  1.00  0.00    -0.246 OA
BRANCH  38  40
ATOM     40  C   UNL A   1      38.678  31.557  30.967  1.00  0.00     0.060 A 
ATOM     41  C   UNL A   1      38.373  30.215  31.193  1.00  0.00     0.016 A 
ATOM     42  C   UNL A   1      39.869  31.970  30.356  1.00  0.00     0.016 A 
ATOM     43  C   UNL A   1      39.403  29.313  31.114  1.00  0.00     0.010 A 
ATOM     44  C   UNL A   1      40.901  31.074  30.306  1.00  0.00     0.010 A 
ATOM     45  C   UNL A   1      40.680  29.786  30.789  1.00  0.00    -0.014 A 
BRANCH  45  46
ATOM     46  C   UNL A   1      41.777  28.848  30.767  1.00  0.00     0.031 A 
ATOM     47  C   UNL A   1      42.264  28.619  32.145  1.00  0.00     0.074 A 
ATOM     48  C   UNL A   1      42.174  28.209  29.650  1.00  0.00     0.049 A 
ATOM     49  N   UNL A   1      43.317  29.129  32.689  1.00  0.00    -0.248 NA
ATOM     50  C   UNL A   1      41.314  28.040  33.117  1.00  0.00     0.031 C 
ATOM     51  C   UNL A   1      41.581  28.246  28.312  1.00  0.00     0.029 A 
ATOM     52  N   UNL A   1      43.175  27.302  29.502  1.00  0.00    -0.354 N 
ATOM     53  C   UNL A   1      43.305  28.650  33.992  1.00  0.00     0.074 A 
ATOM     54  C   UNL A   1      41.943  28.303  34.262  1.00  0.00     0.031 C 
ATOM     55  C   UNL A   1      42.086  27.233  27.566  1.00  0.00     0.029 A 
ATOM     56  C   UNL A   1      43.124  26.552  28.325  1.00  0.00     0.049 A 
ATOM     57  H   UNL A   1      43.883  27.182  30.174  1.00  0.00     0.167 HD
ATOM     58  C   UNL A   1      44.459  28.212  34.566  1.00  0.00     0.034 A 
ATOM     59  C   UNL A   1      43.841  25.420  28.057  1.00  0.00     0.034 A 
ATOM     60  C   UNL A   1      45.605  28.757  33.860  1.00  0.00     0.049 A 
ATOM     61  C   UNL A   1      45.009  25.443  28.982  1.00  0.00     0.074 A 
ATOM     62  C   UNL A   1      46.032  30.038  33.560  1.00  0.00     0.029 A 
ATOM     63  N   UNL A   1      46.274  27.930  32.980  1.00  0.00    -0.354 N 
ATOM     64  N   UNL A   1      45.951  26.346  28.905  1.00  0.00    -0.248 NA
ATOM     65  C   UNL A   1      44.842  24.839  30.298  1.00  0.00     0.031 C 
ATOM     66  C   UNL A   1      46.534  29.959  32.226  1.00  0.00     0.029 A 
ATOM     67  C   UNL A   1      46.496  28.625  31.816  1.00  0.00     0.049 A 
ATOM     68  H   UNL A   1      46.546  27.001  33.156  1.00  0.00     0.167 HD
ATOM     69  C   UNL A   1      46.187  26.736  30.216  1.00  0.00     0.074 A 
ATOM     70  C   UNL A   1      45.522  25.722  31.036  1.00  0.00     0.031 C 
ATOM     71  C   UNL A   1      46.621  27.999  30.511  1.00  0.00     0.034 A 
BRANCH  58  72
ATOM     72  C   UNL A   1      44.543  26.949  35.407  1.00  0.00     0.023 A 
ATOM     73  C   UNL A   1      44.844  25.769  34.707  1.00  0.00     0.031 A 
ATOM     74  C   UNL A   1      44.070  26.764  36.729  1.00  0.00     0.131 A 
ATOM     75  C   UNL A   1      44.512  24.512  35.235  1.00  0.00     0.055 A 
ATOM     76  C   UNL A   1      43.795  25.507  37.272  1.00  0.00     0.041 A 
ATOM     77  F   UNL A   1      43.784  27.766  37.564  1.00  0.00    -0.206 F 
ATOM     78  C   UNL A   1      43.975  24.371  36.508  1.00  0.00     0.022 A 
BRANCH  75  79
ATOM     79  S   UNL A   1      44.619  23.084  34.133  1.00  0.00     0.124 S 
ATOM     80  O   UNL A   1      44.248  22.000  35.035  1.00  0.00    -0.237 OA
ATOM     81  O   UNL A   1      43.643  23.432  33.105  1.00  0.00    -0.237 OA
ATOM     82  O   UNL A   1      46.014  23.096  33.703  1.00  0.00    -0.744 OA
ENDBRANCH  75  79
ENDBRANCH  58  72
BRANCH  59  83
ATOM     83  C   UNL A   1      43.361  24.173  27.374  1.00  0.00     0.023 A 
ATOM     84  C   UNL A   1      44.124  23.446  26.424  1.00  0.00     0.031 A 
ATOM     85  C   UNL A   1      42.198  23.531  27.858  1.00  0.00     0.131 A 
ATOM     86  C   UNL A   1      43.710  22.152  26.005  1.00  0.00     0.055 A 
ATOM     87  C   UNL A   1      41.799  22.256  27.445  1.00  0.00     0.041 A 
ATOM     88  F   UNL A   1      41.447  24.086  28.820  1.00  0.00    -0.206 F 
ATOM     89  C   UNL A   1      42.559  21.557  26.524  1.00  0.00     0.022 A 
BRANCH  86  90
ATOM     90  S   UNL A   1      44.694  21.171  24.815  1.00  0.00     0.124 S 
ATOM     91  O   UNL A   1      44.039  19.870  24.863  1.00  0.00    -0.237 OA
ATOM     92  O   UNL A   1      44.544  21.929  23.578  1.00  0.00    -0.237 OA
ATOM     93  O   UNL A   1      46.044  21.194  25.382  1.00  0.00    -0.744 OA
ENDBRANCH  86  90
ENDBRANCH  59  83
BRANCH  71  94
ATOM     94  C   UNL A   1      47.119  28.876  29.375  1.00  0.00     0.023 A 
ATOM     95  C   UNL A   1      46.362  29.862  28.698  1.00  0.00     0.031 A 
ATOM     96  C   UNL A   1      48.483  28.768  29.051  1.00  0.00     0.131 A 
ATOM     97  C   UNL A   1      46.981  30.685  27.731  1.00  0.00     0.055 A 
ATOM     98  C   UNL A   1      49.095  29.600  28.116  1.00  0.00     0.041 A 
ATOM     99  F   UNL A   1      49.260  27.867  29.674  1.00  0.00    -0.206 F 
ATOM    100  C   UNL A   1      48.344  30.558  27.447  1.00  0.00     0.022 A 
BRANCH  97 101
ATOM    101  S   UNL A   1      46.023  31.926  26.797  1.00  0.00     0.124 S 
ATOM    102  O   UNL A   1      45.108  31.119  25.999  1.00  0.00    -0.237 OA
ATOM    103  O   UNL A   1      45.415  32.720  27.861  1.00  0.00    -0.237 OA
ATOM    104  O   UNL A   1      47.045  32.633  26.022  1.00  0.00    -0.744 OA
ENDBRANCH  97 101
ENDBRANCH  71  94
ENDBRANCH  45  46
ENDBRANCH  38  40
ENDBRANCH  37  38
ENDBRANCH  36  37
ENDBRANCH  35  36
ENDBRANCH  34  35
ENDBRANCH   1  34
TORSDOF 22
ENDMDL
MODEL 3
REMARK VINA RESULT:     -10.8      5.154     11.929
REMARK SMILES O=C1NC(=O)/C(=C/c2ccc(OCc3cn(-c4ccc(C(=O)OCCOCCOC(=O)c5ccc(-c6c7nc(c(-c8cc(S(=O)(=O)[O-])ccc8F)c8ccc([nH]8)c(-c8cc(S(=O)(=O)[O-])ccc8F)c8nc(c(-c9cc(S(=O)(=O)[O-])ccc9F)c9ccc6[nH]9)C=C8)C=C7)cc5)cc4)nn3)cc2)S1
REMARK SMILES IDX 25 1 24 2 23 3 21 4 22 5 20 6 17 7 18 8 96 9 19 10 95 11
REMARK SMILES IDX 16 12 14 13 15 14 98 15 97 16 13 17 12 18 11 19 8 20 9 21
REMARK SMILES IDX 100 22 10 23 99 24 7 25 1 26 2 27 3 28 101 29 4 30 6 32 5 33
REMARK SMILES IDX 26 34 27 35 28 36 29 37 30 38 31 39 32 40 33 41 94 42 34 43
REMARK SMILES IDX 93 44 35 45 36 46 37 47 87 48 38 49 92 50 86 51 88 52 39 53
REMARK SMILES IDX 91 54 85 55 84 56 40 58 72 59 52 60 71 61 53 62 56 63 70 64
REMARK SMILES IDX 89 65 54 66 55 67 69 69 90 70 57 71 41 72 42 73 50 74 43 75
REMARK SMILES IDX 49 76 51 77 48 78 44 79 45 80 46 81 47 82 73 83 74 84 82 85
REMARK SMILES IDX 75 86 81 87 83 88 80 89 76 90 77 91 78 92 79 93 58 94 59 95
REMARK SMILES IDX 67 96 60 97 66 98 68 99 65 100 61 101 62 102 63 103 64 104
REMARK H PARENT 3 31 88 57 56 68
REMARK Flexibility Score: inf
ROOT
ATOM      1  C   UNL A   1      48.446  26.245  36.984  1.00  0.00     0.202 C 
ENDROOT
BRANCH   1   2
ATOM      2  C   UNL A   1      49.080  27.636  36.991  1.00  0.00     0.261 C 
BRANCH   2   3
ATOM      3  O   UNL A   1      48.123  28.688  36.809  1.00  0.00    -0.460 OA
BRANCH   3   4
ATOM      4  C   UNL A   1      47.720  28.844  35.527  1.00  0.00     0.338 C 
ATOM      5  O   UNL A   1      48.410  28.796  34.522  1.00  0.00    -0.246 OA
BRANCH   4   6
ATOM      6  C   UNL A   1      46.250  28.932  35.463  1.00  0.00     0.060 A 
ATOM      7  C   UNL A   1      43.520  29.385  35.631  1.00  0.00     0.066 A 
ATOM      8  C   UNL A   1      44.336  30.318  34.976  1.00  0.00     0.029 A 
ATOM      9  C   UNL A   1      44.052  28.175  36.100  1.00  0.00     0.029 A 
ATOM     10  C   UNL A   1      45.707  30.105  34.927  1.00  0.00     0.018 A 
ATOM     11  C   UNL A   1      45.425  27.936  35.990  1.00  0.00     0.018 A 
BRANCH   7  12
ATOM     12  N   UNL A   1      42.187  29.750  35.911  1.00  0.00    -0.220 N 
ATOM     13  C   UNL A   1      40.241  30.738  35.898  1.00  0.00     0.120 A 
ATOM     14  C   UNL A   1      41.589  30.977  35.723  1.00  0.00     0.144 A 
ATOM     15  N   UNL A   1      40.070  29.416  36.208  1.00  0.00    -0.131 NA
ATOM     16  N   UNL A   1      41.249  28.825  36.207  1.00  0.00    -0.062 NA
BRANCH  13  17
ATOM     17  C   UNL A   1      39.056  31.620  35.676  1.00  0.00     0.289 C 
BRANCH  17  18
ATOM     18  O   UNL A   1      39.054  32.353  34.441  1.00  0.00    -0.487 OA
BRANCH  18  19
ATOM     19  C   UNL A   1      37.927  33.058  34.111  1.00  0.00     0.119 A 
ATOM     20  C   UNL A   1      35.859  34.822  33.399  1.00  0.00    -0.024 A 
ATOM     21  C   UNL A   1      37.012  34.740  32.617  1.00  0.00     0.012 A 
ATOM     22  C   UNL A   1      35.709  33.952  34.481  1.00  0.00     0.012 A 
ATOM     23  C   UNL A   1      38.043  33.864  32.977  1.00  0.00     0.047 A 
ATOM     24  C   UNL A   1      36.725  33.054  34.815  1.00  0.00     0.047 A 
BRANCH  20  25
ATOM     25  C   UNL A   1      34.807  35.792  33.085  1.00  0.00     0.029 C 
ATOM     26  O   UNL A   1      32.523  35.325  28.619  1.00  0.00    -0.261 OA
ATOM     27  C   UNL A   1      32.893  35.597  29.756  1.00  0.00     0.290 C 
ATOM     28  N   UNL A   1      32.488  36.664  30.482  1.00  0.00    -0.282 N 
ATOM     29  S   UNL A   1      34.086  34.684  30.653  1.00  0.00    -0.022 SA
ATOM     30  C   UNL A   1      33.083  36.882  31.690  1.00  0.00     0.265 C 
ATOM     31  H   UNL A   1      31.785  37.267  30.148  1.00  0.00     0.174 HD
ATOM     32  C   UNL A   1      34.067  35.802  31.967  1.00  0.00     0.083 C 
ATOM     33  O   UNL A   1      32.873  37.846  32.408  1.00  0.00    -0.268 OA
ENDBRANCH  20  25
ENDBRANCH  18  19
ENDBRANCH  17  18
ENDBRANCH  13  17
ENDBRANCH   7  12
ENDBRANCH   4   6
ENDBRANCH   3   4
ENDBRANCH   2   3
ENDBRANCH   1   2
BRANCH   1  34
ATOM     34  O   UNL A   1      49.129  25.168  37.622  1.00  0.00    -0.374 OA
BRANCH  34  35
ATOM     35  C   UNL A   1      49.108  23.860  37.058  1.00  0.00     0.202 C 
BRANCH  35  36
ATOM     36  C   UNL A   1      47.984  22.901  37.418  1.00  0.00     0.261 C 
BRANCH  36  37
ATOM     37  O   UNL A   1      46.725  23.375  36.978  1.00  0.00    -0.460 OA
BRANCH  37  38
ATOM     38  C   UNL A   1      46.464  23.076  35.683  1.00  0.00     0.338 C 
ATOM     39  O   UNL A   1      46.674  22.018  35.115  1.00  0.00    -0.246 OA
BRANCH  38  40
ATOM     40  C   UNL A   1      46.007  24.294  35.015  1.00  0.00     0.060 A 
ATOM     41  C   UNL A   1      44.624  24.469  34.988  1.00  0.00     0.016 A 
ATOM     42  C   UNL A   1      46.868  24.928  34.109  1.00  0.00     0.016 A 
ATOM     43  C   UNL A   1      44.078  25.010  33.852  1.00  0.00     0.010 A 
ATOM     44  C   UNL A   1      46.321  25.439  32.964  1.00  0.00     0.010 A 
ATOM     45  C   UNL A   1      44.938  25.372  32.808  1.00  0.00    -0.014 A 
BRANCH  45  46
ATOM     46  C   UNL A   1      44.360  25.880  31.586  1.00  0.00     0.031 A 
ATOM     47  C   UNL A   1      44.596  24.921  30.486  1.00  0.00     0.074 A 
ATOM     48  C   UNL A   1      43.618  27.003  31.537  1.00  0.00     0.049 A 
ATOM     49  N   UNL A   1      45.488  25.011  29.557  1.00  0.00    -0.248 NA
ATOM     50  C   UNL A   1      44.015  23.569  30.622  1.00  0.00     0.031 C 
ATOM     51  C   UNL A   1      43.183  27.864  32.639  1.00  0.00     0.029 A 
ATOM     52  N   UNL A   1      43.014  27.575  30.463  1.00  0.00    -0.354 N 
ATOM     53  C   UNL A   1      45.334  23.850  28.811  1.00  0.00     0.074 A 
ATOM     54  C   UNL A   1      44.697  22.912  29.684  1.00  0.00     0.031 C 
ATOM     55  C   UNL A   1      42.206  28.697  32.203  1.00  0.00     0.029 A 
ATOM     56  C   UNL A   1      42.031  28.519  30.770  1.00  0.00     0.049 A 
ATOM     57  H   UNL A   1      43.252  27.342  29.537  1.00  0.00     0.167 HD
ATOM     58  C   UNL A   1      45.376  23.904  27.452  1.00  0.00     0.034 A 
ATOM     59  C   UNL A   1      41.111  29.037  29.902  1.00  0.00     0.034 A 
ATOM     60  C   UNL A   1      46.041  25.122  27.022  1.00  0.00     0.049 A 
ATOM     61  C   UNL A   1      41.667  28.826  28.536  1.00  0.00     0.074 A 
ATOM     62  C   UNL A   1      47.286  25.676  27.259  1.00  0.00     0.029 A 
ATOM     63  N   UNL A   1      45.253  26.165  26.577  1.00  0.00    -0.354 N 
ATOM     64  N   UNL A   1      42.753  29.421  28.117  1.00  0.00    -0.248 NA
ATOM     65  C   UNL A   1      41.357  27.568  27.868  1.00  0.00     0.031 C 
ATOM     66  C   UNL A   1      47.046  27.074  27.419  1.00  0.00     0.029 A 
ATOM     67  C   UNL A   1      45.696  27.325  27.165  1.00  0.00     0.049 A 
ATOM     68  H   UNL A   1      44.501  26.090  25.947  1.00  0.00     0.167 HD
ATOM     69  C   UNL A   1      43.482  28.432  27.471  1.00  0.00     0.074 A 
ATOM     70  C   UNL A   1      42.539  27.327  27.290  1.00  0.00     0.031 C 
ATOM     71  C   UNL A   1      44.848  28.475  27.429  1.00  0.00     0.034 A 
BRANCH  58  72
ATOM     72  C   UNL A   1      44.413  23.141  26.558  1.00  0.00     0.023 A 
ATOM     73  C   UNL A   1      43.049  23.300  26.854  1.00  0.00     0.031 A 
ATOM     74  C   UNL A   1      44.720  22.076  25.676  1.00  0.00     0.131 A 
ATOM     75  C   UNL A   1      42.105  22.346  26.445  1.00  0.00     0.055 A 
ATOM     76  C   UNL A   1      43.766  21.162  25.224  1.00  0.00     0.041 A 
ATOM     77  F   UNL A   1      45.952  21.805  25.238  1.00  0.00    -0.206 F 
ATOM     78  C   UNL A   1      42.455  21.267  25.643  1.00  0.00     0.022 A 
BRANCH  75  79
ATOM     79  S   UNL A   1      40.447  22.447  27.155  1.00  0.00     0.124 S 
ATOM     80  O   UNL A   1      39.639  21.903  26.070  1.00  0.00    -0.237 OA
ATOM     81  O   UNL A   1      40.583  21.610  28.343  1.00  0.00    -0.237 OA
ATOM     82  O   UNL A   1      40.279  23.875  27.410  1.00  0.00    -0.744 OA
ENDBRANCH  75  79
ENDBRANCH  58  72
BRANCH  59  83
ATOM     83  C   UNL A   1      39.659  29.308  30.163  1.00  0.00     0.023 A 
ATOM     84  C   UNL A   1      38.896  30.281  29.466  1.00  0.00     0.031 A 
ATOM     85  C   UNL A   1      38.926  28.402  30.963  1.00  0.00     0.131 A 
ATOM     86  C   UNL A   1      37.481  30.313  29.593  1.00  0.00     0.055 A 
ATOM     87  C   UNL A   1      37.532  28.436  31.079  1.00  0.00     0.041 A 
ATOM     88  F   UNL A   1      39.532  27.388  31.599  1.00  0.00    -0.206 F 
ATOM     89  C   UNL A   1      36.803  29.386  30.386  1.00  0.00     0.022 A 
BRANCH  86  90
ATOM     90  S   UNL A   1      36.465  31.527  28.674  1.00  0.00     0.124 S 
ATOM     91  O   UNL A   1      37.330  32.700  28.642  1.00  0.00    -0.237 OA
ATOM     92  O   UNL A   1      36.237  30.852  27.402  1.00  0.00    -0.237 OA
ATOM     93  O   UNL A   1      35.269  31.675  29.506  1.00  0.00    -0.744 OA
ENDBRANCH  86  90
ENDBRANCH  59  83
BRANCH  71  94
ATOM     94  C   UNL A   1      45.544  29.760  27.840  1.00  0.00     0.023 A 
ATOM     95  C   UNL A   1      45.715  30.905  27.025  1.00  0.00     0.031 A 
ATOM     96  C   UNL A   1      45.951  29.852  29.182  1.00  0.00     0.131 A 
ATOM     97  C   UNL A   1      46.286  32.078  27.569  1.00  0.00     0.055 A 
ATOM     98  C   UNL A   1      46.489  31.018  29.720  1.00  0.00     0.041 A 
ATOM     99  F   UNL A   1      45.795  28.807  30.013  1.00  0.00    -0.206 F 
ATOM    100  C   UNL A   1      46.665  32.134  28.914  1.00  0.00     0.022 A 
BRANCH  97 101
ATOM    101  S   UNL A   1      46.576  33.552  26.533  1.00  0.00     0.124 S 
ATOM    102  O   UNL A   1      45.578  33.427  25.478  1.00  0.00    -0.237 OA
ATOM    103  O   UNL A   1      46.375  34.646  27.479  1.00  0.00    -0.237 OA
ATOM    104  O   UNL A   1      47.960  33.386  26.085  1.00  0.00    -0.744 OA
ENDBRANCH  97 101
ENDBRANCH  71  94
ENDBRANCH  45  46
ENDBRANCH  38  40
ENDBRANCH  37  38
ENDBRANCH  36  37
ENDBRANCH  35  36
ENDBRANCH  34  35
ENDBRANCH   1  34
TORSDOF 22
ENDMDL
